MODEL 1
REMARK VINA RESULT:    -3.571      0.000      0.000
REMARK INTER + INTRA:          -8.629
REMARK INTER:                  -6.493
REMARK INTRA:                  -2.136
REMARK UNBOUND:                -2.136
REMARK SMILES CCCCCCCCCCCCCCCC(=O)[O-]
REMARK SMILES IDX 9 1 10 2 11 3 12 4 13 5 14 6 15 7 16 8 17 9 18 10 8 11 7 12
REMARK SMILES IDX 6 13 5 14 4 15 3 16 2 17 1 18
REMARK H PARENT
REMARK Flexibility Score: inf
ROOT
ATOM      1  C   UNL     1      51.651 -40.701 -29.922  1.00  0.00     0.000 C 
ENDROOT
BRANCH   1   2
ATOM      2  C   UNL     1      52.023 -41.883 -30.840  1.00  0.00     0.000 C 
BRANCH   2   3
ATOM      3  C   UNL     1      51.012 -43.046 -30.844  1.00  0.00     0.000 C 
BRANCH   3   4
ATOM      4  C   UNL     1      50.597 -43.547 -29.448  1.00  0.00     0.000 C 
BRANCH   4   5
ATOM      5  C   UNL     1      49.096 -43.356 -29.140  1.00  0.00     0.000 C 
BRANCH   5   6
ATOM      6  C   UNL     1      48.858 -42.637 -27.804  1.00  0.00     0.006 C 
BRANCH   6   7
ATOM      7  C   UNL     1      48.644 -41.135 -28.019  1.00  0.00     0.053 C 
BRANCH   7   8
ATOM      8  C   UNL     1      47.414 -40.674 -27.302  1.00  0.00     0.041 C 
ATOM      9  O   UNL     1      47.131 -39.448 -27.255  1.00  0.00    -0.550 OA
ATOM     10  O   UNL     1      46.551 -41.601 -26.734  1.00  0.00    -0.550 OA
ENDBRANCH   7   8
ENDBRANCH   6   7
ENDBRANCH   5   6
ENDBRANCH   4   5
ENDBRANCH   3   4
ENDBRANCH   2   3
ENDBRANCH   1   2
BRANCH   1  11
ATOM     11  C   UNL     1      52.650 -40.414 -28.783  1.00  0.00     0.000 C 
BRANCH  11  12
ATOM     12  C   UNL     1      53.625 -41.562 -28.468  1.00  0.00    -0.000 C 
BRANCH  12  13
ATOM     13  C   UNL     1      53.615 -41.964 -26.986  1.00  0.00    -0.000 C 
BRANCH  13  14
ATOM     14  C   UNL     1      53.384 -43.471 -26.827  1.00  0.00    -0.000 C 
BRANCH  14  15
ATOM     15  C   UNL     1      52.064 -43.753 -26.099  1.00  0.00    -0.000 C 
BRANCH  15  16
ATOM     16  C   UNL     1      51.591 -42.517 -25.319  1.00  0.00    -0.000 C 
BRANCH  16  17
ATOM     17  C   UNL     1      50.948 -42.878 -23.972  1.00  0.00    -0.003 C 
ATOM     18  C   UNL     1      49.988 -44.065 -24.075  1.00  0.00     0.004 C 
ENDBRANCH  16  17
ENDBRANCH  15  16
ENDBRANCH  14  15
ENDBRANCH  13  14
ENDBRANCH  12  13
ENDBRANCH  11  12
ENDBRANCH   1  11
TORSDOF 14
ENDMDL
MODEL 2
REMARK VINA RESULT:    -3.514      5.172      7.107
REMARK INTER + INTRA:          -8.525
REMARK INTER:                  -6.075
REMARK INTRA:                  -2.450
REMARK UNBOUND:                -2.136
REMARK SMILES CCCCCCCCCCCCCCCC(=O)[O-]
REMARK SMILES IDX 9 1 10 2 11 3 12 4 13 5 14 6 15 7 16 8 17 9 18 10 8 11 7 12
REMARK SMILES IDX 6 13 5 14 4 15 3 16 2 17 1 18
REMARK H PARENT
REMARK Flexibility Score: inf
ROOT
ATOM      1  C   UNL     1      54.228 -41.606 -26.080  1.00  0.00     0.000 C 
ENDROOT
BRANCH   1   2
ATOM      2  C   UNL     1      55.421 -42.321 -25.414  1.00  0.00     0.000 C 
BRANCH   2   3
ATOM      3  C   UNL     1      56.109 -43.388 -26.288  1.00  0.00     0.000 C 
BRANCH   3   4
ATOM      4  C   UNL     1      56.006 -43.146 -27.805  1.00  0.00     0.000 C 
BRANCH   4   5
ATOM      5  C   UNL     1      57.308 -42.609 -28.439  1.00  0.00     0.000 C 
BRANCH   5   6
ATOM      6  C   UNL     1      57.165 -42.352 -29.946  1.00  0.00     0.006 C 
BRANCH   6   7
ATOM      7  C   UNL     1      55.691 -42.234 -30.346  1.00  0.00     0.053 C 
BRANCH   7   8
ATOM      8  C   UNL     1      55.462 -40.991 -31.147  1.00  0.00     0.041 C 
ATOM      9  O   UNL     1      56.300 -40.051 -31.110  1.00  0.00    -0.550 OA
ATOM     10  O   UNL     1      54.353 -40.892 -31.976  1.00  0.00    -0.550 OA
ENDBRANCH   7   8
ENDBRANCH   6   7
ENDBRANCH   5   6
ENDBRANCH   4   5
ENDBRANCH   3   4
ENDBRANCH   2   3
ENDBRANCH   1   2
BRANCH   1  11
ATOM     11  C   UNL     1      54.405 -40.088 -26.289  1.00  0.00     0.000 C 
BRANCH  11  12
ATOM     12  C   UNL     1      54.822 -39.671 -27.710  1.00  0.00    -0.000 C 
BRANCH  12  13
ATOM     13  C   UNL     1      56.096 -38.813 -27.730  1.00  0.00    -0.000 C 
BRANCH  13  14
ATOM     14  C   UNL     1      57.167 -39.397 -26.801  1.00  0.00    -0.000 C 
BRANCH  14  15
ATOM     15  C   UNL     1      58.056 -38.291 -26.221  1.00  0.00    -0.000 C 
BRANCH  15  16
ATOM     16  C   UNL     1      57.901 -38.206 -24.694  1.00  0.00    -0.000 C 
BRANCH  16  17
ATOM     17  C   UNL     1      57.276 -39.473 -24.093  1.00  0.00    -0.003 C 
ATOM     18  C   UNL     1      56.077 -39.170 -23.192  1.00  0.00     0.004 C 
ENDBRANCH  16  17
ENDBRANCH  15  16
ENDBRANCH  14  15
ENDBRANCH  13  14
ENDBRANCH  12  13
ENDBRANCH  11  12
ENDBRANCH   1  11
TORSDOF 14
ENDMDL
MODEL 3
REMARK VINA RESULT:    -3.503      4.369      5.559
REMARK INTER + INTRA:          -8.505
REMARK INTER:                  -6.389
REMARK INTRA:                  -2.116
REMARK UNBOUND:                -2.136
REMARK SMILES CCCCCCCCCCCCCCCC(=O)[O-]
REMARK SMILES IDX 9 1 10 2 11 3 12 4 13 5 14 6 15 7 16 8 17 9 18 10 8 11 7 12
REMARK SMILES IDX 6 13 5 14 4 15 3 16 2 17 1 18
REMARK H PARENT
REMARK Flexibility Score: inf
ROOT
ATOM      1  C   UNL     1      55.593 -40.205 -29.183  1.00  0.00     0.000 C 
ENDROOT
BRANCH   1   2
ATOM      2  C   UNL     1      54.786 -39.649 -27.993  1.00  0.00     0.000 C 
BRANCH   2   3
ATOM      3  C   UNL     1      53.262 -39.591 -28.211  1.00  0.00     0.000 C 
BRANCH   3   4
ATOM      4  C   UNL     1      52.645 -40.871 -28.808  1.00  0.00     0.000 C 
BRANCH   4   5
ATOM      5  C   UNL     1      52.051 -40.674 -30.219  1.00  0.00     0.000 C 
BRANCH   5   6
ATOM      6  C   UNL     1      52.887 -41.360 -31.309  1.00  0.00     0.006 C 
BRANCH   6   7
ATOM      7  C   UNL     1      53.230 -40.380 -32.436  1.00  0.00     0.053 C 
BRANCH   7   8
ATOM      8  C   UNL     1      54.462 -40.824 -33.159  1.00  0.00     0.041 C 
ATOM      9  O   UNL     1      54.404 -41.137 -34.377  1.00  0.00    -0.550 OA
ATOM     10  O   UNL     1      55.686 -40.839 -32.502  1.00  0.00    -0.550 OA
ENDBRANCH   7   8
ENDBRANCH   6   7
ENDBRANCH   5   6
ENDBRANCH   4   5
ENDBRANCH   3   4
ENDBRANCH   2   3
ENDBRANCH   1   2
BRANCH   1  11
ATOM     11  C   UNL     1      56.560 -41.356 -28.840  1.00  0.00     0.000 C 
BRANCH  11  12
ATOM     12  C   UNL     1      55.898 -42.736 -28.681  1.00  0.00    -0.000 C 
BRANCH  12  13
ATOM     13  C   UNL     1      56.598 -43.616 -27.635  1.00  0.00    -0.000 C 
BRANCH  13  14
ATOM     14  C   UNL     1      55.748 -43.741 -26.364  1.00  0.00    -0.000 C 
BRANCH  14  15
ATOM     15  C   UNL     1      55.979 -42.550 -25.427  1.00  0.00    -0.000 C 
BRANCH  15  16
ATOM     16  C   UNL     1      54.675 -41.773 -25.193  1.00  0.00    -0.000 C 
BRANCH  16  17
ATOM     17  C   UNL     1      53.437 -42.532 -25.693  1.00  0.00    -0.003 C 
ATOM     18  C   UNL     1      52.133 -41.987 -25.109  1.00  0.00     0.004 C 
ENDBRANCH  16  17
ENDBRANCH  15  16
ENDBRANCH  14  15
ENDBRANCH  13  14
ENDBRANCH  12  13
ENDBRANCH  11  12
ENDBRANCH   1  11
TORSDOF 14
ENDMDL
MODEL 4
REMARK VINA RESULT:    -3.494      4.344      6.811
REMARK INTER + INTRA:          -8.489
REMARK INTER:                  -6.617
REMARK INTRA:                  -1.872
REMARK UNBOUND:                -2.136
REMARK SMILES CCCCCCCCCCCCCCCC(=O)[O-]
REMARK SMILES IDX 9 1 10 2 11 3 12 4 13 5 14 6 15 7 16 8 17 9 18 10 8 11 7 12
REMARK SMILES IDX 6 13 5 14 4 15 3 16 2 17 1 18
REMARK H PARENT
REMARK Flexibility Score: inf
ROOT
ATOM      1  C   UNL     1      52.293 -40.389 -28.906  1.00  0.00     0.000 C 
ENDROOT
BRANCH   1   2
ATOM      2  C   UNL     1      52.559 -41.706 -28.151  1.00  0.00     0.000 C 
BRANCH   2   3
ATOM      3  C   UNL     1      52.624 -41.575 -26.617  1.00  0.00     0.000 C 
BRANCH   3   4
ATOM      4  C   UNL     1      53.686 -42.459 -25.936  1.00  0.00     0.000 C 
BRANCH   4   5
ATOM      5  C   UNL     1      55.132 -41.950 -26.125  1.00  0.00     0.000 C 
BRANCH   5   6
ATOM      6  C   UNL     1      55.839 -41.679 -24.789  1.00  0.00     0.006 C 
BRANCH   6   7
ATOM      7  C   UNL     1      55.112 -40.590 -23.995  1.00  0.00     0.053 C 
BRANCH   7   8
ATOM      8  C   UNL     1      56.088 -39.587 -23.466  1.00  0.00     0.041 C 
ATOM      9  O   UNL     1      55.799 -38.893 -22.456  1.00  0.00    -0.550 OA
ATOM     10  O   UNL     1      57.339 -39.457 -24.055  1.00  0.00    -0.550 OA
ENDBRANCH   7   8
ENDBRANCH   6   7
ENDBRANCH   5   6
ENDBRANCH   4   5
ENDBRANCH   3   4
ENDBRANCH   2   3
ENDBRANCH   1   2
BRANCH   1  11
ATOM     11  C   UNL     1      51.756 -40.551 -30.342  1.00  0.00     0.000 C 
BRANCH  11  12
ATOM     12  C   UNL     1      52.580 -41.488 -31.243  1.00  0.00    -0.000 C 
BRANCH  12  13
ATOM     13  C   UNL     1      53.533 -40.730 -32.178  1.00  0.00    -0.000 C 
BRANCH  13  14
ATOM     14  C   UNL     1      54.991 -41.126 -31.915  1.00  0.00    -0.000 C 
BRANCH  14  15
ATOM     15  C   UNL     1      55.081 -42.227 -30.853  1.00  0.00    -0.000 C 
BRANCH  15  16
ATOM     16  C   UNL     1      56.011 -41.809 -29.704  1.00  0.00    -0.000 C 
BRANCH  16  17
ATOM     17  C   UNL     1      55.904 -40.314 -29.372  1.00  0.00    -0.003 C 
ATOM     18  C   UNL     1      57.121 -39.789 -28.609  1.00  0.00     0.004 C 
ENDBRANCH  16  17
ENDBRANCH  15  16
ENDBRANCH  14  15
ENDBRANCH  13  14
ENDBRANCH  12  13
ENDBRANCH  11  12
ENDBRANCH   1  11
TORSDOF 14
ENDMDL
MODEL 5
REMARK VINA RESULT:    -3.457      3.431      5.919
REMARK INTER + INTRA:          -8.422
REMARK INTER:                  -6.407
REMARK INTRA:                  -2.015
REMARK UNBOUND:                -2.136
REMARK SMILES CCCCCCCCCCCCCCCC(=O)[O-]
REMARK SMILES IDX 9 1 10 2 11 3 12 4 13 5 14 6 15 7 16 8 17 9 18 10 8 11 7 12
REMARK SMILES IDX 6 13 5 14 4 15 3 16 2 17 1 18
REMARK H PARENT
REMARK Flexibility Score: inf
ROOT
ATOM      1  C   UNL     1      52.445 -40.716 -28.636  1.00  0.00     0.000 C 
ENDROOT
BRANCH   1   2
ATOM      2  C   UNL     1      52.485 -41.942 -27.702  1.00  0.00     0.000 C 
BRANCH   2   3
ATOM      3  C   UNL     1      51.781 -41.750 -26.345  1.00  0.00     0.000 C 
BRANCH   3   4
ATOM      4  C   UNL     1      52.698 -41.886 -25.115  1.00  0.00     0.000 C 
BRANCH   4   5
ATOM      5  C   UNL     1      53.609 -40.661 -24.881  1.00  0.00     0.000 C 
BRANCH   5   6
ATOM      6  C   UNL     1      55.051 -41.060 -24.534  1.00  0.00     0.006 C 
BRANCH   6   7
ATOM      7  C   UNL     1      56.038 -40.500 -25.563  1.00  0.00     0.053 C 
BRANCH   7   8
ATOM      8  C   UNL     1      56.075 -41.370 -26.780  1.00  0.00     0.041 C 
ATOM      9  O   UNL     1      56.173 -42.620 -26.662  1.00  0.00    -0.550 OA
ATOM     10  O   UNL     1      55.946 -40.806 -28.042  1.00  0.00    -0.550 OA
ENDBRANCH   7   8
ENDBRANCH   6   7
ENDBRANCH   5   6
ENDBRANCH   4   5
ENDBRANCH   3   4
ENDBRANCH   2   3
ENDBRANCH   1   2
BRANCH   1  11
ATOM     11  C   UNL     1      51.599 -40.890 -29.914  1.00  0.00     0.000 C 
BRANCH  11  12
ATOM     12  C   UNL     1      51.838 -42.204 -30.678  1.00  0.00    -0.000 C 
BRANCH  12  13
ATOM     13  C   UNL     1      50.594 -43.104 -30.721  1.00  0.00    -0.000 C 
BRANCH  13  14
ATOM     14  C   UNL     1      49.416 -42.449 -29.989  1.00  0.00    -0.000 C 
BRANCH  14  15
ATOM     15  C   UNL     1      48.960 -43.305 -28.802  1.00  0.00    -0.000 C 
BRANCH  15  16
ATOM     16  C   UNL     1      48.451 -42.424 -27.651  1.00  0.00    -0.000 C 
BRANCH  16  17
ATOM     17  C   UNL     1      48.488 -40.927 -27.993  1.00  0.00    -0.003 C 
ATOM     18  C   UNL     1      47.419 -40.125 -27.250  1.00  0.00     0.004 C 
ENDBRANCH  16  17
ENDBRANCH  15  16
ENDBRANCH  14  15
ENDBRANCH  13  14
ENDBRANCH  12  13
ENDBRANCH  11  12
ENDBRANCH   1  11
TORSDOF 14
ENDMDL
MODEL 6
REMARK VINA RESULT:    -3.433      3.802      6.448
REMARK INTER + INTRA:          -8.379
REMARK INTER:                  -6.185
REMARK INTRA:                  -2.194
REMARK UNBOUND:                -2.136
REMARK SMILES CCCCCCCCCCCCCCCC(=O)[O-]
REMARK SMILES IDX 9 1 10 2 11 3 12 4 13 5 14 6 15 7 16 8 17 9 18 10 8 11 7 12
REMARK SMILES IDX 6 13 5 14 4 15 3 16 2 17 1 18
REMARK H PARENT
REMARK Flexibility Score: inf
ROOT
ATOM      1  C   UNL     1      51.026 -43.445 -27.829  1.00  0.00     0.000 C 
ENDROOT
BRANCH   1   2
ATOM      2  C   UNL     1      51.851 -44.073 -26.688  1.00  0.00     0.000 C 
BRANCH   2   3
ATOM      3  C   UNL     1      53.372 -44.121 -26.935  1.00  0.00     0.000 C 
BRANCH   3   4
ATOM      4  C   UNL     1      54.158 -42.929 -26.358  1.00  0.00     0.000 C 
BRANCH   4   5
ATOM      5  C   UNL     1      53.296 -41.966 -25.513  1.00  0.00     0.000 C 
BRANCH   5   6
ATOM      6  C   UNL     1      54.145 -41.002 -24.672  1.00  0.00     0.006 C 
BRANCH   6   7
ATOM      7  C   UNL     1      55.617 -41.424 -24.672  1.00  0.00     0.053 C 
BRANCH   7   8
ATOM      8  C   UNL     1      56.497 -40.253 -24.979  1.00  0.00     0.041 C 
ATOM      9  O   UNL     1      56.613 -39.841 -26.163  1.00  0.00    -0.550 OA
ATOM     10  O   UNL     1      57.148 -39.584 -23.951  1.00  0.00    -0.550 OA
ENDBRANCH   7   8
ENDBRANCH   6   7
ENDBRANCH   5   6
ENDBRANCH   4   5
ENDBRANCH   3   4
ENDBRANCH   2   3
ENDBRANCH   1   2
BRANCH   1  11
ATOM     11  C   UNL     1      51.377 -43.943 -29.246  1.00  0.00     0.000 C 
BRANCH  11  12
ATOM     12  C   UNL     1      50.765 -43.124 -30.395  1.00  0.00    -0.000 C 
BRANCH  12  13
ATOM     13  C   UNL     1      50.498 -41.662 -30.009  1.00  0.00    -0.000 C 
BRANCH  13  14
ATOM     14  C   UNL     1      51.686 -40.768 -30.387  1.00  0.00    -0.000 C 
BRANCH  14  15
ATOM     15  C   UNL     1      52.485 -40.359 -29.144  1.00  0.00    -0.000 C 
BRANCH  15  16
ATOM     16  C   UNL     1      53.929 -40.879 -29.223  1.00  0.00    -0.000 C 
BRANCH  16  17
ATOM     17  C   UNL     1      54.176 -41.750 -30.464  1.00  0.00    -0.003 C 
ATOM     18  C   UNL     1      55.074 -42.952 -30.173  1.00  0.00     0.004 C 
ENDBRANCH  16  17
ENDBRANCH  15  16
ENDBRANCH  14  15
ENDBRANCH  13  14
ENDBRANCH  12  13
ENDBRANCH  11  12
ENDBRANCH   1  11
TORSDOF 14
ENDMDL
MODEL 7
REMARK VINA RESULT:    -3.430      3.992      6.288
REMARK INTER + INTRA:          -8.373
REMARK INTER:                  -5.971
REMARK INTRA:                  -2.401
REMARK UNBOUND:                -2.136
REMARK SMILES CCCCCCCCCCCCCCCC(=O)[O-]
REMARK SMILES IDX 9 1 10 2 11 3 12 4 13 5 14 6 15 7 16 8 17 9 18 10 8 11 7 12
REMARK SMILES IDX 6 13 5 14 4 15 3 16 2 17 1 18
REMARK H PARENT
REMARK Flexibility Score: inf
ROOT
ATOM      1  C   UNL     1      54.517 -40.947 -24.516  1.00  0.00     0.000 C 
ENDROOT
BRANCH   1   2
ATOM      2  C   UNL     1      55.851 -41.712 -24.632  1.00  0.00     0.000 C 
BRANCH   2   3
ATOM      3  C   UNL     1      56.144 -42.299 -26.027  1.00  0.00     0.000 C 
BRANCH   3   4
ATOM      4  C   UNL     1      55.850 -43.804 -26.170  1.00  0.00     0.000 C 
BRANCH   4   5
ATOM      5  C   UNL     1      54.390 -44.118 -26.561  1.00  0.00     0.000 C 
BRANCH   5   6
ATOM      6  C   UNL     1      53.934 -43.339 -27.803  1.00  0.00     0.006 C 
BRANCH   6   7
ATOM      7  C   UNL     1      52.717 -42.465 -27.488  1.00  0.00     0.053 C 
BRANCH   7   8
ATOM      8  C   UNL     1      52.162 -41.867 -28.742  1.00  0.00     0.041 C 
ATOM      9  O   UNL     1      51.284 -40.967 -28.680  1.00  0.00    -0.550 OA
ATOM     10  O   UNL     1      52.652 -42.266 -29.978  1.00  0.00    -0.550 OA
ENDBRANCH   7   8
ENDBRANCH   6   7
ENDBRANCH   5   6
ENDBRANCH   4   5
ENDBRANCH   3   4
ENDBRANCH   2   3
ENDBRANCH   1   2
BRANCH   1  11
ATOM     11  C   UNL     1      54.557 -39.688 -23.626  1.00  0.00     0.000 C 
BRANCH  11  12
ATOM     12  C   UNL     1      55.956 -39.289 -23.125  1.00  0.00    -0.000 C 
BRANCH  12  13
ATOM     13  C   UNL     1      56.582 -38.153 -23.946  1.00  0.00    -0.000 C 
BRANCH  13  14
ATOM     14  C   UNL     1      57.856 -38.626 -24.656  1.00  0.00    -0.000 C 
BRANCH  14  15
ATOM     15  C   UNL     1      57.677 -38.613 -26.178  1.00  0.00    -0.000 C 
BRANCH  15  16
ATOM     16  C   UNL     1      56.296 -38.062 -26.565  1.00  0.00    -0.000 C 
BRANCH  16  17
ATOM     17  C   UNL     1      55.564 -38.960 -27.573  1.00  0.00    -0.003 C 
ATOM     18  C   UNL     1      54.042 -38.877 -27.442  1.00  0.00     0.004 C 
ENDBRANCH  16  17
ENDBRANCH  15  16
ENDBRANCH  14  15
ENDBRANCH  13  14
ENDBRANCH  12  13
ENDBRANCH  11  12
ENDBRANCH   1  11
TORSDOF 14
ENDMDL
MODEL 8
REMARK VINA RESULT:    -3.429      4.329      6.511
REMARK INTER + INTRA:          -8.371
REMARK INTER:                  -6.063
REMARK INTRA:                  -2.308
REMARK UNBOUND:                -2.136
REMARK SMILES CCCCCCCCCCCCCCCC(=O)[O-]
REMARK SMILES IDX 9 1 10 2 11 3 12 4 13 5 14 6 15 7 16 8 17 9 18 10 8 11 7 12
REMARK SMILES IDX 6 13 5 14 4 15 3 16 2 17 1 18
REMARK H PARENT
REMARK Flexibility Score: inf
ROOT
ATOM      1  C   UNL     1      56.759 -40.614 -28.868  1.00  0.00     0.000 C 
ENDROOT
BRANCH   1   2
ATOM      2  C   UNL     1      57.617 -41.885 -29.023  1.00  0.00     0.000 C 
BRANCH   2   3
ATOM      3  C   UNL     1      57.015 -43.157 -28.394  1.00  0.00     0.000 C 
BRANCH   3   4
ATOM      4  C   UNL     1      55.759 -42.920 -27.533  1.00  0.00     0.000 C 
BRANCH   4   5
ATOM      5  C   UNL     1      55.857 -43.519 -26.113  1.00  0.00     0.000 C 
BRANCH   5   6
ATOM      6  C   UNL     1      56.079 -42.446 -25.038  1.00  0.00     0.006 C 
BRANCH   6   7
ATOM      7  C   UNL     1      55.385 -41.134 -25.419  1.00  0.00     0.053 C 
BRANCH   7   8
ATOM      8  C   UNL     1      55.711 -40.062 -24.427  1.00  0.00     0.041 C 
ATOM      9  O   UNL     1      54.812 -39.276 -24.026  1.00  0.00    -0.550 OA
ATOM     10  O   UNL     1      56.993 -39.965 -23.904  1.00  0.00    -0.550 OA
ENDBRANCH   7   8
ENDBRANCH   6   7
ENDBRANCH   5   6
ENDBRANCH   4   5
ENDBRANCH   3   4
ENDBRANCH   2   3
ENDBRANCH   1   2
BRANCH   1  11
ATOM     11  C   UNL     1      56.225 -40.017 -30.185  1.00  0.00     0.000 C 
BRANCH  11  12
ATOM     12  C   UNL     1      55.951 -41.041 -31.300  1.00  0.00    -0.000 C 
BRANCH  12  13
ATOM     13  C   UNL     1      54.611 -41.770 -31.125  1.00  0.00    -0.000 C 
BRANCH  13  14
ATOM     14  C   UNL     1      53.446 -40.908 -31.626  1.00  0.00    -0.000 C 
BRANCH  14  15
ATOM     15  C   UNL     1      52.344 -40.801 -30.566  1.00  0.00    -0.000 C 
BRANCH  15  16
ATOM     16  C   UNL     1      52.745 -41.536 -29.278  1.00  0.00    -0.000 C 
BRANCH  16  17
ATOM     17  C   UNL     1      52.499 -40.694 -28.017  1.00  0.00    -0.003 C 
ATOM     18  C   UNL     1      53.319 -39.404 -27.999  1.00  0.00     0.004 C 
ENDBRANCH  16  17
ENDBRANCH  15  16
ENDBRANCH  14  15
ENDBRANCH  13  14
ENDBRANCH  12  13
ENDBRANCH  11  12
ENDBRANCH   1  11
TORSDOF 14
ENDMDL
MODEL 9
REMARK VINA RESULT:    -3.353      3.933      6.328
REMARK INTER + INTRA:          -8.233
REMARK INTER:                  -5.538
REMARK INTRA:                  -2.696
REMARK UNBOUND:                -2.136
REMARK SMILES CCCCCCCCCCCCCCCC(=O)[O-]
REMARK SMILES IDX 9 1 10 2 11 3 12 4 13 5 14 6 15 7 16 8 17 9 18 10 8 11 7 12
REMARK SMILES IDX 6 13 5 14 4 15 3 16 2 17 1 18
REMARK H PARENT
REMARK Flexibility Score: inf
ROOT
ATOM      1  C   UNL     1      55.981 -42.578 -27.358  1.00  0.00     0.000 C 
ENDROOT
BRANCH   1   2
ATOM      2  C   UNL     1      55.164 -41.886 -28.468  1.00  0.00     0.000 C 
BRANCH   2   3
ATOM      3  C   UNL     1      54.991 -40.365 -28.296  1.00  0.00     0.000 C 
BRANCH   3   4
ATOM      4  C   UNL     1      55.406 -39.819 -26.916  1.00  0.00     0.000 C 
BRANCH   4   5
ATOM      5  C   UNL     1      54.212 -39.491 -25.993  1.00  0.00     0.000 C 
BRANCH   5   6
ATOM      6  C   UNL     1      54.025 -40.535 -24.882  1.00  0.00     0.006 C 
BRANCH   6   7
ATOM      7  C   UNL     1      55.336 -40.776 -24.129  1.00  0.00     0.053 C 
BRANCH   7   8
ATOM      8  C   UNL     1      55.665 -39.603 -23.261  1.00  0.00     0.041 C 
ATOM      9  O   UNL     1      54.941 -39.326 -22.268  1.00  0.00    -0.550 OA
ATOM     10  O   UNL     1      56.801 -38.846 -23.515  1.00  0.00    -0.550 OA
ENDBRANCH   7   8
ENDBRANCH   6   7
ENDBRANCH   5   6
ENDBRANCH   4   5
ENDBRANCH   3   4
ENDBRANCH   2   3
ENDBRANCH   1   2
BRANCH   1  11
ATOM     11  C   UNL     1      55.222 -43.657 -26.559  1.00  0.00     0.000 C 
BRANCH  11  12
ATOM     12  C   UNL     1      53.898 -44.123 -27.189  1.00  0.00    -0.000 C 
BRANCH  12  13
ATOM     13  C   UNL     1      52.666 -43.677 -26.388  1.00  0.00    -0.000 C 
BRANCH  13  14
ATOM     14  C   UNL     1      51.559 -43.168 -27.320  1.00  0.00    -0.000 C 
BRANCH  14  15
ATOM     15  C   UNL     1      51.569 -41.637 -27.404  1.00  0.00    -0.000 C 
BRANCH  15  16
ATOM     16  C   UNL     1      51.134 -41.161 -28.799  1.00  0.00    -0.000 C 
BRANCH  16  17
ATOM     17  C   UNL     1      51.762 -41.990 -29.929  1.00  0.00    -0.003 C 
ATOM     18  C   UNL     1      52.378 -41.122 -31.026  1.00  0.00     0.004 C 
ENDBRANCH  16  17
ENDBRANCH  15  16
ENDBRANCH  14  15
ENDBRANCH  13  14
ENDBRANCH  12  13
ENDBRANCH  11  12
ENDBRANCH   1  11
TORSDOF 14
ENDMDL
