MODEL 1
REMARK VINA RESULT:    -5.346      0.000      0.000
REMARK INTER + INTRA:         -18.432
REMARK INTER:                 -14.098
REMARK INTRA:                  -4.334
REMARK UNBOUND:                -4.334
REMARK SMILES CCCCCCCCCCCCCCCCCCCCCCCCCCCCCC(=O)[O-]
REMARK SMILES IDX 16 1 17 2 18 3 19 4 20 5 21 6 22 7 23 8 24 9 25 10 26 11
REMARK SMILES IDX 27 12 28 13 29 14 30 15 31 16 32 17 15 18 14 19 13 20 12 21
REMARK SMILES IDX 11 22 10 23 9 24 8 25 7 26 6 27 5 28 4 29 3 30 2 31 1 32
REMARK H PARENT
REMARK Flexibility Score: inf
ROOT
ATOM      1  C   UNL     1      -9.922 -34.499  44.441  1.00  0.00     0.000 C 
ENDROOT
BRANCH   1   2
ATOM      2  C   UNL     1      -9.966 -34.757  42.924  1.00  0.00     0.000 C 
BRANCH   2   3
ATOM      3  C   UNL     1     -10.401 -33.539  42.082  1.00  0.00     0.000 C 
BRANCH   3   4
ATOM      4  C   UNL     1      -9.551 -33.356  40.811  1.00  0.00     0.000 C 
BRANCH   4   5
ATOM      5  C   UNL     1      -8.062 -33.138  41.126  1.00  0.00     0.000 C 
BRANCH   5   6
ATOM      6  C   UNL     1      -7.825 -31.892  41.997  1.00  0.00     0.000 C 
BRANCH   6   7
ATOM      7  C   UNL     1      -7.237 -32.240  43.373  1.00  0.00     0.000 C 
BRANCH   7   8
ATOM      8  C   UNL     1      -6.680 -31.007  44.105  1.00  0.00     0.000 C 
BRANCH   8   9
ATOM      9  C   UNL     1      -5.536 -31.364  45.068  1.00  0.00     0.000 C 
BRANCH   9  10
ATOM     10  C   UNL     1      -5.361 -30.321  46.185  1.00  0.00     0.000 C 
BRANCH  10  11
ATOM     11  C   UNL     1      -5.963 -30.791  47.527  1.00  0.00     0.000 C 
BRANCH  11  12
ATOM     12  C   UNL     1      -5.675 -32.268  47.860  1.00  0.00     0.000 C 
BRANCH  12  13
ATOM     13  C   UNL     1      -6.914 -33.114  48.209  1.00  0.00     0.006 C 
BRANCH  13  14
ATOM     14  C   UNL     1      -8.118 -32.885  47.281  1.00  0.00     0.053 C 
BRANCH  14  15
ATOM     15  C   UNL     1      -9.308 -32.368  48.027  1.00  0.00     0.041 C 
ATOM     16  O   UNL     1     -10.231 -33.155  48.368  1.00  0.00    -0.550 OA
ATOM     17  O   UNL     1      -9.421 -31.013  48.308  1.00  0.00    -0.550 OA
ENDBRANCH  14  15
ENDBRANCH  13  14
ENDBRANCH  12  13
ENDBRANCH  11  12
ENDBRANCH  10  11
ENDBRANCH   9  10
ENDBRANCH   8   9
ENDBRANCH   7   8
ENDBRANCH   6   7
ENDBRANCH   5   6
ENDBRANCH   4   5
ENDBRANCH   3   4
ENDBRANCH   2   3
ENDBRANCH   1   2
BRANCH   1  18
ATOM     18  C   UNL     1     -10.702 -35.502  45.312  1.00  0.00     0.000 C 
BRANCH  18  19
ATOM     19  C   UNL     1      -9.864 -36.655  45.897  1.00  0.00     0.000 C 
BRANCH  19  20
ATOM     20  C   UNL     1      -9.375 -36.379  47.326  1.00  0.00     0.000 C 
BRANCH  20  21
ATOM     21  C   UNL     1      -8.416 -37.484  47.793  1.00  0.00     0.000 C 
BRANCH  21  22
ATOM     22  C   UNL     1      -8.412 -38.708  46.862  1.00  0.00     0.000 C 
BRANCH  22  23
ATOM     23  C   UNL     1      -8.454 -40.073  47.580  1.00  0.00     0.000 C 
BRANCH  23  24
ATOM     24  C   UNL     1      -9.210 -40.087  48.922  1.00  0.00    -0.000 C 
BRANCH  24  25
ATOM     25  C   UNL     1     -10.722 -40.371  48.818  1.00  0.00    -0.000 C 
BRANCH  25  26
ATOM     26  C   UNL     1     -11.570 -39.126  48.481  1.00  0.00    -0.000 C 
BRANCH  26  27
ATOM     27  C   UNL     1     -12.311 -39.258  47.140  1.00  0.00    -0.000 C 
BRANCH  27  28
ATOM     28  C   UNL     1     -12.063 -40.631  46.504  1.00  0.00    -0.000 C 
BRANCH  28  29
ATOM     29  C   UNL     1     -11.250 -40.494  45.208  1.00  0.00    -0.000 C 
BRANCH  29  30
ATOM     30  C   UNL     1     -12.014 -40.989  43.971  1.00  0.00    -0.000 C 
BRANCH  30  31
ATOM     31  C   UNL     1     -12.048 -39.951  42.840  1.00  0.00    -0.003 C 
ATOM     32  C   UNL     1     -11.889 -38.535  43.390  1.00  0.00     0.004 C 
ENDBRANCH  30  31
ENDBRANCH  29  30
ENDBRANCH  28  29
ENDBRANCH  27  28
ENDBRANCH  26  27
ENDBRANCH  25  26
ENDBRANCH  24  25
ENDBRANCH  23  24
ENDBRANCH  22  23
ENDBRANCH  21  22
ENDBRANCH  20  21
ENDBRANCH  19  20
ENDBRANCH  18  19
ENDBRANCH   1  18
TORSDOF 28
ENDMDL
MODEL 2
REMARK VINA RESULT:    -5.322      3.551      9.252
REMARK INTER + INTRA:         -18.368
REMARK INTER:                 -13.873
REMARK INTRA:                  -4.495
REMARK UNBOUND:                -4.334
REMARK SMILES CCCCCCCCCCCCCCCCCCCCCCCCCCCCCC(=O)[O-]
REMARK SMILES IDX 16 1 17 2 18 3 19 4 20 5 21 6 22 7 23 8 24 9 25 10 26 11
REMARK SMILES IDX 27 12 28 13 29 14 30 15 31 16 32 17 15 18 14 19 13 20 12 21
REMARK SMILES IDX 11 22 10 23 9 24 8 25 7 26 6 27 5 28 4 29 3 30 2 31 1 32
REMARK H PARENT
REMARK Flexibility Score: inf
ROOT
ATOM      1  C   UNL     1     -10.958 -39.948  47.709  1.00  0.00     0.000 C 
ENDROOT
BRANCH   1   2
ATOM      2  C   UNL     1      -9.647 -39.948  48.518  1.00  0.00     0.000 C 
BRANCH   2   3
ATOM      3  C   UNL     1      -8.399 -39.539  47.708  1.00  0.00     0.000 C 
BRANCH   3   4
ATOM      4  C   UNL     1      -8.552 -39.799  46.199  1.00  0.00     0.000 C 
BRANCH   4   5
ATOM      5  C   UNL     1      -8.300 -38.538  45.356  1.00  0.00     0.000 C 
BRANCH   5   6
ATOM      6  C   UNL     1      -9.333 -38.373  44.227  1.00  0.00     0.000 C 
BRANCH   6   7
ATOM      7  C   UNL     1     -10.453 -39.422  44.296  1.00  0.00     0.000 C 
BRANCH   7   8
ATOM      8  C   UNL     1     -11.743 -38.954  43.602  1.00  0.00     0.000 C 
BRANCH   8   9
ATOM      9  C   UNL     1     -12.593 -40.129  43.091  1.00  0.00     0.000 C 
BRANCH   9  10
ATOM     10  C   UNL     1     -12.141 -40.623  41.706  1.00  0.00     0.000 C 
BRANCH  10  11
ATOM     11  C   UNL     1     -11.369 -41.957  41.782  1.00  0.00     0.000 C 
BRANCH  11  12
ATOM     12  C   UNL     1      -9.871 -41.834  41.441  1.00  0.00     0.000 C 
BRANCH  12  13
ATOM     13  C   UNL     1      -8.908 -42.145  42.603  1.00  0.00     0.006 C 
BRANCH  13  14
ATOM     14  C   UNL     1      -7.464 -41.671  42.371  1.00  0.00     0.053 C 
BRANCH  14  15
ATOM     15  C   UNL     1      -6.463 -42.639  42.920  1.00  0.00     0.041 C 
ATOM     16  O   UNL     1      -6.571 -43.869  42.672  1.00  0.00    -0.550 OA
ATOM     17  O   UNL     1      -5.437 -42.192  43.741  1.00  0.00    -0.550 OA
ENDBRANCH  14  15
ENDBRANCH  13  14
ENDBRANCH  12  13
ENDBRANCH  11  12
ENDBRANCH  10  11
ENDBRANCH   9  10
ENDBRANCH   8   9
ENDBRANCH   7   8
ENDBRANCH   6   7
ENDBRANCH   5   6
ENDBRANCH   4   5
ENDBRANCH   3   4
ENDBRANCH   2   3
ENDBRANCH   1   2
BRANCH   1  18
ATOM     18  C   UNL     1     -11.912 -38.769  47.984  1.00  0.00     0.000 C 
BRANCH  18  19
ATOM     19  C   UNL     1     -11.648 -37.503  47.147  1.00  0.00     0.000 C 
BRANCH  19  20
ATOM     20  C   UNL     1     -10.742 -36.489  47.860  1.00  0.00     0.000 C 
BRANCH  20  21
ATOM     21  C   UNL     1     -10.031 -35.587  46.840  1.00  0.00     0.000 C 
BRANCH  21  22
ATOM     22  C   UNL     1     -10.771 -35.505  45.494  1.00  0.00     0.000 C 
BRANCH  22  23
ATOM     23  C   UNL     1     -10.270 -34.401  44.540  1.00  0.00     0.000 C 
BRANCH  23  24
ATOM     24  C   UNL     1     -10.228 -34.788  43.050  1.00  0.00    -0.000 C 
BRANCH  24  25
ATOM     25  C   UNL     1     -10.165 -33.601  42.068  1.00  0.00    -0.000 C 
BRANCH  25  26
ATOM     26  C   UNL     1      -8.812 -33.463  41.338  1.00  0.00    -0.000 C 
BRANCH  26  27
ATOM     27  C   UNL     1      -8.015 -32.231  41.794  1.00  0.00    -0.000 C 
BRANCH  27  28
ATOM     28  C   UNL     1      -7.298 -32.496  43.123  1.00  0.00    -0.000 C 
BRANCH  28  29
ATOM     29  C   UNL     1      -6.881 -31.178  43.793  1.00  0.00    -0.000 C 
BRANCH  29  30
ATOM     30  C   UNL     1      -6.850 -31.272  45.326  1.00  0.00    -0.000 C 
BRANCH  30  31
ATOM     31  C   UNL     1      -7.902 -32.244  45.882  1.00  0.00    -0.003 C 
ATOM     32  C   UNL     1      -8.684 -31.608  47.028  1.00  0.00     0.004 C 
ENDBRANCH  30  31
ENDBRANCH  29  30
ENDBRANCH  28  29
ENDBRANCH  27  28
ENDBRANCH  26  27
ENDBRANCH  25  26
ENDBRANCH  24  25
ENDBRANCH  23  24
ENDBRANCH  22  23
ENDBRANCH  21  22
ENDBRANCH  20  21
ENDBRANCH  19  20
ENDBRANCH  18  19
ENDBRANCH   1  18
TORSDOF 28
ENDMDL
MODEL 3
REMARK VINA RESULT:    -5.195      3.271      8.938
REMARK INTER + INTRA:         -18.033
REMARK INTER:                 -13.668
REMARK INTRA:                  -4.365
REMARK UNBOUND:                -4.334
REMARK SMILES CCCCCCCCCCCCCCCCCCCCCCCCCCCCCC(=O)[O-]
REMARK SMILES IDX 16 1 17 2 18 3 19 4 20 5 21 6 22 7 23 8 24 9 25 10 26 11
REMARK SMILES IDX 27 12 28 13 29 14 30 15 31 16 32 17 15 18 14 19 13 20 12 21
REMARK SMILES IDX 11 22 10 23 9 24 8 25 7 26 6 27 5 28 4 29 3 30 2 31 1 32
REMARK H PARENT
REMARK Flexibility Score: inf
ROOT
ATOM      1  C   UNL     1     -10.959 -39.763  48.829  1.00  0.00     0.000 C 
ENDROOT
BRANCH   1   2
ATOM      2  C   UNL     1      -9.449 -40.042  48.951  1.00  0.00     0.000 C 
BRANCH   2   3
ATOM      3  C   UNL     1      -8.558 -39.103  48.110  1.00  0.00     0.000 C 
BRANCH   3   4
ATOM      4  C   UNL     1      -8.353 -39.604  46.669  1.00  0.00     0.000 C 
BRANCH   4   5
ATOM      5  C   UNL     1      -8.675 -38.526  45.621  1.00  0.00     0.000 C 
BRANCH   5   6
ATOM      6  C   UNL     1      -9.820 -38.946  44.682  1.00  0.00     0.000 C 
BRANCH   6   7
ATOM      7  C   UNL     1     -10.709 -40.041  45.292  1.00  0.00     0.000 C 
BRANCH   7   8
ATOM      8  C   UNL     1     -12.005 -40.260  44.494  1.00  0.00     0.000 C 
BRANCH   8   9
ATOM      9  C   UNL     1     -12.109 -39.328  43.276  1.00  0.00     0.000 C 
BRANCH   9  10
ATOM     10  C   UNL     1     -12.504 -40.079  41.993  1.00  0.00     0.000 C 
BRANCH  10  11
ATOM     11  C   UNL     1     -11.978 -41.529  41.975  1.00  0.00     0.000 C 
BRANCH  11  12
ATOM     12  C   UNL     1     -11.047 -41.843  40.787  1.00  0.00     0.000 C 
BRANCH  12  13
ATOM     13  C   UNL     1      -9.649 -42.367  41.171  1.00  0.00     0.006 C 
BRANCH  13  14
ATOM     14  C   UNL     1      -8.987 -41.608  42.333  1.00  0.00     0.053 C 
BRANCH  14  15
ATOM     15  C   UNL     1      -7.494 -41.636  42.240  1.00  0.00     0.041 C 
ATOM     16  O   UNL     1      -6.815 -42.195  43.141  1.00  0.00    -0.550 OA
ATOM     17  O   UNL     1      -6.849 -41.009  41.182  1.00  0.00    -0.550 OA
ENDBRANCH  14  15
ENDBRANCH  13  14
ENDBRANCH  12  13
ENDBRANCH  11  12
ENDBRANCH  10  11
ENDBRANCH   9  10
ENDBRANCH   8   9
ENDBRANCH   7   8
ENDBRANCH   6   7
ENDBRANCH   5   6
ENDBRANCH   4   5
ENDBRANCH   3   4
ENDBRANCH   2   3
ENDBRANCH   1   2
BRANCH   1  18
ATOM     18  C   UNL     1     -11.368 -38.278  48.868  1.00  0.00     0.000 C 
BRANCH  18  19
ATOM     19  C   UNL     1     -12.230 -37.804  47.682  1.00  0.00     0.000 C 
BRANCH  19  20
ATOM     20  C   UNL     1     -11.564 -36.691  46.861  1.00  0.00     0.000 C 
BRANCH  20  21
ATOM     21  C   UNL     1     -10.446 -36.015  47.670  1.00  0.00     0.000 C 
BRANCH  21  22
ATOM     22  C   UNL     1      -9.699 -34.934  46.872  1.00  0.00     0.000 C 
BRANCH  22  23
ATOM     23  C   UNL     1      -9.487 -33.601  47.620  1.00  0.00     0.000 C 
BRANCH  23  24
ATOM     24  C   UNL     1      -8.387 -32.691  47.043  1.00  0.00    -0.000 C 
BRANCH  24  25
ATOM     25  C   UNL     1      -8.472 -32.446  45.523  1.00  0.00    -0.000 C 
BRANCH  25  26
ATOM     26  C   UNL     1      -7.127 -32.054  44.877  1.00  0.00    -0.000 C 
BRANCH  26  27
ATOM     27  C   UNL     1      -7.279 -31.610  43.412  1.00  0.00    -0.000 C 
BRANCH  27  28
ATOM     28  C   UNL     1      -7.491 -32.815  42.489  1.00  0.00    -0.000 C 
BRANCH  28  29
ATOM     29  C   UNL     1      -8.540 -32.500  41.411  1.00  0.00    -0.000 C 
BRANCH  29  30
ATOM     30  C   UNL     1      -9.564 -33.630  41.229  1.00  0.00    -0.000 C 
BRANCH  30  31
ATOM     31  C   UNL     1     -10.424 -33.859  42.481  1.00  0.00    -0.003 C 
ATOM     32  C   UNL     1     -10.005 -35.134  43.208  1.00  0.00     0.004 C 
ENDBRANCH  30  31
ENDBRANCH  29  30
ENDBRANCH  28  29
ENDBRANCH  27  28
ENDBRANCH  26  27
ENDBRANCH  25  26
ENDBRANCH  24  25
ENDBRANCH  23  24
ENDBRANCH  22  23
ENDBRANCH  21  22
ENDBRANCH  20  21
ENDBRANCH  19  20
ENDBRANCH  18  19
ENDBRANCH   1  18
TORSDOF 28
ENDMDL
MODEL 4
REMARK VINA RESULT:    -5.171      2.608      4.661
REMARK INTER + INTRA:         -17.970
REMARK INTER:                 -13.984
REMARK INTRA:                  -3.987
REMARK UNBOUND:                -4.334
REMARK SMILES CCCCCCCCCCCCCCCCCCCCCCCCCCCCCC(=O)[O-]
REMARK SMILES IDX 16 1 17 2 18 3 19 4 20 5 21 6 22 7 23 8 24 9 25 10 26 11
REMARK SMILES IDX 27 12 28 13 29 14 30 15 31 16 32 17 15 18 14 19 13 20 12 21
REMARK SMILES IDX 11 22 10 23 9 24 8 25 7 26 6 27 5 28 4 29 3 30 2 31 1 32
REMARK H PARENT
REMARK Flexibility Score: inf
ROOT
ATOM      1  C   UNL     1      -8.410 -38.120  45.843  1.00  0.00     0.000 C 
ENDROOT
BRANCH   1   2
ATOM      2  C   UNL     1      -9.199 -37.705  44.587  1.00  0.00     0.000 C 
BRANCH   2   3
ATOM      3  C   UNL     1     -10.150 -36.507  44.798  1.00  0.00     0.000 C 
BRANCH   3   4
ATOM      4  C   UNL     1     -10.326 -35.653  43.530  1.00  0.00     0.000 C 
BRANCH   4   5
ATOM      5  C   UNL     1     -10.272 -34.145  43.825  1.00  0.00     0.000 C 
BRANCH   5   6
ATOM      6  C   UNL     1     -10.557 -33.293  42.575  1.00  0.00     0.000 C 
BRANCH   6   7
ATOM      7  C   UNL     1      -9.772 -33.773  41.345  1.00  0.00     0.000 C 
BRANCH   7   8
ATOM      8  C   UNL     1      -8.300 -33.326  41.373  1.00  0.00     0.000 C 
BRANCH   8   9
ATOM      9  C   UNL     1      -8.150 -31.799  41.275  1.00  0.00     0.000 C 
BRANCH   9  10
ATOM     10  C   UNL     1      -7.494 -31.191  42.527  1.00  0.00     0.000 C 
BRANCH  10  11
ATOM     11  C   UNL     1      -7.087 -32.265  43.557  1.00  0.00     0.000 C 
BRANCH  11  12
ATOM     12  C   UNL     1      -6.364 -31.702  44.797  1.00  0.00     0.000 C 
BRANCH  12  13
ATOM     13  C   UNL     1      -7.151 -30.638  45.586  1.00  0.00     0.006 C 
BRANCH  13  14
ATOM     14  C   UNL     1      -6.277 -29.533  46.201  1.00  0.00     0.053 C 
BRANCH  14  15
ATOM     15  C   UNL     1      -5.640 -28.676  45.152  1.00  0.00     0.041 C 
ATOM     16  O   UNL     1      -6.357 -27.997  44.369  1.00  0.00    -0.550 OA
ATOM     17  O   UNL     1      -4.259 -28.659  45.008  1.00  0.00    -0.550 OA
ENDBRANCH  14  15
ENDBRANCH  13  14
ENDBRANCH  12  13
ENDBRANCH  11  12
ENDBRANCH  10  11
ENDBRANCH   9  10
ENDBRANCH   8   9
ENDBRANCH   7   8
ENDBRANCH   6   7
ENDBRANCH   5   6
ENDBRANCH   4   5
ENDBRANCH   3   4
ENDBRANCH   2   3
ENDBRANCH   1   2
BRANCH   1  18
ATOM     18  C   UNL     1      -8.405 -39.628  46.160  1.00  0.00     0.000 C 
BRANCH  18  19
ATOM     19  C   UNL     1      -9.176 -40.034  47.430  1.00  0.00     0.000 C 
BRANCH  19  20
ATOM     20  C   UNL     1      -9.672 -38.831  48.244  1.00  0.00     0.000 C 
BRANCH  20  21
ATOM     21  C   UNL     1     -11.191 -38.909  48.457  1.00  0.00     0.000 C 
BRANCH  21  22
ATOM     22  C   UNL     1     -11.992 -38.379  47.255  1.00  0.00     0.000 C 
BRANCH  22  23
ATOM     23  C   UNL     1     -12.855 -39.434  46.532  1.00  0.00     0.000 C 
BRANCH  23  24
ATOM     24  C   UNL     1     -12.146 -40.199  45.399  1.00  0.00    -0.000 C 
BRANCH  24  25
ATOM     25  C   UNL     1     -12.465 -39.701  43.975  1.00  0.00    -0.000 C 
BRANCH  25  26
ATOM     26  C   UNL     1     -11.446 -40.158  42.909  1.00  0.00    -0.000 C 
BRANCH  26  27
ATOM     27  C   UNL     1     -10.383 -41.112  43.476  1.00  0.00    -0.000 C 
BRANCH  27  28
ATOM     28  C   UNL     1      -9.479 -41.656  42.364  1.00  0.00    -0.000 C 
BRANCH  28  29
ATOM     29  C   UNL     1      -8.266 -40.740  42.147  1.00  0.00    -0.000 C 
BRANCH  29  30
ATOM     30  C   UNL     1      -6.961 -41.521  41.930  1.00  0.00    -0.000 C 
BRANCH  30  31
ATOM     31  C   UNL     1      -6.760 -42.639  42.963  1.00  0.00    -0.003 C 
ATOM     32  C   UNL     1      -5.652 -42.281  43.950  1.00  0.00     0.004 C 
ENDBRANCH  30  31
ENDBRANCH  29  30
ENDBRANCH  28  29
ENDBRANCH  27  28
ENDBRANCH  26  27
ENDBRANCH  25  26
ENDBRANCH  24  25
ENDBRANCH  23  24
ENDBRANCH  22  23
ENDBRANCH  21  22
ENDBRANCH  20  21
ENDBRANCH  19  20
ENDBRANCH  18  19
ENDBRANCH   1  18
TORSDOF 28
ENDMDL
MODEL 5
REMARK VINA RESULT:    -5.155      3.402      8.767
REMARK INTER + INTRA:         -17.926
REMARK INTER:                 -13.406
REMARK INTRA:                  -4.520
REMARK UNBOUND:                -4.334
REMARK SMILES CCCCCCCCCCCCCCCCCCCCCCCCCCCCCC(=O)[O-]
REMARK SMILES IDX 16 1 17 2 18 3 19 4 20 5 21 6 22 7 23 8 24 9 25 10 26 11
REMARK SMILES IDX 27 12 28 13 29 14 30 15 31 16 32 17 15 18 14 19 13 20 12 21
REMARK SMILES IDX 11 22 10 23 9 24 8 25 7 26 6 27 5 28 4 29 3 30 2 31 1 32
REMARK H PARENT
REMARK Flexibility Score: inf
ROOT
ATOM      1  C   UNL     1      -8.604 -39.968  48.257  1.00  0.00     0.000 C 
ENDROOT
BRANCH   1   2
ATOM      2  C   UNL     1      -8.359 -38.488  47.908  1.00  0.00     0.000 C 
BRANCH   2   3
ATOM      3  C   UNL     1      -8.398 -38.174  46.397  1.00  0.00     0.000 C 
BRANCH   3   4
ATOM      4  C   UNL     1      -8.310 -39.437  45.521  1.00  0.00     0.000 C 
BRANCH   4   5
ATOM      5  C   UNL     1      -9.537 -39.608  44.611  1.00  0.00     0.000 C 
BRANCH   5   6
ATOM      6  C   UNL     1     -10.759 -38.823  45.122  1.00  0.00     0.000 C 
BRANCH   6   7
ATOM      7  C   UNL     1     -12.054 -39.647  45.060  1.00  0.00     0.000 C 
BRANCH   7   8
ATOM      8  C   UNL     1     -13.036 -39.123  43.998  1.00  0.00     0.000 C 
BRANCH   8   9
ATOM      9  C   UNL     1     -12.398 -39.036  42.602  1.00  0.00     0.000 C 
BRANCH   9  10
ATOM     10  C   UNL     1     -12.742 -40.250  41.722  1.00  0.00     0.000 C 
BRANCH  10  11
ATOM     11  C   UNL     1     -11.774 -41.431  41.944  1.00  0.00     0.000 C 
BRANCH  11  12
ATOM     12  C   UNL     1     -10.959 -41.817  40.694  1.00  0.00     0.000 C 
BRANCH  12  13
ATOM     13  C   UNL     1      -9.685 -42.639  40.971  1.00  0.00     0.006 C 
BRANCH  13  14
ATOM     14  C   UNL     1      -8.987 -42.296  42.297  1.00  0.00     0.053 C 
BRANCH  14  15
ATOM     15  C   UNL     1      -7.614 -41.742  42.078  1.00  0.00     0.041 C 
ATOM     16  O   UNL     1      -7.459 -40.672  41.432  1.00  0.00    -0.550 OA
ATOM     17  O   UNL     1      -6.502 -42.427  42.549  1.00  0.00    -0.550 OA
ENDBRANCH  14  15
ENDBRANCH  13  14
ENDBRANCH  12  13
ENDBRANCH  11  12
ENDBRANCH  10  11
ENDBRANCH   9  10
ENDBRANCH   8   9
ENDBRANCH   7   8
ENDBRANCH   6   7
ENDBRANCH   5   6
ENDBRANCH   4   5
ENDBRANCH   3   4
ENDBRANCH   2   3
ENDBRANCH   1   2
BRANCH   1  18
ATOM     18  C   UNL     1     -10.077 -40.368  48.470  1.00  0.00     0.000 C 
BRANCH  18  19
ATOM     19  C   UNL     1     -10.895 -39.410  49.357  1.00  0.00     0.000 C 
BRANCH  19  20
ATOM     20  C   UNL     1     -11.941 -38.607  48.571  1.00  0.00     0.000 C 
BRANCH  20  21
ATOM     21  C   UNL     1     -11.776 -37.102  48.829  1.00  0.00     0.000 C 
BRANCH  21  22
ATOM     22  C   UNL     1     -11.423 -36.312  47.558  1.00  0.00     0.000 C 
BRANCH  22  23
ATOM     23  C   UNL     1     -10.631 -35.010  47.799  1.00  0.00     0.000 C 
BRANCH  23  24
ATOM     24  C   UNL     1      -9.502 -34.730  46.790  1.00  0.00    -0.000 C 
BRANCH  24  25
ATOM     25  C   UNL     1      -9.973 -34.350  45.371  1.00  0.00    -0.000 C 
BRANCH  25  26
ATOM     26  C   UNL     1      -9.639 -35.407  44.297  1.00  0.00    -0.000 C 
BRANCH  26  27
ATOM     27  C   UNL     1     -10.310 -35.112  42.946  1.00  0.00    -0.000 C 
BRANCH  27  28
ATOM     28  C   UNL     1     -10.304 -33.609  42.642  1.00  0.00    -0.000 C 
BRANCH  28  29
ATOM     29  C   UNL     1      -9.689 -33.332  41.262  1.00  0.00    -0.000 C 
BRANCH  29  30
ATOM     30  C   UNL     1      -8.373 -32.545  41.344  1.00  0.00    -0.000 C 
BRANCH  30  31
ATOM     31  C   UNL     1      -7.525 -32.931  42.564  1.00  0.00    -0.003 C 
ATOM     32  C   UNL     1      -7.205 -31.707  43.419  1.00  0.00     0.004 C 
ENDBRANCH  30  31
ENDBRANCH  29  30
ENDBRANCH  28  29
ENDBRANCH  27  28
ENDBRANCH  26  27
ENDBRANCH  25  26
ENDBRANCH  24  25
ENDBRANCH  23  24
ENDBRANCH  22  23
ENDBRANCH  21  22
ENDBRANCH  20  21
ENDBRANCH  19  20
ENDBRANCH  18  19
ENDBRANCH   1  18
TORSDOF 28
ENDMDL
MODEL 6
REMARK VINA RESULT:    -5.124      3.936      7.324
REMARK INTER + INTRA:         -17.844
REMARK INTER:                 -13.527
REMARK INTRA:                  -4.318
REMARK UNBOUND:                -4.334
REMARK SMILES CCCCCCCCCCCCCCCCCCCCCCCCCCCCCC(=O)[O-]
REMARK SMILES IDX 16 1 17 2 18 3 19 4 20 5 21 6 22 7 23 8 24 9 25 10 26 11
REMARK SMILES IDX 27 12 28 13 29 14 30 15 31 16 32 17 15 18 14 19 13 20 12 21
REMARK SMILES IDX 11 22 10 23 9 24 8 25 7 26 6 27 5 28 4 29 3 30 2 31 1 32
REMARK H PARENT
REMARK Flexibility Score: inf
ROOT
ATOM      1  C   UNL     1      -6.863 -31.053  44.679  1.00  0.00     0.000 C 
ENDROOT
BRANCH   1   2
ATOM      2  C   UNL     1      -6.382 -29.702  44.117  1.00  0.00     0.000 C 
BRANCH   2   3
ATOM      3  C   UNL     1      -6.831 -28.473  44.936  1.00  0.00     0.000 C 
BRANCH   3   4
ATOM      4  C   UNL     1      -7.618 -28.855  46.203  1.00  0.00     0.000 C 
BRANCH   4   5
ATOM      5  C   UNL     1      -7.039 -28.207  47.472  1.00  0.00     0.000 C 
BRANCH   5   6
ATOM      6  C   UNL     1      -6.325 -29.228  48.376  1.00  0.00     0.000 C 
BRANCH   6   7
ATOM      7  C   UNL     1      -4.966 -29.665  47.810  1.00  0.00     0.000 C 
BRANCH   7   8
ATOM      8  C   UNL     1      -4.701 -31.167  48.006  1.00  0.00     0.000 C 
BRANCH   8   9
ATOM      9  C   UNL     1      -5.996 -31.996  48.000  1.00  0.00     0.000 C 
BRANCH   9  10
ATOM     10  C   UNL     1      -6.036 -33.033  49.136  1.00  0.00     0.000 C 
BRANCH  10  11
ATOM     11  C   UNL     1      -6.441 -32.408  50.488  1.00  0.00     0.000 C 
BRANCH  11  12
ATOM     12  C   UNL     1      -5.341 -32.479  51.566  1.00  0.00     0.000 C 
BRANCH  12  13
ATOM     13  C   UNL     1      -4.981 -33.901  52.040  1.00  0.00     0.006 C 
BRANCH  13  14
ATOM     14  C   UNL     1      -4.201 -33.946  53.364  1.00  0.00     0.053 C 
BRANCH  14  15
ATOM     15  C   UNL     1      -2.906 -34.684  53.224  1.00  0.00     0.041 C 
ATOM     16  O   UNL     1      -1.841 -34.182  53.671  1.00  0.00    -0.550 OA
ATOM     17  O   UNL     1      -2.866 -35.905  52.563  1.00  0.00    -0.550 OA
ENDBRANCH  14  15
ENDBRANCH  13  14
ENDBRANCH  12  13
ENDBRANCH  11  12
ENDBRANCH  10  11
ENDBRANCH   9  10
ENDBRANCH   8   9
ENDBRANCH   7   8
ENDBRANCH   6   7
ENDBRANCH   5   6
ENDBRANCH   4   5
ENDBRANCH   3   4
ENDBRANCH   2   3
ENDBRANCH   1   2
BRANCH   1  18
ATOM     18  C   UNL     1      -6.950 -32.206  43.661  1.00  0.00     0.000 C 
BRANCH  18  19
ATOM     19  C   UNL     1      -7.654 -31.859  42.336  1.00  0.00     0.000 C 
BRANCH  19  20
ATOM     20  C   UNL     1      -7.669 -33.027  41.339  1.00  0.00     0.000 C 
BRANCH  20  21
ATOM     21  C   UNL     1      -9.103 -33.329  40.879  1.00  0.00     0.000 C 
BRANCH  21  22
ATOM     22  C   UNL     1     -10.122 -33.286  42.030  1.00  0.00     0.000 C 
BRANCH  22  23
ATOM     23  C   UNL     1     -10.214 -34.578  42.867  1.00  0.00     0.000 C 
BRANCH  23  24
ATOM     24  C   UNL     1      -9.658 -34.474  44.300  1.00  0.00    -0.000 C 
BRANCH  24  25
ATOM     25  C   UNL     1     -10.513 -35.159  45.385  1.00  0.00    -0.000 C 
BRANCH  25  26
ATOM     26  C   UNL     1      -9.946 -35.012  46.813  1.00  0.00    -0.000 C 
BRANCH  26  27
ATOM     27  C   UNL     1      -9.193 -33.688  47.020  1.00  0.00    -0.000 C 
BRANCH  27  28
ATOM     28  C   UNL     1      -9.702 -32.951  48.264  1.00  0.00    -0.000 C 
BRANCH  28  29
ATOM     29  C   UNL     1      -9.542 -31.431  48.103  1.00  0.00    -0.000 C 
BRANCH  29  30
ATOM     30  C   UNL     1      -9.603 -30.681  49.442  1.00  0.00    -0.000 C 
BRANCH  30  31
ATOM     31  C   UNL     1     -11.006 -30.695  50.066  1.00  0.00    -0.003 C 
ATOM     32  C   UNL     1     -11.003 -31.427  51.405  1.00  0.00     0.004 C 
ENDBRANCH  30  31
ENDBRANCH  29  30
ENDBRANCH  28  29
ENDBRANCH  27  28
ENDBRANCH  26  27
ENDBRANCH  25  26
ENDBRANCH  24  25
ENDBRANCH  23  24
ENDBRANCH  22  23
ENDBRANCH  21  22
ENDBRANCH  20  21
ENDBRANCH  19  20
ENDBRANCH  18  19
ENDBRANCH   1  18
TORSDOF 28
ENDMDL
MODEL 7
REMARK VINA RESULT:    -5.094      2.771      9.345
REMARK INTER + INTRA:         -17.766
REMARK INTER:                 -13.251
REMARK INTRA:                  -4.515
REMARK UNBOUND:                -4.334
REMARK SMILES CCCCCCCCCCCCCCCCCCCCCCCCCCCCCC(=O)[O-]
REMARK SMILES IDX 16 1 17 2 18 3 19 4 20 5 21 6 22 7 23 8 24 9 25 10 26 11
REMARK SMILES IDX 27 12 28 13 29 14 30 15 31 16 32 17 15 18 14 19 13 20 12 21
REMARK SMILES IDX 11 22 10 23 9 24 8 25 7 26 6 27 5 28 4 29 3 30 2 31 1 32
REMARK H PARENT
REMARK Flexibility Score: inf
ROOT
ATOM      1  C   UNL     1      -8.869 -37.326  47.566  1.00  0.00     0.000 C 
ENDROOT
BRANCH   1   2
ATOM      2  C   UNL     1      -8.402 -38.447  46.618  1.00  0.00     0.000 C 
BRANCH   2   3
ATOM      3  C   UNL     1      -8.698 -39.875  47.124  1.00  0.00     0.000 C 
BRANCH   3   4
ATOM      4  C   UNL     1      -9.053 -39.917  48.621  1.00  0.00     0.000 C 
BRANCH   4   5
ATOM      5  C   UNL     1     -10.508 -40.350  48.867  1.00  0.00     0.000 C 
BRANCH   5   6
ATOM      6  C   UNL     1     -11.379 -40.219  47.605  1.00  0.00     0.000 C 
BRANCH   6   7
ATOM      7  C   UNL     1     -12.195 -38.917  47.586  1.00  0.00     0.000 C 
BRANCH   7   8
ATOM      8  C   UNL     1     -12.451 -38.403  46.159  1.00  0.00     0.000 C 
BRANCH   8   9
ATOM      9  C   UNL     1     -11.797 -39.292  45.089  1.00  0.00     0.000 C 
BRANCH   9  10
ATOM     10  C   UNL     1     -11.775 -38.624  43.704  1.00  0.00     0.000 C 
BRANCH  10  11
ATOM     11  C   UNL     1     -12.370 -39.531  42.605  1.00  0.00     0.000 C 
BRANCH  11  12
ATOM     12  C   UNL     1     -12.023 -41.024  42.769  1.00  0.00     0.000 C 
BRANCH  12  13
ATOM     13  C   UNL     1     -10.999 -41.572  41.757  1.00  0.00     0.006 C 
BRANCH  13  14
ATOM     14  C   UNL     1      -9.683 -42.054  42.389  1.00  0.00     0.053 C 
BRANCH  14  15
ATOM     15  C   UNL     1      -8.630 -40.991  42.365  1.00  0.00     0.041 C 
ATOM     16  O   UNL     1      -7.841 -40.904  41.386  1.00  0.00    -0.550 OA
ATOM     17  O   UNL     1      -8.490 -40.123  43.440  1.00  0.00    -0.550 OA
ENDBRANCH  14  15
ENDBRANCH  13  14
ENDBRANCH  12  13
ENDBRANCH  11  12
ENDBRANCH  10  11
ENDBRANCH   9  10
ENDBRANCH   8   9
ENDBRANCH   7   8
ENDBRANCH   6   7
ENDBRANCH   5   6
ENDBRANCH   4   5
ENDBRANCH   3   4
ENDBRANCH   2   3
ENDBRANCH   1   2
BRANCH   1  18
ATOM     18  C   UNL     1      -9.627 -36.162  46.900  1.00  0.00     0.000 C 
BRANCH  18  19
ATOM     19  C   UNL     1      -9.617 -36.168  45.360  1.00  0.00     0.000 C 
BRANCH  19  20
ATOM     20  C   UNL     1     -10.639 -35.199  44.747  1.00  0.00     0.000 C 
BRANCH  20  21
ATOM     21  C   UNL     1     -10.377 -35.015  43.245  1.00  0.00     0.000 C 
BRANCH  21  22
ATOM     22  C   UNL     1     -10.339 -33.537  42.820  1.00  0.00     0.000 C 
BRANCH  22  23
ATOM     23  C   UNL     1      -9.380 -33.219  41.654  1.00  0.00     0.000 C 
BRANCH  23  24
ATOM     24  C   UNL     1      -8.273 -32.197  41.974  1.00  0.00    -0.000 C 
BRANCH  24  25
ATOM     25  C   UNL     1      -7.315 -32.604  43.111  1.00  0.00    -0.000 C 
BRANCH  25  26
ATOM     26  C   UNL     1      -6.782 -31.415  43.937  1.00  0.00    -0.000 C 
BRANCH  26  27
ATOM     27  C   UNL     1      -7.456 -31.300  45.314  1.00  0.00    -0.000 C 
BRANCH  27  28
ATOM     28  C   UNL     1      -8.200 -32.591  45.675  1.00  0.00    -0.000 C 
BRANCH  28  29
ATOM     29  C   UNL     1      -8.880 -32.465  47.047  1.00  0.00    -0.000 C 
BRANCH  29  30
ATOM     30  C   UNL     1      -8.875 -31.026  47.584  1.00  0.00    -0.000 C 
BRANCH  30  31
ATOM     31  C   UNL     1      -8.677 -30.962  49.105  1.00  0.00    -0.003 C 
ATOM     32  C   UNL     1     -10.001 -31.154  49.840  1.00  0.00     0.004 C 
ENDBRANCH  30  31
ENDBRANCH  29  30
ENDBRANCH  28  29
ENDBRANCH  27  28
ENDBRANCH  26  27
ENDBRANCH  25  26
ENDBRANCH  24  25
ENDBRANCH  23  24
ENDBRANCH  22  23
ENDBRANCH  21  22
ENDBRANCH  20  21
ENDBRANCH  19  20
ENDBRANCH  18  19
ENDBRANCH   1  18
TORSDOF 28
ENDMDL
MODEL 8
REMARK VINA RESULT:    -5.054      3.036      6.674
REMARK INTER + INTRA:         -17.661
REMARK INTER:                 -13.011
REMARK INTRA:                  -4.650
REMARK UNBOUND:                -4.334
REMARK SMILES CCCCCCCCCCCCCCCCCCCCCCCCCCCCCC(=O)[O-]
REMARK SMILES IDX 16 1 17 2 18 3 19 4 20 5 21 6 22 7 23 8 24 9 25 10 26 11
REMARK SMILES IDX 27 12 28 13 29 14 30 15 31 16 32 17 15 18 14 19 13 20 12 21
REMARK SMILES IDX 11 22 10 23 9 24 8 25 7 26 6 27 5 28 4 29 3 30 2 31 1 32
REMARK H PARENT
REMARK Flexibility Score: inf
ROOT
ATOM      1  C   UNL     1     -11.855 -37.185  47.203  1.00  0.00     0.000 C 
ENDROOT
BRANCH   1   2
ATOM      2  C   UNL     1     -10.743 -37.329  48.259  1.00  0.00     0.000 C 
BRANCH   2   3
ATOM      3  C   UNL     1      -9.332 -36.956  47.754  1.00  0.00     0.000 C 
BRANCH   3   4
ATOM      4  C   UNL     1      -8.378 -38.162  47.699  1.00  0.00     0.000 C 
BRANCH   4   5
ATOM      5  C   UNL     1      -9.127 -39.497  47.545  1.00  0.00     0.000 C 
BRANCH   5   6
ATOM      6  C   UNL     1      -9.030 -40.060  46.116  1.00  0.00     0.000 C 
BRANCH   6   7
ATOM      7  C   UNL     1      -8.002 -39.308  45.256  1.00  0.00     0.000 C 
BRANCH   7   8
ATOM      8  C   UNL     1      -8.661 -38.316  44.283  1.00  0.00     0.000 C 
BRANCH   8   9
ATOM      9  C   UNL     1     -10.166 -38.576  44.110  1.00  0.00     0.000 C 
BRANCH   9  10
ATOM     10  C   UNL     1     -10.982 -37.274  44.034  1.00  0.00     0.000 C 
BRANCH  10  11
ATOM     11  C   UNL     1     -10.106 -36.049  43.697  1.00  0.00     0.000 C 
BRANCH  11  12
ATOM     12  C   UNL     1     -10.197 -34.910  44.732  1.00  0.00     0.000 C 
BRANCH  12  13
ATOM     13  C   UNL     1      -9.412 -33.634  44.372  1.00  0.00     0.006 C 
BRANCH  13  14
ATOM     14  C   UNL     1      -8.719 -33.684  43.001  1.00  0.00     0.053 C 
BRANCH  14  15
ATOM     15  C   UNL     1      -7.781 -32.535  42.807  1.00  0.00     0.041 C 
ATOM     16  O   UNL     1      -7.001 -32.191  43.735  1.00  0.00    -0.550 OA
ATOM     17  O   UNL     1      -7.795 -31.815  41.619  1.00  0.00    -0.550 OA
ENDBRANCH  14  15
ENDBRANCH  13  14
ENDBRANCH  12  13
ENDBRANCH  11  12
ENDBRANCH  10  11
ENDBRANCH   9  10
ENDBRANCH   8   9
ENDBRANCH   7   8
ENDBRANCH   6   7
ENDBRANCH   5   6
ENDBRANCH   4   5
ENDBRANCH   3   4
ENDBRANCH   2   3
ENDBRANCH   1   2
BRANCH   1  18
ATOM     18  C   UNL     1     -13.239 -37.723  47.614  1.00  0.00     0.000 C 
BRANCH  18  19
ATOM     19  C   UNL     1     -13.786 -38.866  46.738  1.00  0.00     0.000 C 
BRANCH  19  20
ATOM     20  C   UNL     1     -12.680 -39.685  46.058  1.00  0.00     0.000 C 
BRANCH  20  21
ATOM     21  C   UNL     1     -12.524 -41.053  46.738  1.00  0.00     0.000 C 
BRANCH  21  22
ATOM     22  C   UNL     1     -12.137 -42.171  45.754  1.00  0.00     0.000 C 
BRANCH  22  23
ATOM     23  C   UNL     1     -12.232 -41.787  44.263  1.00  0.00     0.000 C 
BRANCH  23  24
ATOM     24  C   UNL     1     -11.629 -42.810  43.282  1.00  0.00    -0.000 C 
BRANCH  24  25
ATOM     25  C   UNL     1     -11.742 -42.431  41.791  1.00  0.00    -0.000 C 
BRANCH  25  26
ATOM     26  C   UNL     1     -10.480 -41.750  41.221  1.00  0.00    -0.000 C 
BRANCH  26  27
ATOM     27  C   UNL     1      -9.183 -42.281  41.853  1.00  0.00    -0.000 C 
BRANCH  27  28
ATOM     28  C   UNL     1      -8.137 -41.168  41.987  1.00  0.00    -0.000 C 
BRANCH  28  29
ATOM     29  C   UNL     1      -6.852 -41.700  42.641  1.00  0.00    -0.000 C 
BRANCH  29  30
ATOM     30  C   UNL     1      -6.875 -43.222  42.846  1.00  0.00    -0.000 C 
BRANCH  30  31
ATOM     31  C   UNL     1      -5.811 -43.702  43.843  1.00  0.00    -0.003 C 
ATOM     32  C   UNL     1      -5.077 -42.521  44.474  1.00  0.00     0.004 C 
ENDBRANCH  30  31
ENDBRANCH  29  30
ENDBRANCH  28  29
ENDBRANCH  27  28
ENDBRANCH  26  27
ENDBRANCH  25  26
ENDBRANCH  24  25
ENDBRANCH  23  24
ENDBRANCH  22  23
ENDBRANCH  21  22
ENDBRANCH  20  21
ENDBRANCH  19  20
ENDBRANCH  18  19
ENDBRANCH   1  18
TORSDOF 28
ENDMDL
MODEL 9
REMARK VINA RESULT:    -5.042      2.616      4.617
REMARK INTER + INTRA:         -17.628
REMARK INTER:                 -13.442
REMARK INTRA:                  -4.186
REMARK UNBOUND:                -4.334
REMARK SMILES CCCCCCCCCCCCCCCCCCCCCCCCCCCCCC(=O)[O-]
REMARK SMILES IDX 16 1 17 2 18 3 19 4 20 5 21 6 22 7 23 8 24 9 25 10 26 11
REMARK SMILES IDX 27 12 28 13 29 14 30 15 31 16 32 17 15 18 14 19 13 20 12 21
REMARK SMILES IDX 11 22 10 23 9 24 8 25 7 26 6 27 5 28 4 29 3 30 2 31 1 32
REMARK H PARENT
REMARK Flexibility Score: inf
ROOT
ATOM      1  C   UNL     1      -8.938 -33.957  41.444  1.00  0.00     0.000 C 
ENDROOT
BRANCH   1   2
ATOM      2  C   UNL     1      -7.662 -33.095  41.452  1.00  0.00     0.000 C 
BRANCH   2   3
ATOM      3  C   UNL     1      -7.915 -31.583  41.628  1.00  0.00     0.000 C 
BRANCH   3   4
ATOM      4  C   UNL     1      -7.258 -31.011  42.897  1.00  0.00     0.000 C 
BRANCH   4   5
ATOM      5  C   UNL     1      -6.876 -32.106  43.907  1.00  0.00     0.000 C 
BRANCH   5   6
ATOM      6  C   UNL     1      -7.674 -31.997  45.218  1.00  0.00     0.000 C 
BRANCH   6   7
ATOM      7  C   UNL     1      -6.776 -31.700  46.430  1.00  0.00     0.000 C 
BRANCH   7   8
ATOM      8  C   UNL     1      -7.187 -30.414  47.166  1.00  0.00     0.000 C 
BRANCH   8   9
ATOM      9  C   UNL     1      -7.628 -29.300  46.202  1.00  0.00     0.000 C 
BRANCH   9  10
ATOM     10  C   UNL     1      -7.031 -27.932  46.571  1.00  0.00     0.000 C 
BRANCH  10  11
ATOM     11  C   UNL     1      -5.491 -27.914  46.464  1.00  0.00     0.000 C 
BRANCH  11  12
ATOM     12  C   UNL     1      -4.952 -28.398  45.103  1.00  0.00     0.000 C 
BRANCH  12  13
ATOM     13  C   UNL     1      -4.012 -29.617  45.168  1.00  0.00     0.006 C 
BRANCH  13  14
ATOM     14  C   UNL     1      -2.516 -29.265  45.114  1.00  0.00     0.053 C 
BRANCH  14  15
ATOM     15  C   UNL     1      -1.937 -29.079  46.481  1.00  0.00     0.041 C 
ATOM     16  O   UNL     1      -1.432 -30.057  47.093  1.00  0.00    -0.550 OA
ATOM     17  O   UNL     1      -1.992 -27.836  47.098  1.00  0.00    -0.550 OA
ENDBRANCH  14  15
ENDBRANCH  13  14
ENDBRANCH  12  13
ENDBRANCH  11  12
ENDBRANCH  10  11
ENDBRANCH   9  10
ENDBRANCH   8   9
ENDBRANCH   7   8
ENDBRANCH   6   7
ENDBRANCH   5   6
ENDBRANCH   4   5
ENDBRANCH   3   4
ENDBRANCH   2   3
ENDBRANCH   1   2
BRANCH   1  18
ATOM     18  C   UNL     1     -10.201 -33.284  42.015  1.00  0.00     0.000 C 
BRANCH  18  19
ATOM     19  C   UNL     1     -10.542 -33.657  43.470  1.00  0.00     0.000 C 
BRANCH  19  20
ATOM     20  C   UNL     1      -9.668 -34.791  44.022  1.00  0.00     0.000 C 
BRANCH  20  21
ATOM     21  C   UNL     1     -10.112 -35.178  45.440  1.00  0.00     0.000 C 
BRANCH  21  22
ATOM     22  C   UNL     1     -10.934 -36.477  45.478  1.00  0.00     0.000 C 
BRANCH  22  23
ATOM     23  C   UNL     1     -10.933 -37.287  44.165  1.00  0.00     0.000 C 
BRANCH  23  24
ATOM     24  C   UNL     1     -10.211 -38.646  44.231  1.00  0.00    -0.000 C 
BRANCH  24  25
ATOM     25  C   UNL     1      -8.715 -38.575  44.596  1.00  0.00    -0.000 C 
BRANCH  25  26
ATOM     26  C   UNL     1      -8.319 -39.467  45.792  1.00  0.00    -0.000 C 
BRANCH  26  27
ATOM     27  C   UNL     1      -8.759 -38.879  47.142  1.00  0.00    -0.000 C 
BRANCH  27  28
ATOM     28  C   UNL     1      -9.214 -39.982  48.104  1.00  0.00    -0.000 C 
BRANCH  28  29
ATOM     29  C   UNL     1     -10.711 -39.847  48.423  1.00  0.00    -0.000 C 
BRANCH  29  30
ATOM     30  C   UNL     1     -11.591 -39.856  47.164  1.00  0.00    -0.000 C 
BRANCH  30  31
ATOM     31  C   UNL     1     -12.109 -41.258  46.812  1.00  0.00    -0.003 C 
ATOM     32  C   UNL     1     -11.902 -41.564  45.331  1.00  0.00     0.004 C 
ENDBRANCH  30  31
ENDBRANCH  29  30
ENDBRANCH  28  29
ENDBRANCH  27  28
ENDBRANCH  26  27
ENDBRANCH  25  26
ENDBRANCH  24  25
ENDBRANCH  23  24
ENDBRANCH  22  23
ENDBRANCH  21  22
ENDBRANCH  20  21
ENDBRANCH  19  20
ENDBRANCH  18  19
ENDBRANCH   1  18
TORSDOF 28
ENDMDL
