MODEL 1
REMARK VINA RESULT:    -3.121      0.000      0.000
REMARK INTER + INTRA:         -13.118
REMARK INTER:                  -8.230
REMARK INTRA:                  -4.888
REMARK UNBOUND:                -4.888
REMARK SMILES CCCCCCCCCCCCCCCCCCCCCCCCCCCCCC(=O)[O-]
REMARK SMILES IDX 16 1 17 2 18 3 19 4 20 5 21 6 22 7 23 8 24 9 25 10 26 11
REMARK SMILES IDX 27 12 28 13 29 14 30 15 31 16 32 17 15 18 14 19 13 20 12 21
REMARK SMILES IDX 11 22 10 23 9 24 8 25 7 26 6 27 5 28 4 29 3 30 2 31 1 32
REMARK H PARENT
REMARK Flexibility Score: inf
ROOT
ATOM      1  C   UNL     1    -114.721  38.119 -12.809  1.00  0.00     0.000 C 
ENDROOT
BRANCH   1   2
ATOM      2  C   UNL     1    -115.595  36.857 -12.671  1.00  0.00     0.000 C 
BRANCH   2   3
ATOM      3  C   UNL     1    -115.178  35.667 -13.559  1.00  0.00     0.000 C 
BRANCH   3   4
ATOM      4  C   UNL     1    -115.561  34.281 -12.995  1.00  0.00     0.000 C 
BRANCH   4   5
ATOM      5  C   UNL     1    -115.417  34.161 -11.466  1.00  0.00     0.000 C 
BRANCH   5   6
ATOM      6  C   UNL     1    -116.742  33.868 -10.733  1.00  0.00     0.000 C 
BRANCH   6   7
ATOM      7  C   UNL     1    -116.524  33.514  -9.252  1.00  0.00     0.000 C 
BRANCH   7   8
ATOM      8  C   UNL     1    -115.093  33.817  -8.770  1.00  0.00     0.000 C 
BRANCH   8   9
ATOM      9  C   UNL     1    -115.002  34.758  -7.552  1.00  0.00     0.000 C 
BRANCH   9  10
ATOM     10  C   UNL     1    -116.302  35.512  -7.205  1.00  0.00     0.000 C 
BRANCH  10  11
ATOM     11  C   UNL     1    -116.326  36.993  -7.628  1.00  0.00     0.000 C 
BRANCH  11  12
ATOM     12  C   UNL     1    -115.902  37.254  -9.085  1.00  0.00     0.000 C 
BRANCH  12  13
ATOM     13  C   UNL     1    -114.884  38.407  -9.237  1.00  0.00     0.006 C 
BRANCH  13  14
ATOM     14  C   UNL     1    -115.542  39.787  -9.113  1.00  0.00     0.053 C 
BRANCH  14  15
ATOM     15  C   UNL     1    -114.745  40.666  -8.202  1.00  0.00     0.041 C 
ATOM     16  O   UNL     1    -113.810  41.373  -8.661  1.00  0.00    -0.550 OA
ATOM     17  O   UNL     1    -115.000  40.665  -6.837  1.00  0.00    -0.550 OA
ENDBRANCH  14  15
ENDBRANCH  13  14
ENDBRANCH  12  13
ENDBRANCH  11  12
ENDBRANCH  10  11
ENDBRANCH   9  10
ENDBRANCH   8   9
ENDBRANCH   7   8
ENDBRANCH   6   7
ENDBRANCH   5   6
ENDBRANCH   4   5
ENDBRANCH   3   4
ENDBRANCH   2   3
ENDBRANCH   1   2
BRANCH   1  18
ATOM     18  C   UNL     1    -115.259  39.119 -13.844  1.00  0.00     0.000 C 
BRANCH  18  19
ATOM     19  C   UNL     1    -114.433  40.414 -13.836  1.00  0.00     0.000 C 
BRANCH  19  20
ATOM     20  C   UNL     1    -114.135  40.927 -12.416  1.00  0.00     0.000 C 
BRANCH  20  21
ATOM     21  C   UNL     1    -114.824  42.255 -12.041  1.00  0.00     0.000 C 
BRANCH  21  22
ATOM     22  C   UNL     1    -113.872  43.393 -11.625  1.00  0.00     0.000 C 
BRANCH  22  23
ATOM     23  C   UNL     1    -112.397  42.979 -11.465  1.00  0.00     0.000 C 
BRANCH  23  24
ATOM     24  C   UNL     1    -111.468  43.696 -12.454  1.00  0.00    -0.000 C 
BRANCH  24  25
ATOM     25  C   UNL     1    -112.132  43.836 -13.829  1.00  0.00    -0.000 C 
BRANCH  25  26
ATOM     26  C   UNL     1    -111.164  43.441 -14.951  1.00  0.00    -0.000 C 
BRANCH  26  27
ATOM     27  C   UNL     1    -111.141  41.921 -15.152  1.00  0.00    -0.000 C 
BRANCH  27  28
ATOM     28  C   UNL     1    -109.701  41.388 -15.135  1.00  0.00    -0.000 C 
BRANCH  28  29
ATOM     29  C   UNL     1    -109.492  40.272 -14.098  1.00  0.00    -0.000 C 
BRANCH  29  30
ATOM     30  C   UNL     1    -110.659  40.162 -13.104  1.00  0.00    -0.000 C 
BRANCH  30  31
ATOM     31  C   UNL     1    -111.208  38.731 -13.059  1.00  0.00    -0.003 C 
ATOM     32  C   UNL     1    -111.378  38.161 -14.465  1.00  0.00     0.004 C 
ENDBRANCH  30  31
ENDBRANCH  29  30
ENDBRANCH  28  29
ENDBRANCH  27  28
ENDBRANCH  26  27
ENDBRANCH  25  26
ENDBRANCH  24  25
ENDBRANCH  23  24
ENDBRANCH  22  23
ENDBRANCH  21  22
ENDBRANCH  20  21
ENDBRANCH  19  20
ENDBRANCH  18  19
ENDBRANCH   1  18
TORSDOF 28
ENDMDL
MODEL 2
REMARK VINA RESULT:    -3.109      1.419      8.031
REMARK INTER + INTRA:         -13.086
REMARK INTER:                  -8.791
REMARK INTRA:                  -4.295
REMARK UNBOUND:                -4.888
REMARK SMILES CCCCCCCCCCCCCCCCCCCCCCCCCCCCCC(=O)[O-]
REMARK SMILES IDX 16 1 17 2 18 3 19 4 20 5 21 6 22 7 23 8 24 9 25 10 26 11
REMARK SMILES IDX 27 12 28 13 29 14 30 15 31 16 32 17 15 18 14 19 13 20 12 21
REMARK SMILES IDX 11 22 10 23 9 24 8 25 7 26 6 27 5 28 4 29 3 30 2 31 1 32
REMARK H PARENT
REMARK Flexibility Score: inf
ROOT
ATOM      1  C   UNL     1    -112.971  38.921 -12.663  1.00  0.00     0.000 C 
ENDROOT
BRANCH   1   2
ATOM      2  C   UNL     1    -111.509  38.979 -13.147  1.00  0.00     0.000 C 
BRANCH   2   3
ATOM      3  C   UNL     1    -111.261  38.413 -14.561  1.00  0.00     0.000 C 
BRANCH   3   4
ATOM      4  C   UNL     1    -109.954  38.900 -15.226  1.00  0.00     0.000 C 
BRANCH   4   5
ATOM      5  C   UNL     1    -109.257  40.052 -14.477  1.00  0.00     0.000 C 
BRANCH   5   6
ATOM      6  C   UNL     1    -108.888  41.250 -15.374  1.00  0.00     0.000 C 
BRANCH   6   7
ATOM      7  C   UNL     1    -110.055  42.239 -15.536  1.00  0.00     0.000 C 
BRANCH   7   8
ATOM      8  C   UNL     1    -110.847  42.448 -14.232  1.00  0.00     0.000 C 
BRANCH   8   9
ATOM      9  C   UNL     1    -112.380  42.401 -14.386  1.00  0.00     0.000 C 
BRANCH   9  10
ATOM     10  C   UNL     1    -113.180  42.756 -13.115  1.00  0.00     0.000 C 
BRANCH  10  11
ATOM     11  C   UNL     1    -112.326  42.980 -11.853  1.00  0.00     0.000 C 
BRANCH  11  12
ATOM     12  C   UNL     1    -112.608  41.997 -10.701  1.00  0.00     0.000 C 
BRANCH  12  13
ATOM     13  C   UNL     1    -114.112  41.730 -10.471  1.00  0.00     0.006 C 
BRANCH  13  14
ATOM     14  C   UNL     1    -114.565  42.122  -9.059  1.00  0.00     0.053 C 
BRANCH  14  15
ATOM     15  C   UNL     1    -115.207  40.957  -8.374  1.00  0.00     0.041 C 
ATOM     16  O   UNL     1    -116.262  40.451  -8.837  1.00  0.00    -0.550 OA
ATOM     17  O   UNL     1    -114.666  40.462  -7.194  1.00  0.00    -0.550 OA
ENDBRANCH  14  15
ENDBRANCH  13  14
ENDBRANCH  12  13
ENDBRANCH  11  12
ENDBRANCH  10  11
ENDBRANCH   9  10
ENDBRANCH   8   9
ENDBRANCH   7   8
ENDBRANCH   6   7
ENDBRANCH   5   6
ENDBRANCH   4   5
ENDBRANCH   3   4
ENDBRANCH   2   3
ENDBRANCH   1   2
BRANCH   1  18
ATOM     18  C   UNL     1    -113.848  37.972 -13.492  1.00  0.00     0.000 C 
BRANCH  18  19
ATOM     19  C   UNL     1    -115.122  37.589 -12.723  1.00  0.00     0.000 C 
BRANCH  19  20
ATOM     20  C   UNL     1    -115.137  38.131 -11.282  1.00  0.00     0.000 C 
BRANCH  20  21
ATOM     21  C   UNL     1    -115.973  37.308 -10.281  1.00  0.00     0.000 C 
BRANCH  21  22
ATOM     22  C   UNL     1    -115.311  37.073  -8.910  1.00  0.00     0.000 C 
BRANCH  22  23
ATOM     23  C   UNL     1    -116.010  36.027  -8.023  1.00  0.00     0.000 C 
BRANCH  23  24
ATOM     24  C   UNL     1    -115.118  34.815  -7.717  1.00  0.00    -0.000 C 
BRANCH  24  25
ATOM     25  C   UNL     1    -115.134  33.815  -8.879  1.00  0.00    -0.000 C 
BRANCH  25  26
ATOM     26  C   UNL     1    -116.565  33.558  -9.365  1.00  0.00    -0.000 C 
BRANCH  26  27
ATOM     27  C   UNL     1    -116.646  33.605 -10.895  1.00  0.00    -0.000 C 
BRANCH  27  28
ATOM     28  C   UNL     1    -115.270  33.909 -11.507  1.00  0.00    -0.000 C 
BRANCH  28  29
ATOM     29  C   UNL     1    -115.272  33.828 -13.043  1.00  0.00    -0.000 C 
BRANCH  29  30
ATOM     30  C   UNL     1    -114.953  32.417 -13.561  1.00  0.00    -0.000 C 
BRANCH  30  31
ATOM     31  C   UNL     1    -116.216  31.730 -14.092  1.00  0.00    -0.003 C 
ATOM     32  C   UNL     1    -116.578  30.511 -13.248  1.00  0.00     0.004 C 
ENDBRANCH  30  31
ENDBRANCH  29  30
ENDBRANCH  28  29
ENDBRANCH  27  28
ENDBRANCH  26  27
ENDBRANCH  25  26
ENDBRANCH  24  25
ENDBRANCH  23  24
ENDBRANCH  22  23
ENDBRANCH  21  22
ENDBRANCH  20  21
ENDBRANCH  19  20
ENDBRANCH  18  19
ENDBRANCH   1  18
TORSDOF 28
ENDMDL
MODEL 3
REMARK VINA RESULT:    -3.072      2.059      6.717
REMARK INTER + INTRA:         -12.989
REMARK INTER:                  -8.030
REMARK INTRA:                  -4.959
REMARK UNBOUND:                -4.888
REMARK SMILES CCCCCCCCCCCCCCCCCCCCCCCCCCCCCC(=O)[O-]
REMARK SMILES IDX 16 1 17 2 18 3 19 4 20 5 21 6 22 7 23 8 24 9 25 10 26 11
REMARK SMILES IDX 27 12 28 13 29 14 30 15 31 16 32 17 15 18 14 19 13 20 12 21
REMARK SMILES IDX 11 22 10 23 9 24 8 25 7 26 6 27 5 28 4 29 3 30 2 31 1 32
REMARK H PARENT
REMARK Flexibility Score: inf
ROOT
ATOM      1  C   UNL     1    -115.082  35.007  -7.789  1.00  0.00     0.000 C 
ENDROOT
BRANCH   1   2
ATOM      2  C   UNL     1    -115.185  33.865  -8.820  1.00  0.00     0.000 C 
BRANCH   2   3
ATOM      3  C   UNL     1    -116.601  33.601  -9.370  1.00  0.00     0.000 C 
BRANCH   3   4
ATOM      4  C   UNL     1    -116.784  33.953 -10.864  1.00  0.00     0.000 C 
BRANCH   4   5
ATOM      5  C   UNL     1    -115.468  34.013 -11.662  1.00  0.00     0.000 C 
BRANCH   5   6
ATOM      6  C   UNL     1    -115.616  34.630 -13.068  1.00  0.00     0.000 C 
BRANCH   6   7
ATOM      7  C   UNL     1    -114.752  33.908 -14.116  1.00  0.00     0.000 C 
BRANCH   7   8
ATOM      8  C   UNL     1    -113.896  34.875 -14.954  1.00  0.00     0.000 C 
BRANCH   8   9
ATOM      9  C   UNL     1    -113.999  36.358 -14.545  1.00  0.00     0.000 C 
BRANCH   9  10
ATOM     10  C   UNL     1    -112.920  37.282 -15.147  1.00  0.00     0.000 C 
BRANCH  10  11
ATOM     11  C   UNL     1    -111.929  37.872 -14.126  1.00  0.00     0.000 C 
BRANCH  11  12
ATOM     12  C   UNL     1    -111.437  39.294 -14.453  1.00  0.00     0.000 C 
BRANCH  12  13
ATOM     13  C   UNL     1    -110.888  40.056 -13.226  1.00  0.00     0.006 C 
BRANCH  13  14
ATOM     14  C   UNL     1    -110.395  41.463 -13.585  1.00  0.00     0.053 C 
BRANCH  14  15
ATOM     15  C   UNL     1    -111.409  42.489 -13.188  1.00  0.00     0.041 C 
ATOM     16  O   UNL     1    -112.625  42.319 -13.463  1.00  0.00    -0.550 OA
ATOM     17  O   UNL     1    -111.003  43.658 -12.557  1.00  0.00    -0.550 OA
ENDBRANCH  14  15
ENDBRANCH  13  14
ENDBRANCH  12  13
ENDBRANCH  11  12
ENDBRANCH  10  11
ENDBRANCH   9  10
ENDBRANCH   8   9
ENDBRANCH   7   8
ENDBRANCH   6   7
ENDBRANCH   5   6
ENDBRANCH   4   5
ENDBRANCH   3   4
ENDBRANCH   2   3
ENDBRANCH   1   2
BRANCH   1  18
ATOM     18  C   UNL     1    -116.427  35.355  -7.133  1.00  0.00     0.000 C 
BRANCH  18  19
ATOM     19  C   UNL     1    -116.812  36.815  -7.414  1.00  0.00     0.000 C 
BRANCH  19  20
ATOM     20  C   UNL     1    -115.900  37.486  -8.457  1.00  0.00     0.000 C 
BRANCH  20  21
ATOM     21  C   UNL     1    -116.521  37.653  -9.859  1.00  0.00     0.000 C 
BRANCH  21  22
ATOM     22  C   UNL     1    -115.525  37.577 -11.032  1.00  0.00     0.000 C 
BRANCH  22  23
ATOM     23  C   UNL     1    -115.843  38.509 -12.215  1.00  0.00     0.000 C 
BRANCH  23  24
ATOM     24  C   UNL     1    -114.870  39.692 -12.317  1.00  0.00    -0.000 C 
BRANCH  24  25
ATOM     25  C   UNL     1    -113.798  39.619 -11.223  1.00  0.00    -0.000 C 
BRANCH  25  26
ATOM     26  C   UNL     1    -113.724  40.934 -10.436  1.00  0.00    -0.000 C 
BRANCH  26  27
ATOM     27  C   UNL     1    -114.475  40.823  -9.104  1.00  0.00    -0.000 C 
BRANCH  27  28
ATOM     28  C   UNL     1    -115.931  41.290  -9.255  1.00  0.00    -0.000 C 
BRANCH  28  29
ATOM     29  C   UNL     1    -116.755  41.091  -7.972  1.00  0.00    -0.000 C 
BRANCH  29  30
ATOM     30  C   UNL     1    -115.910  41.239  -6.697  1.00  0.00    -0.000 C 
BRANCH  30  31
ATOM     31  C   UNL     1    -116.211  40.109  -5.705  1.00  0.00    -0.003 C 
ATOM     32  C   UNL     1    -115.689  40.446  -4.311  1.00  0.00     0.004 C 
ENDBRANCH  30  31
ENDBRANCH  29  30
ENDBRANCH  28  29
ENDBRANCH  27  28
ENDBRANCH  26  27
ENDBRANCH  25  26
ENDBRANCH  24  25
ENDBRANCH  23  24
ENDBRANCH  22  23
ENDBRANCH  21  22
ENDBRANCH  20  21
ENDBRANCH  19  20
ENDBRANCH  18  19
ENDBRANCH   1  18
TORSDOF 28
ENDMDL
MODEL 4
REMARK VINA RESULT:    -3.050      1.265      5.961
REMARK INTER + INTRA:         -12.932
REMARK INTER:                  -7.598
REMARK INTRA:                  -5.334
REMARK UNBOUND:                -4.888
REMARK SMILES CCCCCCCCCCCCCCCCCCCCCCCCCCCCCC(=O)[O-]
REMARK SMILES IDX 16 1 17 2 18 3 19 4 20 5 21 6 22 7 23 8 24 9 25 10 26 11
REMARK SMILES IDX 27 12 28 13 29 14 30 15 31 16 32 17 15 18 14 19 13 20 12 21
REMARK SMILES IDX 11 22 10 23 9 24 8 25 7 26 6 27 5 28 4 29 3 30 2 31 1 32
REMARK H PARENT
REMARK Flexibility Score: inf
ROOT
ATOM      1  C   UNL     1    -115.241  33.865  -8.637  1.00  0.00     0.000 C 
ENDROOT
BRANCH   1   2
ATOM      2  C   UNL     1    -115.057  34.995  -7.606  1.00  0.00     0.000 C 
BRANCH   2   3
ATOM      3  C   UNL     1    -116.335  35.786  -7.260  1.00  0.00     0.000 C 
BRANCH   3   4
ATOM      4  C   UNL     1    -116.359  37.233  -7.800  1.00  0.00     0.000 C 
BRANCH   4   5
ATOM      5  C   UNL     1    -115.560  37.433  -9.102  1.00  0.00     0.000 C 
BRANCH   5   6
ATOM      6  C   UNL     1    -116.430  37.437 -10.376  1.00  0.00     0.000 C 
BRANCH   6   7
ATOM      7  C   UNL     1    -115.583  37.459 -11.660  1.00  0.00     0.000 C 
BRANCH   7   8
ATOM      8  C   UNL     1    -116.438  37.532 -12.938  1.00  0.00     0.000 C 
BRANCH   8   9
ATOM      9  C   UNL     1    -116.119  38.718 -13.869  1.00  0.00     0.000 C 
BRANCH   9  10
ATOM     10  C   UNL     1    -114.969  39.632 -13.399  1.00  0.00     0.000 C 
BRANCH  10  11
ATOM     11  C   UNL     1    -115.345  41.117 -13.235  1.00  0.00     0.000 C 
BRANCH  11  12
ATOM     12  C   UNL     1    -115.031  41.713 -11.850  1.00  0.00     0.000 C 
BRANCH  12  13
ATOM     13  C   UNL     1    -114.245  40.754 -10.928  1.00  0.00     0.006 C 
BRANCH  13  14
ATOM     14  C   UNL     1    -113.385  41.504  -9.904  1.00  0.00     0.053 C 
BRANCH  14  15
ATOM     15  C   UNL     1    -114.099  41.602  -8.593  1.00  0.00     0.041 C 
ATOM     16  O   UNL     1    -114.437  40.558  -7.975  1.00  0.00    -0.550 OA
ATOM     17  O   UNL     1    -114.437  42.846  -8.078  1.00  0.00    -0.550 OA
ENDBRANCH  14  15
ENDBRANCH  13  14
ENDBRANCH  12  13
ENDBRANCH  11  12
ENDBRANCH  10  11
ENDBRANCH   9  10
ENDBRANCH   8   9
ENDBRANCH   7   8
ENDBRANCH   6   7
ENDBRANCH   5   6
ENDBRANCH   4   5
ENDBRANCH   3   4
ENDBRANCH   2   3
ENDBRANCH   1   2
BRANCH   1  18
ATOM     18  C   UNL     1    -116.672  33.773  -9.188  1.00  0.00     0.000 C 
BRANCH  18  19
ATOM     19  C   UNL     1    -116.669  33.770 -10.724  1.00  0.00     0.000 C 
BRANCH  19  20
ATOM     20  C   UNL     1    -115.254  33.866 -11.321  1.00  0.00     0.000 C 
BRANCH  20  21
ATOM     21  C   UNL     1    -115.120  33.368 -12.775  1.00  0.00     0.000 C 
BRANCH  21  22
ATOM     22  C   UNL     1    -116.128  33.974 -13.771  1.00  0.00     0.000 C 
BRANCH  22  23
ATOM     23  C   UNL     1    -115.495  34.695 -14.975  1.00  0.00     0.000 C 
BRANCH  23  24
ATOM     24  C   UNL     1    -113.989  34.936 -14.800  1.00  0.00    -0.000 C 
BRANCH  24  25
ATOM     25  C   UNL     1    -113.609  36.363 -15.211  1.00  0.00    -0.000 C 
BRANCH  25  26
ATOM     26  C   UNL     1    -112.165  36.687 -14.806  1.00  0.00    -0.000 C 
BRANCH  26  27
ATOM     27  C   UNL     1    -111.929  38.201 -14.764  1.00  0.00    -0.000 C 
BRANCH  27  28
ATOM     28  C   UNL     1    -111.559  38.659 -13.346  1.00  0.00    -0.000 C 
BRANCH  28  29
ATOM     29  C   UNL     1    -110.580  39.844 -13.340  1.00  0.00    -0.000 C 
BRANCH  29  30
ATOM     30  C   UNL     1    -111.261  41.172 -12.972  1.00  0.00    -0.000 C 
BRANCH  30  31
ATOM     31  C   UNL     1    -111.785  41.885 -14.224  1.00  0.00    -0.003 C 
ATOM     32  C   UNL     1    -110.677  42.678 -14.912  1.00  0.00     0.004 C 
ENDBRANCH  30  31
ENDBRANCH  29  30
ENDBRANCH  28  29
ENDBRANCH  27  28
ENDBRANCH  26  27
ENDBRANCH  25  26
ENDBRANCH  24  25
ENDBRANCH  23  24
ENDBRANCH  22  23
ENDBRANCH  21  22
ENDBRANCH  20  21
ENDBRANCH  19  20
ENDBRANCH  18  19
ENDBRANCH   1  18
TORSDOF 28
ENDMDL
MODEL 5
REMARK VINA RESULT:    -2.993      1.501      6.467
REMARK INTER + INTRA:         -12.780
REMARK INTER:                  -7.424
REMARK INTRA:                  -5.356
REMARK UNBOUND:                -4.888
REMARK SMILES CCCCCCCCCCCCCCCCCCCCCCCCCCCCCC(=O)[O-]
REMARK SMILES IDX 16 1 17 2 18 3 19 4 20 5 21 6 22 7 23 8 24 9 25 10 26 11
REMARK SMILES IDX 27 12 28 13 29 14 30 15 31 16 32 17 15 18 14 19 13 20 12 21
REMARK SMILES IDX 11 22 10 23 9 24 8 25 7 26 6 27 5 28 4 29 3 30 2 31 1 32
REMARK H PARENT
REMARK Flexibility Score: inf
ROOT
ATOM      1  C   UNL     1    -116.406  35.559  -7.281  1.00  0.00     0.000 C 
ENDROOT
BRANCH   1   2
ATOM      2  C   UNL     1    -116.564  37.049  -7.645  1.00  0.00     0.000 C 
BRANCH   2   3
ATOM      3  C   UNL     1    -115.790  37.505  -8.899  1.00  0.00     0.000 C 
BRANCH   3   4
ATOM      4  C   UNL     1    -116.604  38.394  -9.866  1.00  0.00     0.000 C 
BRANCH   4   5
ATOM      5  C   UNL     1    -115.829  38.832 -11.123  1.00  0.00     0.000 C 
BRANCH   5   6
ATOM      6  C   UNL     1    -114.319  38.528 -11.065  1.00  0.00     0.000 C 
BRANCH   6   7
ATOM      7  C   UNL     1    -113.475  39.636 -11.719  1.00  0.00     0.000 C 
BRANCH   7   8
ATOM      8  C   UNL     1    -114.311  40.581 -12.601  1.00  0.00     0.000 C 
BRANCH   8   9
ATOM      9  C   UNL     1    -113.771  42.022 -12.706  1.00  0.00     0.000 C 
BRANCH   9  10
ATOM     10  C   UNL     1    -112.738  42.416 -11.630  1.00  0.00     0.000 C 
BRANCH  10  11
ATOM     11  C   UNL     1    -113.336  43.023 -10.347  1.00  0.00     0.000 C 
BRANCH  11  12
ATOM     12  C   UNL     1    -113.350  42.077  -9.132  1.00  0.00     0.000 C 
BRANCH  12  13
ATOM     13  C   UNL     1    -114.759  41.558  -8.769  1.00  0.00     0.006 C 
BRANCH  13  14
ATOM     14  C   UNL     1    -114.759  40.720  -7.485  1.00  0.00     0.053 C 
BRANCH  14  15
ATOM     15  C   UNL     1    -115.333  41.506  -6.348  1.00  0.00     0.041 C 
ATOM     16  O   UNL     1    -115.673  40.927  -5.283  1.00  0.00    -0.550 OA
ATOM     17  O   UNL     1    -115.539  42.873  -6.484  1.00  0.00    -0.550 OA
ENDBRANCH  14  15
ENDBRANCH  13  14
ENDBRANCH  12  13
ENDBRANCH  11  12
ENDBRANCH  10  11
ENDBRANCH   9  10
ENDBRANCH   8   9
ENDBRANCH   7   8
ENDBRANCH   6   7
ENDBRANCH   5   6
ENDBRANCH   4   5
ENDBRANCH   3   4
ENDBRANCH   2   3
ENDBRANCH   1   2
BRANCH   1  18
ATOM     18  C   UNL     1    -115.024  34.990  -7.635  1.00  0.00     0.000 C 
BRANCH  18  19
ATOM     19  C   UNL     1    -115.144  33.873  -8.682  1.00  0.00     0.000 C 
BRANCH  19  20
ATOM     20  C   UNL     1    -116.602  33.555  -9.057  1.00  0.00     0.000 C 
BRANCH  20  21
ATOM     21  C   UNL     1    -116.885  33.465 -10.570  1.00  0.00     0.000 C 
BRANCH  21  22
ATOM     22  C   UNL     1    -116.935  34.815 -11.311  1.00  0.00     0.000 C 
BRANCH  22  23
ATOM     23  C   UNL     1    -115.634  35.206 -12.034  1.00  0.00     0.000 C 
BRANCH  23  24
ATOM     24  C   UNL     1    -115.264  34.232 -13.161  1.00  0.00    -0.000 C 
BRANCH  24  25
ATOM     25  C   UNL     1    -114.752  34.986 -14.393  1.00  0.00    -0.000 C 
BRANCH  25  26
ATOM     26  C   UNL     1    -114.478  36.459 -14.062  1.00  0.00    -0.000 C 
BRANCH  26  27
ATOM     27  C   UNL     1    -114.494  37.323 -15.329  1.00  0.00    -0.000 C 
BRANCH  27  28
ATOM     28  C   UNL     1    -113.133  38.001 -15.547  1.00  0.00    -0.000 C 
BRANCH  28  29
ATOM     29  C   UNL     1    -112.120  37.672 -14.438  1.00  0.00    -0.000 C 
BRANCH  29  30
ATOM     30  C   UNL     1    -110.828  38.497 -14.553  1.00  0.00    -0.000 C 
BRANCH  30  31
ATOM     31  C   UNL     1    -111.121  39.996 -14.423  1.00  0.00    -0.003 C 
ATOM     32  C   UNL     1    -109.987  40.719 -13.701  1.00  0.00     0.004 C 
ENDBRANCH  30  31
ENDBRANCH  29  30
ENDBRANCH  28  29
ENDBRANCH  27  28
ENDBRANCH  26  27
ENDBRANCH  25  26
ENDBRANCH  24  25
ENDBRANCH  23  24
ENDBRANCH  22  23
ENDBRANCH  21  22
ENDBRANCH  20  21
ENDBRANCH  19  20
ENDBRANCH  18  19
ENDBRANCH   1  18
TORSDOF 28
ENDMDL
MODEL 6
REMARK VINA RESULT:    -2.974      1.541      5.584
REMARK INTER + INTRA:         -12.731
REMARK INTER:                  -8.020
REMARK INTRA:                  -4.711
REMARK UNBOUND:                -4.888
REMARK SMILES CCCCCCCCCCCCCCCCCCCCCCCCCCCCCC(=O)[O-]
REMARK SMILES IDX 16 1 17 2 18 3 19 4 20 5 21 6 22 7 23 8 24 9 25 10 26 11
REMARK SMILES IDX 27 12 28 13 29 14 30 15 31 16 32 17 15 18 14 19 13 20 12 21
REMARK SMILES IDX 11 22 10 23 9 24 8 25 7 26 6 27 5 28 4 29 3 30 2 31 1 32
REMARK H PARENT
REMARK Flexibility Score: inf
ROOT
ATOM      1  C   UNL     1    -114.875  34.129  -8.350  1.00  0.00     0.000 C 
ENDROOT
BRANCH   1   2
ATOM      2  C   UNL     1    -115.250  35.005  -7.138  1.00  0.00     0.000 C 
BRANCH   2   3
ATOM      3  C   UNL     1    -116.683  35.577  -7.158  1.00  0.00     0.000 C 
BRANCH   3   4
ATOM      4  C   UNL     1    -116.759  37.107  -7.355  1.00  0.00     0.000 C 
BRANCH   4   5
ATOM      5  C   UNL     1    -116.713  37.556  -8.828  1.00  0.00     0.000 C 
BRANCH   5   6
ATOM      6  C   UNL     1    -115.287  37.772  -9.373  1.00  0.00     0.000 C 
BRANCH   6   7
ATOM      7  C   UNL     1    -115.279  38.566 -10.690  1.00  0.00     0.000 C 
BRANCH   7   8
ATOM      8  C   UNL     1    -114.137  39.596 -10.761  1.00  0.00     0.000 C 
BRANCH   8   9
ATOM      9  C   UNL     1    -114.480  40.900 -11.509  1.00  0.00     0.000 C 
BRANCH   9  10
ATOM     10  C   UNL     1    -114.608  42.154 -10.620  1.00  0.00     0.000 C 
BRANCH  10  11
ATOM     11  C   UNL     1    -115.540  41.995  -9.404  1.00  0.00     0.000 C 
BRANCH  11  12
ATOM     12  C   UNL     1    -114.834  42.068  -8.037  1.00  0.00     0.000 C 
BRANCH  12  13
ATOM     13  C   UNL     1    -114.877  40.741  -7.247  1.00  0.00     0.006 C 
BRANCH  13  14
ATOM     14  C   UNL     1    -116.152  40.603  -6.406  1.00  0.00     0.053 C 
BRANCH  14  15
ATOM     15  C   UNL     1    -115.862  40.886  -4.966  1.00  0.00     0.041 C 
ATOM     16  O   UNL     1    -115.538  42.047  -4.601  1.00  0.00    -0.550 OA
ATOM     17  O   UNL     1    -115.899  39.857  -4.034  1.00  0.00    -0.550 OA
ENDBRANCH  14  15
ENDBRANCH  13  14
ENDBRANCH  12  13
ENDBRANCH  11  12
ENDBRANCH  10  11
ENDBRANCH   9  10
ENDBRANCH   8   9
ENDBRANCH   7   8
ENDBRANCH   6   7
ENDBRANCH   5   6
ENDBRANCH   4   5
ENDBRANCH   3   4
ENDBRANCH   2   3
ENDBRANCH   1   2
BRANCH   1  18
ATOM     18  C   UNL     1    -116.067  33.823  -9.270  1.00  0.00     0.000 C 
BRANCH  18  19
ATOM     19  C   UNL     1    -115.784  34.288 -10.706  1.00  0.00     0.000 C 
BRANCH  19  20
ATOM     20  C   UNL     1    -116.985  35.000 -11.353  1.00  0.00     0.000 C 
BRANCH  20  21
ATOM     21  C   UNL     1    -116.659  35.817 -12.620  1.00  0.00     0.000 C 
BRANCH  21  22
ATOM     22  C   UNL     1    -115.229  35.638 -13.166  1.00  0.00     0.000 C 
BRANCH  22  23
ATOM     23  C   UNL     1    -114.689  36.832 -13.974  1.00  0.00     0.000 C 
BRANCH  23  24
ATOM     24  C   UNL     1    -113.379  36.511 -14.706  1.00  0.00    -0.000 C 
BRANCH  24  25
ATOM     25  C   UNL     1    -112.683  37.794 -15.175  1.00  0.00    -0.000 C 
BRANCH  25  26
ATOM     26  C   UNL     1    -112.692  38.860 -14.071  1.00  0.00    -0.000 C 
BRANCH  26  27
ATOM     27  C   UNL     1    -111.485  38.700 -13.139  1.00  0.00    -0.000 C 
BRANCH  27  28
ATOM     28  C   UNL     1    -110.628  39.975 -13.129  1.00  0.00    -0.000 C 
BRANCH  28  29
ATOM     29  C   UNL     1    -110.884  40.873 -14.351  1.00  0.00    -0.000 C 
BRANCH  29  30
ATOM     30  C   UNL     1    -110.707  42.367 -14.034  1.00  0.00    -0.000 C 
BRANCH  30  31
ATOM     31  C   UNL     1    -111.810  42.861 -13.091  1.00  0.00    -0.003 C 
ATOM     32  C   UNL     1    -111.310  44.002 -12.208  1.00  0.00     0.004 C 
ENDBRANCH  30  31
ENDBRANCH  29  30
ENDBRANCH  28  29
ENDBRANCH  27  28
ENDBRANCH  26  27
ENDBRANCH  25  26
ENDBRANCH  24  25
ENDBRANCH  23  24
ENDBRANCH  22  23
ENDBRANCH  21  22
ENDBRANCH  20  21
ENDBRANCH  19  20
ENDBRANCH  18  19
ENDBRANCH   1  18
TORSDOF 28
ENDMDL
MODEL 7
REMARK VINA RESULT:    -2.953      2.928      5.642
REMARK INTER + INTRA:         -12.675
REMARK INTER:                  -7.614
REMARK INTRA:                  -5.062
REMARK UNBOUND:                -4.888
REMARK SMILES CCCCCCCCCCCCCCCCCCCCCCCCCCCCCC(=O)[O-]
REMARK SMILES IDX 16 1 17 2 18 3 19 4 20 5 21 6 22 7 23 8 24 9 25 10 26 11
REMARK SMILES IDX 27 12 28 13 29 14 30 15 31 16 32 17 15 18 14 19 13 20 12 21
REMARK SMILES IDX 11 22 10 23 9 24 8 25 7 26 6 27 5 28 4 29 3 30 2 31 1 32
REMARK H PARENT
REMARK Flexibility Score: inf
ROOT
ATOM      1  C   UNL     1    -115.022  38.272  -9.040  1.00  0.00     0.000 C 
ENDROOT
BRANCH   1   2
ATOM      2  C   UNL     1    -116.432  37.840  -8.592  1.00  0.00     0.000 C 
BRANCH   2   3
ATOM      3  C   UNL     1    -116.515  36.446  -7.934  1.00  0.00     0.000 C 
BRANCH   3   4
ATOM      4  C   UNL     1    -115.174  35.680  -7.888  1.00  0.00     0.000 C 
BRANCH   4   5
ATOM      5  C   UNL     1    -115.295  34.178  -8.209  1.00  0.00     0.000 C 
BRANCH   5   6
ATOM      6  C   UNL     1    -115.186  33.849  -9.712  1.00  0.00     0.000 C 
BRANCH   6   7
ATOM      7  C   UNL     1    -116.560  33.581 -10.351  1.00  0.00     0.000 C 
BRANCH   7   8
ATOM      8  C   UNL     1    -116.987  34.687 -11.334  1.00  0.00     0.000 C 
BRANCH   8   9
ATOM      9  C   UNL     1    -115.840  35.576 -11.854  1.00  0.00     0.000 C 
BRANCH   9  10
ATOM     10  C   UNL     1    -116.172  36.410 -13.109  1.00  0.00     0.000 C 
BRANCH  10  11
ATOM     11  C   UNL     1    -115.843  35.727 -14.449  1.00  0.00     0.000 C 
BRANCH  11  12
ATOM     12  C   UNL     1    -117.015  34.958 -15.086  1.00  0.00     0.000 C 
BRANCH  12  13
ATOM     13  C   UNL     1    -116.868  33.422 -14.999  1.00  0.00     0.006 C 
BRANCH  13  14
ATOM     14  C   UNL     1    -115.403  32.981 -14.900  1.00  0.00     0.053 C 
BRANCH  14  15
ATOM     15  C   UNL     1    -115.157  32.273 -13.605  1.00  0.00     0.041 C 
ATOM     16  O   UNL     1    -115.955  31.385 -13.205  1.00  0.00    -0.550 OA
ATOM     17  O   UNL     1    -114.073  32.631 -12.813  1.00  0.00    -0.550 OA
ENDBRANCH  14  15
ENDBRANCH  13  14
ENDBRANCH  12  13
ENDBRANCH  11  12
ENDBRANCH  10  11
ENDBRANCH   9  10
ENDBRANCH   8   9
ENDBRANCH   7   8
ENDBRANCH   6   7
ENDBRANCH   5   6
ENDBRANCH   4   5
ENDBRANCH   3   4
ENDBRANCH   2   3
ENDBRANCH   1   2
BRANCH   1  18
ATOM     18  C   UNL     1    -114.964  38.727 -10.506  1.00  0.00     0.000 C 
BRANCH  18  19
ATOM     19  C   UNL     1    -113.949  39.866 -10.688  1.00  0.00     0.000 C 
BRANCH  19  20
ATOM     20  C   UNL     1    -113.254  39.836 -12.061  1.00  0.00     0.000 C 
BRANCH  20  21
ATOM     21  C   UNL     1    -114.187  39.584 -13.262  1.00  0.00     0.000 C 
BRANCH  21  22
ATOM     22  C   UNL     1    -113.504  38.999 -14.513  1.00  0.00     0.000 C 
BRANCH  22  23
ATOM     23  C   UNL     1    -112.794  37.651 -14.293  1.00  0.00     0.000 C 
BRANCH  23  24
ATOM     24  C   UNL     1    -111.272  37.743 -14.478  1.00  0.00    -0.000 C 
BRANCH  24  25
ATOM     25  C   UNL     1    -110.903  38.894 -15.422  1.00  0.00    -0.000 C 
BRANCH  25  26
ATOM     26  C   UNL     1    -109.552  39.509 -15.036  1.00  0.00    -0.000 C 
BRANCH  26  27
ATOM     27  C   UNL     1    -109.721  40.578 -13.950  1.00  0.00    -0.000 C 
BRANCH  27  28
ATOM     28  C   UNL     1    -110.806  41.592 -14.343  1.00  0.00    -0.000 C 
BRANCH  28  29
ATOM     29  C   UNL     1    -111.150  42.566 -13.205  1.00  0.00    -0.000 C 
BRANCH  29  30
ATOM     30  C   UNL     1    -112.298  43.521 -13.570  1.00  0.00    -0.000 C 
BRANCH  30  31
ATOM     31  C   UNL     1    -113.181  43.809 -12.351  1.00  0.00    -0.003 C 
ATOM     32  C   UNL     1    -114.584  43.238 -12.539  1.00  0.00     0.004 C 
ENDBRANCH  30  31
ENDBRANCH  29  30
ENDBRANCH  28  29
ENDBRANCH  27  28
ENDBRANCH  26  27
ENDBRANCH  25  26
ENDBRANCH  24  25
ENDBRANCH  23  24
ENDBRANCH  22  23
ENDBRANCH  21  22
ENDBRANCH  20  21
ENDBRANCH  19  20
ENDBRANCH  18  19
ENDBRANCH   1  18
TORSDOF 28
ENDMDL
MODEL 8
REMARK VINA RESULT:    -2.946      2.759      6.364
REMARK INTER + INTRA:         -12.657
REMARK INTER:                  -8.421
REMARK INTRA:                  -4.235
REMARK UNBOUND:                -4.888
REMARK SMILES CCCCCCCCCCCCCCCCCCCCCCCCCCCCCC(=O)[O-]
REMARK SMILES IDX 16 1 17 2 18 3 19 4 20 5 21 6 22 7 23 8 24 9 25 10 26 11
REMARK SMILES IDX 27 12 28 13 29 14 30 15 31 16 32 17 15 18 14 19 13 20 12 21
REMARK SMILES IDX 11 22 10 23 9 24 8 25 7 26 6 27 5 28 4 29 3 30 2 31 1 32
REMARK H PARENT
REMARK Flexibility Score: inf
ROOT
ATOM      1  C   UNL     1    -115.242  35.529  -7.876  1.00  0.00     0.000 C 
ENDROOT
BRANCH   1   2
ATOM      2  C   UNL     1    -115.652  34.155  -8.441  1.00  0.00     0.000 C 
BRANCH   2   3
ATOM      3  C   UNL     1    -115.238  33.895  -9.904  1.00  0.00     0.000 C 
BRANCH   3   4
ATOM      4  C   UNL     1    -116.279  34.345 -10.954  1.00  0.00     0.000 C 
BRANCH   4   5
ATOM      5  C   UNL     1    -115.954  35.694 -11.625  1.00  0.00     0.000 C 
BRANCH   5   6
ATOM      6  C   UNL     1    -115.798  35.609 -13.156  1.00  0.00     0.000 C 
BRANCH   6   7
ATOM      7  C   UNL     1    -114.815  34.505 -13.583  1.00  0.00     0.000 C 
BRANCH   7   8
ATOM      8  C   UNL     1    -114.209  34.750 -14.977  1.00  0.00     0.000 C 
BRANCH   8   9
ATOM      9  C   UNL     1    -113.606  36.153 -15.189  1.00  0.00     0.000 C 
BRANCH   9  10
ATOM     10  C   UNL     1    -112.065  36.207 -15.227  1.00  0.00     0.000 C 
BRANCH  10  11
ATOM     11  C   UNL     1    -111.456  37.588 -14.921  1.00  0.00     0.000 C 
BRANCH  11  12
ATOM     12  C   UNL     1    -110.021  37.790 -15.441  1.00  0.00     0.000 C 
BRANCH  12  13
ATOM     13  C   UNL     1    -109.695  39.256 -15.804  1.00  0.00     0.006 C 
BRANCH  13  14
ATOM     14  C   UNL     1    -108.451  39.776 -15.073  1.00  0.00     0.053 C 
BRANCH  14  15
ATOM     15  C   UNL     1    -108.028  41.096 -15.635  1.00  0.00     0.041 C 
ATOM     16  O   UNL     1    -106.825  41.295 -15.949  1.00  0.00    -0.550 OA
ATOM     17  O   UNL     1    -108.952  42.124 -15.764  1.00  0.00    -0.550 OA
ENDBRANCH  14  15
ENDBRANCH  13  14
ENDBRANCH  12  13
ENDBRANCH  11  12
ENDBRANCH  10  11
ENDBRANCH   9  10
ENDBRANCH   8   9
ENDBRANCH   7   8
ENDBRANCH   6   7
ENDBRANCH   5   6
ENDBRANCH   4   5
ENDBRANCH   3   4
ENDBRANCH   2   3
ENDBRANCH   1   2
BRANCH   1  18
ATOM     18  C   UNL     1    -116.440  36.424  -7.526  1.00  0.00     0.000 C 
BRANCH  18  19
ATOM     19  C   UNL     1    -116.607  37.547  -8.561  1.00  0.00     0.000 C 
BRANCH  19  20
ATOM     20  C   UNL     1    -116.112  38.912  -8.050  1.00  0.00     0.000 C 
BRANCH  20  21
ATOM     21  C   UNL     1    -114.869  39.471  -8.771  1.00  0.00     0.000 C 
BRANCH  21  22
ATOM     22  C   UNL     1    -114.493  38.753 -10.082  1.00  0.00     0.000 C 
BRANCH  22  23
ATOM     23  C   UNL     1    -115.172  39.313 -11.345  1.00  0.00     0.000 C 
BRANCH  23  24
ATOM     24  C   UNL     1    -114.298  39.176 -12.600  1.00  0.00    -0.000 C 
BRANCH  24  25
ATOM     25  C   UNL     1    -112.882  39.705 -12.344  1.00  0.00    -0.000 C 
BRANCH  25  26
ATOM     26  C   UNL     1    -112.423  40.623 -13.484  1.00  0.00    -0.000 C 
BRANCH  26  27
ATOM     27  C   UNL     1    -111.162  41.403 -13.092  1.00  0.00    -0.000 C 
BRANCH  27  28
ATOM     28  C   UNL     1    -111.371  42.913 -13.282  1.00  0.00    -0.000 C 
BRANCH  28  29
ATOM     29  C   UNL     1    -111.466  43.672 -11.949  1.00  0.00    -0.000 C 
BRANCH  29  30
ATOM     30  C   UNL     1    -112.901  44.113 -11.620  1.00  0.00    -0.000 C 
BRANCH  30  31
ATOM     31  C   UNL     1    -113.664  42.998 -10.895  1.00  0.00    -0.003 C 
ATOM     32  C   UNL     1    -112.845  42.431  -9.738  1.00  0.00     0.004 C 
ENDBRANCH  30  31
ENDBRANCH  29  30
ENDBRANCH  28  29
ENDBRANCH  27  28
ENDBRANCH  26  27
ENDBRANCH  25  26
ENDBRANCH  24  25
ENDBRANCH  23  24
ENDBRANCH  22  23
ENDBRANCH  21  22
ENDBRANCH  20  21
ENDBRANCH  19  20
ENDBRANCH  18  19
ENDBRANCH   1  18
TORSDOF 28
ENDMDL
MODEL 9
REMARK VINA RESULT:    -2.944      1.321      7.550
REMARK INTER + INTRA:         -12.650
REMARK INTER:                  -7.325
REMARK INTRA:                  -5.325
REMARK UNBOUND:                -4.888
REMARK SMILES CCCCCCCCCCCCCCCCCCCCCCCCCCCCCC(=O)[O-]
REMARK SMILES IDX 16 1 17 2 18 3 19 4 20 5 21 6 22 7 23 8 24 9 25 10 26 11
REMARK SMILES IDX 27 12 28 13 29 14 30 15 31 16 32 17 15 18 14 19 13 20 12 21
REMARK SMILES IDX 11 22 10 23 9 24 8 25 7 26 6 27 5 28 4 29 3 30 2 31 1 32
REMARK H PARENT
REMARK Flexibility Score: inf
ROOT
ATOM      1  C   UNL     1    -114.086  38.563 -12.947  1.00  0.00     0.000 C 
ENDROOT
BRANCH   1   2
ATOM      2  C   UNL     1    -112.756  39.118 -12.399  1.00  0.00     0.000 C 
BRANCH   2   3
ATOM      3  C   UNL     1    -111.509  38.793 -13.246  1.00  0.00     0.000 C 
BRANCH   3   4
ATOM      4  C   UNL     1    -110.405  39.873 -13.201  1.00  0.00     0.000 C 
BRANCH   4   5
ATOM      5  C   UNL     1    -110.935  41.319 -13.261  1.00  0.00     0.000 C 
BRANCH   5   6
ATOM      6  C   UNL     1    -110.675  42.026 -14.606  1.00  0.00     0.000 C 
BRANCH   6   7
ATOM      7  C   UNL     1    -111.963  42.598 -15.223  1.00  0.00     0.000 C 
BRANCH   7   8
ATOM      8  C   UNL     1    -113.188  41.692 -14.996  1.00  0.00     0.000 C 
BRANCH   8   9
ATOM      9  C   UNL     1    -114.436  42.410 -14.445  1.00  0.00     0.000 C 
BRANCH   9  10
ATOM     10  C   UNL     1    -114.172  43.390 -13.283  1.00  0.00     0.000 C 
BRANCH  10  11
ATOM     11  C   UNL     1    -114.122  42.743 -11.887  1.00  0.00     0.000 C 
BRANCH  11  12
ATOM     12  C   UNL     1    -112.883  43.110 -11.049  1.00  0.00     0.000 C 
BRANCH  12  13
ATOM     13  C   UNL     1    -112.696  42.223  -9.798  1.00  0.00     0.006 C 
BRANCH  13  14
ATOM     14  C   UNL     1    -113.820  41.191  -9.641  1.00  0.00     0.053 C 
BRANCH  14  15
ATOM     15  C   UNL     1    -114.472  41.329  -8.301  1.00  0.00     0.041 C 
ATOM     16  O   UNL     1    -114.719  40.308  -7.607  1.00  0.00    -0.550 OA
ATOM     17  O   UNL     1    -114.855  42.583  -7.841  1.00  0.00    -0.550 OA
ENDBRANCH  14  15
ENDBRANCH  13  14
ENDBRANCH  12  13
ENDBRANCH  11  12
ENDBRANCH  10  11
ENDBRANCH   9  10
ENDBRANCH   8   9
ENDBRANCH   7   8
ENDBRANCH   6   7
ENDBRANCH   5   6
ENDBRANCH   4   5
ENDBRANCH   3   4
ENDBRANCH   2   3
ENDBRANCH   1   2
BRANCH   1  18
ATOM     18  C   UNL     1    -115.315  39.351 -12.469  1.00  0.00     0.000 C 
BRANCH  18  19
ATOM     19  C   UNL     1    -116.299  38.433 -11.727  1.00  0.00     0.000 C 
BRANCH  19  20
ATOM     20  C   UNL     1    -115.756  37.943 -10.373  1.00  0.00     0.000 C 
BRANCH  20  21
ATOM     21  C   UNL     1    -116.820  37.391  -9.401  1.00  0.00     0.000 C 
BRANCH  21  22
ATOM     22  C   UNL     1    -116.343  37.193  -7.949  1.00  0.00     0.000 C 
BRANCH  22  23
ATOM     23  C   UNL     1    -116.338  35.733  -7.463  1.00  0.00     0.000 C 
BRANCH  23  24
ATOM     24  C   UNL     1    -115.059  34.980  -7.856  1.00  0.00    -0.000 C 
BRANCH  24  25
ATOM     25  C   UNL     1    -115.390  33.730  -8.682  1.00  0.00    -0.000 C 
BRANCH  25  26
ATOM     26  C   UNL     1    -115.287  34.021 -10.185  1.00  0.00    -0.000 C 
BRANCH  26  27
ATOM     27  C   UNL     1    -116.664  33.954 -10.856  1.00  0.00    -0.000 C 
BRANCH  27  28
ATOM     28  C   UNL     1    -116.641  34.650 -12.225  1.00  0.00    -0.000 C 
BRANCH  28  29
ATOM     29  C   UNL     1    -115.224  35.063 -12.658  1.00  0.00    -0.000 C 
BRANCH  29  30
ATOM     30  C   UNL     1    -114.809  34.435 -13.998  1.00  0.00    -0.000 C 
BRANCH  30  31
ATOM     31  C   UNL     1    -114.580  35.515 -15.062  1.00  0.00    -0.003 C 
ATOM     32  C   UNL     1    -113.092  35.802 -15.244  1.00  0.00     0.004 C 
ENDBRANCH  30  31
ENDBRANCH  29  30
ENDBRANCH  28  29
ENDBRANCH  27  28
ENDBRANCH  26  27
ENDBRANCH  25  26
ENDBRANCH  24  25
ENDBRANCH  23  24
ENDBRANCH  22  23
ENDBRANCH  21  22
ENDBRANCH  20  21
ENDBRANCH  19  20
ENDBRANCH  18  19
ENDBRANCH   1  18
TORSDOF 28
ENDMDL
