MODEL 1
REMARK VINA RESULT:    -4.226      0.000      0.000
REMARK INTER + INTRA:          -4.641
REMARK INTER:                  -4.597
REMARK INTRA:                  -0.044
REMARK UNBOUND:                -0.044
REMARK SMILES COc1cc2ccc(=O)oc2cc1O
REMARK SMILES IDX 3 1 13 2 12 3 11 4 5 5 4 6 6 7 7 8 8 9 9 10 10 11 2 12 1 13
REMARK SMILES IDX 14 14
REMARK H PARENT 14 15
REMARK Flexibility Score: inf
ROOT
ATOM      1  C   UNL     1      -1.476  -4.084  -9.267  1.00  0.00     0.161 A 
ATOM      2  C   UNL     1      -1.541  -5.398  -8.760  1.00  0.00     0.161 A 
ATOM      3  C   UNL     1      -0.397  -6.007  -8.233  1.00  0.00     0.098 A 
ATOM      4  C   UNL     1       0.820  -5.322  -8.205  1.00  0.00     0.142 A 
ATOM      5  C   UNL     1       0.896  -4.008  -8.711  1.00  0.00     0.022 A 
ATOM      6  C   UNL     1      -0.247  -3.394  -9.240  1.00  0.00     0.062 A 
ATOM      7  C   UNL     1       2.129  -3.348  -8.669  1.00  0.00     0.019 A 
ATOM      8  C   UNL     1       3.238  -4.002  -8.134  1.00  0.00     0.094 A 
ATOM      9  C   UNL     1       3.088  -5.306  -7.650  1.00  0.00     0.336 A 
ATOM     10  O   UNL     1       4.077  -5.913  -7.162  1.00  0.00    -0.246 OA
ATOM     11  O   UNL     1       1.903  -5.910  -7.703  1.00  0.00    -0.423 OA
ENDROOT
BRANCH   1  12
ATOM     12  O   UNL     1      -2.643  -3.503  -9.789  1.00  0.00    -0.493 OA
ATOM     13  C   UNL     1      -2.778  -2.126 -10.125  1.00  0.00     0.278 C 
ENDBRANCH   1  12
BRANCH   2  14
ATOM     14  O   UNL     1      -2.738  -6.114  -8.770  1.00  0.00    -0.504 OA
ATOM     15  H   UNL     1      -2.888  -6.906  -9.383  1.00  0.00     0.293 HD
ENDBRANCH   2  14
TORSDOF 2
ENDMDL
MODEL 2
REMARK VINA RESULT:    -3.844      4.141      6.508
REMARK INTER + INTRA:          -4.225
REMARK INTER:                  -4.181
REMARK INTRA:                  -0.044
REMARK UNBOUND:                -0.044
REMARK SMILES COc1cc2ccc(=O)oc2cc1O
REMARK SMILES IDX 3 1 13 2 12 3 11 4 5 5 4 6 6 7 7 8 8 9 9 10 10 11 2 12 1 13
REMARK SMILES IDX 14 14
REMARK H PARENT 14 15
REMARK Flexibility Score: inf
ROOT
ATOM      1  C   UNL     1       3.986  -3.515  -6.856  1.00  0.00     0.161 A 
ATOM      2  C   UNL     1       4.650  -2.332  -6.475  1.00  0.00     0.161 A 
ATOM      3  C   UNL     1       5.569  -2.349  -5.419  1.00  0.00     0.098 A 
ATOM      4  C   UNL     1       5.836  -3.537  -4.733  1.00  0.00     0.142 A 
ATOM      5  C   UNL     1       5.175  -4.725  -5.106  1.00  0.00     0.022 A 
ATOM      6  C   UNL     1       4.254  -4.712  -6.162  1.00  0.00     0.062 A 
ATOM      7  C   UNL     1       5.464  -5.897  -4.400  1.00  0.00     0.019 A 
ATOM      8  C   UNL     1       6.387  -5.859  -3.356  1.00  0.00     0.094 A 
ATOM      9  C   UNL     1       7.005  -4.643  -3.042  1.00  0.00     0.336 A 
ATOM     10  O   UNL     1       7.841  -4.588  -2.103  1.00  0.00    -0.246 OA
ATOM     11  O   UNL     1       6.711  -3.543  -3.730  1.00  0.00    -0.423 OA
ENDROOT
BRANCH   1  12
ATOM     12  O   UNL     1       3.070  -3.462  -7.919  1.00  0.00    -0.493 OA
ATOM     13  C   UNL     1       2.173  -4.513  -8.265  1.00  0.00     0.278 C 
ENDBRANCH   1  12
BRANCH   2  14
ATOM     14  O   UNL     1       4.411  -1.128  -7.136  1.00  0.00    -0.504 OA
ATOM     15  H   UNL     1       5.127  -0.657  -7.675  1.00  0.00     0.293 HD
ENDBRANCH   2  14
TORSDOF 2
ENDMDL
MODEL 3
REMARK VINA RESULT:    -3.767      8.832     11.168
REMARK INTER + INTRA:          -4.141
REMARK INTER:                  -4.097
REMARK INTRA:                  -0.044
REMARK UNBOUND:                -0.044
REMARK SMILES COc1cc2ccc(=O)oc2cc1O
REMARK SMILES IDX 3 1 13 2 12 3 11 4 5 5 4 6 6 7 7 8 8 9 9 10 10 11 2 12 1 13
REMARK SMILES IDX 14 14
REMARK H PARENT 14 15
REMARK Flexibility Score: inf
ROOT
ATOM      1  C   UNL     1       6.656   3.625  -6.741  1.00  0.00     0.161 A 
ATOM      2  C   UNL     1       6.271   4.957  -6.489  1.00  0.00     0.161 A 
ATOM      3  C   UNL     1       5.120   5.483  -7.086  1.00  0.00     0.098 A 
ATOM      4  C   UNL     1       4.342   4.694  -7.937  1.00  0.00     0.142 A 
ATOM      5  C   UNL     1       4.720   3.361  -8.197  1.00  0.00     0.022 A 
ATOM      6  C   UNL     1       5.872   2.831  -7.601  1.00  0.00     0.062 A 
ATOM      7  C   UNL     1       3.921   2.597  -9.054  1.00  0.00     0.019 A 
ATOM      8  C   UNL     1       2.784   3.170  -9.623  1.00  0.00     0.094 A 
ATOM      9  C   UNL     1       2.471   4.500  -9.320  1.00  0.00     0.336 A 
ATOM     10  O   UNL     1       1.449   5.035  -9.823  1.00  0.00    -0.246 OA
ATOM     11  O   UNL     1       3.249   5.204  -8.501  1.00  0.00    -0.423 OA
ENDROOT
BRANCH   1  12
ATOM     12  O   UNL     1       7.817   3.130  -6.125  1.00  0.00    -0.493 OA
ATOM     13  C   UNL     1       8.125   1.748  -5.976  1.00  0.00     0.278 C 
ENDBRANCH   1  12
BRANCH   2  14
ATOM     14  O   UNL     1       7.021   5.776  -5.644  1.00  0.00    -0.504 OA
ATOM     15  H   UNL     1       6.693   6.685  -5.342  1.00  0.00     0.293 HD
ENDBRANCH   2  14
TORSDOF 2
ENDMDL
MODEL 4
REMARK VINA RESULT:    -3.721      3.689      7.233
REMARK INTER + INTRA:          -4.091
REMARK INTER:                  -4.037
REMARK INTRA:                  -0.054
REMARK UNBOUND:                -0.044
REMARK SMILES COc1cc2ccc(=O)oc2cc1O
REMARK SMILES IDX 3 1 13 2 12 3 11 4 5 5 4 6 6 7 7 8 8 9 9 10 10 11 2 12 1 13
REMARK SMILES IDX 14 14
REMARK H PARENT 14 15
REMARK Flexibility Score: inf
ROOT
ATOM      1  C   UNL     1       5.608  -3.905  -4.501  1.00  0.00     0.161 A 
ATOM      2  C   UNL     1       5.792  -2.564  -4.895  1.00  0.00     0.161 A 
ATOM      3  C   UNL     1       5.126  -2.062  -6.019  1.00  0.00     0.098 A 
ATOM      4  C   UNL     1       4.273  -2.883  -6.761  1.00  0.00     0.142 A 
ATOM      5  C   UNL     1       4.083  -4.226  -6.376  1.00  0.00     0.022 A 
ATOM      6  C   UNL     1       4.748  -4.733  -5.251  1.00  0.00     0.062 A 
ATOM      7  C   UNL     1       3.223  -5.023  -7.139  1.00  0.00     0.019 A 
ATOM      8  C   UNL     1       2.585  -4.472  -8.250  1.00  0.00     0.094 A 
ATOM      9  C   UNL     1       2.821  -3.132  -8.572  1.00  0.00     0.336 A 
ATOM     10  O   UNL     1       2.254  -2.616  -9.571  1.00  0.00    -0.246 OA
ATOM     11  O   UNL     1       3.645  -2.397  -7.829  1.00  0.00    -0.423 OA
ENDROOT
BRANCH   1  12
ATOM     12  O   UNL     1       6.291  -4.376  -3.369  1.00  0.00    -0.493 OA
ATOM     13  C   UNL     1       7.107  -5.543  -3.346  1.00  0.00     0.278 C 
ENDBRANCH   1  12
BRANCH   2  14
ATOM     14  O   UNL     1       6.635  -1.714  -4.180  1.00  0.00    -0.504 OA
ATOM     15  H   UNL     1       6.441  -0.725  -4.075  1.00  0.00     0.293 HD
ENDBRANCH   2  14
TORSDOF 2
ENDMDL
MODEL 5
REMARK VINA RESULT:    -3.685     14.192     15.693
REMARK INTER + INTRA:          -4.052
REMARK INTER:                  -4.008
REMARK INTRA:                  -0.044
REMARK UNBOUND:                -0.044
REMARK SMILES COc1cc2ccc(=O)oc2cc1O
REMARK SMILES IDX 3 1 13 2 12 3 11 4 5 5 4 6 6 7 7 8 8 9 9 10 10 11 2 12 1 13
REMARK SMILES IDX 14 14
REMARK H PARENT 14 15
REMARK Flexibility Score: inf
ROOT
ATOM      1  C   UNL     1     -11.915   4.787  -3.287  1.00  0.00     0.161 A 
ATOM      2  C   UNL     1     -11.685   3.415  -3.065  1.00  0.00     0.161 A 
ATOM      3  C   UNL     1     -11.604   2.530  -4.146  1.00  0.00     0.098 A 
ATOM      4  C   UNL     1     -11.751   2.997  -5.455  1.00  0.00     0.142 A 
ATOM      5  C   UNL     1     -11.982   4.368  -5.687  1.00  0.00     0.022 A 
ATOM      6  C   UNL     1     -12.065   5.258  -4.607  1.00  0.00     0.062 A 
ATOM      7  C   UNL     1     -12.125   4.805  -7.008  1.00  0.00     0.019 A 
ATOM      8  C   UNL     1     -12.036   3.882  -8.049  1.00  0.00     0.094 A 
ATOM      9  C   UNL     1     -11.804   2.536  -7.743  1.00  0.00     0.336 A 
ATOM     10  O   UNL     1     -11.720   1.687  -8.668  1.00  0.00    -0.246 OA
ATOM     11  O   UNL     1     -11.673   2.148  -6.477  1.00  0.00    -0.423 OA
ENDROOT
BRANCH   1  12
ATOM     12  O   UNL     1     -11.991   5.647  -2.179  1.00  0.00    -0.493 OA
ATOM     13  C   UNL     1     -12.038   7.068  -2.262  1.00  0.00     0.278 C 
ENDBRANCH   1  12
BRANCH   2  14
ATOM     14  O   UNL     1     -11.533   2.910  -1.773  1.00  0.00    -0.504 OA
ATOM     15  H   UNL     1     -11.480   3.513  -0.961  1.00  0.00     0.293 HD
ENDBRANCH   2  14
TORSDOF 2
ENDMDL
MODEL 6
REMARK VINA RESULT:    -3.634      2.819      4.575
REMARK INTER + INTRA:          -3.997
REMARK INTER:                  -3.936
REMARK INTRA:                  -0.061
REMARK UNBOUND:                -0.044
REMARK SMILES COc1cc2ccc(=O)oc2cc1O
REMARK SMILES IDX 3 1 13 2 12 3 11 4 5 5 4 6 6 7 7 8 8 9 9 10 10 11 2 12 1 13
REMARK SMILES IDX 14 14
REMARK H PARENT 14 15
REMARK Flexibility Score: inf
ROOT
ATOM      1  C   UNL     1       2.273  -4.331  -8.481  1.00  0.00     0.161 A 
ATOM      2  C   UNL     1       2.482  -2.942  -8.595  1.00  0.00     0.161 A 
ATOM      3  C   UNL     1       3.364  -2.289  -7.728  1.00  0.00     0.098 A 
ATOM      4  C   UNL     1       4.046  -3.005  -6.741  1.00  0.00     0.142 A 
ATOM      5  C   UNL     1       3.842  -4.395  -6.618  1.00  0.00     0.022 A 
ATOM      6  C   UNL     1       2.959  -5.053  -7.484  1.00  0.00     0.062 A 
ATOM      7  C   UNL     1       4.539  -5.084  -5.620  1.00  0.00     0.019 A 
ATOM      8  C   UNL     1       5.406  -4.385  -4.782  1.00  0.00     0.094 A 
ATOM      9  C   UNL     1       5.558  -3.006  -4.962  1.00  0.00     0.336 A 
ATOM     10  O   UNL     1       6.336  -2.356  -4.216  1.00  0.00    -0.246 OA
ATOM     11  O   UNL     1       4.882  -2.375  -5.920  1.00  0.00    -0.423 OA
ENDROOT
BRANCH   1  12
ATOM     12  O   UNL     1       1.380  -4.955  -9.368  1.00  0.00    -0.493 OA
ATOM     13  C   UNL     1       0.143  -5.546  -8.986  1.00  0.00     0.278 C 
ENDBRANCH   1  12
BRANCH   2  14
ATOM     14  O   UNL     1       1.820  -2.192  -9.568  1.00  0.00    -0.504 OA
ATOM     15  H   UNL     1       2.317  -1.606 -10.228  1.00  0.00     0.293 HD
ENDBRANCH   2  14
TORSDOF 2
ENDMDL
MODEL 7
REMARK VINA RESULT:    -3.581     14.710     15.991
REMARK INTER + INTRA:          -3.939
REMARK INTER:                  -3.895
REMARK INTRA:                  -0.043
REMARK UNBOUND:                -0.044
REMARK SMILES COc1cc2ccc(=O)oc2cc1O
REMARK SMILES IDX 3 1 13 2 12 3 11 4 5 5 4 6 6 7 7 8 8 9 9 10 10 11 2 12 1 13
REMARK SMILES IDX 14 14
REMARK H PARENT 14 15
REMARK Flexibility Score: inf
ROOT
ATOM      1  C   UNL     1     -11.889   3.663  -2.982  1.00  0.00     0.161 A 
ATOM      2  C   UNL     1     -12.035   5.028  -3.301  1.00  0.00     0.161 A 
ATOM      3  C   UNL     1     -12.094   5.437  -4.638  1.00  0.00     0.098 A 
ATOM      4  C   UNL     1     -12.008   4.498  -5.669  1.00  0.00     0.142 A 
ATOM      5  C   UNL     1     -11.860   3.130  -5.360  1.00  0.00     0.022 A 
ATOM      6  C   UNL     1     -11.801   2.717  -4.022  1.00  0.00     0.062 A 
ATOM      7  C   UNL     1     -11.777   2.214  -6.414  1.00  0.00     0.019 A 
ATOM      8  C   UNL     1     -11.841   2.675  -7.728  1.00  0.00     0.094 A 
ATOM      9  C   UNL     1     -11.988   4.047  -7.959  1.00  0.00     0.336 A 
ATOM     10  O   UNL     1     -12.047   4.483  -9.139  1.00  0.00    -0.246 OA
ATOM     11  O   UNL     1     -12.064   4.896  -6.938  1.00  0.00    -0.423 OA
ENDROOT
BRANCH   1  12
ATOM     12  O   UNL     1     -11.834   3.288  -1.630  1.00  0.00    -0.493 OA
ATOM     13  C   UNL     1     -11.769   1.943  -1.167  1.00  0.00     0.278 C 
ENDBRANCH   1  12
BRANCH   2  14
ATOM     14  O   UNL     1     -12.125   5.995  -2.300  1.00  0.00    -0.504 OA
ATOM     15  H   UNL     1     -13.012   6.286  -1.908  1.00  0.00     0.293 HD
ENDBRANCH   2  14
TORSDOF 2
ENDMDL
MODEL 8
REMARK VINA RESULT:    -3.563     20.270     21.223
REMARK INTER + INTRA:          -3.919
REMARK INTER:                  -3.876
REMARK INTRA:                  -0.043
REMARK UNBOUND:                -0.044
REMARK SMILES COc1cc2ccc(=O)oc2cc1O
REMARK SMILES IDX 3 1 13 2 12 3 11 4 5 5 4 6 6 7 7 8 8 9 9 10 10 11 2 12 1 13
REMARK SMILES IDX 14 14
REMARK H PARENT 14 15
REMARK Flexibility Score: inf
ROOT
ATOM      1  C   UNL     1      -8.808  -0.505   9.038  1.00  0.00     0.161 A 
ATOM      2  C   UNL     1      -9.980  -0.704   8.281  1.00  0.00     0.161 A 
ATOM      3  C   UNL     1     -10.752   0.391   7.877  1.00  0.00     0.098 A 
ATOM      4  C   UNL     1     -10.371   1.691   8.222  1.00  0.00     0.142 A 
ATOM      5  C   UNL     1      -9.201   1.900   8.980  1.00  0.00     0.022 A 
ATOM      6  C   UNL     1      -8.425   0.806   9.386  1.00  0.00     0.062 A 
ATOM      7  C   UNL     1      -8.846   3.212   9.309  1.00  0.00     0.019 A 
ATOM      8  C   UNL     1      -9.651   4.267   8.882  1.00  0.00     0.094 A 
ATOM      9  C   UNL     1     -10.798   3.984   8.132  1.00  0.00     0.336 A 
ATOM     10  O   UNL     1     -11.538   4.923   7.737  1.00  0.00    -0.246 OA
ATOM     11  O   UNL     1     -11.112   2.726   7.834  1.00  0.00    -0.423 OA
ENDROOT
BRANCH   1  12
ATOM     12  O   UNL     1      -8.057  -1.626   9.426  1.00  0.00    -0.493 OA
ATOM     13  C   UNL     1      -6.781  -1.565  10.056  1.00  0.00     0.278 C 
ENDBRANCH   1  12
BRANCH   2  14
ATOM     14  O   UNL     1     -10.393  -1.986   7.917  1.00  0.00    -0.504 OA
ATOM     15  H   UNL     1     -10.421  -2.290   6.952  1.00  0.00     0.293 HD
ENDBRANCH   2  14
TORSDOF 2
ENDMDL
MODEL 9
REMARK VINA RESULT:    -3.549     15.454     16.943
REMARK INTER + INTRA:          -3.903
REMARK INTER:                  -3.859
REMARK INTRA:                  -0.045
REMARK UNBOUND:                -0.044
REMARK SMILES COc1cc2ccc(=O)oc2cc1O
REMARK SMILES IDX 3 1 13 2 12 3 11 4 5 5 4 6 6 7 7 8 8 9 9 10 10 11 2 12 1 13
REMARK SMILES IDX 14 14
REMARK H PARENT 14 15
REMARK Flexibility Score: inf
ROOT
ATOM      1  C   UNL     1     -12.013   7.201  -4.675  1.00  0.00     0.161 A 
ATOM      2  C   UNL     1     -11.817   7.497  -3.311  1.00  0.00     0.161 A 
ATOM      3  C   UNL     1     -11.726   6.463  -2.372  1.00  0.00     0.098 A 
ATOM      4  C   UNL     1     -11.829   5.130  -2.776  1.00  0.00     0.142 A 
ATOM      5  C   UNL     1     -12.026   4.824  -4.138  1.00  0.00     0.022 A 
ATOM      6  C   UNL     1     -12.118   5.856  -5.082  1.00  0.00     0.062 A 
ATOM      7  C   UNL     1     -12.125   3.480  -4.511  1.00  0.00     0.019 A 
ATOM      8  C   UNL     1     -12.028   2.488  -3.535  1.00  0.00     0.094 A 
ATOM      9  C   UNL     1     -11.832   2.867  -2.203  1.00  0.00     0.336 A 
ATOM     10  O   UNL     1     -11.742   1.987  -1.307  1.00  0.00    -0.246 OA
ATOM     11  O   UNL     1     -11.742   4.153  -1.875  1.00  0.00    -0.423 OA
ENDROOT
BRANCH   1  12
ATOM     12  O   UNL     1     -12.099   8.263  -5.590  1.00  0.00    -0.493 OA
ATOM     13  C   UNL     1     -11.780   8.164  -6.974  1.00  0.00     0.278 C 
ENDBRANCH   1  12
BRANCH   2  14
ATOM     14  O   UNL     1     -11.709   8.815  -2.869  1.00  0.00    -0.504 OA
ATOM     15  H   UNL     1     -12.372   9.531  -3.139  1.00  0.00     0.293 HD
ENDBRANCH   2  14
TORSDOF 2
ENDMDL
