MODEL 1
REMARK VINA RESULT:    -3.463      0.000      0.000
REMARK INTER + INTRA:          -8.006
REMARK INTER:                  -5.892
REMARK INTRA:                  -2.114
REMARK UNBOUND:                -2.114
REMARK SMILES CCCCCCCCCCCCCC(=O)[O-]
REMARK SMILES IDX 8 1 9 2 10 3 11 4 12 5 13 6 14 7 15 8 16 9 7 10 6 11 5 12
REMARK SMILES IDX 4 13 3 14 2 15 1 16
REMARK H PARENT
REMARK Flexibility Score: inf
ROOT
ATOM      1  C   UNL     1      26.505  -2.942  51.358  1.00  0.00     0.000 C 
ENDROOT
BRANCH   1   2
ATOM      2  C   UNL     1      25.632  -3.934  52.150  1.00  0.00     0.000 C 
BRANCH   2   3
ATOM      3  C   UNL     1      24.780  -3.305  53.270  1.00  0.00     0.000 C 
BRANCH   3   4
ATOM      4  C   UNL     1      24.927  -3.963  54.657  1.00  0.00     0.000 C 
BRANCH   4   5
ATOM      5  C   UNL     1      25.978  -5.086  54.734  1.00  0.00     0.006 C 
BRANCH   5   6
ATOM      6  C   UNL     1      26.244  -5.553  56.170  1.00  0.00     0.053 C 
BRANCH   6   7
ATOM      7  C   UNL     1      27.715  -5.583  56.445  1.00  0.00     0.041 C 
ATOM      8  O   UNL     1      28.447  -6.442  55.886  1.00  0.00    -0.550 OA
ATOM      9  O   UNL     1      28.285  -4.630  57.280  1.00  0.00    -0.550 OA
ENDBRANCH   6   7
ENDBRANCH   5   6
ENDBRANCH   4   5
ENDBRANCH   3   4
ENDBRANCH   2   3
ENDBRANCH   1   2
BRANCH   1  10
ATOM     10  C   UNL     1      26.833  -1.669  52.157  1.00  0.00     0.000 C 
BRANCH  10  11
ATOM     11  C   UNL     1      28.298  -1.625  52.622  1.00  0.00    -0.000 C 
BRANCH  11  12
ATOM     12  C   UNL     1      28.520  -2.385  53.942  1.00  0.00    -0.000 C 
BRANCH  12  13
ATOM     13  C   UNL     1      29.373  -3.651  53.759  1.00  0.00    -0.000 C 
BRANCH  13  14
ATOM     14  C   UNL     1      30.010  -3.739  52.361  1.00  0.00    -0.000 C 
BRANCH  14  15
ATOM     15  C   UNL     1      29.581  -5.003  51.598  1.00  0.00    -0.003 C 
ATOM     16  C   UNL     1      28.676  -5.917  52.424  1.00  0.00     0.004 C 
ENDBRANCH  14  15
ENDBRANCH  13  14
ENDBRANCH  12  13
ENDBRANCH  11  12
ENDBRANCH  10  11
ENDBRANCH   1  10
TORSDOF 12
ENDMDL
MODEL 2
REMARK VINA RESULT:    -3.449      1.853      2.954
REMARK INTER + INTRA:          -7.982
REMARK INTER:                  -6.029
REMARK INTRA:                  -1.954
REMARK UNBOUND:                -2.114
REMARK SMILES CCCCCCCCCCCCCC(=O)[O-]
REMARK SMILES IDX 8 1 9 2 10 3 11 4 12 5 13 6 14 7 15 8 16 9 7 10 6 11 5 12
REMARK SMILES IDX 4 13 3 14 2 15 1 16
REMARK H PARENT
REMARK Flexibility Score: inf
ROOT
ATOM      1  C   UNL     1      26.596  -2.243  54.800  1.00  0.00     0.000 C 
ENDROOT
BRANCH   1   2
ATOM      2  C   UNL     1      25.086  -2.491  54.622  1.00  0.00     0.000 C 
BRANCH   2   3
ATOM      3  C   UNL     1      24.621  -3.930  54.921  1.00  0.00     0.000 C 
BRANCH   3   4
ATOM      4  C   UNL     1      25.748  -4.931  55.245  1.00  0.00     0.000 C 
BRANCH   4   5
ATOM      5  C   UNL     1      25.717  -5.503  56.675  1.00  0.00     0.006 C 
BRANCH   5   6
ATOM      6  C   UNL     1      24.648  -4.844  57.555  1.00  0.00     0.053 C 
BRANCH   6   7
ATOM      7  C   UNL     1      25.288  -3.983  58.597  1.00  0.00     0.041 C 
ATOM      8  O   UNL     1      24.920  -4.062  59.799  1.00  0.00    -0.550 OA
ATOM      9  O   UNL     1      26.327  -3.128  58.250  1.00  0.00    -0.550 OA
ENDBRANCH   6   7
ENDBRANCH   5   6
ENDBRANCH   4   5
ENDBRANCH   3   4
ENDBRANCH   2   3
ENDBRANCH   1   2
BRANCH   1  10
ATOM     10  C   UNL     1      27.258  -1.672  53.534  1.00  0.00     0.000 C 
BRANCH  10  11
ATOM     11  C   UNL     1      26.344  -1.755  52.301  1.00  0.00    -0.000 C 
BRANCH  11  12
ATOM     12  C   UNL     1      26.773  -2.865  51.323  1.00  0.00    -0.000 C 
BRANCH  12  13
ATOM     13  C   UNL     1      25.882  -4.114  51.419  1.00  0.00    -0.000 C 
BRANCH  13  14
ATOM     14  C   UNL     1      26.675  -5.381  51.782  1.00  0.00    -0.000 C 
BRANCH  14  15
ATOM     15  C   UNL     1      28.156  -5.086  52.070  1.00  0.00    -0.003 C 
ATOM     16  C   UNL     1      28.699  -5.876  53.260  1.00  0.00     0.004 C 
ENDBRANCH  14  15
ENDBRANCH  13  14
ENDBRANCH  12  13
ENDBRANCH  11  12
ENDBRANCH  10  11
ENDBRANCH   1  10
TORSDOF 12
ENDMDL
MODEL 3
REMARK VINA RESULT:    -3.403      1.426      2.500
REMARK INTER + INTRA:          -7.905
REMARK INTER:                  -6.014
REMARK INTRA:                  -1.891
REMARK UNBOUND:                -2.114
REMARK SMILES CCCCCCCCCCCCCC(=O)[O-]
REMARK SMILES IDX 8 1 9 2 10 3 11 4 12 5 13 6 14 7 15 8 16 9 7 10 6 11 5 12
REMARK SMILES IDX 4 13 3 14 2 15 1 16
REMARK H PARENT
REMARK Flexibility Score: inf
ROOT
ATOM      1  C   UNL     1      25.749  -2.371  52.751  1.00  0.00     0.000 C 
ENDROOT
BRANCH   1   2
ATOM      2  C   UNL     1      24.608  -3.233  53.323  1.00  0.00     0.000 C 
BRANCH   2   3
ATOM      3  C   UNL     1      24.781  -3.651  54.797  1.00  0.00     0.000 C 
BRANCH   3   4
ATOM      4  C   UNL     1      26.216  -3.534  55.350  1.00  0.00     0.000 C 
BRANCH   4   5
ATOM      5  C   UNL     1      26.936  -4.876  55.576  1.00  0.00     0.006 C 
BRANCH   5   6
ATOM      6  C   UNL     1      26.082  -5.884  56.354  1.00  0.00     0.053 C 
BRANCH   6   7
ATOM      7  C   UNL     1      26.036  -5.519  57.804  1.00  0.00     0.041 C 
ATOM      8  O   UNL     1      24.954  -5.151  58.332  1.00  0.00    -0.550 OA
ATOM      9  O   UNL     1      27.179  -5.634  58.586  1.00  0.00    -0.550 OA
ENDBRANCH   6   7
ENDBRANCH   5   6
ENDBRANCH   4   5
ENDBRANCH   3   4
ENDBRANCH   2   3
ENDBRANCH   1   2
BRANCH   1  10
ATOM     10  C   UNL     1      26.494  -3.060  51.595  1.00  0.00     0.000 C 
BRANCH  10  11
ATOM     11  C   UNL     1      26.056  -4.521  51.400  1.00  0.00    -0.000 C 
BRANCH  11  12
ATOM     12  C   UNL     1      27.000  -5.518  52.099  1.00  0.00    -0.000 C 
BRANCH  12  13
ATOM     13  C   UNL     1      28.454  -5.393  51.614  1.00  0.00    -0.000 C 
BRANCH  13  14
ATOM     14  C   UNL     1      29.440  -5.118  52.763  1.00  0.00    -0.000 C 
BRANCH  14  15
ATOM     15  C   UNL     1      30.020  -3.696  52.712  1.00  0.00    -0.003 C 
ATOM     16  C   UNL     1      29.501  -2.803  53.839  1.00  0.00     0.004 C 
ENDBRANCH  14  15
ENDBRANCH  13  14
ENDBRANCH  12  13
ENDBRANCH  11  12
ENDBRANCH  10  11
ENDBRANCH   1  10
TORSDOF 12
ENDMDL
MODEL 4
REMARK VINA RESULT:    -3.390     11.956     14.135
REMARK INTER + INTRA:          -7.882
REMARK INTER:                  -5.907
REMARK INTRA:                  -1.974
REMARK UNBOUND:                -2.114
REMARK SMILES CCCCCCCCCCCCCC(=O)[O-]
REMARK SMILES IDX 8 1 9 2 10 3 11 4 12 5 13 6 14 7 15 8 16 9 7 10 6 11 5 12
REMARK SMILES IDX 4 13 3 14 2 15 1 16
REMARK H PARENT
REMARK Flexibility Score: inf
ROOT
ATOM      1  C   UNL     1      17.087   0.903  61.073  1.00  0.00     0.000 C 
ENDROOT
BRANCH   1   2
ATOM      2  C   UNL     1      17.804   0.014  60.041  1.00  0.00     0.000 C 
BRANCH   2   3
ATOM      3  C   UNL     1      17.626  -1.503  60.250  1.00  0.00     0.000 C 
BRANCH   3   4
ATOM      4  C   UNL     1      16.346  -2.105  59.637  1.00  0.00     0.000 C 
BRANCH   4   5
ATOM      5  C   UNL     1      15.450  -2.873  60.627  1.00  0.00     0.006 C 
BRANCH   5   6
ATOM      6  C   UNL     1      14.813  -1.960  61.681  1.00  0.00     0.053 C 
BRANCH   6   7
ATOM      7  C   UNL     1      13.403  -2.381  61.952  1.00  0.00     0.041 C 
ATOM      8  O   UNL     1      13.106  -3.604  62.005  1.00  0.00    -0.550 OA
ATOM      9  O   UNL     1      12.427  -1.423  62.197  1.00  0.00    -0.550 OA
ENDBRANCH   6   7
ENDBRANCH   5   6
ENDBRANCH   4   5
ENDBRANCH   3   4
ENDBRANCH   2   3
ENDBRANCH   1   2
BRANCH   1  10
ATOM     10  C   UNL     1      16.150   1.935  60.422  1.00  0.00     0.000 C 
BRANCH  10  11
ATOM     11  C   UNL     1      14.844   1.305  59.910  1.00  0.00    -0.000 C 
BRANCH  11  12
ATOM     12  C   UNL     1      14.724   1.361  58.376  1.00  0.00    -0.000 C 
BRANCH  12  13
ATOM     13  C   UNL     1      15.814   2.232  57.730  1.00  0.00    -0.000 C 
BRANCH  13  14
ATOM     14  C   UNL     1      16.674   1.453  56.720  1.00  0.00    -0.000 C 
BRANCH  14  15
ATOM     15  C   UNL     1      16.172   0.016  56.505  1.00  0.00    -0.003 C 
ATOM     16  C   UNL     1      17.309  -0.992  56.340  1.00  0.00     0.004 C 
ENDBRANCH  14  15
ENDBRANCH  13  14
ENDBRANCH  12  13
ENDBRANCH  11  12
ENDBRANCH  10  11
ENDBRANCH   1  10
TORSDOF 12
ENDMDL
MODEL 5
REMARK VINA RESULT:    -3.381     12.877     14.867
REMARK INTER + INTRA:          -7.866
REMARK INTER:                  -6.229
REMARK INTRA:                  -1.637
REMARK UNBOUND:                -2.114
REMARK SMILES CCCCCCCCCCCCCC(=O)[O-]
REMARK SMILES IDX 8 1 9 2 10 3 11 4 12 5 13 6 14 7 15 8 16 9 7 10 6 11 5 12
REMARK SMILES IDX 4 13 3 14 2 15 1 16
REMARK H PARENT
REMARK Flexibility Score: inf
ROOT
ATOM      1  C   UNL     1      15.023   0.504  57.806  1.00  0.00     0.000 C 
ENDROOT
BRANCH   1   2
ATOM      2  C   UNL     1      15.233   1.932  58.343  1.00  0.00     0.000 C 
BRANCH   2   3
ATOM      3  C   UNL     1      15.193   2.065  59.878  1.00  0.00     0.000 C 
BRANCH   3   4
ATOM      4  C   UNL     1      16.568   2.199  60.563  1.00  0.00     0.000 C 
BRANCH   4   5
ATOM      5  C   UNL     1      16.608   1.745  62.033  1.00  0.00     0.006 C 
BRANCH   5   6
ATOM      6  C   UNL     1      17.191   2.811  62.968  1.00  0.00     0.053 C 
BRANCH   6   7
ATOM      7  C   UNL     1      16.107   3.436  63.787  1.00  0.00     0.041 C 
ATOM      8  O   UNL     1      14.920   3.026  63.688  1.00  0.00    -0.550 OA
ATOM      9  O   UNL     1      16.415   4.439  64.698  1.00  0.00    -0.550 OA
ENDBRANCH   6   7
ENDBRANCH   5   6
ENDBRANCH   4   5
ENDBRANCH   3   4
ENDBRANCH   2   3
ENDBRANCH   1   2
BRANCH   1  10
ATOM     10  C   UNL     1      16.308  -0.106  57.219  1.00  0.00     0.000 C 
BRANCH  10  11
ATOM     11  C   UNL     1      16.803  -1.323  58.019  1.00  0.00    -0.000 C 
BRANCH  11  12
ATOM     12  C   UNL     1      17.472  -0.922  59.347  1.00  0.00    -0.000 C 
BRANCH  12  13
ATOM     13  C   UNL     1      16.993  -1.777  60.531  1.00  0.00    -0.000 C 
BRANCH  13  14
ATOM     14  C   UNL     1      15.530  -2.229  60.383  1.00  0.00    -0.000 C 
BRANCH  14  15
ATOM     15  C   UNL     1      14.537  -1.207  60.961  1.00  0.00    -0.003 C 
ATOM     16  C   UNL     1      13.751  -1.752  62.153  1.00  0.00     0.004 C 
ENDBRANCH  14  15
ENDBRANCH  13  14
ENDBRANCH  12  13
ENDBRANCH  11  12
ENDBRANCH  10  11
ENDBRANCH   1  10
TORSDOF 12
ENDMDL
MODEL 6
REMARK VINA RESULT:    -3.350      2.433      2.919
REMARK INTER + INTRA:          -7.813
REMARK INTER:                  -5.680
REMARK INTRA:                  -2.133
REMARK UNBOUND:                -2.114
REMARK SMILES CCCCCCCCCCCCCC(=O)[O-]
REMARK SMILES IDX 8 1 9 2 10 3 11 4 12 5 13 6 14 7 15 8 16 9 7 10 6 11 5 12
REMARK SMILES IDX 4 13 3 14 2 15 1 16
REMARK H PARENT
REMARK Flexibility Score: inf
ROOT
ATOM      1  C   UNL     1      26.798  -1.735  51.973  1.00  0.00     0.000 C 
ENDROOT
BRANCH   1   2
ATOM      2  C   UNL     1      26.518  -3.112  51.345  1.00  0.00     0.000 C 
BRANCH   2   3
ATOM      3  C   UNL     1      25.561  -4.015  52.148  1.00  0.00     0.000 C 
BRANCH   3   4
ATOM      4  C   UNL     1      24.776  -3.306  53.270  1.00  0.00     0.000 C 
BRANCH   4   5
ATOM      5  C   UNL     1      24.888  -3.965  54.657  1.00  0.00     0.006 C 
BRANCH   5   6
ATOM      6  C   UNL     1      25.456  -3.018  55.720  1.00  0.00     0.053 C 
BRANCH   6   7
ATOM      7  C   UNL     1      24.656  -1.755  55.775  1.00  0.00     0.041 C 
ATOM      8  O   UNL     1      25.039  -0.734  55.145  1.00  0.00    -0.550 OA
ATOM      9  O   UNL     1      23.461  -1.720  56.482  1.00  0.00    -0.550 OA
ENDBRANCH   6   7
ENDBRANCH   5   6
ENDBRANCH   4   5
ENDBRANCH   3   4
ENDBRANCH   2   3
ENDBRANCH   1   2
BRANCH   1  10
ATOM     10  C   UNL     1      28.246  -1.592  52.475  1.00  0.00     0.000 C 
BRANCH  10  11
ATOM     11  C   UNL     1      28.326  -1.390  53.997  1.00  0.00    -0.000 C 
BRANCH  11  12
ATOM     12  C   UNL     1      28.930  -2.607  54.722  1.00  0.00    -0.000 C 
BRANCH  12  13
ATOM     13  C   UNL     1      29.341  -3.728  53.752  1.00  0.00    -0.000 C 
BRANCH  13  14
ATOM     14  C   UNL     1      28.646  -5.064  54.063  1.00  0.00    -0.000 C 
BRANCH  14  15
ATOM     15  C   UNL     1      28.487  -5.949  52.816  1.00  0.00    -0.003 C 
ATOM     16  C   UNL     1      29.375  -5.502  51.654  1.00  0.00     0.004 C 
ENDBRANCH  14  15
ENDBRANCH  13  14
ENDBRANCH  12  13
ENDBRANCH  11  12
ENDBRANCH  10  11
ENDBRANCH   1  10
TORSDOF 12
ENDMDL
MODEL 7
REMARK VINA RESULT:    -3.335     11.224     13.555
REMARK INTER + INTRA:          -7.789
REMARK INTER:                  -5.780
REMARK INTRA:                  -2.008
REMARK UNBOUND:                -2.114
REMARK SMILES CCCCCCCCCCCCCC(=O)[O-]
REMARK SMILES IDX 8 1 9 2 10 3 11 4 12 5 13 6 14 7 15 8 16 9 7 10 6 11 5 12
REMARK SMILES IDX 4 13 3 14 2 15 1 16
REMARK H PARENT
REMARK Flexibility Score: inf
ROOT
ATOM      1  C   UNL     1      17.457  -0.615  61.871  1.00  0.00     0.000 C 
ENDROOT
BRANCH   1   2
ATOM      2  C   UNL     1      16.357   0.398  61.502  1.00  0.00     0.000 C 
BRANCH   2   3
ATOM      3  C   UNL     1      14.913  -0.114  61.675  1.00  0.00     0.000 C 
BRANCH   3   4
ATOM      4  C   UNL     1      14.518  -1.288  60.756  1.00  0.00     0.000 C 
BRANCH   4   5
ATOM      5  C   UNL     1      14.420  -2.656  61.457  1.00  0.00     0.006 C 
BRANCH   5   6
ATOM      6  C   UNL     1      15.301  -3.725  60.799  1.00  0.00     0.053 C 
BRANCH   6   7
ATOM      7  C   UNL     1      16.375  -4.168  61.742  1.00  0.00     0.041 C 
ATOM      8  O   UNL     1      16.237  -4.004  62.983  1.00  0.00    -0.550 OA
ATOM      9  O   UNL     1      17.506  -4.809  61.253  1.00  0.00    -0.550 OA
ENDBRANCH   6   7
ENDBRANCH   5   6
ENDBRANCH   4   5
ENDBRANCH   3   4
ENDBRANCH   2   3
ENDBRANCH   1   2
BRANCH   1  10
ATOM     10  C   UNL     1      18.234  -1.122  60.644  1.00  0.00     0.000 C 
BRANCH  10  11
ATOM     11  C   UNL     1      18.396  -0.043  59.560  1.00  0.00    -0.000 C 
BRANCH  11  12
ATOM     12  C   UNL     1      18.225  -0.607  58.137  1.00  0.00    -0.000 C 
BRANCH  12  13
ATOM     13  C   UNL     1      16.807  -1.142  57.880  1.00  0.00    -0.000 C 
BRANCH  13  14
ATOM     14  C   UNL     1      15.974  -0.209  56.985  1.00  0.00    -0.000 C 
BRANCH  14  15
ATOM     15  C   UNL     1      14.856   0.507  57.762  1.00  0.00    -0.003 C 
ATOM     16  C   UNL     1      15.265   1.899  58.243  1.00  0.00     0.004 C 
ENDBRANCH  14  15
ENDBRANCH  13  14
ENDBRANCH  12  13
ENDBRANCH  11  12
ENDBRANCH  10  11
ENDBRANCH   1  10
TORSDOF 12
ENDMDL
MODEL 8
REMARK VINA RESULT:    -3.316      2.422      4.414
REMARK INTER + INTRA:          -7.756
REMARK INTER:                  -5.983
REMARK INTRA:                  -1.773
REMARK UNBOUND:                -2.114
REMARK SMILES CCCCCCCCCCCCCC(=O)[O-]
REMARK SMILES IDX 8 1 9 2 10 3 11 4 12 5 13 6 14 7 15 8 16 9 7 10 6 11 5 12
REMARK SMILES IDX 4 13 3 14 2 15 1 16
REMARK H PARENT
REMARK Flexibility Score: inf
ROOT
ATOM      1  C   UNL     1      26.409  -3.279  51.464  1.00  0.00     0.000 C 
ENDROOT
BRANCH   1   2
ATOM      2  C   UNL     1      26.284  -4.814  51.494  1.00  0.00     0.000 C 
BRANCH   2   3
ATOM      3  C   UNL     1      27.420  -5.548  52.233  1.00  0.00     0.000 C 
BRANCH   3   4
ATOM      4  C   UNL     1      28.794  -5.506  51.534  1.00  0.00     0.000 C 
BRANCH   4   5
ATOM      5  C   UNL     1      29.953  -4.997  52.411  1.00  0.00     0.006 C 
BRANCH   5   6
ATOM      6  C   UNL     1      29.604  -3.711  53.169  1.00  0.00     0.053 C 
BRANCH   6   7
ATOM      7  C   UNL     1      30.167  -2.519  52.461  1.00  0.00     0.041 C 
ATOM      8  O   UNL     1      31.387  -2.484  52.150  1.00  0.00    -0.550 OA
ATOM      9  O   UNL     1      29.333  -1.468  52.099  1.00  0.00    -0.550 OA
ENDBRANCH   6   7
ENDBRANCH   5   6
ENDBRANCH   4   5
ENDBRANCH   3   4
ENDBRANCH   2   3
ENDBRANCH   1   2
BRANCH   1  10
ATOM     10  C   UNL     1      25.948  -2.618  52.774  1.00  0.00     0.000 C 
BRANCH  10  11
ATOM     11  C   UNL     1      24.717  -3.310  53.382  1.00  0.00    -0.000 C 
BRANCH  11  12
ATOM     12  C   UNL     1      24.811  -3.441  54.914  1.00  0.00    -0.000 C 
BRANCH  12  13
ATOM     13  C   UNL     1      25.464  -4.761  55.355  1.00  0.00    -0.000 C 
BRANCH  13  14
ATOM     14  C   UNL     1      26.913  -4.574  55.837  1.00  0.00    -0.000 C 
BRANCH  14  15
ATOM     15  C   UNL     1      27.712  -5.887  55.822  1.00  0.00    -0.003 C 
ATOM     16  C   UNL     1      28.817  -5.922  56.877  1.00  0.00     0.004 C 
ENDBRANCH  14  15
ENDBRANCH  13  14
ENDBRANCH  12  13
ENDBRANCH  11  12
ENDBRANCH  10  11
ENDBRANCH   1  10
TORSDOF 12
ENDMDL
MODEL 9
REMARK VINA RESULT:    -3.306      1.869      3.893
REMARK INTER + INTRA:          -7.740
REMARK INTER:                  -5.682
REMARK INTRA:                  -2.058
REMARK UNBOUND:                -2.114
REMARK SMILES CCCCCCCCCCCCCC(=O)[O-]
REMARK SMILES IDX 8 1 9 2 10 3 11 4 12 5 13 6 14 7 15 8 16 9 7 10 6 11 5 12
REMARK SMILES IDX 4 13 3 14 2 15 1 16
REMARK H PARENT
REMARK Flexibility Score: inf
ROOT
ATOM      1  C   UNL     1      29.140  -5.292  52.619  1.00  0.00     0.000 C 
ENDROOT
BRANCH   1   2
ATOM      2  C   UNL     1      28.657  -5.822  53.982  1.00  0.00     0.000 C 
BRANCH   2   3
ATOM      3  C   UNL     1      28.753  -4.816  55.145  1.00  0.00     0.000 C 
BRANCH   3   4
ATOM      4  C   UNL     1      27.411  -4.211  55.604  1.00  0.00     0.000 C 
BRANCH   4   5
ATOM      5  C   UNL     1      26.325  -5.242  55.966  1.00  0.00     0.006 C 
BRANCH   5   6
ATOM      6  C   UNL     1      25.011  -4.589  56.411  1.00  0.00     0.053 C 
BRANCH   6   7
ATOM      7  C   UNL     1      24.802  -4.786  57.880  1.00  0.00     0.041 C 
ATOM      8  O   UNL     1      23.784  -4.308  58.445  1.00  0.00    -0.550 OA
ATOM      9  O   UNL     1      25.707  -5.543  58.614  1.00  0.00    -0.550 OA
ENDBRANCH   6   7
ENDBRANCH   5   6
ENDBRANCH   4   5
ENDBRANCH   3   4
ENDBRANCH   2   3
ENDBRANCH   1   2
BRANCH   1  10
ATOM     10  C   UNL     1      28.066  -5.401  51.523  1.00  0.00     0.000 C 
BRANCH  10  11
ATOM     11  C   UNL     1      26.638  -5.407  52.094  1.00  0.00    -0.000 C 
BRANCH  11  12
ATOM     12  C   UNL     1      25.820  -4.182  51.647  1.00  0.00    -0.000 C 
BRANCH  12  13
ATOM     13  C   UNL     1      25.149  -3.458  52.826  1.00  0.00    -0.000 C 
BRANCH  13  14
ATOM     14  C   UNL     1      25.731  -2.055  53.069  1.00  0.00    -0.000 C 
BRANCH  14  15
ATOM     15  C   UNL     1      26.873  -1.715  52.097  1.00  0.00    -0.003 C 
ATOM     16  C   UNL     1      28.238  -1.657  52.781  1.00  0.00     0.004 C 
ENDBRANCH  14  15
ENDBRANCH  13  14
ENDBRANCH  12  13
ENDBRANCH  11  12
ENDBRANCH  10  11
ENDBRANCH   1  10
TORSDOF 12
ENDMDL
