MODEL 1
REMARK VINA RESULT:    -4.434      0.000      0.000
REMARK INTER + INTRA:          -5.221
REMARK INTER:                  -5.082
REMARK INTRA:                  -0.139
REMARK UNBOUND:                -0.139
REMARK SMILES O=C([O-])C=Cc1ccc(O)cc1
REMARK SMILES IDX 6 1 7 2 12 3 8 4 11 5 9 6 5 7 4 8 2 9 1 10 3 11 10 12
REMARK H PARENT 10 13
REMARK Flexibility Score: inf
ROOT
ATOM      1  C   UNL     1      21.796  22.029  20.671  1.00  0.00    -0.025 A 
ATOM      2  C   UNL     1      22.153  22.649  19.456  1.00  0.00     0.012 A 
ATOM      3  C   UNL     1      20.705  22.538  21.396  1.00  0.00     0.012 A 
ATOM      4  C   UNL     1      21.446  23.766  18.997  1.00  0.00     0.047 A 
ATOM      5  C   UNL     1      20.003  23.656  20.935  1.00  0.00     0.047 A 
ATOM      6  C   UNL     1      20.372  24.274  19.738  1.00  0.00     0.115 A 
ENDROOT
BRANCH   1   7
ATOM      7  C   UNL     1      22.503  20.835  21.197  1.00  0.00     0.010 C 
ATOM      8  C   UNL     1      23.302  20.055  20.454  1.00  0.00     0.025 C 
BRANCH   8   9
ATOM      9  C   UNL     1      23.997  18.884  21.014  1.00  0.00     0.064 C 
ATOM     10  O   UNL     1      23.395  18.057  21.749  1.00  0.00    -0.545 OA
ATOM     11  O   UNL     1      25.341  18.686  20.726  1.00  0.00    -0.545 OA
ENDBRANCH   8   9
ENDBRANCH   1   7
BRANCH   6  12
ATOM     12  O   UNL     1      19.663  25.386  19.290  1.00  0.00    -0.508 OA
ATOM     13  H   UNL     1      19.581  25.600  18.303  1.00  0.00     0.293 HD
ENDBRANCH   6  12
TORSDOF 3
ENDMDL
MODEL 2
REMARK VINA RESULT:    -4.092      5.247      6.545
REMARK INTER + INTRA:          -4.829
REMARK INTER:                  -4.681
REMARK INTRA:                  -0.149
REMARK UNBOUND:                -0.139
REMARK SMILES O=C([O-])C=Cc1ccc(O)cc1
REMARK SMILES IDX 6 1 7 2 12 3 8 4 11 5 9 6 5 7 4 8 2 9 1 10 3 11 10 12
REMARK H PARENT 10 13
REMARK Flexibility Score: inf
ROOT
ATOM      1  C   UNL     1      23.126  17.018  20.622  1.00  0.00    -0.025 A 
ATOM      2  C   UNL     1      23.763  16.480  19.486  1.00  0.00     0.012 A 
ATOM      3  C   UNL     1      23.796  17.998  21.374  1.00  0.00     0.012 A 
ATOM      4  C   UNL     1      25.050  16.898  19.131  1.00  0.00     0.047 A 
ATOM      5  C   UNL     1      25.083  18.413  21.017  1.00  0.00     0.047 A 
ATOM      6  C   UNL     1      25.714  17.864  19.897  1.00  0.00     0.115 A 
ENDROOT
BRANCH   1   7
ATOM      7  C   UNL     1      21.758  16.618  21.036  1.00  0.00     0.010 C 
ATOM      8  C   UNL     1      20.918  17.421  21.706  1.00  0.00     0.025 C 
BRANCH   8   9
ATOM      9  C   UNL     1      19.563  16.994  22.089  1.00  0.00     0.064 C 
ATOM     10  O   UNL     1      18.723  16.631  21.224  1.00  0.00    -0.545 OA
ATOM     11  O   UNL     1      19.203  16.988  23.431  1.00  0.00    -0.545 OA
ENDBRANCH   8   9
ENDBRANCH   1   7
BRANCH   6  12
ATOM     12  O   UNL     1      26.996  18.287  19.553  1.00  0.00    -0.508 OA
ATOM     13  H   UNL     1      27.156  18.907  18.768  1.00  0.00     0.293 HD
ENDBRANCH   6  12
TORSDOF 3
ENDMDL
MODEL 3
REMARK VINA RESULT:    -4.085      2.422      6.304
REMARK INTER + INTRA:          -4.821
REMARK INTER:                  -4.683
REMARK INTRA:                  -0.138
REMARK UNBOUND:                -0.139
REMARK SMILES O=C([O-])C=Cc1ccc(O)cc1
REMARK SMILES IDX 6 1 7 2 12 3 8 4 11 5 9 6 5 7 4 8 2 9 1 10 3 11 10 12
REMARK H PARENT 10 13
REMARK Flexibility Score: inf
ROOT
ATOM      1  C   UNL     1      23.399  18.923  20.929  1.00  0.00    -0.025 A 
ATOM      2  C   UNL     1      22.751  17.672  20.962  1.00  0.00     0.012 A 
ATOM      3  C   UNL     1      24.627  19.032  20.253  1.00  0.00     0.012 A 
ATOM      4  C   UNL     1      23.335  16.556  20.355  1.00  0.00     0.047 A 
ATOM      5  C   UNL     1      25.209  17.913  19.649  1.00  0.00     0.047 A 
ATOM      6  C   UNL     1      24.566  16.673  19.699  1.00  0.00     0.115 A 
ENDROOT
BRANCH   1   7
ATOM      7  C   UNL     1      22.819  20.141  21.546  1.00  0.00     0.010 C 
ATOM      8  C   UNL     1      22.370  21.191  20.843  1.00  0.00     0.025 C 
BRANCH   8   9
ATOM      9  C   UNL     1      21.789  22.379  21.490  1.00  0.00     0.064 C 
ATOM     10  O   UNL     1      22.462  23.082  22.289  1.00  0.00    -0.545 OA
ATOM     11  O   UNL     1      20.475  22.734  21.211  1.00  0.00    -0.545 OA
ENDBRANCH   8   9
ENDBRANCH   1   7
BRANCH   6  12
ATOM     12  O   UNL     1      25.157  15.566  19.092  1.00  0.00    -0.508 OA
ATOM     13  H   UNL     1      26.162  15.441  19.083  1.00  0.00     0.293 HD
ENDBRANCH   6  12
TORSDOF 3
ENDMDL
MODEL 4
REMARK VINA RESULT:    -4.081      6.753     10.922
REMARK INTER + INTRA:          -4.817
REMARK INTER:                  -4.682
REMARK INTRA:                  -0.135
REMARK UNBOUND:                -0.139
REMARK SMILES O=C([O-])C=Cc1ccc(O)cc1
REMARK SMILES IDX 6 1 7 2 12 3 8 4 11 5 9 6 5 7 4 8 2 9 1 10 3 11 10 12
REMARK H PARENT 10 13
REMARK Flexibility Score: inf
ROOT
ATOM      1  C   UNL     1      29.704  15.838  21.951  1.00  0.00    -0.025 A 
ATOM      2  C   UNL     1      29.539  15.676  23.341  1.00  0.00     0.012 A 
ATOM      3  C   UNL     1      30.981  15.650  21.394  1.00  0.00     0.012 A 
ATOM      4  C   UNL     1      30.634  15.359  24.152  1.00  0.00     0.047 A 
ATOM      5  C   UNL     1      32.074  15.335  22.208  1.00  0.00     0.047 A 
ATOM      6  C   UNL     1      31.904  15.191  23.587  1.00  0.00     0.115 A 
ENDROOT
BRANCH   1   7
ATOM      7  C   UNL     1      28.576  16.163  21.044  1.00  0.00     0.010 C 
ATOM      8  C   UNL     1      27.899  17.320  21.081  1.00  0.00     0.025 C 
BRANCH   8   9
ATOM      9  C   UNL     1      26.791  17.611  20.156  1.00  0.00     0.064 C 
ATOM     10  O   UNL     1      25.989  18.557  20.376  1.00  0.00    -0.545 OA
ATOM     11  O   UNL     1      26.629  16.832  19.018  1.00  0.00    -0.545 OA
ENDBRANCH   8   9
ENDBRANCH   1   7
BRANCH   6  12
ATOM     12  O   UNL     1      33.002  14.875  24.387  1.00  0.00    -0.508 OA
ATOM     13  H   UNL     1      33.945  14.890  24.020  1.00  0.00     0.293 HD
ENDBRANCH   6  12
TORSDOF 3
ENDMDL
MODEL 5
REMARK VINA RESULT:    -3.840      3.540      4.078
REMARK INTER + INTRA:          -4.541
REMARK INTER:                  -4.398
REMARK INTRA:                  -0.143
REMARK UNBOUND:                -0.139
REMARK SMILES O=C([O-])C=Cc1ccc(O)cc1
REMARK SMILES IDX 6 1 7 2 12 3 8 4 11 5 9 6 5 7 4 8 2 9 1 10 3 11 10 12
REMARK H PARENT 10 13
REMARK Flexibility Score: inf
ROOT
ATOM      1  C   UNL     1      19.024  21.195  20.034  1.00  0.00    -0.025 A 
ATOM      2  C   UNL     1      19.032  21.389  18.637  1.00  0.00     0.012 A 
ATOM      3  C   UNL     1      19.015  22.323  20.873  1.00  0.00     0.012 A 
ATOM      4  C   UNL     1      19.055  22.680  18.102  1.00  0.00     0.047 A 
ATOM      5  C   UNL     1      19.040  23.613  20.334  1.00  0.00     0.047 A 
ATOM      6  C   UNL     1      19.062  23.795  18.948  1.00  0.00     0.115 A 
ENDROOT
BRANCH   1   7
ATOM      7  C   UNL     1      18.987  19.848  20.654  1.00  0.00     0.010 C 
ATOM      8  C   UNL     1      18.069  19.468  21.555  1.00  0.00     0.025 C 
BRANCH   8   9
ATOM      9  C   UNL     1      18.057  18.117  22.141  1.00  0.00     0.064 C 
ATOM     10  O   UNL     1      16.974  17.537  22.421  1.00  0.00    -0.545 OA
ATOM     11  O   UNL     1      19.260  17.469  22.387  1.00  0.00    -0.545 OA
ENDBRANCH   8   9
ENDBRANCH   1   7
BRANCH   6  12
ATOM     12  O   UNL     1      19.086  25.086  18.424  1.00  0.00    -0.508 OA
ATOM     13  H   UNL     1      19.951  25.521  18.128  1.00  0.00     0.293 HD
ENDBRANCH   6  12
TORSDOF 3
ENDMDL
MODEL 6
REMARK VINA RESULT:    -3.830      3.700      4.602
REMARK INTER + INTRA:          -4.529
REMARK INTER:                  -4.390
REMARK INTRA:                  -0.139
REMARK UNBOUND:                -0.139
REMARK SMILES O=C([O-])C=Cc1ccc(O)cc1
REMARK SMILES IDX 6 1 7 2 12 3 8 4 11 5 9 6 5 7 4 8 2 9 1 10 3 11 10 12
REMARK H PARENT 10 13
REMARK Flexibility Score: inf
ROOT
ATOM      1  C   UNL     1      19.626  21.675  20.486  1.00  0.00    -0.025 A 
ATOM      2  C   UNL     1      21.011  21.900  20.624  1.00  0.00     0.012 A 
ATOM      3  C   UNL     1      18.731  22.577  21.086  1.00  0.00     0.012 A 
ATOM      4  C   UNL     1      21.481  22.988  21.366  1.00  0.00     0.047 A 
ATOM      5  C   UNL     1      19.205  23.663  21.829  1.00  0.00     0.047 A 
ATOM      6  C   UNL     1      20.579  23.870  21.973  1.00  0.00     0.115 A 
ENDROOT
BRANCH   1   7
ATOM      7  C   UNL     1      19.074  20.544  19.700  1.00  0.00     0.010 C 
ATOM      8  C   UNL     1      18.501  20.684  18.495  1.00  0.00     0.025 C 
BRANCH   8   9
ATOM      9  C   UNL     1      17.974  19.536  17.739  1.00  0.00     0.064 C 
ATOM     10  O   UNL     1      18.476  18.387  17.862  1.00  0.00    -0.545 OA
ATOM     11  O   UNL     1      16.902  19.722  16.876  1.00  0.00    -0.545 OA
ENDBRANCH   8   9
ENDBRANCH   1   7
BRANCH   6  12
ATOM     12  O   UNL     1      21.038  24.957  22.715  1.00  0.00    -0.508 OA
ATOM     13  H   UNL     1      21.282  24.864  23.694  1.00  0.00     0.293 HD
ENDBRANCH   6  12
TORSDOF 3
ENDMDL
MODEL 7
REMARK VINA RESULT:    -3.803      3.651      4.148
REMARK INTER + INTRA:          -4.498
REMARK INTER:                  -4.364
REMARK INTRA:                  -0.134
REMARK UNBOUND:                -0.139
REMARK SMILES O=C([O-])C=Cc1ccc(O)cc1
REMARK SMILES IDX 6 1 7 2 12 3 8 4 11 5 9 6 5 7 4 8 2 9 1 10 3 11 10 12
REMARK H PARENT 10 13
REMARK Flexibility Score: inf
ROOT
ATOM      1  C   UNL     1      19.107  21.205  20.116  1.00  0.00    -0.025 A 
ATOM      2  C   UNL     1      19.091  22.335  20.958  1.00  0.00     0.012 A 
ATOM      3  C   UNL     1      19.111  21.397  18.724  1.00  0.00     0.012 A 
ATOM      4  C   UNL     1      19.056  23.623  20.413  1.00  0.00     0.047 A 
ATOM      5  C   UNL     1      19.075  22.686  18.183  1.00  0.00     0.047 A 
ATOM      6  C   UNL     1      19.045  23.801  19.025  1.00  0.00     0.115 A 
ENDROOT
BRANCH   1   7
ATOM      7  C   UNL     1      19.156  19.818  20.641  1.00  0.00     0.010 C 
ATOM      8  C   UNL     1      18.176  19.260  21.367  1.00  0.00     0.025 C 
BRANCH   8   9
ATOM      9  C   UNL     1      18.255  17.876  21.861  1.00  0.00     0.064 C 
ATOM     10  O   UNL     1      18.005  17.596  23.063  1.00  0.00    -0.545 OA
ATOM     11  O   UNL     1      18.609  16.858  20.984  1.00  0.00    -0.545 OA
ENDBRANCH   8   9
ENDBRANCH   1   7
BRANCH   6  12
ATOM     12  O   UNL     1      19.009  25.080  18.472  1.00  0.00    -0.508 OA
ATOM     13  H   UNL     1      18.199  25.415  17.965  1.00  0.00     0.293 HD
ENDBRANCH   6  12
TORSDOF 3
ENDMDL
MODEL 8
REMARK VINA RESULT:    -3.766      4.118      4.468
REMARK INTER + INTRA:          -4.455
REMARK INTER:                  -4.312
REMARK INTRA:                  -0.143
REMARK UNBOUND:                -0.139
REMARK SMILES O=C([O-])C=Cc1ccc(O)cc1
REMARK SMILES IDX 6 1 7 2 12 3 8 4 11 5 9 6 5 7 4 8 2 9 1 10 3 11 10 12
REMARK H PARENT 10 13
REMARK Flexibility Score: inf
ROOT
ATOM      1  C   UNL     1      19.359  22.220  18.457  1.00  0.00    -0.025 A 
ATOM      2  C   UNL     1      20.475  22.811  17.830  1.00  0.00     0.012 A 
ATOM      3  C   UNL     1      18.762  22.885  19.543  1.00  0.00     0.012 A 
ATOM      4  C   UNL     1      20.990  24.024  18.298  1.00  0.00     0.047 A 
ATOM      5  C   UNL     1      19.281  24.097  20.009  1.00  0.00     0.047 A 
ATOM      6  C   UNL     1      20.397  24.668  19.390  1.00  0.00     0.115 A 
ENDROOT
BRANCH   1   7
ATOM      7  C   UNL     1      18.765  20.942  17.994  1.00  0.00     0.010 C 
ATOM      8  C   UNL     1      18.524  19.897  18.800  1.00  0.00     0.025 C 
BRANCH   8   9
ATOM      9  C   UNL     1      17.922  18.648  18.307  1.00  0.00     0.064 C 
ATOM     10  O   UNL     1      17.561  18.527  17.106  1.00  0.00    -0.545 OA
ATOM     11  O   UNL     1      17.751  17.582  19.181  1.00  0.00    -0.545 OA
ENDBRANCH   8   9
ENDBRANCH   1   7
BRANCH   6  12
ATOM     12  O   UNL     1      20.903  25.877  19.864  1.00  0.00    -0.508 OA
ATOM     13  H   UNL     1      20.410  26.750  19.723  1.00  0.00     0.293 HD
ENDBRANCH   6  12
TORSDOF 3
ENDMDL
