MODEL 1
REMARK VINA RESULT:    -6.003      0.000      0.000
REMARK INTER + INTRA:         -10.512
REMARK INTER:                  -8.810
REMARK INTRA:                  -1.702
REMARK UNBOUND:                -1.702
REMARK SMILES O=c1c(O[C@H]2O[C@H](CO)[C@H](O)[C@@H](O)[C@@H]2O)c(-c2ccc(O)c(O)c2)oc2cc(O)cc(O)c12
REMARK SMILES IDX 4 1 3 2 16 3 25 4 2 5 26 6 1 7 33 8 27 9 31 10 28 11 30 12
REMARK SMILES IDX 17 13 18 14 19 15 20 16 24 17 22 18 21 19 23 21 32 23 29 25
REMARK SMILES IDX 5 27 14 28 6 29 12 30 7 31 10 32 15 33 13 35 8 37 9 38 11 40
REMARK H PARENT 21 20 23 22 32 24 29 26 15 34 13 36 9 39 11 41
REMARK Flexibility Score: inf
ROOT
ATOM      1  O   UNL     1      12.013   0.838   1.948  1.00  0.00    -0.454 OA
ENDROOT
BRANCH   1   2
ATOM      2  C   UNL     1      13.080   0.806   2.855  1.00  0.00     0.214 A 
ATOM      3  C   UNL     1      14.295   1.467   2.590  1.00  0.00     0.180 A 
ATOM      4  O   UNL     1      15.256   1.466   3.505  1.00  0.00    -0.452 OA
ATOM      5  C   UNL     1      12.940   0.099   4.054  1.00  0.00     0.239 A 
ATOM      6  C   UNL     1      15.152   0.847   4.675  1.00  0.00     0.146 A 
ATOM      7  O   UNL     1      11.894  -0.574   4.231  1.00  0.00    -0.285 OA
ATOM      8  C   UNL     1      13.970   0.142   5.025  1.00  0.00     0.111 A 
ATOM      9  C   UNL     1      16.240   0.889   5.550  1.00  0.00     0.094 A 
ATOM     10  C   UNL     1      13.906  -0.487   6.305  1.00  0.00     0.134 A 
ATOM     11  C   UNL     1      16.186   0.229   6.775  1.00  0.00     0.123 A 
ATOM     12  C   UNL     1      15.027  -0.458   7.144  1.00  0.00     0.093 A 
BRANCH   3  13
ATOM     13  C   UNL     1      14.562   2.148   1.304  1.00  0.00     0.025 A 
ATOM     14  C   UNL     1      14.659   3.547   1.266  1.00  0.00     0.016 A 
ATOM     15  C   UNL     1      14.923   4.207   0.063  1.00  0.00     0.051 A 
ATOM     16  C   UNL     1      15.112   3.473  -1.116  1.00  0.00     0.157 A 
ATOM     17  C   UNL     1      14.772   1.415   0.122  1.00  0.00     0.062 A 
ATOM     18  C   UNL     1      15.042   2.074  -1.084  1.00  0.00     0.158 A 
BRANCH  16  19
ATOM     19  O   UNL     1      15.375   4.125  -2.319  1.00  0.00    -0.504 OA
ATOM     20  H   UNL     1      15.258   3.659  -3.211  1.00  0.00     0.293 HD
ENDBRANCH  16  19
BRANCH  18  21
ATOM     21  O   UNL     1      15.251   1.347  -2.254  1.00  0.00    -0.504 OA
ATOM     22  H   UNL     1      15.734   1.748  -3.049  1.00  0.00     0.293 HD
ENDBRANCH  18  21
ENDBRANCH   3  13
BRANCH  10  23
ATOM     23  O   UNL     1      12.769  -1.125   6.809  1.00  0.00    -0.507 OA
ATOM     24  H   UNL     1      11.895  -0.669   7.021  1.00  0.00     0.293 HD
ENDBRANCH  10  23
BRANCH  11  25
ATOM     25  O   UNL     1      17.290   0.268   7.625  1.00  0.00    -0.508 OA
ATOM     26  H   UNL     1      17.294   0.835   8.465  1.00  0.00     0.293 HD
ENDBRANCH  11  25
ENDBRANCH   1   2
BRANCH   1  27
ATOM     27  C   UNL     1      10.997   1.848   1.983  1.00  0.00     0.339 C 
ATOM     28  C   UNL     1       9.590   1.223   1.879  1.00  0.00     0.214 C 
ATOM     29  O   UNL     1      11.219   2.819   0.971  1.00  0.00    -0.332 OA
ATOM     30  C   UNL     1       9.321   0.686   0.454  1.00  0.00     0.180 C 
ATOM     31  C   UNL     1      11.141   2.247  -0.323  1.00  0.00     0.179 C 
ATOM     32  C   UNL     1       9.713   1.733  -0.605  1.00  0.00     0.177 C 
BRANCH  28  33
ATOM     33  O   UNL     1       8.634   2.196   2.216  1.00  0.00    -0.384 OA
ATOM     34  H   UNL     1       7.937   2.171   1.509  1.00  0.00     0.211 HD
ENDBRANCH  28  33
BRANCH  30  35
ATOM     35  O   UNL     1      10.052  -0.492   0.233  1.00  0.00    -0.387 OA
ATOM     36  H   UNL     1      10.643  -0.615   1.021  1.00  0.00     0.211 HD
ENDBRANCH  30  35
BRANCH  31  37
ATOM     37  C   UNL     1      11.559   3.299  -1.361  1.00  0.00     0.191 C 
BRANCH  37  38
ATOM     38  O   UNL     1      10.862   4.497  -1.149  1.00  0.00    -0.394 OA
ATOM     39  H   UNL     1       9.896   4.282  -1.226  1.00  0.00     0.210 HD
ENDBRANCH  37  38
ENDBRANCH  31  37
BRANCH  32  40
ATOM     40  O   UNL     1       8.804   2.805  -0.582  1.00  0.00    -0.387 OA
ATOM     41  H   UNL     1       8.135   2.631  -1.293  1.00  0.00     0.211 HD
ENDBRANCH  32  40
ENDBRANCH   1  27
TORSDOF 12
ENDMDL
MODEL 2
REMARK VINA RESULT:    -5.702      2.218      6.800
REMARK INTER + INTRA:         -10.070
REMARK INTER:                  -8.667
REMARK INTRA:                  -1.404
REMARK UNBOUND:                -1.702
REMARK SMILES O=c1c(O[C@H]2O[C@H](CO)[C@H](O)[C@@H](O)[C@@H]2O)c(-c2ccc(O)c(O)c2)oc2cc(O)cc(O)c12
REMARK SMILES IDX 4 1 3 2 16 3 25 4 2 5 26 6 1 7 33 8 27 9 31 10 28 11 30 12
REMARK SMILES IDX 17 13 18 14 19 15 20 16 24 17 22 18 21 19 23 21 32 23 29 25
REMARK SMILES IDX 5 27 14 28 6 29 12 30 7 31 10 32 15 33 13 35 8 37 9 38 11 40
REMARK H PARENT 21 20 23 22 32 24 29 26 15 34 13 36 9 39 11 41
REMARK Flexibility Score: inf
ROOT
ATOM      1  O   UNL     1      12.211   1.267   1.258  1.00  0.00    -0.454 OA
ENDROOT
BRANCH   1   2
ATOM      2  C   UNL     1      11.673   2.273   0.447  1.00  0.00     0.214 A 
ATOM      3  C   UNL     1      12.272   2.639  -0.774  1.00  0.00     0.180 A 
ATOM      4  O   UNL     1      11.691   3.552  -1.542  1.00  0.00    -0.452 OA
ATOM      5  C   UNL     1      10.511   2.937   0.857  1.00  0.00     0.239 A 
ATOM      6  C   UNL     1      10.565   4.175  -1.216  1.00  0.00     0.146 A 
ATOM      7  O   UNL     1      10.047   2.678   1.997  1.00  0.00    -0.285 OA
ATOM      8  C   UNL     1       9.897   3.884   0.003  1.00  0.00     0.111 A 
ATOM      9  C   UNL     1      10.060   5.140  -2.090  1.00  0.00     0.094 A 
ATOM     10  C   UNL     1       8.680   4.570   0.292  1.00  0.00     0.134 A 
ATOM     11  C   UNL     1       8.899   5.841  -1.774  1.00  0.00     0.123 A 
ATOM     12  C   UNL     1       8.219   5.558  -0.587  1.00  0.00     0.093 A 
BRANCH   3  13
ATOM     13  C   UNL     1      13.555   2.061  -1.230  1.00  0.00     0.025 A 
ATOM     14  C   UNL     1      13.551   0.943  -2.078  1.00  0.00     0.016 A 
ATOM     15  C   UNL     1      14.753   0.392  -2.529  1.00  0.00     0.051 A 
ATOM     16  C   UNL     1      15.975   0.964  -2.152  1.00  0.00     0.157 A 
ATOM     17  C   UNL     1      14.784   2.643  -0.871  1.00  0.00     0.062 A 
ATOM     18  C   UNL     1      15.989   2.095  -1.326  1.00  0.00     0.158 A 
BRANCH  16  19
ATOM     19  O   UNL     1      17.177   0.419  -2.598  1.00  0.00    -0.504 OA
ATOM     20  H   UNL     1      17.357   0.265  -3.584  1.00  0.00     0.293 HD
ENDBRANCH  16  19
BRANCH  18  21
ATOM     21  O   UNL     1      17.206   2.674  -0.971  1.00  0.00    -0.504 OA
ATOM     22  H   UNL     1      17.602   2.550  -0.047  1.00  0.00     0.293 HD
ENDBRANCH  18  21
ENDBRANCH   3  13
BRANCH  10  23
ATOM     23  O   UNL     1       7.875   4.304   1.405  1.00  0.00    -0.507 OA
ATOM     24  H   UNL     1       7.684   3.387   1.775  1.00  0.00     0.293 HD
ENDBRANCH  10  23
BRANCH  11  25
ATOM     25  O   UNL     1       8.423   6.813  -2.652  1.00  0.00    -0.508 OA
ATOM     26  H   UNL     1       7.435   7.023  -2.726  1.00  0.00     0.293 HD
ENDBRANCH  11  25
ENDBRANCH   1   2
BRANCH   1  27
ATOM     27  C   UNL     1      13.019   1.548   2.409  1.00  0.00     0.339 C 
ATOM     28  C   UNL     1      14.450   0.998   2.229  1.00  0.00     0.214 C 
ATOM     29  O   UNL     1      12.406   1.049   3.588  1.00  0.00    -0.332 OA
ATOM     30  C   UNL     1      14.469  -0.545   2.316  1.00  0.00     0.180 C 
ATOM     31  C   UNL     1      12.279  -0.362   3.549  1.00  0.00     0.179 C 
ATOM     32  C   UNL     1      13.670  -1.032   3.538  1.00  0.00     0.177 C 
BRANCH  28  33
ATOM     33  O   UNL     1      15.276   1.548   3.223  1.00  0.00    -0.384 OA
ATOM     34  H   UNL     1      16.208   1.290   2.996  1.00  0.00     0.211 HD
ENDBRANCH  28  33
BRANCH  30  35
ATOM     35  O   UNL     1      13.920  -1.104   1.151  1.00  0.00    -0.387 OA
ATOM     36  H   UNL     1      14.541  -1.819   0.854  1.00  0.00     0.211 HD
ENDBRANCH  30  35
BRANCH  31  37
ATOM     37  C   UNL     1      11.458  -0.823   4.763  1.00  0.00     0.191 C 
BRANCH  37  38
ATOM     38  O   UNL     1      11.770  -0.044   5.887  1.00  0.00    -0.394 OA
ATOM     39  H   UNL     1      11.450  -0.549   6.680  1.00  0.00     0.210 HD
ENDBRANCH  37  38
ENDBRANCH  31  37
BRANCH  32  40
ATOM     40  O   UNL     1      14.362  -0.721   4.722  1.00  0.00    -0.387 OA
ATOM     41  H   UNL     1      13.736  -0.205   5.294  1.00  0.00     0.211 HD
ENDBRANCH  32  40
ENDBRANCH   1  27
TORSDOF 12
ENDMDL
MODEL 3
REMARK VINA RESULT:    -5.631      1.778      4.819
REMARK INTER + INTRA:          -9.967
REMARK INTER:                  -9.023
REMARK INTRA:                  -0.944
REMARK UNBOUND:                -1.702
REMARK SMILES O=c1c(O[C@H]2O[C@H](CO)[C@H](O)[C@@H](O)[C@@H]2O)c(-c2ccc(O)c(O)c2)oc2cc(O)cc(O)c12
REMARK SMILES IDX 4 1 3 2 16 3 25 4 2 5 26 6 1 7 33 8 27 9 31 10 28 11 30 12
REMARK SMILES IDX 17 13 18 14 19 15 20 16 24 17 22 18 21 19 23 21 32 23 29 25
REMARK SMILES IDX 5 27 14 28 6 29 12 30 7 31 10 32 15 33 13 35 8 37 9 38 11 40
REMARK H PARENT 21 20 23 22 32 24 29 26 15 34 13 36 9 39 11 41
REMARK Flexibility Score: inf
ROOT
ATOM      1  O   UNL     1      14.028   1.200   1.270  1.00  0.00    -0.454 OA
ENDROOT
BRANCH   1   2
ATOM      2  C   UNL     1      13.410   0.783   2.455  1.00  0.00     0.214 A 
ATOM      3  C   UNL     1      12.122   0.213   2.457  1.00  0.00     0.180 A 
ATOM      4  O   UNL     1      11.602  -0.228   3.596  1.00  0.00    -0.452 OA
ATOM      5  C   UNL     1      14.085   0.937   3.672  1.00  0.00     0.239 A 
ATOM      6  C   UNL     1      12.223  -0.145   4.766  1.00  0.00     0.146 A 
ATOM      7  O   UNL     1      15.186   1.544   3.670  1.00  0.00    -0.285 OA
ATOM      8  C   UNL     1      13.518   0.429   4.865  1.00  0.00     0.111 A 
ATOM      9  C   UNL     1      11.566  -0.617   5.904  1.00  0.00     0.094 A 
ATOM     10  C   UNL     1      14.146   0.474   6.146  1.00  0.00     0.134 A 
ATOM     11  C   UNL     1      12.166  -0.521   7.157  1.00  0.00     0.123 A 
ATOM     12  C   UNL     1      13.446   0.026   7.273  1.00  0.00     0.093 A 
BRANCH   3  13
ATOM     13  C   UNL     1      11.301   0.110   1.231  1.00  0.00     0.025 A 
ATOM     14  C   UNL     1      11.452  -1.000   0.386  1.00  0.00     0.016 A 
ATOM     15  C   UNL     1      10.675  -1.120  -0.770  1.00  0.00     0.051 A 
ATOM     16  C   UNL     1       9.723  -0.141  -1.084  1.00  0.00     0.157 A 
ATOM     17  C   UNL     1      10.331   1.080   0.922  1.00  0.00     0.062 A 
ATOM     18  C   UNL     1       9.548   0.957  -0.233  1.00  0.00     0.158 A 
BRANCH  16  19
ATOM     19  O   UNL     1       8.947  -0.256  -2.235  1.00  0.00    -0.504 OA
ATOM     20  H   UNL     1       9.349  -0.542  -3.120  1.00  0.00     0.293 HD
ENDBRANCH  16  19
BRANCH  18  21
ATOM     21  O   UNL     1       8.586   1.918  -0.538  1.00  0.00    -0.504 OA
ATOM     22  H   UNL     1       7.724   1.992  -0.012  1.00  0.00     0.293 HD
ENDBRANCH  18  21
ENDBRANCH   3  13
BRANCH  10  23
ATOM     23  O   UNL     1      15.454   0.919   6.363  1.00  0.00    -0.507 OA
ATOM     24  H   UNL     1      16.276   0.541   5.917  1.00  0.00     0.293 HD
ENDBRANCH  10  23
BRANCH  11  25
ATOM     25  O   UNL     1      11.485  -0.981   8.282  1.00  0.00    -0.508 OA
ATOM     26  H   UNL     1      10.506  -1.242   8.240  1.00  0.00     0.293 HD
ENDBRANCH  11  25
ENDBRANCH   1   2
BRANCH   1  27
ATOM     27  C   UNL     1      14.511   2.536   1.076  1.00  0.00     0.339 C 
ATOM     28  C   UNL     1      13.497   3.381   0.275  1.00  0.00     0.214 C 
ATOM     29  O   UNL     1      15.790   2.524   0.461  1.00  0.00    -0.332 OA
ATOM     30  C   UNL     1      13.452   2.943  -1.207  1.00  0.00     0.180 C 
ATOM     31  C   UNL     1      15.738   1.948  -0.833  1.00  0.00     0.179 C 
ATOM     32  C   UNL     1      14.876   2.812  -1.779  1.00  0.00     0.177 C 
BRANCH  28  33
ATOM     33  O   UNL     1      13.860   4.734   0.367  1.00  0.00    -0.384 OA
ATOM     34  H   UNL     1      13.446   5.087   1.199  1.00  0.00     0.211 HD
ENDBRANCH  28  33
BRANCH  30  35
ATOM     35  O   UNL     1      12.789   1.711  -1.330  1.00  0.00    -0.387 OA
ATOM     36  H   UNL     1      12.074   1.700  -0.642  1.00  0.00     0.211 HD
ENDBRANCH  30  35
BRANCH  31  37
ATOM     37  C   UNL     1      17.168   1.804  -1.374  1.00  0.00     0.191 C 
BRANCH  37  38
ATOM     38  O   UNL     1      17.247   0.725  -2.266  1.00  0.00    -0.394 OA
ATOM     39  H   UNL     1      18.141   0.313  -2.137  1.00  0.00     0.210 HD
ENDBRANCH  37  38
ENDBRANCH  31  37
BRANCH  32  40
ATOM     40  O   UNL     1      15.455   4.085  -1.926  1.00  0.00    -0.387 OA
ATOM     41  H   UNL     1      15.016   4.512  -2.706  1.00  0.00     0.211 HD
ENDBRANCH  32  40
ENDBRANCH   1  27
TORSDOF 12
ENDMDL
MODEL 4
REMARK VINA RESULT:    -5.472      0.946      2.120
REMARK INTER + INTRA:          -9.734
REMARK INTER:                  -8.530
REMARK INTRA:                  -1.203
REMARK UNBOUND:                -1.702
REMARK SMILES O=c1c(O[C@H]2O[C@H](CO)[C@H](O)[C@@H](O)[C@@H]2O)c(-c2ccc(O)c(O)c2)oc2cc(O)cc(O)c12
REMARK SMILES IDX 4 1 3 2 16 3 25 4 2 5 26 6 1 7 33 8 27 9 31 10 28 11 30 12
REMARK SMILES IDX 17 13 18 14 19 15 20 16 24 17 22 18 21 19 23 21 32 23 29 25
REMARK SMILES IDX 5 27 14 28 6 29 12 30 7 31 10 32 15 33 13 35 8 37 9 38 11 40
REMARK H PARENT 21 20 23 22 32 24 29 26 15 34 13 36 9 39 11 41
REMARK Flexibility Score: inf
ROOT
ATOM      1  O   UNL     1      12.071   1.220   2.440  1.00  0.00    -0.454 OA
ENDROOT
BRANCH   1   2
ATOM      2  C   UNL     1      13.209   0.971   3.217  1.00  0.00     0.214 A 
ATOM      3  C   UNL     1      14.482   1.435   2.834  1.00  0.00     0.180 A 
ATOM      4  O   UNL     1      15.522   1.233   3.634  1.00  0.00    -0.452 OA
ATOM      5  C   UNL     1      13.082   0.240   4.404  1.00  0.00     0.239 A 
ATOM      6  C   UNL     1      15.442   0.585   4.790  1.00  0.00     0.146 A 
ATOM      7  O   UNL     1      11.962  -0.261   4.679  1.00  0.00    -0.285 OA
ATOM      8  C   UNL     1      14.203   0.066   5.251  1.00  0.00     0.111 A 
ATOM      9  C   UNL     1      16.609   0.406   5.536  1.00  0.00     0.094 A 
ATOM     10  C   UNL     1      14.172  -0.604   6.511  1.00  0.00     0.134 A 
ATOM     11  C   UNL     1      16.578  -0.295   6.739  1.00  0.00     0.123 A 
ATOM     12  C   UNL     1      15.366  -0.799   7.217  1.00  0.00     0.093 A 
BRANCH   3  13
ATOM     13  C   UNL     1      14.719   2.124   1.547  1.00  0.00     0.025 A 
ATOM     14  C   UNL     1      14.784   3.525   1.511  1.00  0.00     0.016 A 
ATOM     15  C   UNL     1      15.020   4.192   0.306  1.00  0.00     0.051 A 
ATOM     16  C   UNL     1      15.214   3.465  -0.876  1.00  0.00     0.157 A 
ATOM     17  C   UNL     1      14.934   1.398   0.362  1.00  0.00     0.062 A 
ATOM     18  C   UNL     1      15.176   2.065  -0.846  1.00  0.00     0.158 A 
BRANCH  16  19
ATOM     19  O   UNL     1      15.449   4.124  -2.080  1.00  0.00    -0.504 OA
ATOM     20  H   UNL     1      15.633   3.615  -2.937  1.00  0.00     0.293 HD
ENDBRANCH  16  19
BRANCH  18  21
ATOM     21  O   UNL     1      15.389   1.345  -2.019  1.00  0.00    -0.504 OA
ATOM     22  H   UNL     1      15.998   1.690  -2.751  1.00  0.00     0.293 HD
ENDBRANCH  18  21
ENDBRANCH   3  13
BRANCH  10  23
ATOM     23  O   UNL     1      13.005  -1.070   7.123  1.00  0.00    -0.507 OA
ATOM     24  H   UNL     1      12.834  -2.027   7.390  1.00  0.00     0.293 HD
ENDBRANCH  10  23
BRANCH  11  25
ATOM     25  O   UNL     1      17.757  -0.478   7.458  1.00  0.00    -0.508 OA
ATOM     26  H   UNL     1      17.934   0.019   8.323  1.00  0.00     0.293 HD
ENDBRANCH  11  25
ENDBRANCH   1   2
BRANCH   1  27
ATOM     27  C   UNL     1      11.415   0.199   1.677  1.00  0.00     0.339 C 
ATOM     28  C   UNL     1      11.664   0.390   0.166  1.00  0.00     0.214 C 
ATOM     29  O   UNL     1      10.029   0.156   1.982  1.00  0.00    -0.332 OA
ATOM     30  C   UNL     1      10.885   1.610  -0.379  1.00  0.00     0.180 C 
ATOM     31  C   UNL     1       9.382   1.367   1.631  1.00  0.00     0.179 C 
ATOM     32  C   UNL     1       9.422   1.581   0.102  1.00  0.00     0.177 C 
BRANCH  28  33
ATOM     33  O   UNL     1      11.268  -0.776  -0.511  1.00  0.00    -0.384 OA
ATOM     34  H   UNL     1      11.297  -1.515   0.151  1.00  0.00     0.211 HD
ENDBRANCH  28  33
BRANCH  30  35
ATOM     35  O   UNL     1      11.489   2.803   0.050  1.00  0.00    -0.387 OA
ATOM     36  H   UNL     1      10.772   3.360   0.450  1.00  0.00     0.211 HD
ENDBRANCH  30  35
BRANCH  31  37
ATOM     37  C   UNL     1       7.934   1.326   2.141  1.00  0.00     0.191 C 
BRANCH  37  38
ATOM     38  O   UNL     1       7.910   1.320   3.542  1.00  0.00    -0.394 OA
ATOM     39  H   UNL     1       6.960   1.215   3.811  1.00  0.00     0.210 HD
ENDBRANCH  37  38
ENDBRANCH  31  37
BRANCH  32  40
ATOM     40  O   UNL     1       8.723   0.546  -0.545  1.00  0.00    -0.387 OA
ATOM     41  H   UNL     1       8.201   0.966  -1.277  1.00  0.00     0.211 HD
ENDBRANCH  32  40
ENDBRANCH   1  27
TORSDOF 12
ENDMDL
MODEL 5
REMARK VINA RESULT:    -5.202      2.306      6.913
REMARK INTER + INTRA:          -9.337
REMARK INTER:                  -8.334
REMARK INTRA:                  -1.002
REMARK UNBOUND:                -1.702
REMARK SMILES O=c1c(O[C@H]2O[C@H](CO)[C@H](O)[C@@H](O)[C@@H]2O)c(-c2ccc(O)c(O)c2)oc2cc(O)cc(O)c12
REMARK SMILES IDX 4 1 3 2 16 3 25 4 2 5 26 6 1 7 33 8 27 9 31 10 28 11 30 12
REMARK SMILES IDX 17 13 18 14 19 15 20 16 24 17 22 18 21 19 23 21 32 23 29 25
REMARK SMILES IDX 5 27 14 28 6 29 12 30 7 31 10 32 15 33 13 35 8 37 9 38 11 40
REMARK H PARENT 21 20 23 22 32 24 29 26 15 34 13 36 9 39 11 41
REMARK Flexibility Score: inf
ROOT
ATOM      1  O   UNL     1      12.726   1.391  -0.527  1.00  0.00    -0.454 OA
ENDROOT
BRANCH   1   2
ATOM      2  C   UNL     1      11.960   2.419   0.037  1.00  0.00     0.214 A 
ATOM      3  C   UNL     1      12.168   2.855   1.359  1.00  0.00     0.180 A 
ATOM      4  O   UNL     1      11.463   3.876   1.832  1.00  0.00    -0.452 OA
ATOM      5  C   UNL     1      10.960   3.029  -0.730  1.00  0.00     0.239 A 
ATOM      6  C   UNL     1      10.536   4.515   1.127  1.00  0.00     0.146 A 
ATOM      7  O   UNL     1      10.713   2.559  -1.869  1.00  0.00    -0.285 OA
ATOM      8  C   UNL     1      10.246   4.135  -0.210  1.00  0.00     0.111 A 
ATOM      9  C   UNL     1       9.836   5.558   1.737  1.00  0.00     0.094 A 
ATOM     10  C   UNL     1       9.255   4.870  -0.926  1.00  0.00     0.134 A 
ATOM     11  C   UNL     1       8.834   6.235   1.047  1.00  0.00     0.123 A 
ATOM     12  C   UNL     1       8.544   5.887  -0.274  1.00  0.00     0.093 A 
BRANCH   3  13
ATOM     13  C   UNL     1      13.131   2.197   2.268  1.00  0.00     0.025 A 
ATOM     14  C   UNL     1      14.356   2.820   2.552  1.00  0.00     0.016 A 
ATOM     15  C   UNL     1      15.272   2.218   3.418  1.00  0.00     0.051 A 
ATOM     16  C   UNL     1      14.967   0.994   4.028  1.00  0.00     0.157 A 
ATOM     17  C   UNL     1      12.821   0.978   2.897  1.00  0.00     0.062 A 
ATOM     18  C   UNL     1      13.736   0.376   3.771  1.00  0.00     0.158 A 
BRANCH  16  19
ATOM     19  O   UNL     1      15.877   0.389   4.892  1.00  0.00    -0.504 OA
ATOM     20  H   UNL     1      15.590  -0.330   5.546  1.00  0.00     0.293 HD
ENDBRANCH  16  19
BRANCH  18  21
ATOM     21  O   UNL     1      13.428  -0.831   4.394  1.00  0.00    -0.504 OA
ATOM     22  H   UNL     1      12.576  -1.335   4.182  1.00  0.00     0.293 HD
ENDBRANCH  18  21
ENDBRANCH   3  13
BRANCH  10  23
ATOM     23  O   UNL     1       8.947   4.664  -2.275  1.00  0.00    -0.507 OA
ATOM     24  H   UNL     1       8.211   5.133  -2.779  1.00  0.00     0.293 HD
ENDBRANCH  10  23
BRANCH  11  25
ATOM     25  O   UNL     1       8.135   7.260   1.681  1.00  0.00    -0.508 OA
ATOM     26  H   UNL     1       7.124   7.316   1.643  1.00  0.00     0.293 HD
ENDBRANCH  11  25
ENDBRANCH   1   2
BRANCH   1  27
ATOM     27  C   UNL     1      13.435   1.542  -1.764  1.00  0.00     0.339 C 
ATOM     28  C   UNL     1      13.880   0.173  -2.319  1.00  0.00     0.214 C 
ATOM     29  O   UNL     1      14.531   2.432  -1.611  1.00  0.00    -0.332 OA
ATOM     30  C   UNL     1      15.031  -0.423  -1.475  1.00  0.00     0.180 C 
ATOM     31  C   UNL     1      15.482   1.929  -0.689  1.00  0.00     0.179 C 
ATOM     32  C   UNL     1      16.125   0.631  -1.224  1.00  0.00     0.177 C 
BRANCH  28  33
ATOM     33  O   UNL     1      14.293   0.334  -3.652  1.00  0.00    -0.384 OA
ATOM     34  H   UNL     1      13.623   0.922  -4.090  1.00  0.00     0.211 HD
ENDBRANCH  28  33
BRANCH  30  35
ATOM     35  O   UNL     1      14.541  -0.884  -0.243  1.00  0.00    -0.387 OA
ATOM     36  H   UNL     1      15.328  -1.015   0.348  1.00  0.00     0.211 HD
ENDBRANCH  30  35
BRANCH  31  37
ATOM     37  C   UNL     1      16.548   3.004  -0.434  1.00  0.00     0.191 C 
BRANCH  37  38
ATOM     38  O   UNL     1      16.011   4.283  -0.641  1.00  0.00    -0.394 OA
ATOM     39  H   UNL     1      15.025   4.174  -0.687  1.00  0.00     0.210 HD
ENDBRANCH  37  38
ENDBRANCH  31  37
BRANCH  32  40
ATOM     40  O   UNL     1      16.820   0.898  -2.417  1.00  0.00    -0.387 OA
ATOM     41  H   UNL     1      17.783   0.942  -2.185  1.00  0.00     0.211 HD
ENDBRANCH  32  40
ENDBRANCH   1  27
TORSDOF 12
ENDMDL
MODEL 6
REMARK VINA RESULT:    -5.078      1.660      2.214
REMARK INTER + INTRA:          -9.155
REMARK INTER:                  -7.652
REMARK INTRA:                  -1.503
REMARK UNBOUND:                -1.702
REMARK SMILES O=c1c(O[C@H]2O[C@H](CO)[C@H](O)[C@@H](O)[C@@H]2O)c(-c2ccc(O)c(O)c2)oc2cc(O)cc(O)c12
REMARK SMILES IDX 4 1 3 2 16 3 25 4 2 5 26 6 1 7 33 8 27 9 31 10 28 11 30 12
REMARK SMILES IDX 17 13 18 14 19 15 20 16 24 17 22 18 21 19 23 21 32 23 29 25
REMARK SMILES IDX 5 27 14 28 6 29 12 30 7 31 10 32 15 33 13 35 8 37 9 38 11 40
REMARK H PARENT 21 20 23 22 32 24 29 26 15 34 13 36 9 39 11 41
REMARK Flexibility Score: inf
ROOT
ATOM      1  O   UNL     1      11.141   0.008   1.932  1.00  0.00    -0.454 OA
ENDROOT
BRANCH   1   2
ATOM      2  C   UNL     1      12.244  -0.081   2.790  1.00  0.00     0.214 A 
ATOM      3  C   UNL     1      13.564  -0.021   2.305  1.00  0.00     0.180 A 
ATOM      4  O   UNL     1      14.579  -0.043   3.160  1.00  0.00    -0.452 OA
ATOM      5  C   UNL     1      12.033  -0.236   4.165  1.00  0.00     0.239 A 
ATOM      6  C   UNL     1      14.426  -0.143   4.475  1.00  0.00     0.146 A 
ATOM      7  O   UNL     1      10.854  -0.396   4.573  1.00  0.00    -0.285 OA
ATOM      8  C   UNL     1      13.133  -0.225   5.055  1.00  0.00     0.111 A 
ATOM      9  C   UNL     1      15.569  -0.185   5.278  1.00  0.00     0.094 A 
ATOM     10  C   UNL     1      13.028  -0.310   6.476  1.00  0.00     0.134 A 
ATOM     11  C   UNL     1      15.457  -0.321   6.659  1.00  0.00     0.123 A 
ATOM     12  C   UNL     1      14.193  -0.388   7.250  1.00  0.00     0.093 A 
BRANCH   3  13
ATOM     13  C   UNL     1      13.875   0.037   0.860  1.00  0.00     0.025 A 
ATOM     14  C   UNL     1      13.774  -1.125   0.080  1.00  0.00     0.016 A 
ATOM     15  C   UNL     1      14.051  -1.086  -1.289  1.00  0.00     0.051 A 
ATOM     16  C   UNL     1      14.414   0.122  -1.900  1.00  0.00     0.157 A 
ATOM     17  C   UNL     1      14.221   1.251   0.238  1.00  0.00     0.062 A 
ATOM     18  C   UNL     1      14.494   1.293  -1.135  1.00  0.00     0.158 A 
BRANCH  16  19
ATOM     19  O   UNL     1      14.692   0.167  -3.264  1.00  0.00    -0.504 OA
ATOM     20  H   UNL     1      15.239   0.918  -3.669  1.00  0.00     0.293 HD
ENDBRANCH  16  19
BRANCH  18  21
ATOM     21  O   UNL     1      14.836   2.495  -1.750  1.00  0.00    -0.504 OA
ATOM     22  H   UNL     1      14.866   3.366  -1.233  1.00  0.00     0.293 HD
ENDBRANCH  18  21
ENDBRANCH   3  13
BRANCH  10  23
ATOM     23  O   UNL     1      11.818  -0.296   7.175  1.00  0.00    -0.507 OA
ATOM     24  H   UNL     1      11.099   0.404   7.075  1.00  0.00     0.293 HD
ENDBRANCH  10  23
BRANCH  11  25
ATOM     25  O   UNL     1      16.611  -0.380   7.438  1.00  0.00    -0.508 OA
ATOM     26  H   UNL     1      17.366  -1.020   7.221  1.00  0.00     0.293 HD
ENDBRANCH  11  25
ENDBRANCH   1   2
BRANCH   1  27
ATOM     27  C   UNL     1      10.643   1.257   1.436  1.00  0.00     0.339 C 
ATOM     28  C   UNL     1       9.238   1.557   2.000  1.00  0.00     0.214 C 
ATOM     29  O   UNL     1      10.657   1.276   0.016  1.00  0.00    -0.332 OA
ATOM     30  C   UNL     1       8.174   0.628   1.370  1.00  0.00     0.180 C 
ATOM     31  C   UNL     1       9.800   0.286  -0.524  1.00  0.00     0.179 C 
ATOM     32  C   UNL     1       8.330   0.582  -0.161  1.00  0.00     0.177 C 
BRANCH  28  33
ATOM     33  O   UNL     1       8.920   2.900   1.739  1.00  0.00    -0.384 OA
ATOM     34  H   UNL     1       8.951   3.017   0.753  1.00  0.00     0.211 HD
ENDBRANCH  28  33
BRANCH  30  35
ATOM     35  O   UNL     1       8.296  -0.671   1.888  1.00  0.00    -0.387 OA
ATOM     36  H   UNL     1       9.246  -0.788   2.149  1.00  0.00     0.211 HD
ENDBRANCH  30  35
BRANCH  31  37
ATOM     37  C   UNL     1       9.990   0.239  -2.048  1.00  0.00     0.191 C 
BRANCH  37  38
ATOM     38  O   UNL     1      11.004   1.125  -2.441  1.00  0.00    -0.394 OA
ATOM     39  H   UNL     1      11.323   0.816  -3.329  1.00  0.00     0.210 HD
ENDBRANCH  37  38
ENDBRANCH  31  37
BRANCH  32  40
ATOM     40  O   UNL     1       7.934   1.809  -0.723  1.00  0.00    -0.387 OA
ATOM     41  H   UNL     1       8.629   2.474  -0.479  1.00  0.00     0.211 HD
ENDBRANCH  32  40
ENDBRANCH   1  27
TORSDOF 12
ENDMDL
MODEL 7
REMARK VINA RESULT:    -4.661      2.349      7.053
REMARK INTER + INTRA:          -8.543
REMARK INTER:                  -7.759
REMARK INTRA:                  -0.783
REMARK UNBOUND:                -1.702
REMARK SMILES O=c1c(O[C@H]2O[C@H](CO)[C@H](O)[C@@H](O)[C@@H]2O)c(-c2ccc(O)c(O)c2)oc2cc(O)cc(O)c12
REMARK SMILES IDX 4 1 3 2 16 3 25 4 2 5 26 6 1 7 33 8 27 9 31 10 28 11 30 12
REMARK SMILES IDX 17 13 18 14 19 15 20 16 24 17 22 18 21 19 23 21 32 23 29 25
REMARK SMILES IDX 5 27 14 28 6 29 12 30 7 31 10 32 15 33 13 35 8 37 9 38 11 40
REMARK H PARENT 21 20 23 22 32 24 29 26 15 34 13 36 9 39 11 41
REMARK Flexibility Score: inf
ROOT
ATOM      1  O   UNL     1      12.786   1.443  -0.194  1.00  0.00    -0.454 OA
ENDROOT
BRANCH   1   2
ATOM      2  C   UNL     1      11.974   2.462   0.318  1.00  0.00     0.214 A 
ATOM      3  C   UNL     1      12.064   2.875   1.661  1.00  0.00     0.180 A 
ATOM      4  O   UNL     1      11.321   3.888   2.088  1.00  0.00    -0.452 OA
ATOM      5  C   UNL     1      11.045   3.087  -0.522  1.00  0.00     0.239 A 
ATOM      6  C   UNL     1      10.460   4.541   1.316  1.00  0.00     0.146 A 
ATOM      7  O   UNL     1      10.899   2.638  -1.687  1.00  0.00    -0.285 OA
ATOM      8  C   UNL     1      10.289   4.186  -0.048  1.00  0.00     0.111 A 
ATOM      9  C   UNL     1       9.710   5.575   1.880  1.00  0.00     0.094 A 
ATOM     10  C   UNL     1       9.365   4.935  -0.836  1.00  0.00     0.134 A 
ATOM     11  C   UNL     1       8.773   6.266   1.116  1.00  0.00     0.123 A 
ATOM     12  C   UNL     1       8.601   5.941  -0.231  1.00  0.00     0.093 A 
BRANCH   3  13
ATOM     13  C   UNL     1      12.943   2.198   2.640  1.00  0.00     0.025 A 
ATOM     14  C   UNL     1      14.131   2.821   3.053  1.00  0.00     0.016 A 
ATOM     15  C   UNL     1      14.967   2.202   3.987  1.00  0.00     0.051 A 
ATOM     16  C   UNL     1      14.616   0.960   4.533  1.00  0.00     0.157 A 
ATOM     17  C   UNL     1      12.586   0.961   3.205  1.00  0.00     0.062 A 
ATOM     18  C   UNL     1      13.421   0.342   4.145  1.00  0.00     0.158 A 
BRANCH  16  19
ATOM     19  O   UNL     1      15.446   0.339   5.463  1.00  0.00    -0.504 OA
ATOM     20  H   UNL     1      15.103  -0.395   6.073  1.00  0.00     0.293 HD
ENDBRANCH  16  19
BRANCH  18  21
ATOM     21  O   UNL     1      13.065  -0.883   4.705  1.00  0.00    -0.504 OA
ATOM     22  H   UNL     1      13.505  -1.228   5.550  1.00  0.00     0.293 HD
ENDBRANCH  18  21
ENDBRANCH   3  13
BRANCH  10  23
ATOM     23  O   UNL     1       9.177   4.753  -2.210  1.00  0.00    -0.507 OA
ATOM     24  H   UNL     1       9.276   5.473  -2.908  1.00  0.00     0.293 HD
ENDBRANCH  10  23
BRANCH  11  25
ATOM     25  O   UNL     1       8.021   7.281   1.705  1.00  0.00    -0.508 OA
ATOM     26  H   UNL     1       7.727   8.096   1.179  1.00  0.00     0.293 HD
ENDBRANCH  11  25
ENDBRANCH   1   2
BRANCH   1  27
ATOM     27  C   UNL     1      14.191   1.360   0.080  1.00  0.00     0.339 C 
ATOM     28  C   UNL     1      14.921   2.642  -0.375  1.00  0.00     0.214 C 
ATOM     29  O   UNL     1      14.750   0.196  -0.510  1.00  0.00    -0.332 OA
ATOM     30  C   UNL     1      14.999   2.722  -1.918  1.00  0.00     0.180 C 
ATOM     31  C   UNL     1      14.641   0.227  -1.923  1.00  0.00     0.179 C 
ATOM     32  C   UNL     1      15.479   1.384  -2.508  1.00  0.00     0.177 C 
BRANCH  28  33
ATOM     33  O   UNL     1      16.213   2.648   0.174  1.00  0.00    -0.384 OA
ATOM     34  H   UNL     1      16.848   2.567  -0.585  1.00  0.00     0.211 HD
ENDBRANCH  28  33
BRANCH  30  35
ATOM     35  O   UNL     1      13.740   3.039  -2.452  1.00  0.00    -0.387 OA
ATOM     36  H   UNL     1      13.456   3.892  -2.032  1.00  0.00     0.211 HD
ENDBRANCH  30  35
BRANCH  31  37
ATOM     37  C   UNL     1      15.101  -1.125  -2.489  1.00  0.00     0.191 C 
BRANCH  37  38
ATOM     38  O   UNL     1      15.658  -0.956  -3.765  1.00  0.00    -0.394 OA
ATOM     39  H   UNL     1      15.681   0.021  -3.938  1.00  0.00     0.210 HD
ENDBRANCH  37  38
ENDBRANCH  31  37
BRANCH  32  40
ATOM     40  O   UNL     1      16.840   1.187  -2.213  1.00  0.00    -0.387 OA
ATOM     41  H   UNL     1      17.144   1.987  -1.711  1.00  0.00     0.211 HD
ENDBRANCH  32  40
ENDBRANCH   1  27
TORSDOF 12
ENDMDL
MODEL 8
REMARK VINA RESULT:    -4.381      1.604      2.246
REMARK INTER + INTRA:          -8.133
REMARK INTER:                  -7.567
REMARK INTRA:                  -0.566
REMARK UNBOUND:                -1.702
REMARK SMILES O=c1c(O[C@H]2O[C@H](CO)[C@H](O)[C@@H](O)[C@@H]2O)c(-c2ccc(O)c(O)c2)oc2cc(O)cc(O)c12
REMARK SMILES IDX 4 1 3 2 16 3 25 4 2 5 26 6 1 7 33 8 27 9 31 10 28 11 30 12
REMARK SMILES IDX 17 13 18 14 19 15 20 16 24 17 22 18 21 19 23 21 32 23 29 25
REMARK SMILES IDX 5 27 14 28 6 29 12 30 7 31 10 32 15 33 13 35 8 37 9 38 11 40
REMARK H PARENT 21 20 23 22 32 24 29 26 15 34 13 36 9 39 11 41
REMARK Flexibility Score: inf
ROOT
ATOM      1  O   UNL     1      11.345   0.855   1.039  1.00  0.00    -0.454 OA
ENDROOT
BRANCH   1   2
ATOM      2  C   UNL     1      12.067   0.525   2.192  1.00  0.00     0.214 A 
ATOM      3  C   UNL     1      13.452   0.760   2.289  1.00  0.00     0.180 A 
ATOM      4  O   UNL     1      14.085   0.493   3.425  1.00  0.00    -0.452 OA
ATOM      5  C   UNL     1      11.400  -0.055   3.277  1.00  0.00     0.239 A 
ATOM      6  C   UNL     1      13.486  -0.016   4.495  1.00  0.00     0.146 A 
ATOM      7  O   UNL     1      10.188  -0.359   3.138  1.00  0.00    -0.285 OA
ATOM      8  C   UNL     1      12.095  -0.301   4.485  1.00  0.00     0.111 A 
ATOM      9  C   UNL     1      14.258  -0.284   5.627  1.00  0.00     0.094 A 
ATOM     10  C   UNL     1      11.500  -0.827   5.671  1.00  0.00     0.134 A 
ATOM     11  C   UNL     1      13.678  -0.846   6.761  1.00  0.00     0.123 A 
ATOM     12  C   UNL     1      12.309  -1.120   6.777  1.00  0.00     0.093 A 
BRANCH   3  13
ATOM     13  C   UNL     1      14.250   1.273   1.153  1.00  0.00     0.025 A 
ATOM     14  C   UNL     1      14.492   0.447   0.046  1.00  0.00     0.016 A 
ATOM     15  C   UNL     1      15.232   0.919  -1.042  1.00  0.00     0.051 A 
ATOM     16  C   UNL     1      15.724   2.231  -1.043  1.00  0.00     0.157 A 
ATOM     17  C   UNL     1      14.729   2.595   1.139  1.00  0.00     0.062 A 
ATOM     18  C   UNL     1      15.466   3.072   0.048  1.00  0.00     0.158 A 
BRANCH  16  19
ATOM     19  O   UNL     1      16.463   2.707  -2.123  1.00  0.00    -0.504 OA
ATOM     20  H   UNL     1      16.648   3.696  -2.244  1.00  0.00     0.293 HD
ENDBRANCH  16  19
BRANCH  18  21
ATOM     21  O   UNL     1      15.940   4.382   0.034  1.00  0.00    -0.504 OA
ATOM     22  H   UNL     1      15.436   5.123  -0.439  1.00  0.00     0.293 HD
ENDBRANCH  18  21
ENDBRANCH   3  13
BRANCH  10  23
ATOM     23  O   UNL     1      10.129  -1.057   5.826  1.00  0.00    -0.507 OA
ATOM     24  H   UNL     1       9.399  -0.527   5.376  1.00  0.00     0.293 HD
ENDBRANCH  10  23
BRANCH  11  25
ATOM     25  O   UNL     1      14.472  -1.122   7.873  1.00  0.00    -0.508 OA
ATOM     26  H   UNL     1      15.170  -0.466   8.203  1.00  0.00     0.293 HD
ENDBRANCH  11  25
ENDBRANCH   1   2
BRANCH   1  27
ATOM     27  C   UNL     1       9.960   1.223   1.071  1.00  0.00     0.339 C 
ATOM     28  C   UNL     1       9.274   0.920  -0.279  1.00  0.00     0.214 C 
ATOM     29  O   UNL     1       9.810   2.585   1.445  1.00  0.00    -0.332 OA
ATOM     30  C   UNL     1       9.741   1.905  -1.375  1.00  0.00     0.180 C 
ATOM     31  C   UNL     1      10.411   3.452   0.498  1.00  0.00     0.179 C 
ATOM     32  C   UNL     1       9.689   3.356  -0.862  1.00  0.00     0.177 C 
BRANCH  28  33
ATOM     33  O   UNL     1       7.882   1.009  -0.111  1.00  0.00    -0.384 OA
ATOM     34  H   UNL     1       7.608   1.900  -0.454  1.00  0.00     0.211 HD
ENDBRANCH  28  33
BRANCH  30  35
ATOM     35  O   UNL     1      11.052   1.602  -1.774  1.00  0.00    -0.387 OA
ATOM     36  H   UNL     1      11.061   1.613  -2.766  1.00  0.00     0.211 HD
ENDBRANCH  30  35
BRANCH  31  37
ATOM     37  C   UNL     1      10.371   4.888   1.041  1.00  0.00     0.191 C 
BRANCH  37  38
ATOM     38  O   UNL     1       9.952   5.776   0.040  1.00  0.00    -0.394 OA
ATOM     39  H   UNL     1       9.061   6.117   0.316  1.00  0.00     0.210 HD
ENDBRANCH  37  38
ENDBRANCH  31  37
BRANCH  32  40
ATOM     40  O   UNL     1       8.352   3.771  -0.726  1.00  0.00    -0.387 OA
ATOM     41  H   UNL     1       7.785   2.974  -0.893  1.00  0.00     0.211 HD
ENDBRANCH  32  40
ENDBRANCH   1  27
TORSDOF 12
ENDMDL
