MODEL 1
REMARK VINA RESULT:    -8.420      0.000      0.000
REMARK INTER + INTRA:         -15.526
REMARK INTER:                 -13.835
REMARK INTRA:                  -1.690
REMARK UNBOUND:                -1.690
REMARK SMILES C[C@@H]1O[C@H](OC[C@@H]2O[C@H](Oc3c(-c4ccc(O)c(O)c4)oc4cc(O)cc(O)c4c3=O)[C@@H](O)[C@H](O)[C@H]2O)[C@H](O)[C@@H](O)[C@H]1O
REMARK SMILES IDX 7 1 36 2 34 3 32 4 9 5 8 6 6 7 5 8 4 9 1 10 2 11 42 12 3 13
REMARK SMILES IDX 40 14 38 15 43 16 41 18 39 20 37 22 35 24 10 26 11 27 12 28
REMARK SMILES IDX 30 29 21 30 29 31 31 32 22 33 27 34 23 35 26 36 24 37 13 38
REMARK SMILES IDX 20 39 14 40 18 41 15 42 16 43 19 44 17 46 28 48 25 50 33 52
REMARK H PARENT 43 17 41 19 39 21 37 23 35 25 19 45 17 47 28 49 25 51 33 53
REMARK Flexibility Score: inf
ROOT
ATOM      1  C   UNL     1       8.762  25.600  24.296  1.00  0.00     0.180 C 
ATOM      2  C   UNL     1       7.923  26.891  24.448  1.00  0.00     0.177 C 
ATOM      3  C   UNL     1       8.171  27.807  23.229  1.00  0.00     0.180 C 
ATOM      4  C   UNL     1       9.682  27.983  22.971  1.00  0.00     0.214 C 
ATOM      5  C   UNL     1      10.353  26.599  22.926  1.00  0.00     0.339 C 
ATOM      6  O   UNL     1      10.138  25.917  24.151  1.00  0.00    -0.332 OA
ENDROOT
BRANCH   1   7
ATOM      7  C   UNL     1       8.587  24.672  25.504  1.00  0.00     0.198 C 
BRANCH   7   8
ATOM      8  O   UNL     1       7.991  25.375  26.581  1.00  0.00    -0.347 OA
BRANCH   8   9
ATOM      9  C   UNL     1       7.173  24.509  27.347  1.00  0.00     0.281 C 
ATOM     10  C   UNL     1       9.754  25.235  28.915  1.00  0.00     0.041 C 
ATOM     11  C   UNL     1       8.531  24.394  29.323  1.00  0.00     0.150 C 
ATOM     12  C   UNL     1       7.495  25.196  30.149  1.00  0.00     0.174 C 
ATOM     13  O   UNL     1       7.951  23.695  28.223  1.00  0.00    -0.344 OA
ATOM     14  C   UNL     1       6.641  26.108  29.251  1.00  0.00     0.179 C 
ATOM     15  C   UNL     1       6.069  25.314  28.073  1.00  0.00     0.202 C 
BRANCH  12  16
ATOM     16  O   UNL     1       6.690  24.336  30.923  1.00  0.00    -0.388 OA
ATOM     17  H   UNL     1       6.148  24.883  31.551  1.00  0.00     0.211 HD
ENDBRANCH  12  16
BRANCH  14  18
ATOM     18  O   UNL     1       5.584  26.676  29.984  1.00  0.00    -0.387 OA
ATOM     19  H   UNL     1       4.891  25.974  30.069  1.00  0.00     0.211 HD
ENDBRANCH  14  18
BRANCH  15  20
ATOM     20  O   UNL     1       5.440  26.204  27.182  1.00  0.00    -0.385 OA
ATOM     21  H   UNL     1       6.002  26.248  26.366  1.00  0.00     0.211 HD
ENDBRANCH  15  20
ENDBRANCH   8   9
ENDBRANCH   7   8
ENDBRANCH   1   7
BRANCH   2  22
ATOM     22  O   UNL     1       6.561  26.555  24.522  1.00  0.00    -0.387 OA
ATOM     23  H   UNL     1       6.388  25.903  23.795  1.00  0.00     0.211 HD
ENDBRANCH   2  22
BRANCH   3  24
ATOM     24  O   UNL     1       7.549  29.057  23.403  1.00  0.00    -0.387 OA
ATOM     25  H   UNL     1       8.264  29.729  23.559  1.00  0.00     0.211 HD
ENDBRANCH   3  24
BRANCH   5  26
ATOM     26  O   UNL     1      11.755  26.781  22.726  1.00  0.00    -0.454 OA
BRANCH  26  27
ATOM     27  C   UNL     1      12.392  26.903  21.478  1.00  0.00     0.214 A 
ATOM     28  C   UNL     1      13.354  27.921  21.300  1.00  0.00     0.180 A 
ATOM     29  C   UNL     1      12.087  26.073  20.378  1.00  0.00     0.239 A 
ATOM     30  O   UNL     1      13.905  28.117  20.105  1.00  0.00    -0.452 OA
ATOM     31  C   UNL     1      12.691  26.319  19.126  1.00  0.00     0.111 A 
ATOM     32  O   UNL     1      11.279  25.115  20.519  1.00  0.00    -0.285 OA
ATOM     33  C   UNL     1      13.617  27.383  19.037  1.00  0.00     0.146 A 
ATOM     34  C   UNL     1      12.406  25.560  17.962  1.00  0.00     0.134 A 
ATOM     35  C   UNL     1      14.231  27.688  17.819  1.00  0.00     0.094 A 
ATOM     36  C   UNL     1      13.034  25.880  16.750  1.00  0.00     0.093 A 
ATOM     37  C   UNL     1      13.937  26.942  16.674  1.00  0.00     0.123 A 
BRANCH  28  38
ATOM     38  C   UNL     1      13.739  28.841  22.398  1.00  0.00     0.025 A 
ATOM     39  C   UNL     1      12.943  29.944  22.751  1.00  0.00     0.062 A 
ATOM     40  C   UNL     1      14.918  28.591  23.119  1.00  0.00     0.016 A 
ATOM     41  C   UNL     1      13.349  30.816  23.770  1.00  0.00     0.158 A 
ATOM     42  C   UNL     1      15.319  29.453  24.140  1.00  0.00     0.051 A 
ATOM     43  C   UNL     1      14.545  30.570  24.464  1.00  0.00     0.157 A 
BRANCH  41  44
ATOM     44  O   UNL     1      12.574  31.929  24.081  1.00  0.00    -0.504 OA
ATOM     45  H   UNL     1      11.869  31.901  24.808  1.00  0.00     0.293 HD
ENDBRANCH  41  44
BRANCH  43  46
ATOM     46  O   UNL     1      14.978  31.422  25.479  1.00  0.00    -0.504 OA
ATOM     47  H   UNL     1      14.862  32.428  25.429  1.00  0.00     0.293 HD
ENDBRANCH  43  46
ENDBRANCH  28  38
BRANCH  34  48
ATOM     48  O   UNL     1      11.502  24.498  18.002  1.00  0.00    -0.507 OA
ATOM     49  H   UNL     1      10.552  24.612  18.336  1.00  0.00     0.293 HD
ENDBRANCH  34  48
BRANCH  37  50
ATOM     50  O   UNL     1      14.538  27.251  15.456  1.00  0.00    -0.508 OA
ATOM     51  H   UNL     1      15.432  27.725  15.414  1.00  0.00     0.293 HD
ENDBRANCH  37  50
ENDBRANCH  26  27
ENDBRANCH   5  26
BRANCH   4  52
ATOM     52  O   UNL     1       9.863  28.644  21.742  1.00  0.00    -0.384 OA
ATOM     53  H   UNL     1      10.750  29.096  21.775  1.00  0.00     0.211 HD
ENDBRANCH   4  52
TORSDOF 16
ENDMDL
MODEL 2
REMARK VINA RESULT:    -8.337      3.346     11.212
REMARK INTER + INTRA:         -15.389
REMARK INTER:                 -13.732
REMARK INTRA:                  -1.657
REMARK UNBOUND:                -1.690
REMARK SMILES C[C@@H]1O[C@H](OC[C@@H]2O[C@H](Oc3c(-c4ccc(O)c(O)c4)oc4cc(O)cc(O)c4c3=O)[C@@H](O)[C@H](O)[C@H]2O)[C@H](O)[C@@H](O)[C@H]1O
REMARK SMILES IDX 7 1 36 2 34 3 32 4 9 5 8 6 6 7 5 8 4 9 1 10 2 11 42 12 3 13
REMARK SMILES IDX 40 14 38 15 43 16 41 18 39 20 37 22 35 24 10 26 11 27 12 28
REMARK SMILES IDX 30 29 21 30 29 31 31 32 22 33 27 34 23 35 26 36 24 37 13 38
REMARK SMILES IDX 20 39 14 40 18 41 15 42 16 43 19 44 17 46 28 48 25 50 33 52
REMARK H PARENT 43 17 41 19 39 21 37 23 35 25 19 45 17 47 28 49 25 51 33 53
REMARK Flexibility Score: inf
ROOT
ATOM      1  C   UNL     1       9.166  24.693  26.019  1.00  0.00     0.180 C 
ATOM      2  C   UNL     1      10.225  25.199  27.027  1.00  0.00     0.177 C 
ATOM      3  C   UNL     1      10.017  24.494  28.385  1.00  0.00     0.180 C 
ATOM      4  C   UNL     1       8.541  24.574  28.826  1.00  0.00     0.214 C 
ATOM      5  C   UNL     1       7.640  24.101  27.672  1.00  0.00     0.339 C 
ATOM      6  O   UNL     1       7.858  24.909  26.526  1.00  0.00    -0.332 OA
ENDROOT
BRANCH   1   7
ATOM      7  C   UNL     1       9.299  25.395  24.663  1.00  0.00     0.198 C 
BRANCH   7   8
ATOM      8  O   UNL     1      10.177  26.503  24.770  1.00  0.00    -0.347 OA
BRANCH   8   9
ATOM      9  C   UNL     1      10.949  26.640  23.589  1.00  0.00     0.281 C 
ATOM     10  C   UNL     1       8.786  28.864  23.736  1.00  0.00     0.041 C 
ATOM     11  C   UNL     1       9.904  28.612  22.707  1.00  0.00     0.150 C 
ATOM     12  C   UNL     1      11.169  29.467  22.967  1.00  0.00     0.174 C 
ATOM     13  O   UNL     1      10.189  27.225  22.533  1.00  0.00    -0.344 OA
ATOM     14  C   UNL     1      12.015  28.887  24.115  1.00  0.00     0.179 C 
ATOM     15  C   UNL     1      12.266  27.393  23.891  1.00  0.00     0.202 C 
BRANCH  12  16
ATOM     16  O   UNL     1      11.930  29.615  21.791  1.00  0.00    -0.388 OA
ATOM     17  H   UNL     1      12.867  29.830  22.040  1.00  0.00     0.211 HD
ENDBRANCH  12  16
BRANCH  14  18
ATOM     18  O   UNL     1      13.248  29.556  24.207  1.00  0.00    -0.387 OA
ATOM     19  H   UNL     1      13.517  29.522  25.159  1.00  0.00     0.211 HD
ENDBRANCH  14  18
BRANCH  15  20
ATOM     20  O   UNL     1      12.890  26.858  25.034  1.00  0.00    -0.385 OA
ATOM     21  H   UNL     1      12.180  26.694  25.707  1.00  0.00     0.211 HD
ENDBRANCH  15  20
ENDBRANCH   8   9
ENDBRANCH   7   8
ENDBRANCH   1   7
BRANCH   2  22
ATOM     22  O   UNL     1      11.510  24.914  26.534  1.00  0.00    -0.387 OA
ATOM     23  H   UNL     1      11.431  24.859  25.546  1.00  0.00     0.211 HD
ENDBRANCH   2  22
BRANCH   3  24
ATOM     24  O   UNL     1      10.860  25.039  29.371  1.00  0.00    -0.387 OA
ATOM     25  H   UNL     1      11.391  25.762  28.945  1.00  0.00     0.211 HD
ENDBRANCH   3  24
BRANCH   5  26
ATOM     26  O   UNL     1       6.277  24.218  28.082  1.00  0.00    -0.454 OA
BRANCH  26  27
ATOM     27  C   UNL     1       5.564  23.261  28.826  1.00  0.00     0.214 A 
ATOM     28  C   UNL     1       4.836  23.684  29.959  1.00  0.00     0.180 A 
ATOM     29  C   UNL     1       5.570  21.886  28.510  1.00  0.00     0.239 A 
ATOM     30  O   UNL     1       4.228  22.789  30.733  1.00  0.00    -0.452 OA
ATOM     31  C   UNL     1       4.916  20.969  29.361  1.00  0.00     0.111 A 
ATOM     32  O   UNL     1       6.158  21.483  27.470  1.00  0.00    -0.285 OA
ATOM     33  C   UNL     1       4.241  21.484  30.492  1.00  0.00     0.146 A 
ATOM     34  C   UNL     1       4.911  19.569  29.139  1.00  0.00     0.134 A 
ATOM     35  C   UNL     1       3.593  20.622  31.382  1.00  0.00     0.094 A 
ATOM     36  C   UNL     1       4.254  18.721  30.043  1.00  0.00     0.093 A 
ATOM     37  C   UNL     1       3.602  19.242  31.163  1.00  0.00     0.123 A 
BRANCH  28  38
ATOM     38  C   UNL     1       4.772  25.108  30.369  1.00  0.00     0.025 A 
ATOM     39  C   UNL     1       5.795  25.707  31.124  1.00  0.00     0.062 A 
ATOM     40  C   UNL     1       3.672  25.886  29.972  1.00  0.00     0.016 A 
ATOM     41  C   UNL     1       5.692  27.045  31.526  1.00  0.00     0.158 A 
ATOM     42  C   UNL     1       3.572  27.221  30.362  1.00  0.00     0.051 A 
ATOM     43  C   UNL     1       4.572  27.804  31.146  1.00  0.00     0.157 A 
BRANCH  41  44
ATOM     44  O   UNL     1       6.690  27.614  32.311  1.00  0.00    -0.504 OA
ATOM     45  H   UNL     1       7.316  28.322  31.947  1.00  0.00     0.293 HD
ENDBRANCH  41  44
BRANCH  43  46
ATOM     46  O   UNL     1       4.438  29.136  31.534  1.00  0.00    -0.504 OA
ATOM     47  H   UNL     1       3.554  29.523  31.846  1.00  0.00     0.293 HD
ENDBRANCH  43  46
ENDBRANCH  28  38
BRANCH  34  48
ATOM     48  O   UNL     1       5.559  19.015  28.035  1.00  0.00    -0.507 OA
ATOM     49  H   UNL     1       6.491  19.301  27.758  1.00  0.00     0.293 HD
ENDBRANCH  34  48
BRANCH  37  50
ATOM     50  O   UNL     1       2.968  18.381  32.055  1.00  0.00    -0.508 OA
ATOM     51  H   UNL     1       3.003  18.537  33.055  1.00  0.00     0.293 HD
ENDBRANCH  37  50
ENDBRANCH  26  27
ENDBRANCH   5  26
BRANCH   4  52
ATOM     52  O   UNL     1       8.353  23.749  29.950  1.00  0.00    -0.384 OA
ATOM     53  H   UNL     1       7.919  22.910  29.635  1.00  0.00     0.211 HD
ENDBRANCH   4  52
TORSDOF 16
ENDMDL
MODEL 3
REMARK VINA RESULT:    -8.065      2.812      5.418
REMARK INTER + INTRA:         -14.941
REMARK INTER:                 -12.972
REMARK INTRA:                  -1.969
REMARK UNBOUND:                -1.690
REMARK SMILES C[C@@H]1O[C@H](OC[C@@H]2O[C@H](Oc3c(-c4ccc(O)c(O)c4)oc4cc(O)cc(O)c4c3=O)[C@@H](O)[C@H](O)[C@H]2O)[C@H](O)[C@@H](O)[C@H]1O
REMARK SMILES IDX 7 1 36 2 34 3 32 4 9 5 8 6 6 7 5 8 4 9 1 10 2 11 42 12 3 13
REMARK SMILES IDX 40 14 38 15 43 16 41 18 39 20 37 22 35 24 10 26 11 27 12 28
REMARK SMILES IDX 30 29 21 30 29 31 31 32 22 33 27 34 23 35 26 36 24 37 13 38
REMARK SMILES IDX 20 39 14 40 18 41 15 42 16 43 19 44 17 46 28 48 25 50 33 52
REMARK H PARENT 43 17 41 19 39 21 37 23 35 25 19 45 17 47 28 49 25 51 33 53
REMARK Flexibility Score: inf
ROOT
ATOM      1  C   UNL     1       8.588  28.470  21.979  1.00  0.00     0.180 C 
ATOM      2  C   UNL     1       7.612  27.728  22.923  1.00  0.00     0.177 C 
ATOM      3  C   UNL     1       8.369  27.290  24.196  1.00  0.00     0.180 C 
ATOM      4  C   UNL     1       9.680  26.562  23.836  1.00  0.00     0.214 C 
ATOM      5  C   UNL     1      10.476  27.418  22.835  1.00  0.00     0.339 C 
ATOM      6  O   UNL     1       9.701  27.646  21.669  1.00  0.00    -0.332 OA
ENDROOT
BRANCH   1   7
ATOM      7  C   UNL     1       7.898  28.889  20.676  1.00  0.00     0.198 C 
BRANCH   7   8
ATOM      8  O   UNL     1       6.730  28.113  20.467  1.00  0.00    -0.347 OA
BRANCH   8   9
ATOM      9  C   UNL     1       6.854  27.335  19.289  1.00  0.00     0.281 C 
ATOM     10  C   UNL     1       5.201  25.808  21.431  1.00  0.00     0.041 C 
ATOM     11  C   UNL     1       5.560  25.435  19.980  1.00  0.00     0.150 C 
ATOM     12  C   UNL     1       4.431  25.768  18.974  1.00  0.00     0.174 C 
ATOM     13  O   UNL     1       6.834  25.939  19.582  1.00  0.00    -0.344 OA
ATOM     14  C   UNL     1       4.397  27.271  18.641  1.00  0.00     0.179 C 
ATOM     15  C   UNL     1       5.793  27.762  18.247  1.00  0.00     0.202 C 
BRANCH  12  16
ATOM     16  O   UNL     1       4.545  24.985  17.808  1.00  0.00    -0.388 OA
ATOM     17  H   UNL     1       3.882  25.304  17.141  1.00  0.00     0.211 HD
ENDBRANCH  12  16
BRANCH  14  18
ATOM     18  O   UNL     1       3.502  27.523  17.586  1.00  0.00    -0.387 OA
ATOM     19  H   UNL     1       2.768  26.865  17.675  1.00  0.00     0.211 HD
ENDBRANCH  14  18
BRANCH  15  20
ATOM     20  O   UNL     1       5.766  29.163  18.117  1.00  0.00    -0.385 OA
ATOM     21  H   UNL     1       6.449  29.529  18.736  1.00  0.00     0.211 HD
ENDBRANCH  15  20
ENDBRANCH   8   9
ENDBRANCH   7   8
ENDBRANCH   1   7
BRANCH   2  22
ATOM     22  O   UNL     1       6.555  28.585  23.268  1.00  0.00    -0.387 OA
ATOM     23  H   UNL     1       6.821  29.497  22.982  1.00  0.00     0.211 HD
ENDBRANCH   2  22
BRANCH   3  24
ATOM     24  O   UNL     1       7.558  26.477  25.010  1.00  0.00    -0.387 OA
ATOM     25  H   UNL     1       6.698  26.336  24.532  1.00  0.00     0.211 HD
ENDBRANCH   3  24
BRANCH   5  26
ATOM     26  O   UNL     1      11.667  26.713  22.481  1.00  0.00    -0.454 OA
BRANCH  26  27
ATOM     27  C   UNL     1      12.361  26.845  21.265  1.00  0.00     0.214 A 
ATOM     28  C   UNL     1      13.330  27.864  21.141  1.00  0.00     0.180 A 
ATOM     29  C   UNL     1      12.106  26.025  20.145  1.00  0.00     0.239 A 
ATOM     30  O   UNL     1      13.936  28.070  19.974  1.00  0.00    -0.452 OA
ATOM     31  C   UNL     1      12.768  26.282  18.924  1.00  0.00     0.111 A 
ATOM     32  O   UNL     1      11.293  25.066  20.240  1.00  0.00    -0.285 OA
ATOM     33  C   UNL     1      13.698  27.346  18.888  1.00  0.00     0.146 A 
ATOM     34  C   UNL     1      12.537  25.532  17.743  1.00  0.00     0.134 A 
ATOM     35  C   UNL     1      14.368  27.660  17.702  1.00  0.00     0.094 A 
ATOM     36  C   UNL     1      13.221  25.862  16.563  1.00  0.00     0.093 A 
ATOM     37  C   UNL     1      14.127  26.924  16.538  1.00  0.00     0.123 A 
BRANCH  28  38
ATOM     38  C   UNL     1      13.664  28.775  22.263  1.00  0.00     0.025 A 
ATOM     39  C   UNL     1      12.892  29.914  22.545  1.00  0.00     0.062 A 
ATOM     40  C   UNL     1      14.767  28.479  23.080  1.00  0.00     0.016 A 
ATOM     41  C   UNL     1      13.250  30.775  23.590  1.00  0.00     0.158 A 
ATOM     42  C   UNL     1      15.120  29.329  24.128  1.00  0.00     0.051 A 
ATOM     43  C   UNL     1      14.373  30.483  24.382  1.00  0.00     0.157 A 
BRANCH  41  44
ATOM     44  O   UNL     1      12.503  31.924  23.832  1.00  0.00    -0.504 OA
ATOM     45  H   UNL     1      12.941  32.831  23.943  1.00  0.00     0.293 HD
ENDBRANCH  41  44
BRANCH  43  46
ATOM     46  O   UNL     1      14.758  31.322  25.426  1.00  0.00    -0.504 OA
ATOM     47  H   UNL     1      14.868  32.323  25.305  1.00  0.00     0.293 HD
ENDBRANCH  43  46
ENDBRANCH  28  38
BRANCH  34  48
ATOM     48  O   UNL     1      11.633  24.471  17.731  1.00  0.00    -0.507 OA
ATOM     49  H   UNL     1      10.961  24.344  16.982  1.00  0.00     0.293 HD
ENDBRANCH  34  48
BRANCH  37  50
ATOM     50  O   UNL     1      14.784  27.243  15.352  1.00  0.00    -0.508 OA
ATOM     51  H   UNL     1      14.668  28.148  14.912  1.00  0.00     0.293 HD
ENDBRANCH  37  50
ENDBRANCH  26  27
ENDBRANCH   5  26
BRANCH   4  52
ATOM     52  O   UNL     1      10.433  26.367  25.007  1.00  0.00    -0.384 OA
ATOM     53  H   UNL     1      10.575  27.261  25.423  1.00  0.00     0.211 HD
ENDBRANCH   4  52
TORSDOF 16
ENDMDL
MODEL 4
REMARK VINA RESULT:    -7.882      6.410     11.211
REMARK INTER + INTRA:         -14.642
REMARK INTER:                 -12.571
REMARK INTRA:                  -2.071
REMARK UNBOUND:                -1.690
REMARK SMILES C[C@@H]1O[C@H](OC[C@@H]2O[C@H](Oc3c(-c4ccc(O)c(O)c4)oc4cc(O)cc(O)c4c3=O)[C@@H](O)[C@H](O)[C@H]2O)[C@H](O)[C@@H](O)[C@H]1O
REMARK SMILES IDX 7 1 36 2 34 3 32 4 9 5 8 6 6 7 5 8 4 9 1 10 2 11 42 12 3 13
REMARK SMILES IDX 40 14 38 15 43 16 41 18 39 20 37 22 35 24 10 26 11 27 12 28
REMARK SMILES IDX 30 29 21 30 29 31 31 32 22 33 27 34 23 35 26 36 24 37 13 38
REMARK SMILES IDX 20 39 14 40 18 41 15 42 16 43 19 44 17 46 28 48 25 50 33 52
REMARK H PARENT 43 17 41 19 39 21 37 23 35 25 19 45 17 47 28 49 25 51 33 53
REMARK Flexibility Score: inf
ROOT
ATOM      1  C   UNL     1       9.654  23.777  29.559  1.00  0.00     0.180 C 
ATOM      2  C   UNL     1      10.580  24.130  28.370  1.00  0.00     0.177 C 
ATOM      3  C   UNL     1       9.893  25.193  27.486  1.00  0.00     0.180 C 
ATOM      4  C   UNL     1       8.448  24.776  27.144  1.00  0.00     0.214 C 
ATOM      5  C   UNL     1       7.711  24.393  28.439  1.00  0.00     0.339 C 
ATOM      6  O   UNL     1       8.392  23.330  29.087  1.00  0.00    -0.332 OA
ENDROOT
BRANCH   1   7
ATOM      7  C   UNL     1      10.270  22.690  30.447  1.00  0.00     0.198 C 
BRANCH   7   8
ATOM      8  O   UNL     1      11.166  21.890  29.693  1.00  0.00    -0.347 OA
BRANCH   8   9
ATOM      9  C   UNL     1      10.704  20.552  29.630  1.00  0.00     0.281 C 
ATOM     10  C   UNL     1      11.976  21.392  26.923  1.00  0.00     0.041 C 
ATOM     11  C   UNL     1      11.395  20.044  27.388  1.00  0.00     0.150 C 
ATOM     12  C   UNL     1      12.481  19.058  27.886  1.00  0.00     0.174 C 
ATOM     13  O   UNL     1      10.313  20.197  28.305  1.00  0.00    -0.344 OA
ATOM     14  C   UNL     1      12.953  19.411  29.308  1.00  0.00     0.179 C 
ATOM     15  C   UNL     1      11.752  19.591  30.240  1.00  0.00     0.202 C 
BRANCH  12  16
ATOM     16  O   UNL     1      12.028  17.726  27.810  1.00  0.00    -0.388 OA
ATOM     17  H   UNL     1      11.071  17.697  28.074  1.00  0.00     0.211 HD
ENDBRANCH  12  16
BRANCH  14  18
ATOM     18  O   UNL     1      13.788  18.400  29.817  1.00  0.00    -0.387 OA
ATOM     19  H   UNL     1      13.628  17.597  29.261  1.00  0.00     0.211 HD
ENDBRANCH  14  18
BRANCH  15  20
ATOM     20  O   UNL     1      12.204  20.079  31.481  1.00  0.00    -0.385 OA
ATOM     21  H   UNL     1      12.892  20.768  31.293  1.00  0.00     0.211 HD
ENDBRANCH  15  20
ENDBRANCH   8   9
ENDBRANCH   7   8
ENDBRANCH   1   7
BRANCH   2  22
ATOM     22  O   UNL     1      11.796  24.632  28.861  1.00  0.00    -0.387 OA
ATOM     23  H   UNL     1      12.433  23.871  28.878  1.00  0.00     0.211 HD
ENDBRANCH   2  22
BRANCH   3  24
ATOM     24  O   UNL     1      10.632  25.427  26.312  1.00  0.00    -0.387 OA
ATOM     25  H   UNL     1      11.516  25.793  26.582  1.00  0.00     0.211 HD
ENDBRANCH   3  24
BRANCH   5  26
ATOM     26  O   UNL     1       6.389  23.971  28.102  1.00  0.00    -0.454 OA
BRANCH  26  27
ATOM     27  C   UNL     1       5.619  23.043  28.827  1.00  0.00     0.214 A 
ATOM     28  C   UNL     1       4.875  23.497  29.938  1.00  0.00     0.180 A 
ATOM     29  C   UNL     1       5.584  21.667  28.516  1.00  0.00     0.239 A 
ATOM     30  O   UNL     1       4.212  22.628  30.697  1.00  0.00    -0.452 OA
ATOM     31  C   UNL     1       4.871  20.779  29.350  1.00  0.00     0.111 A 
ATOM     32  O   UNL     1       6.185  21.239  27.494  1.00  0.00    -0.285 OA
ATOM     33  C   UNL     1       4.184  21.322  30.460  1.00  0.00     0.146 A 
ATOM     34  C   UNL     1       4.821  19.378  29.131  1.00  0.00     0.134 A 
ATOM     35  C   UNL     1       3.479  20.489  31.333  1.00  0.00     0.094 A 
ATOM     36  C   UNL     1       4.107  18.559  30.018  1.00  0.00     0.093 A 
ATOM     37  C   UNL     1       3.443  19.108  31.117  1.00  0.00     0.123 A 
BRANCH  28  38
ATOM     38  C   UNL     1       4.852  24.924  30.342  1.00  0.00     0.025 A 
ATOM     39  C   UNL     1       5.864  25.483  31.141  1.00  0.00     0.062 A 
ATOM     40  C   UNL     1       3.805  25.745  29.895  1.00  0.00     0.016 A 
ATOM     41  C   UNL     1       5.799  26.825  31.535  1.00  0.00     0.158 A 
ATOM     42  C   UNL     1       3.743  27.085  30.278  1.00  0.00     0.051 A 
ATOM     43  C   UNL     1       4.730  27.628  31.105  1.00  0.00     0.157 A 
BRANCH  41  44
ATOM     44  O   UNL     1       6.784  27.355  32.363  1.00  0.00    -0.504 OA
ATOM     45  H   UNL     1       7.677  26.893  32.492  1.00  0.00     0.293 HD
ENDBRANCH  41  44
BRANCH  43  46
ATOM     46  O   UNL     1       4.634  28.966  31.484  1.00  0.00    -0.504 OA
ATOM     47  H   UNL     1       5.395  29.456  31.942  1.00  0.00     0.293 HD
ENDBRANCH  43  46
ENDBRANCH  28  38
BRANCH  34  48
ATOM     48  O   UNL     1       5.480  18.797  28.048  1.00  0.00    -0.507 OA
ATOM     49  H   UNL     1       6.139  19.315  27.479  1.00  0.00     0.293 HD
ENDBRANCH  34  48
BRANCH  37  50
ATOM     50  O   UNL     1       2.752  18.274  31.993  1.00  0.00    -0.508 OA
ATOM     51  H   UNL     1       3.226  17.546  32.513  1.00  0.00     0.293 HD
ENDBRANCH  37  50
ENDBRANCH  26  27
ENDBRANCH   5  26
BRANCH   4  52
ATOM     52  O   UNL     1       7.794  25.854  26.521  1.00  0.00    -0.384 OA
ATOM     53  H   UNL     1       8.125  25.902  25.582  1.00  0.00     0.211 HD
ENDBRANCH   4  52
TORSDOF 16
ENDMDL
MODEL 5
REMARK VINA RESULT:    -7.869      2.845      6.095
REMARK INTER + INTRA:         -14.620
REMARK INTER:                 -12.881
REMARK INTRA:                  -1.739
REMARK UNBOUND:                -1.690
REMARK SMILES C[C@@H]1O[C@H](OC[C@@H]2O[C@H](Oc3c(-c4ccc(O)c(O)c4)oc4cc(O)cc(O)c4c3=O)[C@@H](O)[C@H](O)[C@H]2O)[C@H](O)[C@@H](O)[C@H]1O
REMARK SMILES IDX 7 1 36 2 34 3 32 4 9 5 8 6 6 7 5 8 4 9 1 10 2 11 42 12 3 13
REMARK SMILES IDX 40 14 38 15 43 16 41 18 39 20 37 22 35 24 10 26 11 27 12 28
REMARK SMILES IDX 30 29 21 30 29 31 31 32 22 33 27 34 23 35 26 36 24 37 13 38
REMARK SMILES IDX 20 39 14 40 18 41 15 42 16 43 19 44 17 46 28 48 25 50 33 52
REMARK H PARENT 43 17 41 19 39 21 37 23 35 25 19 45 17 47 28 49 25 51 33 53
REMARK Flexibility Score: inf
ROOT
ATOM      1  C   UNL     1       9.926  24.646  27.602  1.00  0.00     0.180 C 
ATOM      2  C   UNL     1       9.383  23.219  27.349  1.00  0.00     0.177 C 
ATOM      3  C   UNL     1       9.406  22.926  25.833  1.00  0.00     0.180 C 
ATOM      4  C   UNL     1       8.748  24.073  25.039  1.00  0.00     0.214 C 
ATOM      5  C   UNL     1       9.365  25.412  25.479  1.00  0.00     0.339 C 
ATOM      6  O   UNL     1       9.170  25.600  26.872  1.00  0.00    -0.332 OA
ENDROOT
BRANCH   1   7
ATOM      7  C   UNL     1       9.884  25.007  29.091  1.00  0.00     0.198 C 
BRANCH   7   8
ATOM      8  O   UNL     1       8.673  24.553  29.671  1.00  0.00    -0.347 OA
BRANCH   8   9
ATOM      9  C   UNL     1       8.020  25.612  30.350  1.00  0.00     0.281 C 
ATOM     10  C   UNL     1       6.001  24.043  28.586  1.00  0.00     0.041 C 
ATOM     11  C   UNL     1       5.788  25.221  29.556  1.00  0.00     0.150 C 
ATOM     12  C   UNL     1       5.309  24.769  30.958  1.00  0.00     0.174 C 
ATOM     13  O   UNL     1       6.908  26.104  29.603  1.00  0.00    -0.344 OA
ATOM     14  C   UNL     1       6.471  24.210  31.798  1.00  0.00     0.179 C 
ATOM     15  C   UNL     1       7.653  25.184  31.790  1.00  0.00     0.202 C 
BRANCH  12  16
ATOM     16  O   UNL     1       4.647  25.817  31.628  1.00  0.00    -0.388 OA
ATOM     17  H   UNL     1       4.785  25.711  32.605  1.00  0.00     0.211 HD
ENDBRANCH  12  16
BRANCH  14  18
ATOM     18  O   UNL     1       6.060  23.991  33.125  1.00  0.00    -0.387 OA
ATOM     19  H   UNL     1       6.875  23.756  33.637  1.00  0.00     0.211 HD
ENDBRANCH  14  18
BRANCH  15  20
ATOM     20  O   UNL     1       8.754  24.573  32.419  1.00  0.00    -0.385 OA
ATOM     21  H   UNL     1       8.748  23.617  32.159  1.00  0.00     0.211 HD
ENDBRANCH  15  20
ENDBRANCH   8   9
ENDBRANCH   7   8
ENDBRANCH   1   7
BRANCH   2  22
ATOM     22  O   UNL     1      10.187  22.288  28.027  1.00  0.00    -0.387 OA
ATOM     23  H   UNL     1       9.831  21.389  27.805  1.00  0.00     0.211 HD
ENDBRANCH   2  22
BRANCH   3  24
ATOM     24  O   UNL     1       8.776  21.700  25.547  1.00  0.00    -0.387 OA
ATOM     25  H   UNL     1       9.360  20.975  25.894  1.00  0.00     0.211 HD
ENDBRANCH   3  24
BRANCH   5  26
ATOM     26  O   UNL     1       8.717  26.467  24.765  1.00  0.00    -0.454 OA
BRANCH  26  27
ATOM     27  C   UNL     1       9.324  27.287  23.797  1.00  0.00     0.214 A 
ATOM     28  C   UNL     1       8.620  27.567  22.605  1.00  0.00     0.180 A 
ATOM     29  C   UNL     1      10.622  27.818  23.947  1.00  0.00     0.239 A 
ATOM     30  O   UNL     1       9.205  28.264  21.634  1.00  0.00    -0.452 OA
ATOM     31  C   UNL     1      11.207  28.548  22.889  1.00  0.00     0.111 A 
ATOM     32  O   UNL     1      11.253  27.640  25.024  1.00  0.00    -0.285 OA
ATOM     33  C   UNL     1      10.437  28.748  21.721  1.00  0.00     0.146 A 
ATOM     34  C   UNL     1      12.521  29.078  22.944  1.00  0.00     0.134 A 
ATOM     35  C   UNL     1      10.971  29.445  20.633  1.00  0.00     0.094 A 
ATOM     36  C   UNL     1      13.038  29.776  21.843  1.00  0.00     0.093 A 
ATOM     37  C   UNL     1      12.272  29.955  20.689  1.00  0.00     0.123 A 
BRANCH  28  38
ATOM     38  C   UNL     1       7.252  27.052  22.358  1.00  0.00     0.025 A 
ATOM     39  C   UNL     1       7.015  25.961  21.505  1.00  0.00     0.062 A 
ATOM     40  C   UNL     1       6.165  27.655  23.011  1.00  0.00     0.016 A 
ATOM     41  C   UNL     1       5.709  25.517  21.263  1.00  0.00     0.158 A 
ATOM     42  C   UNL     1       4.864  27.209  22.780  1.00  0.00     0.051 A 
ATOM     43  C   UNL     1       4.627  26.149  21.901  1.00  0.00     0.157 A 
BRANCH  41  44
ATOM     44  O   UNL     1       5.483  24.464  20.382  1.00  0.00    -0.504 OA
ATOM     45  H   UNL     1       5.259  24.624  19.407  1.00  0.00     0.293 HD
ENDBRANCH  41  44
BRANCH  43  46
ATOM     46  O   UNL     1       3.316  25.734  21.678  1.00  0.00    -0.504 OA
ATOM     47  H   UNL     1       3.048  25.200  20.859  1.00  0.00     0.293 HD
ENDBRANCH  43  46
ENDBRANCH  28  38
BRANCH  34  48
ATOM     48  O   UNL     1      13.317  28.910  24.078  1.00  0.00    -0.507 OA
ATOM     49  H   UNL     1      14.329  28.932  24.033  1.00  0.00     0.293 HD
ENDBRANCH  34  48
BRANCH  37  50
ATOM     50  O   UNL     1      12.810  30.639  19.602  1.00  0.00    -0.508 OA
ATOM     51  H   UNL     1      12.366  31.468  19.228  1.00  0.00     0.293 HD
ENDBRANCH  37  50
ENDBRANCH  26  27
ENDBRANCH   5  26
BRANCH   4  52
ATOM     52  O   UNL     1       8.973  23.869  23.666  1.00  0.00    -0.384 OA
ATOM     53  H   UNL     1       9.727  24.463  23.396  1.00  0.00     0.211 HD
ENDBRANCH   4  52
TORSDOF 16
ENDMDL
MODEL 6
REMARK VINA RESULT:    -7.790      1.630      2.532
REMARK INTER + INTRA:         -14.489
REMARK INTER:                 -12.924
REMARK INTRA:                  -1.565
REMARK UNBOUND:                -1.690
REMARK SMILES C[C@@H]1O[C@H](OC[C@@H]2O[C@H](Oc3c(-c4ccc(O)c(O)c4)oc4cc(O)cc(O)c4c3=O)[C@@H](O)[C@H](O)[C@H]2O)[C@H](O)[C@@H](O)[C@H]1O
REMARK SMILES IDX 7 1 36 2 34 3 32 4 9 5 8 6 6 7 5 8 4 9 1 10 2 11 42 12 3 13
REMARK SMILES IDX 40 14 38 15 43 16 41 18 39 20 37 22 35 24 10 26 11 27 12 28
REMARK SMILES IDX 30 29 21 30 29 31 31 32 22 33 27 34 23 35 26 36 24 37 13 38
REMARK SMILES IDX 20 39 14 40 18 41 15 42 16 43 19 44 17 46 28 48 25 50 33 52
REMARK H PARENT 43 17 41 19 39 21 37 23 35 25 19 45 17 47 28 49 25 51 33 53
REMARK Flexibility Score: inf
ROOT
ATOM      1  C   UNL     1       8.629  25.831  24.127  1.00  0.00     0.180 C 
ATOM      2  C   UNL     1       7.835  27.159  24.108  1.00  0.00     0.177 C 
ATOM      3  C   UNL     1       8.161  27.930  22.811  1.00  0.00     0.180 C 
ATOM      4  C   UNL     1       9.685  28.026  22.595  1.00  0.00     0.214 C 
ATOM      5  C   UNL     1      10.305  26.623  22.723  1.00  0.00     0.339 C 
ATOM      6  O   UNL     1      10.020  26.084  24.004  1.00  0.00    -0.332 OA
ENDROOT
BRANCH   1   7
ATOM      7  C   UNL     1       8.375  25.043  25.417  1.00  0.00     0.198 C 
BRANCH   7   8
ATOM      8  O   UNL     1       9.561  24.387  25.832  1.00  0.00    -0.347 OA
BRANCH   8   9
ATOM      9  C   UNL     1       9.884  24.741  27.166  1.00  0.00     0.281 C 
ATOM     10  C   UNL     1       9.039  21.755  27.007  1.00  0.00     0.041 C 
ATOM     11  C   UNL     1       9.540  22.599  28.195  1.00  0.00     0.150 C 
ATOM     12  C   UNL     1      11.055  22.423  28.464  1.00  0.00     0.174 C 
ATOM     13  O   UNL     1       9.141  23.966  28.106  1.00  0.00    -0.344 OA
ATOM     14  C   UNL     1      11.904  23.225  27.461  1.00  0.00     0.179 C 
ATOM     15  C   UNL     1      11.414  24.674  27.386  1.00  0.00     0.202 C 
BRANCH  12  16
ATOM     16  O   UNL     1      11.375  22.761  29.794  1.00  0.00    -0.388 OA
ATOM     17  H   UNL     1      10.804  23.522  30.078  1.00  0.00     0.211 HD
ENDBRANCH  12  16
BRANCH  14  18
ATOM     18  O   UNL     1      13.258  23.212  27.838  1.00  0.00    -0.387 OA
ATOM     19  H   UNL     1      13.732  23.807  27.205  1.00  0.00     0.211 HD
ENDBRANCH  14  18
BRANCH  15  20
ATOM     20  O   UNL     1      12.091  25.333  26.343  1.00  0.00    -0.385 OA
ATOM     21  H   UNL     1      12.552  24.638  25.806  1.00  0.00     0.211 HD
ENDBRANCH  15  20
ENDBRANCH   8   9
ENDBRANCH   7   8
ENDBRANCH   1   7
BRANCH   2  22
ATOM     22  O   UNL     1       6.459  26.880  24.163  1.00  0.00    -0.387 OA
ATOM     23  H   UNL     1       6.366  25.984  24.579  1.00  0.00     0.211 HD
ENDBRANCH   2  22
BRANCH   3  24
ATOM     24  O   UNL     1       7.581  29.212  22.827  1.00  0.00    -0.387 OA
ATOM     25  H   UNL     1       6.677  29.128  23.231  1.00  0.00     0.211 HD
ENDBRANCH   3  24
BRANCH   5  26
ATOM     26  O   UNL     1      11.719  26.735  22.561  1.00  0.00    -0.454 OA
BRANCH  26  27
ATOM     27  C   UNL     1      12.391  26.875  21.333  1.00  0.00     0.214 A 
ATOM     28  C   UNL     1      13.348  27.904  21.194  1.00  0.00     0.180 A 
ATOM     29  C   UNL     1      12.125  26.054  20.217  1.00  0.00     0.239 A 
ATOM     30  O   UNL     1      13.931  28.118  20.018  1.00  0.00    -0.452 OA
ATOM     31  C   UNL     1      12.763  26.319  18.985  1.00  0.00     0.111 A 
ATOM     32  O   UNL     1      11.324  25.087  20.324  1.00  0.00    -0.285 OA
ATOM     33  C   UNL     1      13.682  27.393  18.935  1.00  0.00     0.146 A 
ATOM     34  C   UNL     1      12.520  25.569  17.807  1.00  0.00     0.134 A 
ATOM     35  C   UNL     1      14.328  27.716  17.738  1.00  0.00     0.094 A 
ATOM     36  C   UNL     1      13.180  25.908  16.616  1.00  0.00     0.093 A 
ATOM     37  C   UNL     1      14.075  26.978  16.577  1.00  0.00     0.123 A 
BRANCH  28  38
ATOM     38  C   UNL     1      13.692  28.817  22.312  1.00  0.00     0.025 A 
ATOM     39  C   UNL     1      12.891  29.926  22.634  1.00  0.00     0.062 A 
ATOM     40  C   UNL     1      14.835  28.553  23.084  1.00  0.00     0.016 A 
ATOM     41  C   UNL     1      13.258  30.790  23.673  1.00  0.00     0.158 A 
ATOM     42  C   UNL     1      15.197  29.407  24.126  1.00  0.00     0.051 A 
ATOM     43  C   UNL     1      14.421  30.531  24.419  1.00  0.00     0.157 A 
BRANCH  41  44
ATOM     44  O   UNL     1      12.481  31.910  23.954  1.00  0.00    -0.504 OA
ATOM     45  H   UNL     1      12.597  32.437  24.811  1.00  0.00     0.293 HD
ENDBRANCH  41  44
BRANCH  43  46
ATOM     46  O   UNL     1      14.815  31.374  25.456  1.00  0.00    -0.504 OA
ATOM     47  H   UNL     1      15.374  32.205  25.296  1.00  0.00     0.293 HD
ENDBRANCH  43  46
ENDBRANCH  28  38
BRANCH  34  48
ATOM     48  O   UNL     1      11.626  24.499  17.809  1.00  0.00    -0.507 OA
ATOM     49  H   UNL     1      11.938  23.537  17.742  1.00  0.00     0.293 HD
ENDBRANCH  34  48
BRANCH  37  50
ATOM     50  O   UNL     1      14.708  27.306  15.381  1.00  0.00    -0.508 OA
ATOM     51  H   UNL     1      15.166  28.200  15.253  1.00  0.00     0.293 HD
ENDBRANCH  37  50
ENDBRANCH  26  27
ENDBRANCH   5  26
BRANCH   4  52
ATOM     52  O   UNL     1       9.936  28.546  21.313  1.00  0.00    -0.384 OA
ATOM     53  H   UNL     1       9.381  29.367  21.210  1.00  0.00     0.211 HD
ENDBRANCH   4  52
TORSDOF 16
ENDMDL
MODEL 7
REMARK VINA RESULT:    -7.714      2.863      9.885
REMARK INTER + INTRA:         -14.365
REMARK INTER:                 -12.586
REMARK INTRA:                  -1.779
REMARK UNBOUND:                -1.690
REMARK SMILES C[C@@H]1O[C@H](OC[C@@H]2O[C@H](Oc3c(-c4ccc(O)c(O)c4)oc4cc(O)cc(O)c4c3=O)[C@@H](O)[C@H](O)[C@H]2O)[C@H](O)[C@@H](O)[C@H]1O
REMARK SMILES IDX 7 1 36 2 34 3 32 4 9 5 8 6 6 7 5 8 4 9 1 10 2 11 42 12 3 13
REMARK SMILES IDX 40 14 38 15 43 16 41 18 39 20 37 22 35 24 10 26 11 27 12 28
REMARK SMILES IDX 30 29 21 30 29 31 31 32 22 33 27 34 23 35 26 36 24 37 13 38
REMARK SMILES IDX 20 39 14 40 18 41 15 42 16 43 19 44 17 46 28 48 25 50 33 52
REMARK H PARENT 43 17 41 19 39 21 37 23 35 25 19 45 17 47 28 49 25 51 33 53
REMARK Flexibility Score: inf
ROOT
ATOM      1  C   UNL     1       8.210  27.091  23.793  1.00  0.00     0.180 C 
ATOM      2  C   UNL     1       8.520  26.175  22.585  1.00  0.00     0.177 C 
ATOM      3  C   UNL     1       8.329  24.700  23.000  1.00  0.00     0.180 C 
ATOM      4  C   UNL     1       9.077  24.396  24.314  1.00  0.00     0.214 C 
ATOM      5  C   UNL     1       8.698  25.452  25.369  1.00  0.00     0.339 C 
ATOM      6  O   UNL     1       9.033  26.747  24.897  1.00  0.00    -0.332 OA
ENDROOT
BRANCH   1   7
ATOM      7  C   UNL     1       8.428  28.568  23.447  1.00  0.00     0.198 C 
BRANCH   7   8
ATOM      8  O   UNL     1       9.615  28.725  22.688  1.00  0.00    -0.347 OA
BRANCH   8   9
ATOM      9  C   UNL     1      10.391  29.796  23.197  1.00  0.00     0.281 C 
ATOM     10  C   UNL     1      12.129  27.238  22.901  1.00  0.00     0.041 C 
ATOM     11  C   UNL     1      12.504  28.665  23.340  1.00  0.00     0.150 C 
ATOM     12  C   UNL     1      13.099  29.514  22.190  1.00  0.00     0.174 C 
ATOM     13  O   UNL     1      11.446  29.324  24.034  1.00  0.00    -0.344 OA
ATOM     14  C   UNL     1      12.001  30.032  21.243  1.00  0.00     0.179 C 
ATOM     15  C   UNL     1      10.880  30.703  22.043  1.00  0.00     0.202 C 
BRANCH  12  16
ATOM     16  O   UNL     1      13.884  30.571  22.694  1.00  0.00    -0.388 OA
ATOM     17  H   UNL     1      14.329  31.030  21.935  1.00  0.00     0.211 HD
ENDBRANCH  12  16
BRANCH  14  18
ATOM     18  O   UNL     1      12.533  30.955  20.326  1.00  0.00    -0.387 OA
ATOM     19  H   UNL     1      12.957  31.672  20.862  1.00  0.00     0.211 HD
ENDBRANCH  14  18
BRANCH  15  20
ATOM     20  O   UNL     1       9.817  31.009  21.172  1.00  0.00    -0.385 OA
ATOM     21  H   UNL     1       9.839  31.988  21.015  1.00  0.00     0.211 HD
ENDBRANCH  15  20
ENDBRANCH   8   9
ENDBRANCH   7   8
ENDBRANCH   1   7
BRANCH   2  22
ATOM     22  O   UNL     1       7.649  26.488  21.528  1.00  0.00    -0.387 OA
ATOM     23  H   UNL     1       8.142  26.303  20.687  1.00  0.00     0.211 HD
ENDBRANCH   2  22
BRANCH   3  24
ATOM     24  O   UNL     1       8.750  23.829  21.978  1.00  0.00    -0.387 OA
ATOM     25  H   UNL     1       8.102  23.909  21.229  1.00  0.00     0.211 HD
ENDBRANCH   3  24
BRANCH   5  26
ATOM     26  O   UNL     1       9.429  25.181  26.565  1.00  0.00    -0.454 OA
BRANCH  26  27
ATOM     27  C   UNL     1       8.866  24.783  27.792  1.00  0.00     0.214 A 
ATOM     28  C   UNL     1       9.484  23.743  28.519  1.00  0.00     0.180 A 
ATOM     29  C   UNL     1       7.686  25.355  28.314  1.00  0.00     0.239 A 
ATOM     30  O   UNL     1       8.923  23.285  29.635  1.00  0.00    -0.452 OA
ATOM     31  C   UNL     1       7.122  24.835  29.499  1.00  0.00     0.111 A 
ATOM     32  O   UNL     1       7.144  26.327  27.723  1.00  0.00    -0.285 OA
ATOM     33  C   UNL     1       7.795  23.770  30.140  1.00  0.00     0.146 A 
ATOM     34  C   UNL     1       5.917  25.324  30.066  1.00  0.00     0.134 A 
ATOM     35  C   UNL     1       7.273  23.201  31.305  1.00  0.00     0.094 A 
ATOM     36  C   UNL     1       5.410  24.741  31.236  1.00  0.00     0.093 A 
ATOM     37  C   UNL     1       6.079  23.680  31.851  1.00  0.00     0.123 A 
BRANCH  28  38
ATOM     38  C   UNL     1      10.726  23.082  28.049  1.00  0.00     0.025 A 
ATOM     39  C   UNL     1      10.703  21.822  27.428  1.00  0.00     0.062 A 
ATOM     40  C   UNL     1      11.955  23.743  28.206  1.00  0.00     0.016 A 
ATOM     41  C   UNL     1      11.894  21.206  27.024  1.00  0.00     0.158 A 
ATOM     42  C   UNL     1      13.142  23.136  27.796  1.00  0.00     0.051 A 
ATOM     43  C   UNL     1      13.120  21.865  27.214  1.00  0.00     0.157 A 
BRANCH  41  44
ATOM     44  O   UNL     1      11.862  19.938  26.450  1.00  0.00    -0.504 OA
ATOM     45  H   UNL     1      11.309  19.188  26.848  1.00  0.00     0.293 HD
ENDBRANCH  41  44
BRANCH  43  46
ATOM     46  O   UNL     1      14.323  21.277  26.827  1.00  0.00    -0.504 OA
ATOM     47  H   UNL     1      14.980  21.742  26.209  1.00  0.00     0.293 HD
ENDBRANCH  43  46
ENDBRANCH  28  38
BRANCH  34  48
ATOM     48  O   UNL     1       5.220  26.376  29.473  1.00  0.00    -0.507 OA
ATOM     49  H   UNL     1       5.642  26.973  28.771  1.00  0.00     0.293 HD
ENDBRANCH  34  48
BRANCH  37  50
ATOM     50  O   UNL     1       5.550  23.107  33.005  1.00  0.00    -0.508 OA
ATOM     51  H   UNL     1       5.077  22.212  32.980  1.00  0.00     0.293 HD
ENDBRANCH  37  50
ENDBRANCH  26  27
ENDBRANCH   5  26
BRANCH   4  52
ATOM     52  O   UNL     1       8.712  23.115  24.765  1.00  0.00    -0.384 OA
ATOM     53  H   UNL     1       7.929  22.821  24.224  1.00  0.00     0.211 HD
ENDBRANCH   4  52
TORSDOF 16
ENDMDL
MODEL 8
REMARK VINA RESULT:    -7.659      3.935     10.944
REMARK INTER + INTRA:         -14.275
REMARK INTER:                 -12.821
REMARK INTRA:                  -1.454
REMARK UNBOUND:                -1.690
REMARK SMILES C[C@@H]1O[C@H](OC[C@@H]2O[C@H](Oc3c(-c4ccc(O)c(O)c4)oc4cc(O)cc(O)c4c3=O)[C@@H](O)[C@H](O)[C@H]2O)[C@H](O)[C@@H](O)[C@H]1O
REMARK SMILES IDX 7 1 36 2 34 3 32 4 9 5 8 6 6 7 5 8 4 9 1 10 2 11 42 12 3 13
REMARK SMILES IDX 40 14 38 15 43 16 41 18 39 20 37 22 35 24 10 26 11 27 12 28
REMARK SMILES IDX 30 29 21 30 29 31 31 32 22 33 27 34 23 35 26 36 24 37 13 38
REMARK SMILES IDX 20 39 14 40 18 41 15 42 16 43 19 44 17 46 28 48 25 50 33 52
REMARK H PARENT 43 17 41 19 39 21 37 23 35 25 19 45 17 47 28 49 25 51 33 53
REMARK Flexibility Score: inf
ROOT
ATOM      1  C   UNL     1      10.548  24.181  27.199  1.00  0.00     0.180 C 
ATOM      2  C   UNL     1      11.487  23.918  28.400  1.00  0.00     0.177 C 
ATOM      3  C   UNL     1      10.865  22.835  29.308  1.00  0.00     0.180 C 
ATOM      4  C   UNL     1       9.395  23.166  29.633  1.00  0.00     0.214 C 
ATOM      5  C   UNL     1       8.642  23.468  28.325  1.00  0.00     0.339 C 
ATOM      6  O   UNL     1       9.257  24.556  27.654  1.00  0.00    -0.332 OA
ENDROOT
BRANCH   1   7
ATOM      7  C   UNL     1      11.097  25.283  26.287  1.00  0.00     0.198 C 
BRANCH   7   8
ATOM      8  O   UNL     1      10.139  25.627  25.300  1.00  0.00    -0.347 OA
BRANCH   8   9
ATOM      9  C   UNL     1       9.647  26.937  25.520  1.00  0.00     0.281 C 
ATOM     10  C   UNL     1      10.940  26.719  22.704  1.00  0.00     0.041 C 
ATOM     11  C   UNL     1      10.213  27.890  23.391  1.00  0.00     0.150 C 
ATOM     12  C   UNL     1       8.723  28.000  22.981  1.00  0.00     0.174 C 
ATOM     13  O   UNL     1      10.410  27.907  24.803  1.00  0.00    -0.344 OA
ATOM     14  C   UNL     1       7.859  26.957  23.713  1.00  0.00     0.179 C 
ATOM     15  C   UNL     1       8.131  27.001  25.219  1.00  0.00     0.202 C 
BRANCH  12  16
ATOM     16  O   UNL     1       8.237  29.306  23.186  1.00  0.00    -0.388 OA
ATOM     17  H   UNL     1       9.006  29.934  23.218  1.00  0.00     0.211 HD
ENDBRANCH  12  16
BRANCH  14  18
ATOM     18  O   UNL     1       6.493  27.198  23.482  1.00  0.00    -0.387 OA
ATOM     19  H   UNL     1       6.307  28.111  23.814  1.00  0.00     0.211 HD
ENDBRANCH  14  18
BRANCH  15  20
ATOM     20  O   UNL     1       7.460  25.929  25.837  1.00  0.00    -0.385 OA
ATOM     21  H   UNL     1       6.952  26.302  26.603  1.00  0.00     0.211 HD
ENDBRANCH  15  20
ENDBRANCH   8   9
ENDBRANCH   7   8
ENDBRANCH   1   7
BRANCH   2  22
ATOM     22  O   UNL     1      12.737  23.484  27.927  1.00  0.00    -0.387 OA
ATOM     23  H   UNL     1      13.374  23.570  28.683  1.00  0.00     0.211 HD
ENDBRANCH   2  22
BRANCH   3  24
ATOM     24  O   UNL     1      11.611  22.678  30.490  1.00  0.00    -0.387 OA
ATOM     25  H   UNL     1      10.972  22.478  31.224  1.00  0.00     0.211 HD
ENDBRANCH   3  24
BRANCH   5  26
ATOM     26  O   UNL     1       7.293  23.812  28.646  1.00  0.00    -0.454 OA
BRANCH  26  27
ATOM     27  C   UNL     1       6.350  22.949  29.233  1.00  0.00     0.214 A 
ATOM     28  C   UNL     1       5.780  23.307  30.474  1.00  0.00     0.180 A 
ATOM     29  C   UNL     1       5.970  21.720  28.651  1.00  0.00     0.239 A 
ATOM     30  O   UNL     1       4.954  22.467  31.095  1.00  0.00    -0.452 OA
ATOM     31  C   UNL     1       5.095  20.858  29.347  1.00  0.00     0.111 A 
ATOM     32  O   UNL     1       6.412  21.400  27.515  1.00  0.00    -0.285 OA
ATOM     33  C   UNL     1       4.602  21.287  30.600  1.00  0.00     0.146 A 
ATOM     34  C   UNL     1       4.700  19.589  28.853  1.00  0.00     0.134 A 
ATOM     35  C   UNL     1       3.749  20.467  31.344  1.00  0.00     0.094 A 
ATOM     36  C   UNL     1       3.842  18.781  29.614  1.00  0.00     0.093 A 
ATOM     37  C   UNL     1       3.372  19.212  30.856  1.00  0.00     0.123 A 
BRANCH  28  38
ATOM     38  C   UNL     1       6.118  24.577  31.160  1.00  0.00     0.025 A 
ATOM     39  C   UNL     1       5.472  25.784  30.842  1.00  0.00     0.062 A 
ATOM     40  C   UNL     1       7.093  24.571  32.171  1.00  0.00     0.016 A 
ATOM     41  C   UNL     1       5.835  26.975  31.483  1.00  0.00     0.158 A 
ATOM     42  C   UNL     1       7.449  25.754  32.817  1.00  0.00     0.051 A 
ATOM     43  C   UNL     1       6.833  26.960  32.472  1.00  0.00     0.157 A 
BRANCH  41  44
ATOM     44  O   UNL     1       5.219  28.172  31.128  1.00  0.00    -0.504 OA
ATOM     45  H   UNL     1       4.212  28.279  31.151  1.00  0.00     0.293 HD
ENDBRANCH  41  44
BRANCH  43  46
ATOM     46  O   UNL     1       7.220  28.129  33.125  1.00  0.00    -0.504 OA
ATOM     47  H   UNL     1       6.667  28.978  33.089  1.00  0.00     0.293 HD
ENDBRANCH  43  46
ENDBRANCH  28  38
BRANCH  34  48
ATOM     48  O   UNL     1       5.157  19.124  27.620  1.00  0.00    -0.507 OA
ATOM     49  H   UNL     1       5.133  19.699  26.786  1.00  0.00     0.293 HD
ENDBRANCH  34  48
BRANCH  37  50
ATOM     50  O   UNL     1       2.532  18.388  31.601  1.00  0.00    -0.508 OA
ATOM     51  H   UNL     1       1.770  18.767  32.148  1.00  0.00     0.293 HD
ENDBRANCH  37  50
ENDBRANCH  26  27
ENDBRANCH   5  26
BRANCH   4  52
ATOM     52  O   UNL     1       8.808  22.063  30.280  1.00  0.00    -0.384 OA
ATOM     53  H   UNL     1       9.543  21.537  30.699  1.00  0.00     0.211 HD
ENDBRANCH   4  52
TORSDOF 16
ENDMDL
MODEL 9
REMARK VINA RESULT:    -7.642      2.962      6.091
REMARK INTER + INTRA:         -14.246
REMARK INTER:                 -11.567
REMARK INTRA:                  -2.680
REMARK UNBOUND:                -1.690
REMARK SMILES C[C@@H]1O[C@H](OC[C@@H]2O[C@H](Oc3c(-c4ccc(O)c(O)c4)oc4cc(O)cc(O)c4c3=O)[C@@H](O)[C@H](O)[C@H]2O)[C@H](O)[C@@H](O)[C@H]1O
REMARK SMILES IDX 7 1 36 2 34 3 32 4 9 5 8 6 6 7 5 8 4 9 1 10 2 11 42 12 3 13
REMARK SMILES IDX 40 14 38 15 43 16 41 18 39 20 37 22 35 24 10 26 11 27 12 28
REMARK SMILES IDX 30 29 21 30 29 31 31 32 22 33 27 34 23 35 26 36 24 37 13 38
REMARK SMILES IDX 20 39 14 40 18 41 15 42 16 43 19 44 17 46 28 48 25 50 33 52
REMARK H PARENT 43 17 41 19 39 21 37 23 35 25 19 45 17 47 28 49 25 51 33 53
REMARK Flexibility Score: inf
ROOT
ATOM      1  C   UNL     1      11.312  29.706  21.911  1.00  0.00     0.180 C 
ATOM      2  C   UNL     1      12.150  29.930  23.193  1.00  0.00     0.177 C 
ATOM      3  C   UNL     1      13.555  29.320  22.998  1.00  0.00     0.180 C 
ATOM      4  C   UNL     1      13.460  27.874  22.472  1.00  0.00     0.214 C 
ATOM      5  C   UNL     1      12.531  27.841  21.245  1.00  0.00     0.339 C 
ATOM      6  O   UNL     1      11.245  28.323  21.600  1.00  0.00    -0.332 OA
ENDROOT
BRANCH   1   7
ATOM      7  C   UNL     1       9.889  30.254  22.067  1.00  0.00     0.198 C 
BRANCH   7   8
ATOM      8  O   UNL     1       8.956  29.188  22.122  1.00  0.00    -0.347 OA
BRANCH   8   9
ATOM      9  C   UNL     1       8.335  29.136  23.395  1.00  0.00     0.281 C 
ATOM     10  C   UNL     1       6.285  28.474  21.157  1.00  0.00     0.041 C 
ATOM     11  C   UNL     1       6.134  28.488  22.690  1.00  0.00     0.150 C 
ATOM     12  C   UNL     1       6.285  27.083  23.324  1.00  0.00     0.174 C 
ATOM     13  O   UNL     1       6.952  29.476  23.314  1.00  0.00    -0.344 OA
ATOM     14  C   UNL     1       7.762  26.660  23.414  1.00  0.00     0.179 C 
ATOM     15  C   UNL     1       8.595  27.767  24.066  1.00  0.00     0.202 C 
BRANCH  12  16
ATOM     16  O   UNL     1       5.655  27.026  24.583  1.00  0.00    -0.388 OA
ATOM     17  H   UNL     1       6.049  26.279  25.106  1.00  0.00     0.211 HD
ENDBRANCH  12  16
BRANCH  14  18
ATOM     18  O   UNL     1       7.892  25.478  24.165  1.00  0.00    -0.387 OA
ATOM     19  H   UNL     1       8.743  25.058  23.883  1.00  0.00     0.211 HD
ENDBRANCH  14  18
BRANCH  15  20
ATOM     20  O   UNL     1       9.958  27.426  23.979  1.00  0.00    -0.385 OA
ATOM     21  H   UNL     1      10.082  26.923  23.133  1.00  0.00     0.211 HD
ENDBRANCH  15  20
ENDBRANCH   8   9
ENDBRANCH   7   8
ENDBRANCH   1   7
BRANCH   2  22
ATOM     22  O   UNL     1      12.258  31.308  23.443  1.00  0.00    -0.387 OA
ATOM     23  H   UNL     1      12.960  31.418  24.136  1.00  0.00     0.211 HD
ENDBRANCH   2  22
BRANCH   3  24
ATOM     24  O   UNL     1      14.295  29.365  24.195  1.00  0.00    -0.387 OA
ATOM     25  H   UNL     1      13.748  29.850  24.868  1.00  0.00     0.211 HD
ENDBRANCH   3  24
BRANCH   5  26
ATOM     26  O   UNL     1      12.422  26.490  20.794  1.00  0.00    -0.454 OA
BRANCH  26  27
ATOM     27  C   UNL     1      12.548  26.063  19.460  1.00  0.00     0.214 A 
ATOM     28  C   UNL     1      11.635  25.108  18.962  1.00  0.00     0.180 A 
ATOM     29  C   UNL     1      13.570  26.522  18.602  1.00  0.00     0.239 A 
ATOM     30  O   UNL     1      11.786  24.619  17.733  1.00  0.00    -0.452 OA
ATOM     31  C   UNL     1      13.697  25.973  17.308  1.00  0.00     0.111 A 
ATOM     32  O   UNL     1      14.363  27.420  18.994  1.00  0.00    -0.285 OA
ATOM     33  C   UNL     1      12.756  24.996  16.910  1.00  0.00     0.146 A 
ATOM     34  C   UNL     1      14.722  26.347  16.402  1.00  0.00     0.134 A 
ATOM     35  C   UNL     1      12.844  24.402  15.647  1.00  0.00     0.094 A 
ATOM     36  C   UNL     1      14.792  25.740  15.139  1.00  0.00     0.093 A 
ATOM     37  C   UNL     1      13.863  24.768  14.763  1.00  0.00     0.123 A 
BRANCH  28  38
ATOM     38  C   UNL     1      10.529  24.568  19.789  1.00  0.00     0.025 A 
ATOM     39  C   UNL     1       9.217  25.063  19.683  1.00  0.00     0.062 A 
ATOM     40  C   UNL     1      10.793  23.520  20.685  1.00  0.00     0.016 A 
ATOM     41  C   UNL     1       8.199  24.557  20.501  1.00  0.00     0.158 A 
ATOM     42  C   UNL     1       9.778  23.008  21.493  1.00  0.00     0.051 A 
ATOM     43  C   UNL     1       8.483  23.527  21.414  1.00  0.00     0.157 A 
BRANCH  41  44
ATOM     44  O   UNL     1       6.914  25.085  20.419  1.00  0.00    -0.504 OA
ATOM     45  H   UNL     1       6.488  25.312  19.528  1.00  0.00     0.293 HD
ENDBRANCH  41  44
BRANCH  43  46
ATOM     46  O   UNL     1       7.493  23.006  22.245  1.00  0.00    -0.504 OA
ATOM     47  H   UNL     1       7.706  22.395  23.025  1.00  0.00     0.293 HD
ENDBRANCH  43  46
ENDBRANCH  28  38
BRANCH  34  48
ATOM     48  O   UNL     1      15.670  27.309  16.748  1.00  0.00    -0.507 OA
ATOM     49  H   UNL     1      15.433  28.123  17.304  1.00  0.00     0.293 HD
ENDBRANCH  34  48
BRANCH  37  50
ATOM     50  O   UNL     1      13.960  24.168  13.510  1.00  0.00    -0.508 OA
ATOM     51  H   UNL     1      13.519  23.277  13.316  1.00  0.00     0.293 HD
ENDBRANCH  37  50
ENDBRANCH  26  27
ENDBRANCH   5  26
BRANCH   4  52
ATOM     52  O   UNL     1      14.746  27.431  22.112  1.00  0.00    -0.384 OA
ATOM     53  H   UNL     1      15.063  28.011  21.365  1.00  0.00     0.211 HD
ENDBRANCH   4  52
TORSDOF 16
ENDMDL
