MODEL 1
REMARK VINA RESULT:    -6.585      0.000      0.000
REMARK INTER + INTRA:         -14.716
REMARK INTER:                 -12.744
REMARK INTRA:                  -1.972
REMARK UNBOUND:                -1.972
REMARK SMILES CCCCCCCCCCCCCCCCCC(=O)[O-]
REMARK SMILES IDX 10 1 11 2 12 3 13 4 14 5 15 6 16 7 17 8 18 9 19 10 20 11
REMARK SMILES IDX 9 12 8 13 7 14 6 15 5 16 4 17 3 18 2 19 1 20
REMARK H PARENT
REMARK Flexibility Score: inf
ROOT
ATOM      1  C   UNL     1      15.031  70.841  72.374  1.00  0.00     0.000 C 
ENDROOT
BRANCH   1   2
ATOM      2  C   UNL     1      15.154  72.372  72.383  1.00  0.00     0.000 C 
BRANCH   2   3
ATOM      3  C   UNL     1      16.585  72.850  72.083  1.00  0.00     0.000 C 
BRANCH   3   4
ATOM      4  C   UNL     1      17.632  71.732  72.243  1.00  0.00     0.000 C 
BRANCH   4   5
ATOM      5  C   UNL     1      19.038  72.083  71.719  1.00  0.00     0.000 C 
BRANCH   5   6
ATOM      6  C   UNL     1      20.121  71.019  71.987  1.00  0.00     0.000 C 
BRANCH   6   7
ATOM      7  C   UNL     1      20.270  70.597  73.463  1.00  0.00     0.006 C 
BRANCH   7   8
ATOM      8  C   UNL     1      21.263  71.449  74.269  1.00  0.00     0.053 C 
BRANCH   8   9
ATOM      9  C   UNL     1      22.553  70.727  74.511  1.00  0.00     0.041 C 
ATOM     10  O   UNL     1      23.440  70.697  73.617  1.00  0.00    -0.550 OA
ATOM     11  O   UNL     1      22.762  70.056  75.710  1.00  0.00    -0.550 OA
ENDBRANCH   8   9
ENDBRANCH   7   8
ENDBRANCH   6   7
ENDBRANCH   5   6
ENDBRANCH   4   5
ENDBRANCH   3   4
ENDBRANCH   2   3
ENDBRANCH   1   2
BRANCH   1  12
ATOM     12  C   UNL     1      13.799  70.345  73.154  1.00  0.00     0.000 C 
BRANCH  12  13
ATOM     13  C   UNL     1      14.175  69.620  74.456  1.00  0.00    -0.000 C 
BRANCH  13  14
ATOM     14  C   UNL     1      14.112  70.544  75.685  1.00  0.00    -0.000 C 
BRANCH  14  15
ATOM     15  C   UNL     1      15.466  70.662  76.403  1.00  0.00    -0.000 C 
BRANCH  15  16
ATOM     16  C   UNL     1      16.469  71.542  75.637  1.00  0.00    -0.000 C 
BRANCH  16  17
ATOM     17  C   UNL     1      17.888  71.482  76.229  1.00  0.00    -0.000 C 
BRANCH  17  18
ATOM     18  C   UNL     1      17.955  71.581  77.767  1.00  0.00    -0.000 C 
BRANCH  18  19
ATOM     19  C   UNL     1      18.873  70.548  78.444  1.00  0.00    -0.003 C 
ATOM     20  C   UNL     1      19.755  69.793  77.450  1.00  0.00     0.004 C 
ENDBRANCH  18  19
ENDBRANCH  17  18
ENDBRANCH  16  17
ENDBRANCH  15  16
ENDBRANCH  14  15
ENDBRANCH  13  14
ENDBRANCH  12  13
ENDBRANCH   1  12
TORSDOF 16
ENDMDL
MODEL 2
REMARK VINA RESULT:    -6.490      1.625      5.133
REMARK INTER + INTRA:         -14.533
REMARK INTER:                 -12.815
REMARK INTRA:                  -1.718
REMARK UNBOUND:                -1.972
REMARK SMILES CCCCCCCCCCCCCCCCCC(=O)[O-]
REMARK SMILES IDX 10 1 11 2 12 3 13 4 14 5 15 6 16 7 17 8 18 9 19 10 20 11
REMARK SMILES IDX 9 12 8 13 7 14 6 15 5 16 4 17 3 18 2 19 1 20
REMARK H PARENT
REMARK Flexibility Score: inf
ROOT
ATOM      1  C   UNL     1      14.287  70.762  72.350  1.00  0.00     0.000 C 
ENDROOT
BRANCH   1   2
ATOM      2  C   UNL     1      14.014  69.854  73.560  1.00  0.00     0.000 C 
BRANCH   2   3
ATOM      3  C   UNL     1      13.754  70.653  74.849  1.00  0.00     0.000 C 
BRANCH   3   4
ATOM      4  C   UNL     1      14.309  69.956  76.104  1.00  0.00     0.000 C 
BRANCH   4   5
ATOM      5  C   UNL     1      15.442  70.719  76.820  1.00  0.00     0.000 C 
BRANCH   5   6
ATOM      6  C   UNL     1      16.439  71.436  75.888  1.00  0.00     0.000 C 
BRANCH   6   7
ATOM      7  C   UNL     1      17.889  71.500  76.410  1.00  0.00     0.006 C 
BRANCH   7   8
ATOM      8  C   UNL     1      18.112  70.788  77.753  1.00  0.00     0.053 C 
BRANCH   8   9
ATOM      9  C   UNL     1      19.471  70.166  77.839  1.00  0.00     0.041 C 
ATOM     10  O   UNL     1      20.144  69.966  76.793  1.00  0.00    -0.550 OA
ATOM     11  O   UNL     1      19.981  69.772  79.069  1.00  0.00    -0.550 OA
ENDBRANCH   8   9
ENDBRANCH   7   8
ENDBRANCH   6   7
ENDBRANCH   5   6
ENDBRANCH   4   5
ENDBRANCH   3   4
ENDBRANCH   2   3
ENDBRANCH   1   2
BRANCH   1  12
ATOM     12  C   UNL     1      15.779  71.116  72.206  1.00  0.00     0.000 C 
BRANCH  12  13
ATOM     13  C   UNL     1      16.033  72.631  72.233  1.00  0.00    -0.000 C 
BRANCH  13  14
ATOM     14  C   UNL     1      17.520  72.983  72.046  1.00  0.00    -0.000 C 
BRANCH  14  15
ATOM     15  C   UNL     1      18.410  71.736  71.924  1.00  0.00    -0.000 C 
BRANCH  15  16
ATOM     16  C   UNL     1      19.456  71.642  73.047  1.00  0.00    -0.000 C 
BRANCH  16  17
ATOM     17  C   UNL     1      20.819  71.127  72.551  1.00  0.00    -0.000 C 
BRANCH  17  18
ATOM     18  C   UNL     1      20.860  70.726  71.062  1.00  0.00    -0.000 C 
BRANCH  18  19
ATOM     19  C   UNL     1      20.922  69.211  70.799  1.00  0.00    -0.003 C 
ATOM     20  C   UNL     1      19.830  68.725  69.848  1.00  0.00     0.004 C 
ENDBRANCH  18  19
ENDBRANCH  17  18
ENDBRANCH  16  17
ENDBRANCH  15  16
ENDBRANCH  14  15
ENDBRANCH  13  14
ENDBRANCH  12  13
ENDBRANCH   1  12
TORSDOF 16
ENDMDL
MODEL 3
REMARK VINA RESULT:    -6.481      1.520      5.314
REMARK INTER + INTRA:         -14.515
REMARK INTER:                 -12.661
REMARK INTRA:                  -1.854
REMARK UNBOUND:                -1.972
REMARK SMILES CCCCCCCCCCCCCCCCCC(=O)[O-]
REMARK SMILES IDX 10 1 11 2 12 3 13 4 14 5 15 6 16 7 17 8 18 9 19 10 20 11
REMARK SMILES IDX 9 12 8 13 7 14 6 15 5 16 4 17 3 18 2 19 1 20
REMARK H PARENT
REMARK Flexibility Score: inf
ROOT
ATOM      1  C   UNL     1      17.409  71.777  76.592  1.00  0.00     0.000 C 
ENDROOT
BRANCH   1   2
ATOM      2  C   UNL     1      16.597  70.981  77.625  1.00  0.00     0.000 C 
BRANCH   2   3
ATOM      3  C   UNL     1      17.328  70.847  78.972  1.00  0.00     0.000 C 
BRANCH   3   4
ATOM      4  C   UNL     1      17.277  69.416  79.537  1.00  0.00     0.000 C 
BRANCH   4   5
ATOM      5  C   UNL     1      18.605  68.638  79.451  1.00  0.00     0.000 C 
BRANCH   5   6
ATOM      6  C   UNL     1      19.787  69.424  78.850  1.00  0.00     0.000 C 
BRANCH   6   7
ATOM      7  C   UNL     1      20.378  68.826  77.557  1.00  0.00     0.006 C 
BRANCH   7   8
ATOM      8  C   UNL     1      20.611  69.849  76.434  1.00  0.00     0.053 C 
BRANCH   8   9
ATOM      9  C   UNL     1      22.025  69.827  75.941  1.00  0.00     0.041 C 
ATOM     10  O   UNL     1      22.273  70.006  74.719  1.00  0.00    -0.550 OA
ATOM     11  O   UNL     1      23.067  69.573  76.824  1.00  0.00    -0.550 OA
ENDBRANCH   8   9
ENDBRANCH   7   8
ENDBRANCH   6   7
ENDBRANCH   5   6
ENDBRANCH   4   5
ENDBRANCH   3   4
ENDBRANCH   2   3
ENDBRANCH   1   2
BRANCH   1  12
ATOM     12  C   UNL     1      16.905  71.558  75.153  1.00  0.00     0.000 C 
BRANCH  12  13
ATOM     13  C   UNL     1      18.032  71.641  74.111  1.00  0.00    -0.000 C 
BRANCH  13  14
ATOM     14  C   UNL     1      17.572  72.293  72.795  1.00  0.00    -0.000 C 
BRANCH  14  15
ATOM     15  C   UNL     1      16.372  71.567  72.167  1.00  0.00    -0.000 C 
BRANCH  15  16
ATOM     16  C   UNL     1      15.052  72.335  72.351  1.00  0.00    -0.000 C 
BRANCH  16  17
ATOM     17  C   UNL     1      13.877  71.417  72.733  1.00  0.00    -0.000 C 
BRANCH  17  18
ATOM     18  C   UNL     1      14.272  69.969  73.091  1.00  0.00    -0.000 C 
BRANCH  18  19
ATOM     19  C   UNL     1      14.061  69.585  74.566  1.00  0.00    -0.003 C 
ATOM     20  C   UNL     1      13.422  70.704  75.388  1.00  0.00     0.004 C 
ENDBRANCH  18  19
ENDBRANCH  17  18
ENDBRANCH  16  17
ENDBRANCH  15  16
ENDBRANCH  14  15
ENDBRANCH  13  14
ENDBRANCH  12  13
ENDBRANCH   1  12
TORSDOF 16
ENDMDL
MODEL 4
REMARK VINA RESULT:    -6.417      2.309      2.894
REMARK INTER + INTRA:         -14.391
REMARK INTER:                 -12.886
REMARK INTRA:                  -1.505
REMARK UNBOUND:                -1.972
REMARK SMILES CCCCCCCCCCCCCCCCCC(=O)[O-]
REMARK SMILES IDX 10 1 11 2 12 3 13 4 14 5 15 6 16 7 17 8 18 9 19 10 20 11
REMARK SMILES IDX 9 12 8 13 7 14 6 15 5 16 4 17 3 18 2 19 1 20
REMARK H PARENT
REMARK Flexibility Score: inf
ROOT
ATOM      1  C   UNL     1      15.281  70.868  72.353  1.00  0.00     0.000 C 
ENDROOT
BRANCH   1   2
ATOM      2  C   UNL     1      15.885  72.203  72.817  1.00  0.00     0.000 C 
BRANCH   2   3
ATOM      3  C   UNL     1      17.414  72.138  72.962  1.00  0.00     0.000 C 
BRANCH   3   4
ATOM      4  C   UNL     1      18.147  73.049  71.960  1.00  0.00     0.000 C 
BRANCH   4   5
ATOM      5  C   UNL     1      19.457  72.466  71.394  1.00  0.00     0.000 C 
BRANCH   5   6
ATOM      6  C   UNL     1      19.803  71.043  71.875  1.00  0.00     0.000 C 
BRANCH   6   7
ATOM      7  C   UNL     1      21.003  70.387  71.162  1.00  0.00     0.006 C 
BRANCH   7   8
ATOM      8  C   UNL     1      20.789  70.136  69.662  1.00  0.00     0.053 C 
BRANCH   8   9
ATOM      9  C   UNL     1      20.429  68.710  69.378  1.00  0.00     0.041 C 
ATOM     10  O   UNL     1      20.922  68.119  68.380  1.00  0.00    -0.550 OA
ATOM     11  O   UNL     1      19.524  68.045  70.193  1.00  0.00    -0.550 OA
ENDBRANCH   8   9
ENDBRANCH   7   8
ENDBRANCH   6   7
ENDBRANCH   5   6
ENDBRANCH   4   5
ENDBRANCH   3   4
ENDBRANCH   2   3
ENDBRANCH   1   2
BRANCH   1  12
ATOM     12  C   UNL     1      13.944  70.553  73.050  1.00  0.00     0.000 C 
BRANCH  12  13
ATOM     13  C   UNL     1      14.121  69.687  74.306  1.00  0.00    -0.000 C 
BRANCH  13  14
ATOM     14  C   UNL     1      13.689  70.415  75.591  1.00  0.00    -0.000 C 
BRANCH  14  15
ATOM     15  C   UNL     1      14.788  70.417  76.665  1.00  0.00    -0.000 C 
BRANCH  15  16
ATOM     16  C   UNL     1      16.107  71.029  76.163  1.00  0.00    -0.000 C 
BRANCH  16  17
ATOM     17  C   UNL     1      17.158  71.179  77.279  1.00  0.00    -0.000 C 
BRANCH  17  18
ATOM     18  C   UNL     1      18.563  71.593  76.797  1.00  0.00    -0.000 C 
BRANCH  18  19
ATOM     19  C   UNL     1      19.599  70.456  76.763  1.00  0.00    -0.003 C 
ATOM     20  C   UNL     1      20.372  70.392  75.446  1.00  0.00     0.004 C 
ENDBRANCH  18  19
ENDBRANCH  17  18
ENDBRANCH  16  17
ENDBRANCH  15  16
ENDBRANCH  14  15
ENDBRANCH  13  14
ENDBRANCH  12  13
ENDBRANCH   1  12
TORSDOF 16
ENDMDL
MODEL 5
REMARK VINA RESULT:    -6.409      1.433      5.216
REMARK INTER + INTRA:         -14.375
REMARK INTER:                 -12.577
REMARK INTRA:                  -1.798
REMARK UNBOUND:                -1.972
REMARK SMILES CCCCCCCCCCCCCCCCCC(=O)[O-]
REMARK SMILES IDX 10 1 11 2 12 3 13 4 14 5 15 6 16 7 17 8 18 9 19 10 20 11
REMARK SMILES IDX 9 12 8 13 7 14 6 15 5 16 4 17 3 18 2 19 1 20
REMARK H PARENT
REMARK Flexibility Score: inf
ROOT
ATOM      1  C   UNL     1      17.052  71.445  77.119  1.00  0.00     0.000 C 
ENDROOT
BRANCH   1   2
ATOM      2  C   UNL     1      16.584  71.004  78.515  1.00  0.00     0.000 C 
BRANCH   2   3
ATOM      3  C   UNL     1      17.757  70.721  79.468  1.00  0.00     0.000 C 
BRANCH   3   4
ATOM      4  C   UNL     1      17.685  69.320  80.101  1.00  0.00     0.000 C 
BRANCH   4   5
ATOM      5  C   UNL     1      18.829  68.368  79.699  1.00  0.00     0.000 C 
BRANCH   5   6
ATOM      6  C   UNL     1      20.048  69.048  79.045  1.00  0.00     0.000 C 
BRANCH   6   7
ATOM      7  C   UNL     1      20.238  68.744  77.545  1.00  0.00     0.006 C 
BRANCH   7   8
ATOM      8  C   UNL     1      20.418  69.990  76.664  1.00  0.00     0.053 C 
BRANCH   8   9
ATOM      9  C   UNL     1      21.710  69.959  75.908  1.00  0.00     0.041 C 
ATOM     10  O   UNL     1      21.770  70.413  74.734  1.00  0.00    -0.550 OA
ATOM     11  O   UNL     1      22.842  69.398  76.485  1.00  0.00    -0.550 OA
ENDBRANCH   8   9
ENDBRANCH   7   8
ENDBRANCH   6   7
ENDBRANCH   5   6
ENDBRANCH   4   5
ENDBRANCH   3   4
ENDBRANCH   2   3
ENDBRANCH   1   2
BRANCH   1  12
ATOM     12  C   UNL     1      16.050  71.063  76.015  1.00  0.00     0.000 C 
BRANCH  12  13
ATOM     13  C   UNL     1      14.743  70.482  76.575  1.00  0.00    -0.000 C 
BRANCH  13  14
ATOM     14  C   UNL     1      13.928  69.726  75.511  1.00  0.00    -0.000 C 
BRANCH  14  15
ATOM     15  C   UNL     1      13.706  70.558  74.238  1.00  0.00    -0.000 C 
BRANCH  15  16
ATOM     16  C   UNL     1      14.361  69.930  72.996  1.00  0.00    -0.000 C 
BRANCH  16  17
ATOM     17  C   UNL     1      15.032  70.973  72.084  1.00  0.00    -0.000 C 
BRANCH  17  18
ATOM     18  C   UNL     1      15.254  72.356  72.731  1.00  0.00    -0.000 C 
BRANCH  18  19
ATOM     19  C   UNL     1      16.717  72.832  72.761  1.00  0.00    -0.003 C 
ATOM     20  C   UNL     1      17.687  71.816  72.158  1.00  0.00     0.004 C 
ENDBRANCH  18  19
ENDBRANCH  17  18
ENDBRANCH  16  17
ENDBRANCH  15  16
ENDBRANCH  14  15
ENDBRANCH  13  14
ENDBRANCH  12  13
ENDBRANCH   1  12
TORSDOF 16
ENDMDL
MODEL 6
REMARK VINA RESULT:    -6.339      2.110      4.764
REMARK INTER + INTRA:         -14.240
REMARK INTER:                 -12.293
REMARK INTRA:                  -1.947
REMARK UNBOUND:                -1.972
REMARK SMILES CCCCCCCCCCCCCCCCCC(=O)[O-]
REMARK SMILES IDX 10 1 11 2 12 3 13 4 14 5 15 6 16 7 17 8 18 9 19 10 20 11
REMARK SMILES IDX 9 12 8 13 7 14 6 15 5 16 4 17 3 18 2 19 1 20
REMARK H PARENT
REMARK Flexibility Score: inf
ROOT
ATOM      1  C   UNL     1      14.135  69.972  73.021  1.00  0.00     0.000 C 
ENDROOT
BRANCH   1   2
ATOM      2  C   UNL     1      13.724  70.689  74.316  1.00  0.00     0.000 C 
BRANCH   2   3
ATOM      3  C   UNL     1      14.009  69.848  75.572  1.00  0.00     0.000 C 
BRANCH   3   4
ATOM      4  C   UNL     1      14.875  70.593  76.604  1.00  0.00     0.000 C 
BRANCH   4   5
ATOM      5  C   UNL     1      16.238  71.081  76.075  1.00  0.00     0.000 C 
BRANCH   5   6
ATOM      6  C   UNL     1      17.288  71.393  77.159  1.00  0.00     0.000 C 
BRANCH   6   7
ATOM      7  C   UNL     1      17.307  70.413  78.350  1.00  0.00     0.006 C 
BRANCH   7   8
ATOM      8  C   UNL     1      18.663  70.311  79.066  1.00  0.00     0.053 C 
BRANCH   8   9
ATOM      9  C   UNL     1      19.016  68.893  79.396  1.00  0.00     0.041 C 
ATOM     10  O   UNL     1      18.109  68.035  79.559  1.00  0.00    -0.550 OA
ATOM     11  O   UNL     1      20.346  68.527  79.558  1.00  0.00    -0.550 OA
ENDBRANCH   8   9
ENDBRANCH   7   8
ENDBRANCH   6   7
ENDBRANCH   5   6
ENDBRANCH   4   5
ENDBRANCH   3   4
ENDBRANCH   2   3
ENDBRANCH   1   2
BRANCH   1  12
ATOM     12  C   UNL     1      15.147  70.784  72.194  1.00  0.00     0.000 C 
BRANCH  12  13
ATOM     13  C   UNL     1      15.323  72.219  72.716  1.00  0.00    -0.000 C 
BRANCH  13  14
ATOM     14  C   UNL     1      16.773  72.720  72.586  1.00  0.00    -0.000 C 
BRANCH  14  15
ATOM     15  C   UNL     1      17.717  71.651  72.014  1.00  0.00    -0.000 C 
BRANCH  15  16
ATOM     16  C   UNL     1      19.183  72.114  71.976  1.00  0.00    -0.000 C 
BRANCH  16  17
ATOM     17  C   UNL     1      19.768  72.359  73.379  1.00  0.00    -0.000 C 
BRANCH  17  18
ATOM     18  C   UNL     1      19.628  71.174  74.357  1.00  0.00    -0.000 C 
BRANCH  18  19
ATOM     19  C   UNL     1      20.943  70.713  75.010  1.00  0.00    -0.003 C 
ATOM     20  C   UNL     1      20.725  69.734  76.163  1.00  0.00     0.004 C 
ENDBRANCH  18  19
ENDBRANCH  17  18
ENDBRANCH  16  17
ENDBRANCH  15  16
ENDBRANCH  14  15
ENDBRANCH  13  14
ENDBRANCH  12  13
ENDBRANCH   1  12
TORSDOF 16
ENDMDL
MODEL 7
REMARK VINA RESULT:    -6.334      1.994      5.147
REMARK INTER + INTRA:         -14.230
REMARK INTER:                 -12.680
REMARK INTRA:                  -1.549
REMARK UNBOUND:                -1.972
REMARK SMILES CCCCCCCCCCCCCCCCCC(=O)[O-]
REMARK SMILES IDX 10 1 11 2 12 3 13 4 14 5 15 6 16 7 17 8 18 9 19 10 20 11
REMARK SMILES IDX 9 12 8 13 7 14 6 15 5 16 4 17 3 18 2 19 1 20
REMARK H PARENT
REMARK Flexibility Score: inf
ROOT
ATOM      1  C   UNL     1      20.389  70.277  75.917  1.00  0.00     0.000 C 
ENDROOT
BRANCH   1   2
ATOM      2  C   UNL     1      21.276  70.606  74.706  1.00  0.00     0.000 C 
BRANCH   2   3
ATOM      3  C   UNL     1      22.766  70.702  75.075  1.00  0.00     0.000 C 
BRANCH   3   4
ATOM      4  C   UNL     1      23.510  71.784  74.271  1.00  0.00     0.000 C 
BRANCH   4   5
ATOM      5  C   UNL     1      22.613  72.642  73.356  1.00  0.00     0.000 C 
BRANCH   5   6
ATOM      6  C   UNL     1      23.008  72.641  71.866  1.00  0.00     0.000 C 
BRANCH   6   7
ATOM      7  C   UNL     1      21.829  72.757  70.879  1.00  0.00     0.006 C 
BRANCH   7   8
ATOM      8  C   UNL     1      21.503  71.459  70.124  1.00  0.00     0.053 C 
BRANCH   8   9
ATOM      9  C   UNL     1      20.672  70.525  70.950  1.00  0.00     0.041 C 
ATOM     10  O   UNL     1      19.489  70.830  71.256  1.00  0.00    -0.550 OA
ATOM     11  O   UNL     1      21.215  69.332  71.411  1.00  0.00    -0.550 OA
ENDBRANCH   8   9
ENDBRANCH   7   8
ENDBRANCH   6   7
ENDBRANCH   5   6
ENDBRANCH   4   5
ENDBRANCH   3   4
ENDBRANCH   2   3
ENDBRANCH   1   2
BRANCH   1  12
ATOM     12  C   UNL     1      19.123  71.151  75.974  1.00  0.00     0.000 C 
BRANCH  12  13
ATOM     13  C   UNL     1      18.591  71.515  74.579  1.00  0.00    -0.000 C 
BRANCH  13  14
ATOM     14  C   UNL     1      17.090  71.856  74.590  1.00  0.00    -0.000 C 
BRANCH  14  15
ATOM     15  C   UNL     1      16.585  72.335  73.220  1.00  0.00    -0.000 C 
BRANCH  15  16
ATOM     16  C   UNL     1      16.119  71.177  72.321  1.00  0.00    -0.000 C 
BRANCH  16  17
ATOM     17  C   UNL     1      14.597  70.954  72.377  1.00  0.00    -0.000 C 
BRANCH  17  18
ATOM     18  C   UNL     1      14.127  69.937  73.437  1.00  0.00    -0.000 C 
BRANCH  18  19
ATOM     19  C   UNL     1      13.553  70.557  74.723  1.00  0.00    -0.003 C 
ATOM     20  C   UNL     1      14.145  69.948  75.994  1.00  0.00     0.004 C 
ENDBRANCH  18  19
ENDBRANCH  17  18
ENDBRANCH  16  17
ENDBRANCH  15  16
ENDBRANCH  14  15
ENDBRANCH  13  14
ENDBRANCH  12  13
ENDBRANCH   1  12
TORSDOF 16
ENDMDL
MODEL 8
REMARK VINA RESULT:    -6.315      1.221      2.419
REMARK INTER + INTRA:         -14.194
REMARK INTER:                 -12.533
REMARK INTRA:                  -1.661
REMARK UNBOUND:                -1.972
REMARK SMILES CCCCCCCCCCCCCCCCCC(=O)[O-]
REMARK SMILES IDX 10 1 11 2 12 3 13 4 14 5 15 6 16 7 17 8 18 9 19 10 20 11
REMARK SMILES IDX 9 12 8 13 7 14 6 15 5 16 4 17 3 18 2 19 1 20
REMARK H PARENT
REMARK Flexibility Score: inf
ROOT
ATOM      1  C   UNL     1      13.664  70.692  74.374  1.00  0.00     0.000 C 
ENDROOT
BRANCH   1   2
ATOM      2  C   UNL     1      14.006  70.025  73.033  1.00  0.00     0.000 C 
BRANCH   2   3
ATOM      3  C   UNL     1      15.196  70.696  72.327  1.00  0.00     0.000 C 
BRANCH   3   4
ATOM      4  C   UNL     1      15.303  72.200  72.638  1.00  0.00     0.000 C 
BRANCH   4   5
ATOM      5  C   UNL     1      16.602  72.872  72.152  1.00  0.00     0.000 C 
BRANCH   5   6
ATOM      6  C   UNL     1      17.824  71.937  72.049  1.00  0.00     0.000 C 
BRANCH   6   7
ATOM      7  C   UNL     1      18.632  71.774  73.352  1.00  0.00     0.006 C 
BRANCH   7   8
ATOM      8  C   UNL     1      19.906  70.927  73.206  1.00  0.00     0.053 C 
BRANCH   8   9
ATOM      9  C   UNL     1      21.020  71.437  74.067  1.00  0.00     0.041 C 
ATOM     10  O   UNL     1      21.402  72.634  73.966  1.00  0.00    -0.550 OA
ATOM     11  O   UNL     1      21.661  70.584  74.956  1.00  0.00    -0.550 OA
ENDBRANCH   8   9
ENDBRANCH   7   8
ENDBRANCH   6   7
ENDBRANCH   5   6
ENDBRANCH   4   5
ENDBRANCH   3   4
ENDBRANCH   2   3
ENDBRANCH   1   2
BRANCH   1  12
ATOM     12  C   UNL     1      14.066  69.825  75.581  1.00  0.00     0.000 C 
BRANCH  12  13
ATOM     13  C   UNL     1      14.933  70.587  76.596  1.00  0.00    -0.000 C 
BRANCH  13  14
ATOM     14  C   UNL     1      16.231  71.130  75.973  1.00  0.00    -0.000 C 
BRANCH  14  15
ATOM     15  C   UNL     1      17.328  71.379  77.021  1.00  0.00    -0.000 C 
BRANCH  15  16
ATOM     16  C   UNL     1      17.021  70.709  78.371  1.00  0.00    -0.000 C 
BRANCH  16  17
ATOM     17  C   UNL     1      18.290  70.415  79.192  1.00  0.00    -0.000 C 
BRANCH  17  18
ATOM     18  C   UNL     1      18.562  68.920  79.456  1.00  0.00    -0.000 C 
BRANCH  18  19
ATOM     19  C   UNL     1      20.013  68.471  79.208  1.00  0.00    -0.003 C 
ATOM     20  C   UNL     1      20.583  68.998  77.892  1.00  0.00     0.004 C 
ENDBRANCH  18  19
ENDBRANCH  17  18
ENDBRANCH  16  17
ENDBRANCH  15  16
ENDBRANCH  14  15
ENDBRANCH  13  14
ENDBRANCH  12  13
ENDBRANCH   1  12
TORSDOF 16
ENDMDL
MODEL 9
REMARK VINA RESULT:    -6.272      5.142      7.936
REMARK INTER + INTRA:         -14.111
REMARK INTER:                 -12.289
REMARK INTRA:                  -1.822
REMARK UNBOUND:                -1.972
REMARK SMILES CCCCCCCCCCCCCCCCCC(=O)[O-]
REMARK SMILES IDX 10 1 11 2 12 3 13 4 14 5 15 6 16 7 17 8 18 9 19 10 20 11
REMARK SMILES IDX 9 12 8 13 7 14 6 15 5 16 4 17 3 18 2 19 1 20
REMARK H PARENT
REMARK Flexibility Score: inf
ROOT
ATOM      1  C   UNL     1      14.356  69.982  73.164  1.00  0.00     0.000 C 
ENDROOT
BRANCH   1   2
ATOM      2  C   UNL     1      13.204  70.695  72.439  1.00  0.00     0.000 C 
BRANCH   2   3
ATOM      3  C   UNL     1      12.384  71.596  73.379  1.00  0.00     0.000 C 
BRANCH   3   4
ATOM      4  C   UNL     1      12.335  73.060  72.908  1.00  0.00     0.000 C 
BRANCH   4   5
ATOM      5  C   UNL     1      12.701  73.277  71.426  1.00  0.00     0.000 C 
BRANCH   5   6
ATOM      6  C   UNL     1      11.501  73.413  70.468  1.00  0.00     0.000 C 
BRANCH   6   7
ATOM      7  C   UNL     1      11.068  72.105  69.776  1.00  0.00     0.006 C 
BRANCH   7   8
ATOM      8  C   UNL     1       9.603  71.712  70.022  1.00  0.00     0.053 C 
BRANCH   8   9
ATOM      9  C   UNL     1       9.487  70.509  70.907  1.00  0.00     0.041 C 
ATOM     10  O   UNL     1      10.314  69.564  70.806  1.00  0.00    -0.550 OA
ATOM     11  O   UNL     1       8.445  70.415  71.821  1.00  0.00    -0.550 OA
ENDBRANCH   8   9
ENDBRANCH   7   8
ENDBRANCH   6   7
ENDBRANCH   5   6
ENDBRANCH   4   5
ENDBRANCH   3   4
ENDBRANCH   2   3
ENDBRANCH   1   2
BRANCH   1  12
ATOM     12  C   UNL     1      14.790  70.718  74.444  1.00  0.00     0.000 C 
BRANCH  12  13
ATOM     13  C   UNL     1      16.153  71.413  74.296  1.00  0.00    -0.000 C 
BRANCH  13  14
ATOM     14  C   UNL     1      16.093  72.639  73.367  1.00  0.00    -0.000 C 
BRANCH  14  15
ATOM     15  C   UNL     1      16.739  72.373  71.998  1.00  0.00    -0.000 C 
BRANCH  15  16
ATOM     16  C   UNL     1      17.803  73.422  71.631  1.00  0.00    -0.000 C 
BRANCH  16  17
ATOM     17  C   UNL     1      19.224  72.833  71.568  1.00  0.00    -0.000 C 
BRANCH  17  18
ATOM     18  C   UNL     1      19.318  71.325  71.883  1.00  0.00    -0.000 C 
BRANCH  18  19
ATOM     19  C   UNL     1      20.584  70.630  71.352  1.00  0.00    -0.003 C 
ATOM     20  C   UNL     1      20.285  69.596  70.266  1.00  0.00     0.004 C 
ENDBRANCH  18  19
ENDBRANCH  17  18
ENDBRANCH  16  17
ENDBRANCH  15  16
ENDBRANCH  14  15
ENDBRANCH  13  14
ENDBRANCH  12  13
ENDBRANCH   1  12
TORSDOF 16
ENDMDL
