MODEL 1
REMARK VINA RESULT:    -5.855      0.000      0.000
REMARK INTER + INTRA:         -11.367
REMARK INTER:                 -10.647
REMARK INTRA:                  -0.720
REMARK UNBOUND:                -0.720
REMARK SMILES CCCCCCCCCCCCCCCC(=O)[O-]
REMARK SMILES IDX 9 1 10 2 11 3 12 4 13 5 14 6 15 7 16 8 17 9 18 10 8 11 7 12
REMARK SMILES IDX 6 13 5 14 4 15 3 16 2 17 1 18
REMARK H PARENT
REMARK Flexibility Score: inf
ROOT
ATOM      1  C   UNL     1       2.560 -27.765  -0.653  1.00  0.00     0.000 C 
ENDROOT
BRANCH   1   2
ATOM      2  C   UNL     1       2.026 -28.721   0.425  1.00  0.00     0.000 C 
BRANCH   2   3
ATOM      3  C   UNL     1       2.788 -28.536   1.747  1.00  0.00     0.000 C 
BRANCH   3   4
ATOM      4  C   UNL     1       4.128 -29.287   1.766  1.00  0.00     0.000 C 
BRANCH   4   5
ATOM      5  C   UNL     1       4.418 -29.947   3.127  1.00  0.00     0.000 C 
BRANCH   5   6
ATOM      6  C   UNL     1       3.518 -29.404   4.248  1.00  0.00     0.006 C 
BRANCH   6   7
ATOM      7  C   UNL     1       3.470 -30.334   5.468  1.00  0.00     0.053 C 
BRANCH   7   8
ATOM      8  C   UNL     1       2.312 -29.985   6.346  1.00  0.00     0.041 C 
ATOM      9  O   UNL     1       1.308 -30.745   6.404  1.00  0.00    -0.550 OA
ATOM     10  O   UNL     1       2.323 -28.802   7.073  1.00  0.00    -0.550 OA
ENDBRANCH   7   8
ENDBRANCH   6   7
ENDBRANCH   5   6
ENDBRANCH   4   5
ENDBRANCH   3   4
ENDBRANCH   2   3
ENDBRANCH   1   2
BRANCH   1  11
ATOM     11  C   UNL     1       1.482 -26.796  -1.166  1.00  0.00     0.000 C 
BRANCH  11  12
ATOM     12  C   UNL     1       0.676 -26.154  -0.026  1.00  0.00    -0.000 C 
BRANCH  12  13
ATOM     13  C   UNL     1      -0.825 -26.154  -0.353  1.00  0.00    -0.000 C 
BRANCH  13  14
ATOM     14  C   UNL     1      -1.169 -25.239  -1.540  1.00  0.00    -0.000 C 
BRANCH  14  15
ATOM     15  C   UNL     1      -2.208 -24.165  -1.175  1.00  0.00    -0.000 C 
BRANCH  15  16
ATOM     16  C   UNL     1      -2.763 -24.334   0.251  1.00  0.00    -0.000 C 
BRANCH  16  17
ATOM     17  C   UNL     1      -4.261 -24.013   0.400  1.00  0.00    -0.003 C 
ATOM     18  C   UNL     1      -4.640 -23.577   1.817  1.00  0.00     0.004 C 
ENDBRANCH  16  17
ENDBRANCH  15  16
ENDBRANCH  14  15
ENDBRANCH  13  14
ENDBRANCH  12  13
ENDBRANCH  11  12
ENDBRANCH   1  11
TORSDOF 14
ENDMDL
MODEL 2
REMARK VINA RESULT:    -5.782      1.169      1.437
REMARK INTER + INTRA:         -11.233
REMARK INTER:                 -10.488
REMARK INTRA:                  -0.745
REMARK UNBOUND:                -0.720
REMARK SMILES CCCCCCCCCCCCCCCC(=O)[O-]
REMARK SMILES IDX 9 1 10 2 11 3 12 4 13 5 14 6 15 7 16 8 17 9 18 10 8 11 7 12
REMARK SMILES IDX 6 13 5 14 4 15 3 16 2 17 1 18
REMARK H PARENT
REMARK Flexibility Score: inf
ROOT
ATOM      1  C   UNL     1       2.241 -27.895  -0.429  1.00  0.00     0.000 C 
ENDROOT
BRANCH   1   2
ATOM      2  C   UNL     1       1.729 -28.167   0.994  1.00  0.00     0.000 C 
BRANCH   2   3
ATOM      3  C   UNL     1       2.432 -29.389   1.605  1.00  0.00     0.000 C 
BRANCH   3   4
ATOM      4  C   UNL     1       3.163 -29.057   2.914  1.00  0.00     0.000 C 
BRANCH   4   5
ATOM      5  C   UNL     1       4.523 -29.769   3.033  1.00  0.00     0.000 C 
BRANCH   5   6
ATOM      6  C   UNL     1       4.756 -30.364   4.431  1.00  0.00     0.006 C 
BRANCH   6   7
ATOM      7  C   UNL     1       3.698 -29.914   5.446  1.00  0.00     0.053 C 
BRANCH   7   8
ATOM      8  C   UNL     1       2.872 -31.079   5.891  1.00  0.00     0.041 C 
ATOM      9  O   UNL     1       1.615 -31.020   5.842  1.00  0.00    -0.550 OA
ATOM     10  O   UNL     1       3.490 -32.217   6.394  1.00  0.00    -0.550 OA
ENDBRANCH   7   8
ENDBRANCH   6   7
ENDBRANCH   5   6
ENDBRANCH   4   5
ENDBRANCH   3   4
ENDBRANCH   2   3
ENDBRANCH   1   2
BRANCH   1  11
ATOM     11  C   UNL     1       1.396 -26.844  -1.167  1.00  0.00     0.000 C 
BRANCH  11  12
ATOM     12  C   UNL     1       0.084 -26.522  -0.434  1.00  0.00    -0.000 C 
BRANCH  12  13
ATOM     13  C   UNL     1      -0.706 -25.437  -1.182  1.00  0.00    -0.000 C 
BRANCH  13  14
ATOM     14  C   UNL     1      -2.216 -25.514  -0.906  1.00  0.00    -0.000 C 
BRANCH  14  15
ATOM     15  C   UNL     1      -2.539 -26.244   0.409  1.00  0.00    -0.000 C 
BRANCH  15  16
ATOM     16  C   UNL     1      -3.811 -25.708   1.091  1.00  0.00    -0.000 C 
BRANCH  16  17
ATOM     17  C   UNL     1      -4.374 -24.413   0.476  1.00  0.00    -0.003 C 
ATOM     18  C   UNL     1      -4.296 -23.218   1.428  1.00  0.00     0.004 C 
ENDBRANCH  16  17
ENDBRANCH  15  16
ENDBRANCH  14  15
ENDBRANCH  13  14
ENDBRANCH  12  13
ENDBRANCH  11  12
ENDBRANCH   1  11
TORSDOF 14
ENDMDL
MODEL 3
REMARK VINA RESULT:    -5.775      1.350      2.285
REMARK INTER + INTRA:         -11.222
REMARK INTER:                 -10.181
REMARK INTRA:                  -1.041
REMARK UNBOUND:                -0.720
REMARK SMILES CCCCCCCCCCCCCCCC(=O)[O-]
REMARK SMILES IDX 9 1 10 2 11 3 12 4 13 5 14 6 15 7 16 8 17 9 18 10 8 11 7 12
REMARK SMILES IDX 6 13 5 14 4 15 3 16 2 17 1 18
REMARK H PARENT
REMARK Flexibility Score: inf
ROOT
ATOM      1  C   UNL     1       0.311 -27.123  -0.248  1.00  0.00     0.000 C 
ENDROOT
BRANCH   1   2
ATOM      2  C   UNL     1       1.632 -27.065  -1.031  1.00  0.00     0.000 C 
BRANCH   2   3
ATOM      3  C   UNL     1       2.689 -27.979  -0.391  1.00  0.00     0.000 C 
BRANCH   3   4
ATOM      4  C   UNL     1       2.329 -28.382   1.047  1.00  0.00     0.000 C 
BRANCH   4   5
ATOM      5  C   UNL     1       3.511 -29.024   1.797  1.00  0.00     0.000 C 
BRANCH   5   6
ATOM      6  C   UNL     1       3.239 -29.178   3.302  1.00  0.00     0.006 C 
BRANCH   6   7
ATOM      7  C   UNL     1       4.367 -29.920   4.031  1.00  0.00     0.053 C 
BRANCH   7   8
ATOM      8  C   UNL     1       3.968 -30.220   5.440  1.00  0.00     0.041 C 
ATOM      9  O   UNL     1       4.425 -31.238   6.026  1.00  0.00    -0.550 OA
ATOM     10  O   UNL     1       3.062 -29.397   6.097  1.00  0.00    -0.550 OA
ENDBRANCH   7   8
ENDBRANCH   6   7
ENDBRANCH   5   6
ENDBRANCH   4   5
ENDBRANCH   3   4
ENDBRANCH   2   3
ENDBRANCH   1   2
BRANCH   1  11
ATOM     11  C   UNL     1      -0.405 -25.764  -0.201  1.00  0.00     0.000 C 
BRANCH  11  12
ATOM     12  C   UNL     1      -1.116 -25.426  -1.521  1.00  0.00    -0.000 C 
BRANCH  12  13
ATOM     13  C   UNL     1      -1.955 -24.148  -1.376  1.00  0.00    -0.000 C 
BRANCH  13  14
ATOM     14  C   UNL     1      -2.221 -23.781   0.094  1.00  0.00    -0.000 C 
BRANCH  14  15
ATOM     15  C   UNL     1      -3.669 -24.075   0.522  1.00  0.00    -0.000 C 
BRANCH  15  16
ATOM     16  C   UNL     1      -3.842 -25.489   1.104  1.00  0.00    -0.000 C 
BRANCH  16  17
ATOM     17  C   UNL     1      -4.735 -26.425   0.269  1.00  0.00    -0.003 C 
ATOM     18  C   UNL     1      -5.369 -25.727  -0.936  1.00  0.00     0.004 C 
ENDBRANCH  16  17
ENDBRANCH  15  16
ENDBRANCH  14  15
ENDBRANCH  13  14
ENDBRANCH  12  13
ENDBRANCH  11  12
ENDBRANCH   1  11
TORSDOF 14
ENDMDL
MODEL 4
REMARK VINA RESULT:    -5.763      1.655      2.351
REMARK INTER + INTRA:         -11.200
REMARK INTER:                 -10.351
REMARK INTRA:                  -0.849
REMARK UNBOUND:                -0.720
REMARK SMILES CCCCCCCCCCCCCCCC(=O)[O-]
REMARK SMILES IDX 9 1 10 2 11 3 12 4 13 5 14 6 15 7 16 8 17 9 18 10 8 11 7 12
REMARK SMILES IDX 6 13 5 14 4 15 3 16 2 17 1 18
REMARK H PARENT
REMARK Flexibility Score: inf
ROOT
ATOM      1  C   UNL     1       1.300 -26.621  -1.329  1.00  0.00     0.000 C 
ENDROOT
BRANCH   1   2
ATOM      2  C   UNL     1       2.124 -27.639  -0.526  1.00  0.00     0.000 C 
BRANCH   2   3
ATOM      3  C   UNL     1       1.422 -27.993   0.794  1.00  0.00     0.000 C 
BRANCH   3   4
ATOM      4  C   UNL     1       2.410 -28.408   1.896  1.00  0.00     0.000 C 
BRANCH   4   5
ATOM      5  C   UNL     1       3.733 -28.955   1.331  1.00  0.00     0.000 C 
BRANCH   5   6
ATOM      6  C   UNL     1       4.549 -29.725   2.383  1.00  0.00     0.006 C 
BRANCH   6   7
ATOM      7  C   UNL     1       3.886 -29.711   3.767  1.00  0.00     0.053 C 
BRANCH   7   8
ATOM      8  C   UNL     1       4.772 -30.370   4.776  1.00  0.00     0.041 C 
ATOM      9  O   UNL     1       4.291 -30.796   5.860  1.00  0.00    -0.550 OA
ATOM     10  O   UNL     1       6.135 -30.482   4.536  1.00  0.00    -0.550 OA
ENDBRANCH   7   8
ENDBRANCH   6   7
ENDBRANCH   5   6
ENDBRANCH   4   5
ENDBRANCH   3   4
ENDBRANCH   2   3
ENDBRANCH   1   2
BRANCH   1  11
ATOM     11  C   UNL     1      -0.042 -26.290  -0.657  1.00  0.00     0.000 C 
BRANCH  11  12
ATOM     12  C   UNL     1      -0.912 -25.352  -1.509  1.00  0.00    -0.000 C 
BRANCH  12  13
ATOM     13  C   UNL     1      -2.388 -25.454  -1.097  1.00  0.00    -0.000 C 
BRANCH  13  14
ATOM     14  C   UNL     1      -2.586 -26.277   0.186  1.00  0.00    -0.000 C 
BRANCH  14  15
ATOM     15  C   UNL     1      -3.659 -25.677   1.111  1.00  0.00    -0.000 C 
BRANCH  15  16
ATOM     16  C   UNL     1      -4.337 -24.434   0.509  1.00  0.00    -0.000 C 
BRANCH  16  17
ATOM     17  C   UNL     1      -4.309 -23.186   1.410  1.00  0.00    -0.003 C 
ATOM     18  C   UNL     1      -5.428 -23.177   2.454  1.00  0.00     0.004 C 
ENDBRANCH  16  17
ENDBRANCH  15  16
ENDBRANCH  14  15
ENDBRANCH  13  14
ENDBRANCH  12  13
ENDBRANCH  11  12
ENDBRANCH   1  11
TORSDOF 14
ENDMDL
MODEL 5
REMARK VINA RESULT:    -5.550      4.339      8.560
REMARK INTER + INTRA:         -10.812
REMARK INTER:                  -9.481
REMARK INTRA:                  -1.331
REMARK UNBOUND:                -0.720
REMARK SMILES CCCCCCCCCCCCCCCC(=O)[O-]
REMARK SMILES IDX 9 1 10 2 11 3 12 4 13 5 14 6 15 7 16 8 17 9 18 10 8 11 7 12
REMARK SMILES IDX 6 13 5 14 4 15 3 16 2 17 1 18
REMARK H PARENT
REMARK Flexibility Score: inf
ROOT
ATOM      1  C   UNL     1      -1.061 -25.512  -1.563  1.00  0.00     0.000 C 
ENDROOT
BRANCH   1   2
ATOM      2  C   UNL     1      -1.770 -24.167  -1.342  1.00  0.00     0.000 C 
BRANCH   2   3
ATOM      3  C   UNL     1      -1.983 -23.900   0.156  1.00  0.00     0.000 C 
BRANCH   3   4
ATOM      4  C   UNL     1      -3.469 -23.786   0.531  1.00  0.00     0.000 C 
BRANCH   4   5
ATOM      5  C   UNL     1      -4.053 -25.111   1.054  1.00  0.00     0.000 C 
BRANCH   5   6
ATOM      6  C   UNL     1      -5.153 -25.672   0.138  1.00  0.00     0.006 C 
BRANCH   6   7
ATOM      7  C   UNL     1      -4.601 -26.627  -0.928  1.00  0.00     0.053 C 
BRANCH   7   8
ATOM      8  C   UNL     1      -5.144 -26.275  -2.276  1.00  0.00     0.041 C 
ATOM      9  O   UNL     1      -5.878 -27.089  -2.897  1.00  0.00    -0.550 OA
ATOM     10  O   UNL     1      -4.810 -25.062  -2.864  1.00  0.00    -0.550 OA
ENDBRANCH   7   8
ENDBRANCH   6   7
ENDBRANCH   5   6
ENDBRANCH   4   5
ENDBRANCH   3   4
ENDBRANCH   2   3
ENDBRANCH   1   2
BRANCH   1  11
ATOM     11  C   UNL     1      -0.687 -26.204  -0.243  1.00  0.00     0.000 C 
BRANCH  11  12
ATOM     12  C   UNL     1       0.830 -26.213   0.008  1.00  0.00    -0.000 C 
BRANCH  12  13
ATOM     13  C   UNL     1       1.568 -26.927  -1.134  1.00  0.00    -0.000 C 
BRANCH  13  14
ATOM     14  C   UNL     1       2.592 -27.953  -0.621  1.00  0.00    -0.000 C 
BRANCH  14  15
ATOM     15  C   UNL     1       2.131 -28.652   0.669  1.00  0.00    -0.000 C 
BRANCH  15  16
ATOM     16  C   UNL     1       3.267 -28.819   1.694  1.00  0.00    -0.000 C 
BRANCH  16  17
ATOM     17  C   UNL     1       2.980 -29.837   2.813  1.00  0.00    -0.003 C 
ATOM     18  C   UNL     1       3.831 -29.607   4.063  1.00  0.00     0.004 C 
ENDBRANCH  16  17
ENDBRANCH  15  16
ENDBRANCH  14  15
ENDBRANCH  13  14
ENDBRANCH  12  13
ENDBRANCH  11  12
ENDBRANCH   1  11
TORSDOF 14
ENDMDL
MODEL 6
REMARK VINA RESULT:    -5.545      1.103      2.403
REMARK INTER + INTRA:         -10.803
REMARK INTER:                  -9.873
REMARK INTRA:                  -0.930
REMARK UNBOUND:                -0.720
REMARK SMILES CCCCCCCCCCCCCCCC(=O)[O-]
REMARK SMILES IDX 9 1 10 2 11 3 12 4 13 5 14 6 15 7 16 8 17 9 18 10 8 11 7 12
REMARK SMILES IDX 6 13 5 14 4 15 3 16 2 17 1 18
REMARK H PARENT
REMARK Flexibility Score: inf
ROOT
ATOM      1  C   UNL     1       2.737 -29.711   1.874  1.00  0.00     0.000 C 
ENDROOT
BRANCH   1   2
ATOM      2  C   UNL     1       3.649 -29.236   3.015  1.00  0.00     0.000 C 
BRANCH   2   3
ATOM      3  C   UNL     1       4.991 -29.984   2.991  1.00  0.00     0.000 C 
BRANCH   3   4
ATOM      4  C   UNL     1       5.422 -30.470   4.383  1.00  0.00     0.000 C 
BRANCH   4   5
ATOM      5  C   UNL     1       4.824 -31.842   4.744  1.00  0.00     0.000 C 
BRANCH   5   6
ATOM      6  C   UNL     1       3.909 -31.780   5.977  1.00  0.00     0.006 C 
BRANCH   6   7
ATOM      7  C   UNL     1       2.431 -31.603   5.606  1.00  0.00     0.053 C 
BRANCH   7   8
ATOM      8  C   UNL     1       1.888 -30.347   6.207  1.00  0.00     0.041 C 
ATOM      9  O   UNL     1       0.681 -30.282   6.561  1.00  0.00    -0.550 OA
ATOM     10  O   UNL     1       2.706 -29.232   6.345  1.00  0.00    -0.550 OA
ENDBRANCH   7   8
ENDBRANCH   6   7
ENDBRANCH   5   6
ENDBRANCH   4   5
ENDBRANCH   3   4
ENDBRANCH   2   3
ENDBRANCH   1   2
BRANCH   1  11
ATOM     11  C   UNL     1       1.975 -28.554   1.209  1.00  0.00     0.000 C 
BRANCH  11  12
ATOM     12  C   UNL     1       2.610 -28.116  -0.121  1.00  0.00    -0.000 C 
BRANCH  12  13
ATOM     13  C   UNL     1       1.637 -27.248  -0.931  1.00  0.00    -0.000 C 
BRANCH  13  14
ATOM     14  C   UNL     1       0.546 -26.612  -0.053  1.00  0.00    -0.000 C 
BRANCH  14  15
ATOM     15  C   UNL     1      -0.470 -25.799  -0.873  1.00  0.00    -0.000 C 
BRANCH  15  16
ATOM     16  C   UNL     1      -1.812 -25.611  -0.142  1.00  0.00    -0.000 C 
BRANCH  16  17
ATOM     17  C   UNL     1      -2.450 -24.220  -0.314  1.00  0.00    -0.003 C 
ATOM     18  C   UNL     1      -3.534 -23.928   0.725  1.00  0.00     0.004 C 
ENDBRANCH  16  17
ENDBRANCH  15  16
ENDBRANCH  14  15
ENDBRANCH  13  14
ENDBRANCH  12  13
ENDBRANCH  11  12
ENDBRANCH   1  11
TORSDOF 14
ENDMDL
MODEL 7
REMARK VINA RESULT:    -5.521      3.335      8.244
REMARK INTER + INTRA:         -10.760
REMARK INTER:                  -9.668
REMARK INTRA:                  -1.092
REMARK UNBOUND:                -0.720
REMARK SMILES CCCCCCCCCCCCCCCC(=O)[O-]
REMARK SMILES IDX 9 1 10 2 11 3 12 4 13 5 14 6 15 7 16 8 17 9 18 10 8 11 7 12
REMARK SMILES IDX 6 13 5 14 4 15 3 16 2 17 1 18
REMARK H PARENT
REMARK Flexibility Score: inf
ROOT
ATOM      1  C   UNL     1      -0.570 -26.148  -0.383  1.00  0.00     0.000 C 
ENDROOT
BRANCH   1   2
ATOM      2  C   UNL     1      -1.119 -25.502  -1.664  1.00  0.00     0.000 C 
BRANCH   2   3
ATOM      3  C   UNL     1      -1.763 -24.141  -1.359  1.00  0.00     0.000 C 
BRANCH   3   4
ATOM      4  C   UNL     1      -1.465 -23.653   0.067  1.00  0.00     0.000 C 
BRANCH   4   5
ATOM      5  C   UNL     1      -2.729 -23.179   0.808  1.00  0.00     0.000 C 
BRANCH   5   6
ATOM      6  C   UNL     1      -3.980 -23.977   0.408  1.00  0.00     0.006 C 
BRANCH   6   7
ATOM      7  C   UNL     1      -4.189 -25.221   1.282  1.00  0.00     0.053 C 
BRANCH   7   8
ATOM      8  C   UNL     1      -4.481 -26.414   0.429  1.00  0.00     0.041 C 
ATOM      9  O   UNL     1      -5.549 -26.472  -0.237  1.00  0.00    -0.550 OA
ATOM     10  O   UNL     1      -3.592 -27.481   0.400  1.00  0.00    -0.550 OA
ENDBRANCH   7   8
ENDBRANCH   6   7
ENDBRANCH   5   6
ENDBRANCH   4   5
ENDBRANCH   3   4
ENDBRANCH   2   3
ENDBRANCH   1   2
BRANCH   1  11
ATOM     11  C   UNL     1       0.939 -26.428  -0.465  1.00  0.00     0.000 C 
BRANCH  11  12
ATOM     12  C   UNL     1       1.313 -27.813   0.087  1.00  0.00    -0.000 C 
BRANCH  12  13
ATOM     13  C   UNL     1       2.744 -28.195  -0.320  1.00  0.00    -0.000 C 
BRANCH  13  14
ATOM     14  C   UNL     1       3.537 -28.822   0.838  1.00  0.00    -0.000 C 
BRANCH  14  15
ATOM     15  C   UNL     1       2.786 -28.742   2.179  1.00  0.00    -0.000 C 
BRANCH  15  16
ATOM     16  C   UNL     1       3.596 -29.326   3.350  1.00  0.00    -0.000 C 
BRANCH  16  17
ATOM     17  C   UNL     1       4.754 -30.251   2.935  1.00  0.00    -0.003 C 
ATOM     18  C   UNL     1       5.836 -30.373   4.009  1.00  0.00     0.004 C 
ENDBRANCH  16  17
ENDBRANCH  15  16
ENDBRANCH  14  15
ENDBRANCH  13  14
ENDBRANCH  12  13
ENDBRANCH  11  12
ENDBRANCH   1  11
TORSDOF 14
ENDMDL
MODEL 8
REMARK VINA RESULT:    -5.409      3.545      8.301
REMARK INTER + INTRA:         -10.556
REMARK INTER:                  -9.666
REMARK INTRA:                  -0.890
REMARK UNBOUND:                -0.720
REMARK SMILES CCCCCCCCCCCCCCCC(=O)[O-]
REMARK SMILES IDX 9 1 10 2 11 3 12 4 13 5 14 6 15 7 16 8 17 9 18 10 8 11 7 12
REMARK SMILES IDX 6 13 5 14 4 15 3 16 2 17 1 18
REMARK H PARENT
REMARK Flexibility Score: inf
ROOT
ATOM      1  C   UNL     1       2.764 -28.119  -0.195  1.00  0.00     0.000 C 
ENDROOT
BRANCH   1   2
ATOM      2  C   UNL     1       1.707 -27.205  -0.833  1.00  0.00     0.000 C 
BRANCH   2   3
ATOM      3  C   UNL     1       0.801 -26.583   0.240  1.00  0.00     0.000 C 
BRANCH   3   4
ATOM      4  C   UNL     1      -0.643 -26.386  -0.247  1.00  0.00     0.000 C 
BRANCH   4   5
ATOM      5  C   UNL     1      -0.731 -25.482  -1.490  1.00  0.00     0.000 C 
BRANCH   5   6
ATOM      6  C   UNL     1      -1.964 -24.564  -1.463  1.00  0.00     0.006 C 
BRANCH   6   7
ATOM      7  C   UNL     1      -2.127 -23.835  -0.123  1.00  0.00     0.053 C 
BRANCH   7   8
ATOM      8  C   UNL     1      -3.535 -23.951   0.366  1.00  0.00     0.041 C 
ATOM      9  O   UNL     1      -4.352 -24.707  -0.225  1.00  0.00    -0.550 OA
ATOM     10  O   UNL     1      -3.957 -23.197   1.453  1.00  0.00    -0.550 OA
ENDBRANCH   7   8
ENDBRANCH   6   7
ENDBRANCH   5   6
ENDBRANCH   4   5
ENDBRANCH   3   4
ENDBRANCH   2   3
ENDBRANCH   1   2
BRANCH   1  11
ATOM     11  C   UNL     1       2.178 -29.017   0.906  1.00  0.00     0.000 C 
BRANCH  11  12
ATOM     12  C   UNL     1       2.899 -28.844   2.253  1.00  0.00    -0.000 C 
BRANCH  12  13
ATOM     13  C   UNL     1       4.297 -29.479   2.209  1.00  0.00    -0.000 C 
BRANCH  13  14
ATOM     14  C   UNL     1       4.490 -30.554   3.291  1.00  0.00    -0.000 C 
BRANCH  14  15
ATOM     15  C   UNL     1       3.154 -31.110   3.814  1.00  0.00    -0.000 C 
BRANCH  15  16
ATOM     16  C   UNL     1       3.282 -31.754   5.206  1.00  0.00    -0.000 C 
BRANCH  16  17
ATOM     17  C   UNL     1       3.005 -30.801   6.384  1.00  0.00    -0.003 C 
ATOM     18  C   UNL     1       1.590 -30.222   6.364  1.00  0.00     0.004 C 
ENDBRANCH  16  17
ENDBRANCH  15  16
ENDBRANCH  14  15
ENDBRANCH  13  14
ENDBRANCH  12  13
ENDBRANCH  11  12
ENDBRANCH   1  11
TORSDOF 14
ENDMDL
MODEL 9
REMARK VINA RESULT:    -5.369      3.554      8.459
REMARK INTER + INTRA:         -10.484
REMARK INTER:                  -9.836
REMARK INTRA:                  -0.647
REMARK UNBOUND:                -0.720
REMARK SMILES CCCCCCCCCCCCCCCC(=O)[O-]
REMARK SMILES IDX 9 1 10 2 11 3 12 4 13 5 14 6 15 7 16 8 17 9 18 10 8 11 7 12
REMARK SMILES IDX 6 13 5 14 4 15 3 16 2 17 1 18
REMARK H PARENT
REMARK Flexibility Score: inf
ROOT
ATOM      1  C   UNL     1       0.497 -26.140  -0.001  1.00  0.00     0.000 C 
ENDROOT
BRANCH   1   2
ATOM      2  C   UNL     1      -0.604 -25.921  -1.050  1.00  0.00     0.000 C 
BRANCH   2   3
ATOM      3  C   UNL     1      -1.200 -24.509  -0.933  1.00  0.00     0.000 C 
BRANCH   3   4
ATOM      4  C   UNL     1      -2.431 -24.311  -1.829  1.00  0.00     0.000 C 
BRANCH   4   5
ATOM      5  C   UNL     1      -3.561 -25.309  -1.516  1.00  0.00     0.000 C 
BRANCH   5   6
ATOM      6  C   UNL     1      -4.732 -24.656  -0.764  1.00  0.00     0.006 C 
BRANCH   6   7
ATOM      7  C   UNL     1      -4.721 -24.978   0.736  1.00  0.00     0.053 C 
BRANCH   7   8
ATOM      8  C   UNL     1      -4.500 -23.734   1.535  1.00  0.00     0.041 C 
ATOM      9  O   UNL     1      -5.305 -23.415   2.450  1.00  0.00    -0.550 OA
ATOM     10  O   UNL     1      -3.424 -22.904   1.246  1.00  0.00    -0.550 OA
ENDBRANCH   7   8
ENDBRANCH   6   7
ENDBRANCH   5   6
ENDBRANCH   4   5
ENDBRANCH   3   4
ENDBRANCH   2   3
ENDBRANCH   1   2
BRANCH   1  11
ATOM     11  C   UNL     1       1.598 -27.092  -0.493  1.00  0.00     0.000 C 
BRANCH  11  12
ATOM     12  C   UNL     1       1.642 -28.405   0.306  1.00  0.00    -0.000 C 
BRANCH  12  13
ATOM     13  C   UNL     1       2.952 -28.516   1.100  1.00  0.00    -0.000 C 
BRANCH  13  14
ATOM     14  C   UNL     1       2.929 -29.670   2.115  1.00  0.00    -0.000 C 
BRANCH  14  15
ATOM     15  C   UNL     1       3.378 -29.230   3.519  1.00  0.00    -0.000 C 
BRANCH  15  16
ATOM     16  C   UNL     1       3.727 -30.418   4.432  1.00  0.00    -0.000 C 
BRANCH  16  17
ATOM     17  C   UNL     1       2.870 -30.525   5.707  1.00  0.00    -0.003 C 
ATOM     18  C   UNL     1       2.597 -29.168   6.358  1.00  0.00     0.004 C 
ENDBRANCH  16  17
ENDBRANCH  15  16
ENDBRANCH  14  15
ENDBRANCH  13  14
ENDBRANCH  12  13
ENDBRANCH  11  12
ENDBRANCH   1  11
TORSDOF 14
ENDMDL
