MODEL 1
REMARK VINA RESULT:    -5.854      0.000      0.000
REMARK INTER + INTRA:         -16.116
REMARK INTER:                 -13.384
REMARK INTRA:                  -2.732
REMARK UNBOUND:                -2.732
REMARK SMILES CCCCCCCCCCCCCCCCCCCCCCCC(=O)[O-]
REMARK SMILES IDX 13 1 14 2 15 3 16 4 17 5 18 6 19 7 20 8 21 9 22 10 23 11
REMARK SMILES IDX 24 12 25 13 26 14 12 15 11 16 10 17 9 18 8 19 7 20 6 21 5 22
REMARK SMILES IDX 4 23 3 24 2 25 1 26
REMARK H PARENT
REMARK Flexibility Score: inf
ROOT
ATOM      1  C   UNL     1       6.400  -2.360 -35.977  1.00  0.00     0.000 C 
ENDROOT
BRANCH   1   2
ATOM      2  C   UNL     1       7.347  -1.160 -36.155  1.00  0.00     0.000 C 
BRANCH   2   3
ATOM      3  C   UNL     1       8.189  -1.260 -37.438  1.00  0.00     0.000 C 
BRANCH   3   4
ATOM      4  C   UNL     1       8.681   0.110 -37.935  1.00  0.00     0.000 C 
BRANCH   4   5
ATOM      5  C   UNL     1       7.773   1.262 -37.475  1.00  0.00     0.000 C 
BRANCH   5   6
ATOM      6  C   UNL     1       8.508   2.276 -36.579  1.00  0.00     0.000 C 
BRANCH   6   7
ATOM      7  C   UNL     1       9.783   1.693 -35.948  1.00  0.00     0.000 C 
BRANCH   7   8
ATOM      8  C   UNL     1       9.631   1.449 -34.436  1.00  0.00     0.000 C 
BRANCH   8   9
ATOM      9  C   UNL     1      10.969   1.135 -33.749  1.00  0.00     0.000 C 
BRANCH   9  10
ATOM     10  C   UNL     1      11.622   2.380 -33.123  1.00  0.00     0.006 C 
BRANCH  10  11
ATOM     11  C   UNL     1      11.114   2.647 -31.700  1.00  0.00     0.053 C 
BRANCH  11  12
ATOM     12  C   UNL     1      12.236   2.947 -30.754  1.00  0.00     0.041 C 
ATOM     13  O   UNL     1      12.006   3.099 -29.526  1.00  0.00    -0.550 OA
ATOM     14  O   UNL     1      13.541   3.032 -31.225  1.00  0.00    -0.550 OA
ENDBRANCH  11  12
ENDBRANCH  10  11
ENDBRANCH   9  10
ENDBRANCH   8   9
ENDBRANCH   7   8
ENDBRANCH   6   7
ENDBRANCH   5   6
ENDBRANCH   4   5
ENDBRANCH   3   4
ENDBRANCH   2   3
ENDBRANCH   1   2
BRANCH   1  15
ATOM     15  C   UNL     1       5.275  -2.078 -34.967  1.00  0.00     0.000 C 
BRANCH  15  16
ATOM     16  C   UNL     1       4.856  -0.597 -34.947  1.00  0.00     0.000 C 
BRANCH  16  17
ATOM     17  C   UNL     1       4.924   0.020 -33.541  1.00  0.00     0.000 C 
BRANCH  17  18
ATOM     18  C   UNL     1       6.093   1.009 -33.385  1.00  0.00    -0.000 C 
BRANCH  18  19
ATOM     19  C   UNL     1       6.877   0.807 -32.075  1.00  0.00    -0.000 C 
BRANCH  19  20
ATOM     20  C   UNL     1       6.992   2.056 -31.182  1.00  0.00    -0.000 C 
BRANCH  20  21
ATOM     21  C   UNL     1       7.202   1.774 -29.682  1.00  0.00    -0.000 C 
BRANCH  21  22
ATOM     22  C   UNL     1       8.530   1.054 -29.361  1.00  0.00    -0.000 C 
BRANCH  22  23
ATOM     23  C   UNL     1       8.345  -0.120 -28.382  1.00  0.00    -0.000 C 
BRANCH  23  24
ATOM     24  C   UNL     1       7.216   0.122 -27.364  1.00  0.00    -0.000 C 
BRANCH  24  25
ATOM     25  C   UNL     1       6.175  -1.009 -27.272  1.00  0.00    -0.003 C 
ATOM     26  C   UNL     1       5.555  -1.364 -28.623  1.00  0.00     0.004 C 
ENDBRANCH  24  25
ENDBRANCH  23  24
ENDBRANCH  22  23
ENDBRANCH  21  22
ENDBRANCH  20  21
ENDBRANCH  19  20
ENDBRANCH  18  19
ENDBRANCH  17  18
ENDBRANCH  16  17
ENDBRANCH  15  16
ENDBRANCH   1  15
TORSDOF 22
ENDMDL
MODEL 2
REMARK VINA RESULT:    -5.711      4.898      6.393
REMARK INTER + INTRA:         -15.788
REMARK INTER:                 -13.751
REMARK INTRA:                  -2.037
REMARK UNBOUND:                -2.732
REMARK SMILES CCCCCCCCCCCCCCCCCCCCCCCC(=O)[O-]
REMARK SMILES IDX 13 1 14 2 15 3 16 4 17 5 18 6 19 7 20 8 21 9 22 10 23 11
REMARK SMILES IDX 24 12 25 13 26 14 12 15 11 16 10 17 9 18 8 19 7 20 6 21 5 22
REMARK SMILES IDX 4 23 3 24 2 25 1 26
REMARK H PARENT
REMARK Flexibility Score: inf
ROOT
ATOM      1  C   UNL     1       7.288  -4.306 -36.128  1.00  0.00     0.000 C 
ENDROOT
BRANCH   1   2
ATOM      2  C   UNL     1       6.452  -3.014 -36.115  1.00  0.00     0.000 C 
BRANCH   2   3
ATOM      3  C   UNL     1       7.287  -1.769 -36.459  1.00  0.00     0.000 C 
BRANCH   3   4
ATOM      4  C   UNL     1       8.262  -2.011 -37.624  1.00  0.00     0.000 C 
BRANCH   4   5
ATOM      5  C   UNL     1       8.258  -0.859 -38.642  1.00  0.00     0.000 C 
BRANCH   5   6
ATOM      6  C   UNL     1       9.002   0.388 -38.133  1.00  0.00     0.000 C 
BRANCH   6   7
ATOM      7  C   UNL     1       8.047   1.521 -37.725  1.00  0.00     0.000 C 
BRANCH   7   8
ATOM      8  C   UNL     1       8.437   2.165 -36.383  1.00  0.00     0.000 C 
BRANCH   8   9
ATOM      9  C   UNL     1       9.360   1.268 -35.542  1.00  0.00     0.000 C 
BRANCH   9  10
ATOM     10  C   UNL     1      10.737   1.907 -35.287  1.00  0.00     0.006 C 
BRANCH  10  11
ATOM     11  C   UNL     1      11.369   1.415 -33.978  1.00  0.00     0.053 C 
BRANCH  11  12
ATOM     12  C   UNL     1      12.817   1.786 -33.885  1.00  0.00     0.041 C 
ATOM     13  O   UNL     1      13.630   1.388 -34.761  1.00  0.00    -0.550 OA
ATOM     14  O   UNL     1      13.266   2.593 -32.847  1.00  0.00    -0.550 OA
ENDBRANCH  11  12
ENDBRANCH  10  11
ENDBRANCH   9  10
ENDBRANCH   8   9
ENDBRANCH   7   8
ENDBRANCH   6   7
ENDBRANCH   5   6
ENDBRANCH   4   5
ENDBRANCH   3   4
ENDBRANCH   2   3
ENDBRANCH   1   2
BRANCH   1  15
ATOM     15  C   UNL     1       6.849  -5.304 -35.043  1.00  0.00     0.000 C 
BRANCH  15  16
ATOM     16  C   UNL     1       7.926  -5.512 -33.963  1.00  0.00     0.000 C 
BRANCH  16  17
ATOM     17  C   UNL     1       7.607  -6.689 -33.027  1.00  0.00     0.000 C 
BRANCH  17  18
ATOM     18  C   UNL     1       7.260  -7.976 -33.796  1.00  0.00    -0.000 C 
BRANCH  18  19
ATOM     19  C   UNL     1       6.197  -8.831 -33.081  1.00  0.00    -0.000 C 
BRANCH  19  20
ATOM     20  C   UNL     1       4.939  -8.066 -32.627  1.00  0.00    -0.000 C 
BRANCH  20  21
ATOM     21  C   UNL     1       4.489  -8.344 -31.180  1.00  0.00    -0.000 C 
BRANCH  21  22
ATOM     22  C   UNL     1       5.348  -7.636 -30.110  1.00  0.00    -0.000 C 
BRANCH  22  23
ATOM     23  C   UNL     1       6.027  -8.627 -29.147  1.00  0.00    -0.000 C 
BRANCH  23  24
ATOM     24  C   UNL     1       7.435  -9.041 -29.609  1.00  0.00    -0.000 C 
BRANCH  24  25
ATOM     25  C   UNL     1       7.733 -10.548 -29.504  1.00  0.00    -0.003 C 
ATOM     26  C   UNL     1       8.075 -11.186 -30.850  1.00  0.00     0.004 C 
ENDBRANCH  24  25
ENDBRANCH  23  24
ENDBRANCH  22  23
ENDBRANCH  21  22
ENDBRANCH  20  21
ENDBRANCH  19  20
ENDBRANCH  18  19
ENDBRANCH  17  18
ENDBRANCH  16  17
ENDBRANCH  15  16
ENDBRANCH   1  15
TORSDOF 22
ENDMDL
MODEL 3
REMARK VINA RESULT:    -5.435      5.688      8.914
REMARK INTER + INTRA:         -15.157
REMARK INTER:                 -13.369
REMARK INTRA:                  -1.787
REMARK UNBOUND:                -2.732
REMARK SMILES CCCCCCCCCCCCCCCCCCCCCCCC(=O)[O-]
REMARK SMILES IDX 13 1 14 2 15 3 16 4 17 5 18 6 19 7 20 8 21 9 22 10 23 11
REMARK SMILES IDX 24 12 25 13 26 14 12 15 11 16 10 17 9 18 8 19 7 20 6 21 5 22
REMARK SMILES IDX 4 23 3 24 2 25 1 26
REMARK H PARENT
REMARK Flexibility Score: inf
ROOT
ATOM      1  C   UNL     1       7.680  -3.045 -36.842  1.00  0.00     0.000 C 
ENDROOT
BRANCH   1   2
ATOM      2  C   UNL     1       6.602  -3.511 -35.847  1.00  0.00     0.000 C 
BRANCH   2   3
ATOM      3  C   UNL     1       6.722  -5.006 -35.506  1.00  0.00     0.000 C 
BRANCH   3   4
ATOM      4  C   UNL     1       7.636  -5.268 -34.297  1.00  0.00     0.000 C 
BRANCH   4   5
ATOM      5  C   UNL     1       7.321  -6.600 -33.599  1.00  0.00     0.000 C 
BRANCH   5   6
ATOM      6  C   UNL     1       6.457  -7.534 -34.465  1.00  0.00     0.000 C 
BRANCH   6   7
ATOM      7  C   UNL     1       5.224  -8.065 -33.714  1.00  0.00     0.000 C 
BRANCH   7   8
ATOM      8  C   UNL     1       5.450  -8.141 -32.193  1.00  0.00     0.000 C 
BRANCH   8   9
ATOM      9  C   UNL     1       5.385  -9.579 -31.656  1.00  0.00     0.000 C 
BRANCH   9  10
ATOM     10  C   UNL     1       6.190 -10.571 -32.514  1.00  0.00     0.006 C 
BRANCH  10  11
ATOM     11  C   UNL     1       7.580 -10.849 -31.928  1.00  0.00     0.053 C 
BRANCH  11  12
ATOM     12  C   UNL     1       8.606  -9.889 -32.447  1.00  0.00     0.041 C 
ATOM     13  O   UNL     1       9.002  -9.969 -33.640  1.00  0.00    -0.550 OA
ATOM     14  O   UNL     1       9.106  -8.888 -31.623  1.00  0.00    -0.550 OA
ENDBRANCH  11  12
ENDBRANCH  10  11
ENDBRANCH   9  10
ENDBRANCH   8   9
ENDBRANCH   7   8
ENDBRANCH   6   7
ENDBRANCH   5   6
ENDBRANCH   4   5
ENDBRANCH   3   4
ENDBRANCH   2   3
ENDBRANCH   1   2
BRANCH   1  15
ATOM     15  C   UNL     1       7.625  -1.532 -37.106  1.00  0.00     0.000 C 
BRANCH  15  16
ATOM     16  C   UNL     1       8.613  -1.088 -38.201  1.00  0.00     0.000 C 
BRANCH  16  17
ATOM     17  C   UNL     1       8.980   0.401 -38.100  1.00  0.00     0.000 C 
BRANCH  17  18
ATOM     18  C   UNL     1       7.797   1.270 -37.636  1.00  0.00    -0.000 C 
BRANCH  18  19
ATOM     19  C   UNL     1       8.107   2.065 -36.354  1.00  0.00    -0.000 C 
BRANCH  19  20
ATOM     20  C   UNL     1       7.663   1.390 -35.042  1.00  0.00    -0.000 C 
BRANCH  20  21
ATOM     21  C   UNL     1       8.699   1.427 -33.903  1.00  0.00    -0.000 C 
BRANCH  21  22
ATOM     22  C   UNL     1      10.165   1.422 -34.388  1.00  0.00    -0.000 C 
BRANCH  22  23
ATOM     23  C   UNL     1      11.170   1.267 -33.233  1.00  0.00    -0.000 C 
BRANCH  23  24
ATOM     24  C   UNL     1      12.089   2.491 -33.069  1.00  0.00    -0.000 C 
BRANCH  24  25
ATOM     25  C   UNL     1      13.554   2.259 -33.479  1.00  0.00    -0.003 C 
ATOM     26  C   UNL     1      13.703   1.780 -34.923  1.00  0.00     0.004 C 
ENDBRANCH  24  25
ENDBRANCH  23  24
ENDBRANCH  22  23
ENDBRANCH  21  22
ENDBRANCH  20  21
ENDBRANCH  19  20
ENDBRANCH  18  19
ENDBRANCH  17  18
ENDBRANCH  16  17
ENDBRANCH  15  16
ENDBRANCH   1  15
TORSDOF 22
ENDMDL
MODEL 4
REMARK VINA RESULT:    -5.400      8.355     10.714
REMARK INTER + INTRA:         -15.078
REMARK INTER:                 -11.133
REMARK INTRA:                  -3.945
REMARK UNBOUND:                -2.732
REMARK SMILES CCCCCCCCCCCCCCCCCCCCCCCC(=O)[O-]
REMARK SMILES IDX 13 1 14 2 15 3 16 4 17 5 18 6 19 7 20 8 21 9 22 10 23 11
REMARK SMILES IDX 24 12 25 13 26 14 12 15 11 16 10 17 9 18 8 19 7 20 6 21 5 22
REMARK SMILES IDX 4 23 3 24 2 25 1 26
REMARK H PARENT
REMARK Flexibility Score: inf
ROOT
ATOM      1  C   UNL     1       5.339  -8.935 -30.437  1.00  0.00     0.000 C 
ENDROOT
BRANCH   1   2
ATOM      2  C   UNL     1       4.648  -7.918 -31.362  1.00  0.00     0.000 C 
BRANCH   2   3
ATOM      3  C   UNL     1       3.927  -8.590 -32.543  1.00  0.00     0.000 C 
BRANCH   3   4
ATOM      4  C   UNL     1       4.588  -8.280 -33.897  1.00  0.00     0.000 C 
BRANCH   4   5
ATOM      5  C   UNL     1       5.392  -9.470 -34.444  1.00  0.00     0.000 C 
BRANCH   5   6
ATOM      6  C   UNL     1       6.891  -9.155 -34.596  1.00  0.00     0.000 C 
BRANCH   6   7
ATOM      7  C   UNL     1       7.618  -9.067 -33.243  1.00  0.00     0.000 C 
BRANCH   7   8
ATOM      8  C   UNL     1       8.461  -7.786 -33.111  1.00  0.00     0.000 C 
BRANCH   8   9
ATOM      9  C   UNL     1       7.600  -6.527 -32.925  1.00  0.00     0.000 C 
BRANCH   9  10
ATOM     10  C   UNL     1       7.836  -5.478 -34.027  1.00  0.00     0.006 C 
BRANCH  10  11
ATOM     11  C   UNL     1       6.762  -5.536 -35.121  1.00  0.00     0.053 C 
BRANCH  11  12
ATOM     12  C   UNL     1       6.672  -4.249 -35.882  1.00  0.00     0.041 C 
ATOM     13  O   UNL     1       7.704  -3.749 -36.402  1.00  0.00    -0.550 OA
ATOM     14  O   UNL     1       5.446  -3.616 -36.041  1.00  0.00    -0.550 OA
ENDBRANCH  11  12
ENDBRANCH  10  11
ENDBRANCH   9  10
ENDBRANCH   8   9
ENDBRANCH   7   8
ENDBRANCH   6   7
ENDBRANCH   5   6
ENDBRANCH   4   5
ENDBRANCH   3   4
ENDBRANCH   2   3
ENDBRANCH   1   2
BRANCH   1  15
ATOM     15  C   UNL     1       5.872  -8.292 -29.146  1.00  0.00     0.000 C 
BRANCH  15  16
ATOM     16  C   UNL     1       7.189  -7.527 -29.368  1.00  0.00     0.000 C 
BRANCH  16  17
ATOM     17  C   UNL     1       8.390  -8.206 -28.689  1.00  0.00     0.000 C 
BRANCH  17  18
ATOM     18  C   UNL     1       9.443  -8.692 -29.702  1.00  0.00    -0.000 C 
BRANCH  18  19
ATOM     19  C   UNL     1       9.285 -10.181 -30.060  1.00  0.00    -0.000 C 
BRANCH  19  20
ATOM     20  C   UNL     1       8.322 -10.974 -29.155  1.00  0.00    -0.000 C 
BRANCH  20  21
ATOM     21  C   UNL     1       8.861 -12.325 -28.648  1.00  0.00    -0.000 C 
BRANCH  21  22
ATOM     22  C   UNL     1       9.216 -12.335 -27.146  1.00  0.00    -0.000 C 
BRANCH  22  23
ATOM     23  C   UNL     1      10.596 -11.714 -26.860  1.00  0.00    -0.000 C 
BRANCH  23  24
ATOM     24  C   UNL     1      10.505 -10.365 -26.124  1.00  0.00    -0.000 C 
BRANCH  24  25
ATOM     25  C   UNL     1      11.424  -9.262 -26.679  1.00  0.00    -0.003 C 
ATOM     26  C   UNL     1      12.372  -9.764 -27.768  1.00  0.00     0.004 C 
ENDBRANCH  24  25
ENDBRANCH  23  24
ENDBRANCH  22  23
ENDBRANCH  21  22
ENDBRANCH  20  21
ENDBRANCH  19  20
ENDBRANCH  18  19
ENDBRANCH  17  18
ENDBRANCH  16  17
ENDBRANCH  15  16
ENDBRANCH   1  15
TORSDOF 22
ENDMDL
MODEL 5
REMARK VINA RESULT:    -5.363      9.675     12.312
REMARK INTER + INTRA:         -14.992
REMARK INTER:                 -10.869
REMARK INTRA:                  -4.123
REMARK UNBOUND:                -2.732
REMARK SMILES CCCCCCCCCCCCCCCCCCCCCCCC(=O)[O-]
REMARK SMILES IDX 13 1 14 2 15 3 16 4 17 5 18 6 19 7 20 8 21 9 22 10 23 11
REMARK SMILES IDX 24 12 25 13 26 14 12 15 11 16 10 17 9 18 8 19 7 20 6 21 5 22
REMARK SMILES IDX 4 23 3 24 2 25 1 26
REMARK H PARENT
REMARK Flexibility Score: inf
ROOT
ATOM      1  C   UNL     1       8.135  -6.997 -28.949  1.00  0.00     0.000 C 
ENDROOT
BRANCH   1   2
ATOM      2  C   UNL     1       6.728  -6.449 -29.246  1.00  0.00     0.000 C 
BRANCH   2   3
ATOM      3  C   UNL     1       5.696  -7.567 -29.473  1.00  0.00     0.000 C 
BRANCH   3   4
ATOM      4  C   UNL     1       6.198  -8.943 -29.003  1.00  0.00     0.000 C 
BRANCH   4   5
ATOM      5  C   UNL     1       6.236  -9.974 -30.142  1.00  0.00     0.000 C 
BRANCH   5   6
ATOM      6  C   UNL     1       7.656 -10.500 -30.420  1.00  0.00     0.000 C 
BRANCH   6   7
ATOM      7  C   UNL     1       8.139 -10.176 -31.843  1.00  0.00     0.000 C 
BRANCH   7   8
ATOM      8  C   UNL     1       8.917  -8.850 -31.912  1.00  0.00     0.000 C 
BRANCH   8   9
ATOM      9  C   UNL     1       8.359  -7.890 -32.974  1.00  0.00     0.000 C 
BRANCH   9  10
ATOM     10  C   UNL     1       6.852  -7.628 -32.805  1.00  0.00     0.006 C 
BRANCH  10  11
ATOM     11  C   UNL     1       6.064  -7.935 -34.086  1.00  0.00     0.053 C 
BRANCH  11  12
ATOM     12  C   UNL     1       4.828  -8.731 -33.802  1.00  0.00     0.041 C 
ATOM     13  O   UNL     1       4.918  -9.887 -33.311  1.00  0.00    -0.550 OA
ATOM     14  O   UNL     1       3.574  -8.187 -34.054  1.00  0.00    -0.550 OA
ENDBRANCH  11  12
ENDBRANCH  10  11
ENDBRANCH   9  10
ENDBRANCH   8   9
ENDBRANCH   7   8
ENDBRANCH   6   7
ENDBRANCH   5   6
ENDBRANCH   4   5
ENDBRANCH   3   4
ENDBRANCH   2   3
ENDBRANCH   1   2
BRANCH   1  15
ATOM     15  C   UNL     1       8.878  -6.172 -27.886  1.00  0.00     0.000 C 
BRANCH  15  16
ATOM     16  C   UNL     1      10.008  -6.967 -27.206  1.00  0.00     0.000 C 
BRANCH  16  17
ATOM     17  C   UNL     1      10.069  -8.430 -27.675  1.00  0.00     0.000 C 
BRANCH  17  18
ATOM     18  C   UNL     1      11.164  -8.666 -28.731  1.00  0.00    -0.000 C 
BRANCH  18  19
ATOM     19  C   UNL     1      11.742 -10.092 -28.683  1.00  0.00    -0.000 C 
BRANCH  19  20
ATOM     20  C   UNL     1      11.875 -10.792 -30.049  1.00  0.00    -0.000 C 
BRANCH  20  21
ATOM     21  C   UNL     1      11.055 -12.087 -30.205  1.00  0.00    -0.000 C 
BRANCH  21  22
ATOM     22  C   UNL     1      10.951 -12.922 -28.911  1.00  0.00    -0.000 C 
BRANCH  22  23
ATOM     23  C   UNL     1       9.493 -13.170 -28.483  1.00  0.00    -0.000 C 
BRANCH  23  24
ATOM     24  C   UNL     1       8.982 -12.130 -27.469  1.00  0.00    -0.000 C 
BRANCH  24  25
ATOM     25  C   UNL     1       9.350 -12.421 -26.003  1.00  0.00    -0.003 C 
ATOM     26  C   UNL     1      10.362 -11.428 -25.431  1.00  0.00     0.004 C 
ENDBRANCH  24  25
ENDBRANCH  23  24
ENDBRANCH  22  23
ENDBRANCH  21  22
ENDBRANCH  20  21
ENDBRANCH  19  20
ENDBRANCH  18  19
ENDBRANCH  17  18
ENDBRANCH  16  17
ENDBRANCH  15  16
ENDBRANCH   1  15
TORSDOF 22
ENDMDL
MODEL 6
REMARK VINA RESULT:    -5.343      8.269     11.243
REMARK INTER + INTRA:         -14.946
REMARK INTER:                 -11.641
REMARK INTRA:                  -3.305
REMARK UNBOUND:                -2.732
REMARK SMILES CCCCCCCCCCCCCCCCCCCCCCCC(=O)[O-]
REMARK SMILES IDX 13 1 14 2 15 3 16 4 17 5 18 6 19 7 20 8 21 9 22 10 23 11
REMARK SMILES IDX 24 12 25 13 26 14 12 15 11 16 10 17 9 18 8 19 7 20 6 21 5 22
REMARK SMILES IDX 4 23 3 24 2 25 1 26
REMARK H PARENT
REMARK Flexibility Score: inf
ROOT
ATOM      1  C   UNL     1       8.694  -5.207 -28.434  1.00  0.00     0.000 C 
ENDROOT
BRANCH   1   2
ATOM      2  C   UNL     1       8.687  -6.698 -28.052  1.00  0.00     0.000 C 
BRANCH   2   3
ATOM      3  C   UNL     1       9.997  -7.140 -27.378  1.00  0.00     0.000 C 
BRANCH   3   4
ATOM      4  C   UNL     1      10.275  -8.644 -27.548  1.00  0.00     0.000 C 
BRANCH   4   5
ATOM      5  C   UNL     1       9.153  -9.366 -28.310  1.00  0.00     0.000 C 
BRANCH   5   6
ATOM      6  C   UNL     1       9.243 -10.898 -28.189  1.00  0.00     0.000 C 
BRANCH   6   7
ATOM      7  C   UNL     1       8.864 -11.618 -29.494  1.00  0.00     0.000 C 
BRANCH   7   8
ATOM      8  C   UNL     1       9.622 -11.062 -30.712  1.00  0.00     0.000 C 
BRANCH   8   9
ATOM      9  C   UNL     1       8.683 -10.648 -31.856  1.00  0.00     0.000 C 
BRANCH   9  10
ATOM     10  C   UNL     1       9.403  -9.850 -32.957  1.00  0.00     0.006 C 
BRANCH  10  11
ATOM     11  C   UNL     1      10.808  -9.408 -32.526  1.00  0.00     0.053 C 
BRANCH  11  12
ATOM     12  C   UNL     1      11.877 -10.115 -33.301  1.00  0.00     0.041 C 
ATOM     13  O   UNL     1      11.790 -11.353 -33.514  1.00  0.00    -0.550 OA
ATOM     14  O   UNL     1      12.956  -9.404 -33.810  1.00  0.00    -0.550 OA
ENDBRANCH  11  12
ENDBRANCH  10  11
ENDBRANCH   9  10
ENDBRANCH   8   9
ENDBRANCH   7   8
ENDBRANCH   6   7
ENDBRANCH   5   6
ENDBRANCH   4   5
ENDBRANCH   3   4
ENDBRANCH   2   3
ENDBRANCH   1   2
BRANCH   1  15
ATOM     15  C   UNL     1       7.885  -4.921 -29.710  1.00  0.00     0.000 C 
BRANCH  15  16
ATOM     16  C   UNL     1       8.043  -6.027 -30.769  1.00  0.00     0.000 C 
BRANCH  16  17
ATOM     17  C   UNL     1       7.362  -5.673 -32.101  1.00  0.00     0.000 C 
BRANCH  17  18
ATOM     18  C   UNL     1       7.698  -6.675 -33.220  1.00  0.00    -0.000 C 
BRANCH  18  19
ATOM     19  C   UNL     1       6.713  -6.605 -34.401  1.00  0.00    -0.000 C 
BRANCH  19  20
ATOM     20  C   UNL     1       6.015  -7.932 -34.752  1.00  0.00    -0.000 C 
BRANCH  20  21
ATOM     21  C   UNL     1       4.486  -7.939 -34.568  1.00  0.00    -0.000 C 
BRANCH  21  22
ATOM     22  C   UNL     1       3.989  -8.919 -33.483  1.00  0.00    -0.000 C 
BRANCH  22  23
ATOM     23  C   UNL     1       4.889  -8.925 -32.235  1.00  0.00    -0.000 C 
BRANCH  23  24
ATOM     24  C   UNL     1       4.409  -7.948 -31.146  1.00  0.00    -0.000 C 
BRANCH  24  25
ATOM     25  C   UNL     1       5.332  -7.844 -29.919  1.00  0.00    -0.003 C 
ATOM     26  C   UNL     1       5.869  -9.198 -29.455  1.00  0.00     0.004 C 
ENDBRANCH  24  25
ENDBRANCH  23  24
ENDBRANCH  22  23
ENDBRANCH  21  22
ENDBRANCH  20  21
ENDBRANCH  19  20
ENDBRANCH  18  19
ENDBRANCH  17  18
ENDBRANCH  16  17
ENDBRANCH  15  16
ENDBRANCH   1  15
TORSDOF 22
ENDMDL
MODEL 7
REMARK VINA RESULT:    -5.339      8.316     11.545
REMARK INTER + INTRA:         -14.938
REMARK INTER:                 -10.904
REMARK INTRA:                  -4.034
REMARK UNBOUND:                -2.732
REMARK SMILES CCCCCCCCCCCCCCCCCCCCCCCC(=O)[O-]
REMARK SMILES IDX 13 1 14 2 15 3 16 4 17 5 18 6 19 7 20 8 21 9 22 10 23 11
REMARK SMILES IDX 24 12 25 13 26 14 12 15 11 16 10 17 9 18 8 19 7 20 6 21 5 22
REMARK SMILES IDX 4 23 3 24 2 25 1 26
REMARK H PARENT
REMARK Flexibility Score: inf
ROOT
ATOM      1  C   UNL     1       9.554  -6.384 -28.329  1.00  0.00     0.000 C 
ENDROOT
BRANCH   1   2
ATOM      2  C   UNL     1       9.688  -7.726 -27.588  1.00  0.00     0.000 C 
BRANCH   2   3
ATOM      3  C   UNL     1       9.673  -8.931 -28.544  1.00  0.00     0.000 C 
BRANCH   3   4
ATOM      4  C   UNL     1       8.411  -9.797 -28.389  1.00  0.00     0.000 C 
BRANCH   4   5
ATOM      5  C   UNL     1       8.652 -11.263 -28.782  1.00  0.00     0.000 C 
BRANCH   5   6
ATOM      6  C   UNL     1       9.533 -11.405 -30.036  1.00  0.00     0.000 C 
BRANCH   6   7
ATOM      7  C   UNL     1       8.735 -11.852 -31.272  1.00  0.00     0.000 C 
BRANCH   7   8
ATOM      8  C   UNL     1       7.720 -10.790 -31.731  1.00  0.00     0.000 C 
BRANCH   8   9
ATOM      9  C   UNL     1       8.385  -9.456 -32.104  1.00  0.00     0.000 C 
BRANCH   9  10
ATOM     10  C   UNL     1       9.442  -9.609 -33.212  1.00  0.00     0.006 C 
BRANCH  10  11
ATOM     11  C   UNL     1      10.837  -9.174 -32.745  1.00  0.00     0.053 C 
BRANCH  11  12
ATOM     12  C   UNL     1      11.906 -10.096 -33.247  1.00  0.00     0.041 C 
ATOM     13  O   UNL     1      13.012  -9.633 -33.632  1.00  0.00    -0.550 OA
ATOM     14  O   UNL     1      11.691 -11.468 -33.265  1.00  0.00    -0.550 OA
ENDBRANCH  11  12
ENDBRANCH  10  11
ENDBRANCH   9  10
ENDBRANCH   8   9
ENDBRANCH   7   8
ENDBRANCH   6   7
ENDBRANCH   5   6
ENDBRANCH   4   5
ENDBRANCH   3   4
ENDBRANCH   2   3
ENDBRANCH   1   2
BRANCH   1  15
ATOM     15  C   UNL     1       8.117  -5.837 -28.306  1.00  0.00     0.000 C 
BRANCH  15  16
ATOM     16  C   UNL     1       7.271  -6.353 -29.485  1.00  0.00     0.000 C 
BRANCH  16  17
ATOM     17  C   UNL     1       5.963  -7.019 -29.028  1.00  0.00     0.000 C 
BRANCH  17  18
ATOM     18  C   UNL     1       5.530  -8.168 -29.955  1.00  0.00    -0.000 C 
BRANCH  18  19
ATOM     19  C   UNL     1       5.121  -7.683 -31.358  1.00  0.00    -0.000 C 
BRANCH  19  20
ATOM     20  C   UNL     1       4.268  -8.675 -32.172  1.00  0.00    -0.000 C 
BRANCH  20  21
ATOM     21  C   UNL     1       4.166  -8.370 -33.678  1.00  0.00    -0.000 C 
BRANCH  21  22
ATOM     22  C   UNL     1       5.223  -9.097 -34.537  1.00  0.00    -0.000 C 
BRANCH  22  23
ATOM     23  C   UNL     1       6.373  -8.170 -34.970  1.00  0.00    -0.000 C 
BRANCH  23  24
ATOM     24  C   UNL     1       5.969  -6.685 -34.992  1.00  0.00    -0.000 C 
BRANCH  24  25
ATOM     25  C   UNL     1       7.094  -5.703 -34.619  1.00  0.00    -0.003 C 
ATOM     26  C   UNL     1       7.697  -5.977 -33.241  1.00  0.00     0.004 C 
ENDBRANCH  24  25
ENDBRANCH  23  24
ENDBRANCH  22  23
ENDBRANCH  21  22
ENDBRANCH  20  21
ENDBRANCH  19  20
ENDBRANCH  18  19
ENDBRANCH  17  18
ENDBRANCH  16  17
ENDBRANCH  15  16
ENDBRANCH   1  15
TORSDOF 22
ENDMDL
MODEL 8
REMARK VINA RESULT:    -5.330      9.486     12.588
REMARK INTER + INTRA:         -14.917
REMARK INTER:                 -11.031
REMARK INTRA:                  -3.886
REMARK UNBOUND:                -2.732
REMARK SMILES CCCCCCCCCCCCCCCCCCCCCCCC(=O)[O-]
REMARK SMILES IDX 13 1 14 2 15 3 16 4 17 5 18 6 19 7 20 8 21 9 22 10 23 11
REMARK SMILES IDX 24 12 25 13 26 14 12 15 11 16 10 17 9 18 8 19 7 20 6 21 5 22
REMARK SMILES IDX 4 23 3 24 2 25 1 26
REMARK H PARENT
REMARK Flexibility Score: inf
ROOT
ATOM      1  C   UNL     1       9.270  -6.416 -27.742  1.00  0.00     0.000 C 
ENDROOT
BRANCH   1   2
ATOM      2  C   UNL     1      10.397  -7.211 -27.059  1.00  0.00     0.000 C 
BRANCH   2   3
ATOM      3  C   UNL     1      10.237  -8.731 -27.239  1.00  0.00     0.000 C 
BRANCH   3   4
ATOM      4  C   UNL     1      11.585  -9.454 -27.403  1.00  0.00     0.000 C 
BRANCH   4   5
ATOM      5  C   UNL     1      11.511 -10.934 -26.992  1.00  0.00     0.000 C 
BRANCH   5   6
ATOM      6  C   UNL     1      10.117 -11.340 -26.483  1.00  0.00     0.000 C 
BRANCH   6   7
ATOM      7  C   UNL     1      10.110 -11.683 -24.984  1.00  0.00     0.000 C 
BRANCH   7   8
ATOM      8  C   UNL     1      11.400 -11.234 -24.273  1.00  0.00     0.000 C 
BRANCH   8   9
ATOM      9  C   UNL     1      11.194  -9.983 -23.406  1.00  0.00     0.000 C 
BRANCH   9  10
ATOM     10  C   UNL     1      12.124  -8.824 -23.806  1.00  0.00     0.006 C 
BRANCH  10  11
ATOM     11  C   UNL     1      13.606  -9.200 -23.677  1.00  0.00     0.053 C 
BRANCH  11  12
ATOM     12  C   UNL     1      14.327  -9.085 -24.985  1.00  0.00     0.041 C 
ATOM     13  O   UNL     1      14.465  -7.961 -25.535  1.00  0.00    -0.550 OA
ATOM     14  O   UNL     1      14.869 -10.215 -25.584  1.00  0.00    -0.550 OA
ENDBRANCH  11  12
ENDBRANCH  10  11
ENDBRANCH   9  10
ENDBRANCH   8   9
ENDBRANCH   7   8
ENDBRANCH   6   7
ENDBRANCH   5   6
ENDBRANCH   4   5
ENDBRANCH   3   4
ENDBRANCH   2   3
ENDBRANCH   1   2
BRANCH   1  15
ATOM     15  C   UNL     1       8.360  -7.304 -28.607  1.00  0.00     0.000 C 
BRANCH  15  16
ATOM     16  C   UNL     1       7.087  -6.571 -29.068  1.00  0.00     0.000 C 
BRANCH  16  17
ATOM     17  C   UNL     1       5.848  -7.481 -29.070  1.00  0.00     0.000 C 
BRANCH  17  18
ATOM     18  C   UNL     1       6.213  -8.976 -29.098  1.00  0.00    -0.000 C 
BRANCH  18  19
ATOM     19  C   UNL     1       5.804  -9.667 -30.412  1.00  0.00    -0.000 C 
BRANCH  19  20
ATOM     20  C   UNL     1       5.069  -8.768 -31.424  1.00  0.00    -0.000 C 
BRANCH  20  21
ATOM     21  C   UNL     1       5.929  -8.263 -32.598  1.00  0.00    -0.000 C 
BRANCH  21  22
ATOM     22  C   UNL     1       7.262  -9.024 -32.772  1.00  0.00    -0.000 C 
BRANCH  22  23
ATOM     23  C   UNL     1       8.489  -8.138 -32.489  1.00  0.00    -0.000 C 
BRANCH  23  24
ATOM     24  C   UNL     1       9.785  -8.950 -32.315  1.00  0.00    -0.000 C 
BRANCH  24  25
ATOM     25  C   UNL     1      10.133  -9.309 -30.860  1.00  0.00    -0.003 C 
ATOM     26  C   UNL     1       9.522 -10.635 -30.407  1.00  0.00     0.004 C 
ENDBRANCH  24  25
ENDBRANCH  23  24
ENDBRANCH  22  23
ENDBRANCH  21  22
ENDBRANCH  20  21
ENDBRANCH  19  20
ENDBRANCH  18  19
ENDBRANCH  17  18
ENDBRANCH  16  17
ENDBRANCH  15  16
ENDBRANCH   1  15
TORSDOF 22
ENDMDL
MODEL 9
REMARK VINA RESULT:    -5.307      9.108     12.160
REMARK INTER + INTRA:         -14.865
REMARK INTER:                 -10.511
REMARK INTRA:                  -4.354
REMARK UNBOUND:                -2.732
REMARK SMILES CCCCCCCCCCCCCCCCCCCCCCCC(=O)[O-]
REMARK SMILES IDX 13 1 14 2 15 3 16 4 17 5 18 6 19 7 20 8 21 9 22 10 23 11
REMARK SMILES IDX 24 12 25 13 26 14 12 15 11 16 10 17 9 18 8 19 7 20 6 21 5 22
REMARK SMILES IDX 4 23 3 24 2 25 1 26
REMARK H PARENT
REMARK Flexibility Score: inf
ROOT
ATOM      1  C   UNL     1       6.787  -7.650 -29.343  1.00  0.00     0.000 C 
ENDROOT
BRANCH   1   2
ATOM      2  C   UNL     1       8.314  -7.839 -29.304  1.00  0.00     0.000 C 
BRANCH   2   3
ATOM      3  C   UNL     1       8.915  -7.499 -27.930  1.00  0.00     0.000 C 
BRANCH   3   4
ATOM      4  C   UNL     1      10.449  -7.613 -27.908  1.00  0.00     0.000 C 
BRANCH   4   5
ATOM      5  C   UNL     1      10.932  -9.069 -27.998  1.00  0.00     0.000 C 
BRANCH   5   6
ATOM      6  C   UNL     1      10.069 -10.033 -27.164  1.00  0.00     0.000 C 
BRANCH   6   7
ATOM      7  C   UNL     1      10.606 -11.474 -27.183  1.00  0.00     0.000 C 
BRANCH   7   8
ATOM      8  C   UNL     1       9.798 -12.389 -28.119  1.00  0.00     0.000 C 
BRANCH   8   9
ATOM      9  C   UNL     1       8.557 -11.695 -28.701  1.00  0.00     0.000 C 
BRANCH   9  10
ATOM     10  C   UNL     1       8.643 -11.503 -30.225  1.00  0.00     0.006 C 
BRANCH  10  11
ATOM     11  C   UNL     1       9.740 -12.371 -30.857  1.00  0.00     0.053 C 
BRANCH  11  12
ATOM     12  C   UNL     1      10.668 -11.561 -31.710  1.00  0.00     0.041 C 
ATOM     13  O   UNL     1      11.037 -11.997 -32.833  1.00  0.00    -0.550 OA
ATOM     14  O   UNL     1      11.103 -10.314 -31.279  1.00  0.00    -0.550 OA
ENDBRANCH  11  12
ENDBRANCH  10  11
ENDBRANCH   9  10
ENDBRANCH   8   9
ENDBRANCH   7   8
ENDBRANCH   6   7
ENDBRANCH   5   6
ENDBRANCH   4   5
ENDBRANCH   3   4
ENDBRANCH   2   3
ENDBRANCH   1   2
BRANCH   1  15
ATOM     15  C   UNL     1       6.024  -8.980 -29.221  1.00  0.00     0.000 C 
BRANCH  15  16
ATOM     16  C   UNL     1       5.566  -9.523 -30.587  1.00  0.00     0.000 C 
BRANCH  16  17
ATOM     17  C   UNL     1       4.645  -8.545 -31.335  1.00  0.00     0.000 C 
BRANCH  17  18
ATOM     18  C   UNL     1       4.214  -9.077 -32.713  1.00  0.00    -0.000 C 
BRANCH  18  19
ATOM     19  C   UNL     1       4.113  -7.969 -33.777  1.00  0.00    -0.000 C 
BRANCH  19  20
ATOM     20  C   UNL     1       5.226  -7.980 -34.842  1.00  0.00    -0.000 C 
BRANCH  20  21
ATOM     21  C   UNL     1       6.248  -6.832 -34.735  1.00  0.00    -0.000 C 
BRANCH  21  22
ATOM     22  C   UNL     1       6.892  -6.695 -33.338  1.00  0.00    -0.000 C 
BRANCH  22  23
ATOM     23  C   UNL     1       8.286  -7.345 -33.264  1.00  0.00    -0.000 C 
BRANCH  23  24
ATOM     24  C   UNL     1       8.239  -8.811 -32.797  1.00  0.00    -0.000 C 
BRANCH  24  25
ATOM     25  C   UNL     1       8.249  -9.851 -33.932  1.00  0.00    -0.003 C 
ATOM     26  C   UNL     1       7.300 -11.022 -33.680  1.00  0.00     0.004 C 
ENDBRANCH  24  25
ENDBRANCH  23  24
ENDBRANCH  22  23
ENDBRANCH  21  22
ENDBRANCH  20  21
ENDBRANCH  19  20
ENDBRANCH  18  19
ENDBRANCH  17  18
ENDBRANCH  16  17
ENDBRANCH  15  16
ENDBRANCH   1  15
TORSDOF 22
ENDMDL
