MODEL 1
REMARK VINA RESULT:    -3.852      0.000      0.000
REMARK INTER + INTRA:          -7.216
REMARK INTER:                  -5.316
REMARK INTRA:                  -1.900
REMARK UNBOUND:                -1.900
REMARK SMILES CC[C@H](CC[C@@H](C)[C@@H]1CC[C@H]2[C@H]3CC=C4C[C@H](O)CC[C@@]4(C)[C@H]3CC[C@]21C)C(C)C
REMARK SMILES IDX 5 1 4 2 3 3 2 4 1 5 28 6 29 7 30 8 6 9 7 10 8 11 9 12 26 13
REMARK SMILES IDX 10 14 11 15 25 16 27 17 12 18 24 19 23 20 13 21 21 22 14 23
REMARK SMILES IDX 15 24 20 25 22 26 16 27 19 28 17 29 18 30
REMARK H PARENT 18 31
REMARK Flexibility Score: inf
ROOT
ATOM      1  C   UNL     1      -7.350   9.883   6.082  1.00  0.00     0.004 C 
ENDROOT
BRANCH   1   2
ATOM      2  C   UNL     1      -6.949  10.124   7.553  1.00  0.00     0.004 C 
BRANCH   2   3
ATOM      3  C   UNL     1      -7.686   9.218   8.589  1.00  0.00    -0.009 C 
BRANCH   3   4
ATOM      4  C   UNL     1      -8.282   7.943   7.927  1.00  0.00     0.000 C 
ATOM      5  C   UNL     1      -9.638   7.527   8.502  1.00  0.00     0.004 C 
ENDBRANCH   3   4
BRANCH   3   6
ATOM      6  C   UNL     1      -6.806   8.863   9.841  1.00  0.00    -0.014 C 
ATOM      7  C   UNL     1      -6.428   7.370   9.884  1.00  0.00     0.007 C 
ATOM      8  C   UNL     1      -5.508   9.694   9.889  1.00  0.00     0.007 C 
ENDBRANCH   3   6
ENDBRANCH   2   3
ENDBRANCH   1   2
BRANCH   1   9
ATOM      9  C   UNL     1      -6.186   9.267   5.249  1.00  0.00    -0.011 C 
ATOM     10  C   UNL     1      -6.015  10.115   3.967  1.00  0.00     0.008 C 
BRANCH   9  11
ATOM     11  C   UNL     1      -4.872   9.144   6.121  1.00  0.00    -0.002 C 
ATOM     12  C   UNL     1      -3.692   9.964   5.568  1.00  0.00     0.005 C 
ATOM     13  C   UNL     1      -4.250   7.690   6.248  1.00  0.00    -0.026 C 
ATOM     14  C   UNL     1      -3.018   9.054   4.566  1.00  0.00     0.005 C 
ATOM     15  C   UNL     1      -3.109   7.646   5.172  1.00  0.00    -0.001 C 
ATOM     16  C   UNL     1      -3.666   7.522   7.680  1.00  0.00     0.007 C 
ATOM     17  C   UNL     1      -5.256   6.523   6.020  1.00  0.00     0.012 C 
ATOM     18  C   UNL     1      -1.732   7.057   5.650  1.00  0.00     0.000 C 
ATOM     19  C   UNL     1      -2.758   6.287   7.860  1.00  0.00     0.005 C 
ATOM     20  C   UNL     1      -1.955   5.852   6.593  1.00  0.00     0.003 C 
ATOM     21  C   UNL     1      -0.727   8.067   6.273  1.00  0.00     0.031 C 
ATOM     22  C   UNL     1      -0.594   5.131   6.929  1.00  0.00    -0.008 C 
ATOM     23  C   UNL     1       0.380   7.439   7.089  1.00  0.00    -0.027 C 
ATOM     24  C   UNL     1       0.410   6.144   7.477  1.00  0.00    -0.065 C 
ATOM     25  C   UNL     1      -0.833   3.971   7.956  1.00  0.00     0.014 C 
ATOM     26  C   UNL     1       0.008   4.511   5.638  1.00  0.00     0.016 C 
ATOM     27  C   UNL     1       1.619   5.644   8.242  1.00  0.00     0.063 C 
ATOM     28  C   UNL     1       0.455   3.442   8.607  1.00  0.00     0.033 C 
ATOM     29  C   UNL     1       1.228   4.582   9.275  1.00  0.00     0.118 C 
BRANCH  29  30
ATOM     30  O   UNL     1       2.380   4.059   9.882  1.00  0.00    -0.393 OA
ATOM     31  H   UNL     1       2.176   3.963  10.849  1.00  0.00     0.210 HD
ENDBRANCH  29  30
ENDBRANCH   9  11
ENDBRANCH   1   9
TORSDOF 7
ENDMDL
MODEL 2
REMARK VINA RESULT:    -3.330     16.266     18.902
REMARK INTER + INTRA:          -6.495
REMARK INTER:                  -6.314
REMARK INTRA:                  -0.181
REMARK UNBOUND:                -1.900
REMARK SMILES CC[C@H](CC[C@@H](C)[C@@H]1CC[C@H]2[C@H]3CC=C4C[C@H](O)CC[C@@]4(C)[C@H]3CC[C@]21C)C(C)C
REMARK SMILES IDX 5 1 4 2 3 3 2 4 1 5 28 6 29 7 30 8 6 9 7 10 8 11 9 12 26 13
REMARK SMILES IDX 10 14 11 15 25 16 27 17 12 18 24 19 23 20 13 21 21 22 14 23
REMARK SMILES IDX 15 24 20 25 22 26 16 27 19 28 17 29 18 30
REMARK H PARENT 18 31
REMARK Flexibility Score: inf
ROOT
ATOM      1  C   UNL     1      -7.677  -5.046  -9.726  1.00  0.00     0.004 C 
ENDROOT
BRANCH   1   2
ATOM      2  C   UNL     1      -6.584  -5.974  -9.154  1.00  0.00     0.004 C 
BRANCH   2   3
ATOM      3  C   UNL     1      -5.431  -5.239  -8.402  1.00  0.00    -0.009 C 
BRANCH   3   4
ATOM      4  C   UNL     1      -4.115  -6.069  -8.401  1.00  0.00     0.000 C 
ATOM      5  C   UNL     1      -4.312  -7.535  -8.795  1.00  0.00     0.004 C 
ENDBRANCH   3   4
BRANCH   3   6
ATOM      6  C   UNL     1      -5.191  -3.773  -8.912  1.00  0.00    -0.014 C 
ATOM      7  C   UNL     1      -4.770  -2.821  -7.776  1.00  0.00     0.007 C 
ATOM      8  C   UNL     1      -4.116  -3.716 -10.017  1.00  0.00     0.007 C 
ENDBRANCH   3   6
ENDBRANCH   2   3
ENDBRANCH   1   2
BRANCH   1   9
ATOM      9  C   UNL     1      -9.057  -5.267  -9.036  1.00  0.00    -0.011 C 
ATOM     10  C   UNL     1      -8.865  -6.303  -7.905  1.00  0.00     0.008 C 
BRANCH   9  11
ATOM     11  C   UNL     1      -9.673  -3.891  -8.553  1.00  0.00    -0.002 C 
ATOM     12  C   UNL     1      -9.549  -2.766  -9.596  1.00  0.00     0.005 C 
ATOM     13  C   UNL     1      -9.011  -3.241  -7.267  1.00  0.00    -0.026 C 
ATOM     14  C   UNL     1      -8.189  -2.153  -9.351  1.00  0.00     0.005 C 
ATOM     15  C   UNL     1      -8.000  -2.180  -7.828  1.00  0.00    -0.001 C 
ATOM     16  C   UNL     1     -10.125  -2.554  -6.427  1.00  0.00     0.007 C 
ATOM     17  C   UNL     1      -8.278  -4.245  -6.328  1.00  0.00     0.012 C 
ATOM     18  C   UNL     1      -8.037  -0.764  -7.146  1.00  0.00     0.000 C 
ATOM     19  C   UNL     1      -9.603  -1.618  -5.316  1.00  0.00     0.005 C 
ATOM     20  C   UNL     1      -8.249  -0.901  -5.620  1.00  0.00     0.003 C 
ATOM     21  C   UNL     1      -9.030   0.268  -7.750  1.00  0.00     0.031 C 
ATOM     22  C   UNL     1      -8.097   0.490  -4.895  1.00  0.00    -0.008 C 
ATOM     23  C   UNL     1      -9.353   1.440  -6.851  1.00  0.00    -0.027 C 
ATOM     24  C   UNL     1      -9.027   1.516  -5.541  1.00  0.00    -0.065 C 
ATOM     25  C   UNL     1      -8.405   0.342  -3.365  1.00  0.00     0.014 C 
ATOM     26  C   UNL     1      -6.639   1.007  -5.043  1.00  0.00     0.016 C 
ATOM     27  C   UNL     1      -9.366   2.784  -4.782  1.00  0.00     0.063 C 
ATOM     28  C   UNL     1      -8.626   1.681  -2.644  1.00  0.00     0.033 C 
ATOM     29  C   UNL     1      -9.737   2.483  -3.326  1.00  0.00     0.118 C 
BRANCH  29  30
ATOM     30  O   UNL     1      -9.930   3.683  -2.625  1.00  0.00    -0.393 OA
ATOM     31  H   UNL     1     -10.896   3.733  -2.402  1.00  0.00     0.210 HD
ENDBRANCH  29  30
ENDBRANCH   9  11
ENDBRANCH   1   9
TORSDOF 7
ENDMDL
MODEL 3
REMARK VINA RESULT:    -2.700      1.534      3.748
REMARK INTER + INTRA:          -5.626
REMARK INTER:                  -5.485
REMARK INTRA:                  -0.141
REMARK UNBOUND:                -1.900
REMARK SMILES CC[C@H](CC[C@@H](C)[C@@H]1CC[C@H]2[C@H]3CC=C4C[C@H](O)CC[C@@]4(C)[C@H]3CC[C@]21C)C(C)C
REMARK SMILES IDX 5 1 4 2 3 3 2 4 1 5 28 6 29 7 30 8 6 9 7 10 8 11 9 12 26 13
REMARK SMILES IDX 10 14 11 15 25 16 27 17 12 18 24 19 23 20 13 21 21 22 14 23
REMARK SMILES IDX 15 24 20 25 22 26 16 27 19 28 17 29 18 30
REMARK H PARENT 18 31
REMARK Flexibility Score: inf
ROOT
ATOM      1  C   UNL     1      -6.588   7.215   6.370  1.00  0.00     0.004 C 
ENDROOT
BRANCH   1   2
ATOM      2  C   UNL     1      -6.387   8.431   5.440  1.00  0.00     0.004 C 
BRANCH   2   3
ATOM      3  C   UNL     1      -4.979   8.519   4.773  1.00  0.00    -0.009 C 
BRANCH   3   4
ATOM      4  C   UNL     1      -4.719   7.332   3.802  1.00  0.00     0.000 C 
ATOM      5  C   UNL     1      -3.297   6.771   3.882  1.00  0.00     0.004 C 
ENDBRANCH   3   4
BRANCH   3   6
ATOM      6  C   UNL     1      -4.704   9.903   4.083  1.00  0.00    -0.014 C 
ATOM      7  C   UNL     1      -3.235  10.052   3.638  1.00  0.00     0.007 C 
ATOM      8  C   UNL     1      -5.608  10.125   2.854  1.00  0.00     0.007 C 
ENDBRANCH   3   6
ENDBRANCH   2   3
ENDBRANCH   1   2
BRANCH   1   9
ATOM      9  C   UNL     1      -6.826   7.640   7.850  1.00  0.00    -0.011 C 
ATOM     10  C   UNL     1      -8.154   7.003   8.322  1.00  0.00     0.008 C 
BRANCH   9  11
ATOM     11  C   UNL     1      -5.578   7.273   8.751  1.00  0.00    -0.002 C 
ATOM     12  C   UNL     1      -4.775   8.502   9.214  1.00  0.00     0.005 C 
ATOM     13  C   UNL     1      -4.465   6.372   8.070  1.00  0.00    -0.026 C 
ATOM     14  C   UNL     1      -3.792   8.770   8.098  1.00  0.00     0.005 C 
ATOM     15  C   UNL     1      -3.367   7.385   7.590  1.00  0.00    -0.001 C 
ATOM     16  C   UNL     1      -3.890   5.398   9.139  1.00  0.00     0.007 C 
ATOM     17  C   UNL     1      -4.962   5.505   6.875  1.00  0.00     0.012 C 
ATOM     18  C   UNL     1      -1.879   7.000   7.927  1.00  0.00     0.000 C 
ATOM     19  C   UNL     1      -2.593   4.677   8.715  1.00  0.00     0.005 C 
ATOM     20  C   UNL     1      -1.660   5.480   7.754  1.00  0.00     0.003 C 
ATOM     21  C   UNL     1      -1.334   7.485   9.300  1.00  0.00     0.031 C 
ATOM     22  C   UNL     1      -0.136   5.103   7.899  1.00  0.00    -0.008 C 
ATOM     23  C   UNL     1      -0.090   6.770   9.776  1.00  0.00    -0.027 C 
ATOM     24  C   UNL     1       0.409   5.643   9.220  1.00  0.00    -0.065 C 
ATOM     25  C   UNL     1       0.052   3.550   7.811  1.00  0.00     0.014 C 
ATOM     26  C   UNL     1       0.680   5.750   6.745  1.00  0.00     0.016 C 
ATOM     27  C   UNL     1       1.702   5.074   9.772  1.00  0.00     0.063 C 
ATOM     28  C   UNL     1       1.430   3.062   8.284  1.00  0.00     0.033 C 
ATOM     29  C   UNL     1       1.710   3.543   9.710  1.00  0.00     0.118 C 
BRANCH  29  30
ATOM     30  O   UNL     1       2.961   3.056  10.118  1.00  0.00    -0.393 OA
ATOM     31  H   UNL     1       3.050   3.265  11.085  1.00  0.00     0.210 HD
ENDBRANCH  29  30
ENDBRANCH   9  11
ENDBRANCH   1   9
TORSDOF 7
ENDMDL
MODEL 4
REMARK VINA RESULT:    -2.043      1.211      2.615
REMARK INTER + INTRA:          -4.719
REMARK INTER:                  -5.917
REMARK INTRA:                   1.198
REMARK UNBOUND:                -1.900
REMARK SMILES CC[C@H](CC[C@@H](C)[C@@H]1CC[C@H]2[C@H]3CC=C4C[C@H](O)CC[C@@]4(C)[C@H]3CC[C@]21C)C(C)C
REMARK SMILES IDX 5 1 4 2 3 3 2 4 1 5 28 6 29 7 30 8 6 9 7 10 8 11 9 12 26 13
REMARK SMILES IDX 10 14 11 15 25 16 27 17 12 18 24 19 23 20 13 21 21 22 14 23
REMARK SMILES IDX 15 24 20 25 22 26 16 27 19 28 17 29 18 30
REMARK H PARENT 18 31
REMARK Flexibility Score: inf
ROOT
ATOM      1  C   UNL     1      -5.969   9.341   6.125  1.00  0.00     0.004 C 
ENDROOT
BRANCH   1   2
ATOM      2  C   UNL     1      -7.381   9.948   6.278  1.00  0.00     0.004 C 
BRANCH   2   3
ATOM      3  C   UNL     1      -8.163   9.473   7.542  1.00  0.00    -0.009 C 
BRANCH   3   4
ATOM      4  C   UNL     1      -8.216   7.922   7.645  1.00  0.00     0.000 C 
ATOM      5  C   UNL     1      -9.513   7.389   8.259  1.00  0.00     0.004 C 
ENDBRANCH   3   4
BRANCH   3   6
ATOM      6  C   UNL     1      -7.646  10.125   8.874  1.00  0.00    -0.014 C 
ATOM      7  C   UNL     1      -8.720  10.125   9.979  1.00  0.00     0.007 C 
ATOM      8  C   UNL     1      -6.391   9.411   9.417  1.00  0.00     0.007 C 
ENDBRANCH   3   6
ENDBRANCH   2   3
ENDBRANCH   1   2
BRANCH   1   9
ATOM      9  C   UNL     1      -5.905   8.278   4.987  1.00  0.00    -0.011 C 
ATOM     10  C   UNL     1      -5.291   8.951   3.739  1.00  0.00     0.008 C 
BRANCH   9  11
ATOM     11  C   UNL     1      -5.134   6.983   5.468  1.00  0.00    -0.002 C 
ATOM     12  C   UNL     1      -5.765   6.319   6.705  1.00  0.00     0.005 C 
ATOM     13  C   UNL     1      -3.629   7.192   5.921  1.00  0.00    -0.026 C 
ATOM     14  C   UNL     1      -5.149   7.029   7.888  1.00  0.00     0.005 C 
ATOM     15  C   UNL     1      -3.692   7.299   7.486  1.00  0.00    -0.001 C 
ATOM     16  C   UNL     1      -2.799   5.951   5.484  1.00  0.00     0.007 C 
ATOM     17  C   UNL     1      -2.931   8.449   5.321  1.00  0.00     0.012 C 
ATOM     18  C   UNL     1      -2.634   6.446   8.278  1.00  0.00     0.000 C 
ATOM     19  C   UNL     1      -1.396   5.864   6.120  1.00  0.00     0.005 C 
ATOM     20  C   UNL     1      -1.268   6.468   7.554  1.00  0.00     0.003 C 
ATOM     21  C   UNL     1      -3.046   4.991   8.635  1.00  0.00     0.031 C 
ATOM     22  C   UNL     1      -0.148   5.783   8.427  1.00  0.00    -0.008 C 
ATOM     23  C   UNL     1      -1.898   4.079   9.007  1.00  0.00    -0.027 C 
ATOM     24  C   UNL     1      -0.592   4.378   8.831  1.00  0.00    -0.065 C 
ATOM     25  C   UNL     1       1.205   5.736   7.638  1.00  0.00     0.014 C 
ATOM     26  C   UNL     1       0.084   6.603   9.727  1.00  0.00     0.016 C 
ATOM     27  C   UNL     1       0.449   3.385   9.310  1.00  0.00     0.063 C 
ATOM     28  C   UNL     1       2.250   4.791   8.250  1.00  0.00     0.033 C 
ATOM     29  C   UNL     1       1.678   3.378   8.394  1.00  0.00     0.118 C 
BRANCH  29  30
ATOM     30  O   UNL     1       2.666   2.537   8.928  1.00  0.00    -0.393 OA
ATOM     31  H   UNL     1       3.502   3.072   8.978  1.00  0.00     0.210 HD
ENDBRANCH  29  30
ENDBRANCH   9  11
ENDBRANCH   1   9
TORSDOF 7
ENDMDL
MODEL 5
REMARK VINA RESULT:    -1.528      2.844      7.545
REMARK INTER + INTRA:          -4.009
REMARK INTER:                  -4.036
REMARK INTRA:                   0.028
REMARK UNBOUND:                -1.900
REMARK SMILES CC[C@H](CC[C@@H](C)[C@@H]1CC[C@H]2[C@H]3CC=C4C[C@H](O)CC[C@@]4(C)[C@H]3CC[C@]21C)C(C)C
REMARK SMILES IDX 5 1 4 2 3 3 2 4 1 5 28 6 29 7 30 8 6 9 7 10 8 11 9 12 26 13
REMARK SMILES IDX 10 14 11 15 25 16 27 17 12 18 24 19 23 20 13 21 21 22 14 23
REMARK SMILES IDX 15 24 20 25 22 26 16 27 19 28 17 29 18 30
REMARK H PARENT 18 31
REMARK Flexibility Score: inf
ROOT
ATOM      1  C   UNL     1      -0.048   5.152   7.294  1.00  0.00     0.004 C 
ENDROOT
BRANCH   1   2
ATOM      2  C   UNL     1       1.255   5.669   7.942  1.00  0.00     0.004 C 
BRANCH   2   3
ATOM      3  C   UNL     1       1.253   5.669   9.503  1.00  0.00    -0.009 C 
BRANCH   3   4
ATOM      4  C   UNL     1       0.118   6.560  10.084  1.00  0.00     0.000 C 
ATOM      5  C   UNL     1       0.302   8.054   9.801  1.00  0.00     0.004 C 
ENDBRANCH   3   4
BRANCH   3   6
ATOM      6  C   UNL     1       1.233   4.227  10.125  1.00  0.00    -0.014 C 
ATOM      7  C   UNL     1      -0.179   3.611  10.125  1.00  0.00     0.007 C 
ATOM      8  C   UNL     1       2.182   3.265   9.382  1.00  0.00     0.007 C 
ENDBRANCH   3   6
ENDBRANCH   2   3
ENDBRANCH   1   2
BRANCH   1   9
ATOM      9  C   UNL     1      -0.137   5.516   5.782  1.00  0.00    -0.011 C 
ATOM     10  C   UNL     1       0.074   4.220   4.965  1.00  0.00     0.008 C 
BRANCH   9  11
ATOM     11  C   UNL     1      -1.492   6.268   5.461  1.00  0.00    -0.002 C 
ATOM     12  C   UNL     1      -1.295   7.742   5.066  1.00  0.00     0.005 C 
ATOM     13  C   UNL     1      -2.535   6.368   6.651  1.00  0.00    -0.026 C 
ATOM     14  C   UNL     1      -1.276   8.499   6.374  1.00  0.00     0.005 C 
ATOM     15  C   UNL     1      -2.307   7.794   7.266  1.00  0.00    -0.001 C 
ATOM     16  C   UNL     1      -3.971   6.240   6.067  1.00  0.00     0.007 C 
ATOM     17  C   UNL     1      -2.385   5.274   7.750  1.00  0.00     0.012 C 
ATOM     18  C   UNL     1      -3.604   8.638   7.549  1.00  0.00     0.000 C 
ATOM     19  C   UNL     1      -5.097   6.626   7.049  1.00  0.00     0.005 C 
ATOM     20  C   UNL     1      -4.734   7.732   8.090  1.00  0.00     0.003 C 
ATOM     21  C   UNL     1      -4.119   9.525   6.381  1.00  0.00     0.031 C 
ATOM     22  C   UNL     1      -5.974   8.585   8.559  1.00  0.00    -0.008 C 
ATOM     23  C   UNL     1      -5.553   9.984   6.518  1.00  0.00    -0.027 C 
ATOM     24  C   UNL     1      -6.430   9.504   7.427  1.00  0.00    -0.065 C 
ATOM     25  C   UNL     1      -7.139   7.643   9.018  1.00  0.00     0.014 C 
ATOM     26  C   UNL     1      -5.574   9.477   9.768  1.00  0.00     0.016 C 
ATOM     27  C   UNL     1      -7.820  10.107   7.482  1.00  0.00     0.063 C 
ATOM     28  C   UNL     1      -8.494   8.354   9.159  1.00  0.00     0.033 C 
ATOM     29  C   UNL     1      -8.872   9.056   7.852  1.00  0.00     0.118 C 
BRANCH  29  30
ATOM     30  O   UNL     1     -10.125   9.668   8.008  1.00  0.00    -0.393 OA
ATOM     31  H   UNL     1     -10.018  10.615   7.728  1.00  0.00     0.210 HD
ENDBRANCH  29  30
ENDBRANCH   9  11
ENDBRANCH   1   9
TORSDOF 7
ENDMDL
MODEL 6
REMARK VINA RESULT:    -1.244      2.908      7.597
REMARK INTER + INTRA:          -3.617
REMARK INTER:                  -4.405
REMARK INTRA:                   0.788
REMARK UNBOUND:                -1.900
REMARK SMILES CC[C@H](CC[C@@H](C)[C@@H]1CC[C@H]2[C@H]3CC=C4C[C@H](O)CC[C@@]4(C)[C@H]3CC[C@]21C)C(C)C
REMARK SMILES IDX 5 1 4 2 3 3 2 4 1 5 28 6 29 7 30 8 6 9 7 10 8 11 9 12 26 13
REMARK SMILES IDX 10 14 11 15 25 16 27 17 12 18 24 19 23 20 13 21 21 22 14 23
REMARK SMILES IDX 15 24 20 25 22 26 16 27 19 28 17 29 18 30
REMARK H PARENT 18 31
REMARK Flexibility Score: inf
ROOT
ATOM      1  C   UNL     1       0.347   7.632   6.242  1.00  0.00     0.004 C 
ENDROOT
BRANCH   1   2
ATOM      2  C   UNL     1       0.862   7.006   7.556  1.00  0.00     0.004 C 
BRANCH   2   3
ATOM      3  C   UNL     1       1.105   5.466   7.497  1.00  0.00    -0.009 C 
BRANCH   3   4
ATOM      4  C   UNL     1       1.755   4.928   8.803  1.00  0.00     0.000 C 
ATOM      5  C   UNL     1       2.355   3.526   8.661  1.00  0.00     0.004 C 
ENDBRANCH   3   4
BRANCH   3   6
ATOM      6  C   UNL     1      -0.180   4.649   7.110  1.00  0.00    -0.014 C 
ATOM      7  C   UNL     1      -1.406   5.056   7.951  1.00  0.00     0.007 C 
ATOM      8  C   UNL     1      -0.539   4.809   5.619  1.00  0.00     0.007 C 
ENDBRANCH   3   6
ENDBRANCH   2   3
ENDBRANCH   1   2
BRANCH   1   9
ATOM      9  C   UNL     1       0.475   9.185   6.240  1.00  0.00    -0.011 C 
ATOM     10  C   UNL     1       0.754   9.639   4.789  1.00  0.00     0.008 C 
BRANCH   9  11
ATOM     11  C   UNL     1      -0.802   9.856   6.892  1.00  0.00    -0.002 C 
ATOM     12  C   UNL     1      -0.662  10.091   8.407  1.00  0.00     0.005 C 
ATOM     13  C   UNL     1      -2.153   9.032   6.795  1.00  0.00    -0.026 C 
ATOM     14  C   UNL     1      -1.114   8.797   9.046  1.00  0.00     0.005 C 
ATOM     15  C   UNL     1      -2.276   8.298   8.177  1.00  0.00    -0.001 C 
ATOM     16  C   UNL     1      -3.330  10.028   6.590  1.00  0.00     0.007 C 
ATOM     17  C   UNL     1      -2.211   8.002   5.627  1.00  0.00     0.012 C 
ATOM     18  C   UNL     1      -3.684   8.373   8.874  1.00  0.00     0.000 C 
ATOM     19  C   UNL     1      -4.731   9.411   6.787  1.00  0.00     0.005 C 
ATOM     20  C   UNL     1      -4.815   8.249   7.827  1.00  0.00     0.003 C 
ATOM     21  C   UNL     1      -3.928   9.590   9.809  1.00  0.00     0.031 C 
ATOM     22  C   UNL     1      -6.225   8.128   8.521  1.00  0.00    -0.008 C 
ATOM     23  C   UNL     1      -5.381   9.866  10.125  1.00  0.00    -0.027 C 
ATOM     24  C   UNL     1      -6.428   9.291   9.491  1.00  0.00    -0.065 C 
ATOM     25  C   UNL     1      -7.362   8.094   7.443  1.00  0.00     0.014 C 
ATOM     26  C   UNL     1      -6.300   6.807   9.338  1.00  0.00     0.016 C 
ATOM     27  C   UNL     1      -7.831   9.624   9.960  1.00  0.00     0.063 C 
ATOM     28  C   UNL     1      -8.768   8.329   8.015  1.00  0.00     0.033 C 
ATOM     29  C   UNL     1      -8.821   9.648   8.791  1.00  0.00     0.118 C 
BRANCH  29  30
ATOM     30  O   UNL     1     -10.124   9.842   9.273  1.00  0.00    -0.393 OA
ATOM     31  H   UNL     1     -10.742   9.491   8.579  1.00  0.00     0.210 HD
ENDBRANCH  29  30
ENDBRANCH   9  11
ENDBRANCH   1   9
TORSDOF 7
ENDMDL
MODEL 7
REMARK VINA RESULT:    -1.240      2.667      7.498
REMARK INTER + INTRA:          -3.611
REMARK INTER:                  -2.569
REMARK INTRA:                  -1.042
REMARK UNBOUND:                -1.900
REMARK SMILES CC[C@H](CC[C@@H](C)[C@@H]1CC[C@H]2[C@H]3CC=C4C[C@H](O)CC[C@@]4(C)[C@H]3CC[C@]21C)C(C)C
REMARK SMILES IDX 5 1 4 2 3 3 2 4 1 5 28 6 29 7 30 8 6 9 7 10 8 11 9 12 26 13
REMARK SMILES IDX 10 14 11 15 25 16 27 17 12 18 24 19 23 20 13 21 21 22 14 23
REMARK SMILES IDX 15 24 20 25 22 26 16 27 19 28 17 29 18 30
REMARK H PARENT 18 31
REMARK Flexibility Score: inf
ROOT
ATOM      1  C   UNL     1       1.290   8.110   7.343  1.00  0.00     0.004 C 
ENDROOT
BRANCH   1   2
ATOM      2  C   UNL     1       0.666   7.161   8.389  1.00  0.00     0.004 C 
BRANCH   2   3
ATOM      3  C   UNL     1       0.816   5.641   8.064  1.00  0.00    -0.009 C 
BRANCH   3   4
ATOM      4  C   UNL     1       1.722   4.912   9.096  1.00  0.00     0.000 C 
ATOM      5  C   UNL     1       2.731   3.952   8.460  1.00  0.00     0.004 C 
ENDBRANCH   3   4
BRANCH   3   6
ATOM      6  C   UNL     1      -0.561   4.907   7.880  1.00  0.00    -0.014 C 
ATOM      7  C   UNL     1      -0.753   4.378   6.445  1.00  0.00     0.007 C 
ATOM      8  C   UNL     1      -0.719   3.725   8.858  1.00  0.00     0.007 C 
ENDBRANCH   3   6
ENDBRANCH   2   3
ENDBRANCH   1   2
BRANCH   1   9
ATOM      9  C   UNL     1       0.208   8.837   6.489  1.00  0.00    -0.011 C 
ATOM     10  C   UNL     1       0.810   9.115   5.092  1.00  0.00     0.008 C 
BRANCH   9  11
ATOM     11  C   UNL     1      -1.138   8.004   6.457  1.00  0.00    -0.002 C 
ATOM     12  C   UNL     1      -1.853   8.050   5.095  1.00  0.00     0.005 C 
ATOM     13  C   UNL     1      -2.275   8.474   7.459  1.00  0.00    -0.026 C 
ATOM     14  C   UNL     1      -2.714   9.292   5.147  1.00  0.00     0.005 C 
ATOM     15  C   UNL     1      -3.228   9.369   6.592  1.00  0.00    -0.001 C 
ATOM     16  C   UNL     1      -3.024   7.217   7.986  1.00  0.00     0.007 C 
ATOM     17  C   UNL     1      -1.769   9.266   8.701  1.00  0.00     0.012 C 
ATOM     18  C   UNL     1      -4.768   9.088   6.746  1.00  0.00     0.000 C 
ATOM     19  C   UNL     1      -4.346   7.523   8.721  1.00  0.00     0.005 C 
ATOM     20  C   UNL     1      -5.118   8.784   8.222  1.00  0.00     0.003 C 
ATOM     21  C   UNL     1      -5.372   8.011   5.803  1.00  0.00     0.031 C 
ATOM     22  C   UNL     1      -6.678   8.691   8.430  1.00  0.00    -0.008 C 
ATOM     23  C   UNL     1      -6.713   7.466   6.239  1.00  0.00    -0.027 C 
ATOM     24  C   UNL     1      -7.273   7.679   7.451  1.00  0.00    -0.065 C 
ATOM     25  C   UNL     1      -7.006   8.294   9.910  1.00  0.00     0.014 C 
ATOM     26  C   UNL     1      -7.333  10.071   8.148  1.00  0.00     0.016 C 
ATOM     27  C   UNL     1      -8.654   7.116   7.721  1.00  0.00     0.063 C 
ATOM     28  C   UNL     1      -8.458   7.839  10.125  1.00  0.00     0.033 C 
ATOM     29  C   UNL     1      -8.804   6.682   9.184  1.00  0.00     0.118 C 
BRANCH  29  30
ATOM     30  O   UNL     1     -10.125   6.275   9.427  1.00  0.00    -0.393 OA
ATOM     31  H   UNL     1     -10.694   6.727   8.750  1.00  0.00     0.210 HD
ENDBRANCH  29  30
ENDBRANCH   9  11
ENDBRANCH   1   9
TORSDOF 7
ENDMDL
