MODEL 1
REMARK VINA RESULT:    -6.441      0.000      0.000
REMARK INTER + INTRA:          -7.807
REMARK INTER:                  -7.571
REMARK INTRA:                  -0.236
REMARK UNBOUND:                -0.236
REMARK SMILES O=c1c(O)c(-c2ccc(O)cc2)oc2cc(O)cc(O)c12
REMARK SMILES IDX 5 1 3 2 2 3 1 4 21 5 19 6 18 7 16 8 15 9 14 10 13 11 6 12
REMARK SMILES IDX 7 13 8 14 9 15 12 16 11 17 10 18 4 20 20 22 17 24
REMARK H PARENT 10 19 4 21 20 23 17 25
REMARK Flexibility Score: inf
ROOT
ATOM      1  C   UNL     1     253.582 -24.338  46.834  1.00  0.00     0.180 A 
ATOM      2  C   UNL     1     252.532 -23.589  46.275  1.00  0.00     0.208 A 
ATOM      3  C   UNL     1     252.500 -23.393  44.885  1.00  0.00     0.238 A 
ATOM      4  O   UNL     1     251.528 -22.768  44.385  1.00  0.00    -0.285 OA
ATOM      5  C   UNL     1     253.527 -23.932  44.073  1.00  0.00     0.111 A 
ATOM      6  C   UNL     1     253.616 -23.761  42.659  1.00  0.00     0.134 A 
ATOM      7  C   UNL     1     254.602 -24.450  41.942  1.00  0.00     0.093 A 
ATOM      8  C   UNL     1     255.542 -25.250  42.596  1.00  0.00     0.123 A 
ATOM      9  C   UNL     1     255.500 -25.376  43.981  1.00  0.00     0.094 A 
ATOM     10  C   UNL     1     254.505 -24.731  44.722  1.00  0.00     0.146 A 
ATOM     11  O   UNL     1     254.493 -24.886  46.040  1.00  0.00    -0.452 OA
ENDROOT
BRANCH   1  12
ATOM     12  C   UNL     1     253.698 -24.565  48.293  1.00  0.00     0.021 A 
ATOM     13  C   UNL     1     254.644 -23.875  49.070  1.00  0.00     0.016 A 
ATOM     14  C   UNL     1     254.750 -24.125  50.442  1.00  0.00     0.047 A 
ATOM     15  C   UNL     1     253.922 -25.076  51.050  1.00  0.00     0.115 A 
ATOM     16  C   UNL     1     252.884 -25.533  48.907  1.00  0.00     0.016 A 
ATOM     17  C   UNL     1     252.991 -25.780  50.280  1.00  0.00     0.047 A 
BRANCH  15  18
ATOM     18  O   UNL     1     254.018 -25.332  52.417  1.00  0.00    -0.508 OA
ATOM     19  H   UNL     1     254.872 -25.687  52.831  1.00  0.00     0.293 HD
ENDBRANCH  15  18
ENDBRANCH   1  12
BRANCH   2  20
ATOM     20  O   UNL     1     251.516 -23.083  47.092  1.00  0.00    -0.502 OA
ATOM     21  H   UNL     1     250.535 -23.185  46.865  1.00  0.00     0.293 HD
ENDBRANCH   2  20
BRANCH   6  22
ATOM     22  O   UNL     1     252.786 -22.913  41.922  1.00  0.00    -0.507 OA
ATOM     23  H   UNL     1     251.823 -22.712  42.147  1.00  0.00     0.293 HD
ENDBRANCH   6  22
BRANCH   8  24
ATOM     24  O   UNL     1     256.529 -25.919  41.875  1.00  0.00    -0.508 OA
ATOM     25  H   UNL     1     257.282 -25.419  41.417  1.00  0.00     0.293 HD
ENDBRANCH   8  24
TORSDOF 5
ENDMDL
MODEL 2
REMARK VINA RESULT:    -6.329     13.374     15.005
REMARK INTER + INTRA:          -7.675
REMARK INTER:                  -7.388
REMARK INTRA:                  -0.287
REMARK UNBOUND:                -0.236
REMARK SMILES O=c1c(O)c(-c2ccc(O)cc2)oc2cc(O)cc(O)c12
REMARK SMILES IDX 5 1 3 2 2 3 1 4 21 5 19 6 18 7 16 8 15 9 14 10 13 11 6 12
REMARK SMILES IDX 7 13 8 14 9 15 12 16 11 17 10 18 4 20 20 22 17 24
REMARK H PARENT 10 19 4 21 20 23 17 25
REMARK Flexibility Score: inf
ROOT
ATOM      1  C   UNL     1     262.136 -28.071  57.572  1.00  0.00     0.180 A 
ATOM      2  C   UNL     1     261.938 -27.303  56.412  1.00  0.00     0.208 A 
ATOM      3  C   UNL     1     262.898 -27.356  55.388  1.00  0.00     0.238 A 
ATOM      4  O   UNL     1     262.689 -26.709  54.329  1.00  0.00    -0.285 OA
ATOM      5  C   UNL     1     264.052 -28.162  55.545  1.00  0.00     0.111 A 
ATOM      6  C   UNL     1     265.108 -28.260  54.590  1.00  0.00     0.134 A 
ATOM      7  C   UNL     1     266.136 -29.189  54.792  1.00  0.00     0.093 A 
ATOM      8  C   UNL     1     266.180 -29.976  55.944  1.00  0.00     0.123 A 
ATOM      9  C   UNL     1     265.186 -29.846  56.910  1.00  0.00     0.094 A 
ATOM     10  C   UNL     1     264.127 -28.954  56.721  1.00  0.00     0.146 A 
ATOM     11  O   UNL     1     263.194 -28.868  57.661  1.00  0.00    -0.452 OA
ENDROOT
BRANCH   1  12
ATOM     12  C   UNL     1     261.181 -28.047  58.704  1.00  0.00     0.021 A 
ATOM     13  C   UNL     1     260.062 -28.898  58.738  1.00  0.00     0.016 A 
ATOM     14  C   UNL     1     259.162 -28.840  59.807  1.00  0.00     0.047 A 
ATOM     15  C   UNL     1     259.361 -27.924  60.847  1.00  0.00     0.115 A 
ATOM     16  C   UNL     1     261.363 -27.117  59.741  1.00  0.00     0.016 A 
ATOM     17  C   UNL     1     260.462 -27.061  60.810  1.00  0.00     0.047 A 
BRANCH  15  18
ATOM     18  O   UNL     1     258.472 -27.858  61.917  1.00  0.00    -0.508 OA
ATOM     19  H   UNL     1     258.659 -27.278  62.727  1.00  0.00     0.293 HD
ENDBRANCH  15  18
ENDBRANCH   1  12
BRANCH   2  20
ATOM     20  O   UNL     1     260.782 -26.531  56.268  1.00  0.00    -0.502 OA
ATOM     21  H   UNL     1     259.942 -26.703  56.806  1.00  0.00     0.293 HD
ENDBRANCH   2  20
BRANCH   6  22
ATOM     22  O   UNL     1     265.207 -27.455  53.452  1.00  0.00    -0.507 OA
ATOM     23  H   UNL     1     266.071 -27.227  52.983  1.00  0.00     0.293 HD
ENDBRANCH   6  22
BRANCH   8  24
ATOM     24  O   UNL     1     267.216 -30.887  56.144  1.00  0.00    -0.508 OA
ATOM     25  H   UNL     1     267.146 -31.629  56.829  1.00  0.00     0.293 HD
ENDBRANCH   8  24
TORSDOF 5
ENDMDL
MODEL 3
REMARK VINA RESULT:    -6.235      1.219      1.796
REMARK INTER + INTRA:          -7.564
REMARK INTER:                  -7.267
REMARK INTRA:                  -0.297
REMARK UNBOUND:                -0.236
REMARK SMILES O=c1c(O)c(-c2ccc(O)cc2)oc2cc(O)cc(O)c12
REMARK SMILES IDX 5 1 3 2 2 3 1 4 21 5 19 6 18 7 16 8 15 9 14 10 13 11 6 12
REMARK SMILES IDX 7 13 8 14 9 15 12 16 11 17 10 18 4 20 20 22 17 24
REMARK H PARENT 10 19 4 21 20 23 17 25
REMARK Flexibility Score: inf
ROOT
ATOM      1  C   UNL     1     253.209 -24.561  48.425  1.00  0.00     0.180 A 
ATOM      2  C   UNL     1     252.018 -23.894  48.093  1.00  0.00     0.208 A 
ATOM      3  C   UNL     1     251.805 -23.504  46.761  1.00  0.00     0.238 A 
ATOM      4  O   UNL     1     250.713 -22.956  46.458  1.00  0.00    -0.285 OA
ATOM      5  C   UNL     1     252.793 -23.771  45.782  1.00  0.00     0.111 A 
ATOM      6  C   UNL     1     252.700 -23.385  44.411  1.00  0.00     0.134 A 
ATOM      7  C   UNL     1     253.676 -23.817  43.505  1.00  0.00     0.093 A 
ATOM      8  C   UNL     1     254.776 -24.564  43.934  1.00  0.00     0.123 A 
ATOM      9  C   UNL     1     254.906 -24.895  45.279  1.00  0.00     0.094 A 
ATOM     10  C   UNL     1     253.929 -24.510  46.202  1.00  0.00     0.146 A 
ATOM     11  O   UNL     1     254.086 -24.856  47.473  1.00  0.00    -0.452 OA
ENDROOT
BRANCH   1  12
ATOM     12  C   UNL     1     253.516 -24.980  49.813  1.00  0.00     0.021 A 
ATOM     13  C   UNL     1     254.129 -24.103  50.725  1.00  0.00     0.016 A 
ATOM     14  C   UNL     1     254.431 -24.530  52.022  1.00  0.00     0.047 A 
ATOM     15  C   UNL     1     254.136 -25.840  52.419  1.00  0.00     0.115 A 
ATOM     16  C   UNL     1     253.243 -26.299  50.212  1.00  0.00     0.016 A 
ATOM     17  C   UNL     1     253.544 -26.723  51.511  1.00  0.00     0.047 A 
BRANCH  15  18
ATOM     18  O   UNL     1     254.431 -26.275  53.709  1.00  0.00    -0.508 OA
ATOM     19  H   UNL     1     254.704 -25.626  54.438  1.00  0.00     0.293 HD
ENDBRANCH  15  18
ENDBRANCH   1  12
BRANCH   2  20
ATOM     20  O   UNL     1     251.046 -23.659  49.070  1.00  0.00    -0.502 OA
ATOM     21  H   UNL     1     250.973 -22.779  49.565  1.00  0.00     0.293 HD
ENDBRANCH   2  20
BRANCH   6  22
ATOM     22  O   UNL     1     251.692 -22.563  43.898  1.00  0.00    -0.507 OA
ATOM     23  H   UNL     1     250.798 -22.407  44.338  1.00  0.00     0.293 HD
ENDBRANCH   6  22
BRANCH   8  24
ATOM     24  O   UNL     1     255.751 -24.976  43.027  1.00  0.00    -0.508 OA
ATOM     25  H   UNL     1     255.508 -25.444  42.162  1.00  0.00     0.293 HD
ENDBRANCH   8  24
TORSDOF 5
ENDMDL
MODEL 4
REMARK VINA RESULT:    -6.170      9.761     14.713
REMARK INTER + INTRA:          -7.488
REMARK INTER:                  -7.530
REMARK INTRA:                   0.043
REMARK UNBOUND:                -0.236
REMARK SMILES O=c1c(O)c(-c2ccc(O)cc2)oc2cc(O)cc(O)c12
REMARK SMILES IDX 5 1 3 2 2 3 1 4 21 5 19 6 18 7 16 8 15 9 14 10 13 11 6 12
REMARK SMILES IDX 7 13 8 14 9 15 12 16 11 17 10 18 4 20 20 22 17 24
REMARK H PARENT 10 19 4 21 20 23 17 25
REMARK Flexibility Score: inf
ROOT
ATOM      1  C   UNL     1     261.336 -27.518  55.789  1.00  0.00     0.180 A 
ATOM      2  C   UNL     1     262.583 -27.557  56.437  1.00  0.00     0.208 A 
ATOM      3  C   UNL     1     262.621 -27.567  57.840  1.00  0.00     0.238 A 
ATOM      4  O   UNL     1     263.738 -27.658  58.414  1.00  0.00    -0.285 OA
ATOM      5  C   UNL     1     261.414 -27.518  58.579  1.00  0.00     0.111 A 
ATOM      6  C   UNL     1     261.337 -27.483  60.003  1.00  0.00     0.134 A 
ATOM      7  C   UNL     1     260.087 -27.569  60.628  1.00  0.00     0.093 A 
ATOM      8  C   UNL     1     258.909 -27.623  59.879  1.00  0.00     0.123 A 
ATOM      9  C   UNL     1     258.971 -27.599  58.489  1.00  0.00     0.094 A 
ATOM     10  C   UNL     1     260.205 -27.550  57.835  1.00  0.00     0.146 A 
ATOM     11  O   UNL     1     260.221 -27.540  56.508  1.00  0.00    -0.452 OA
ENDROOT
BRANCH   1  12
ATOM     12  C   UNL     1     261.216 -27.479  54.313  1.00  0.00     0.021 A 
ATOM     13  C   UNL     1     261.987 -26.595  53.537  1.00  0.00     0.016 A 
ATOM     14  C   UNL     1     261.837 -26.561  52.147  1.00  0.00     0.047 A 
ATOM     15  C   UNL     1     260.909 -27.399  51.518  1.00  0.00     0.115 A 
ATOM     16  C   UNL     1     260.272 -28.303  53.676  1.00  0.00     0.016 A 
ATOM     17  C   UNL     1     260.126 -28.267  52.285  1.00  0.00     0.047 A 
BRANCH  15  18
ATOM     18  O   UNL     1     260.754 -27.375  50.133  1.00  0.00    -0.508 OA
ATOM     19  H   UNL     1     260.701 -26.502  49.621  1.00  0.00     0.293 HD
ENDBRANCH  15  18
ENDBRANCH   1  12
BRANCH   2  20
ATOM     20  O   UNL     1     263.762 -27.627  55.689  1.00  0.00    -0.502 OA
ATOM     21  H   UNL     1     264.635 -27.961  56.079  1.00  0.00     0.293 HD
ENDBRANCH   2  20
BRANCH   6  22
ATOM     22  O   UNL     1     262.445 -27.337  60.842  1.00  0.00    -0.507 OA
ATOM     23  H   UNL     1     262.641 -26.518  61.398  1.00  0.00     0.293 HD
ENDBRANCH   6  22
BRANCH   8  24
ATOM     24  O   UNL     1     257.668 -27.693  60.511  1.00  0.00    -0.508 OA
ATOM     25  H   UNL     1     257.211 -26.865  60.874  1.00  0.00     0.293 HD
ENDBRANCH   8  24
TORSDOF 5
ENDMDL
MODEL 5
REMARK VINA RESULT:    -6.016     14.602     16.683
REMARK INTER + INTRA:          -7.307
REMARK INTER:                  -7.022
REMARK INTRA:                  -0.285
REMARK UNBOUND:                -0.236
REMARK SMILES O=c1c(O)c(-c2ccc(O)cc2)oc2cc(O)cc(O)c12
REMARK SMILES IDX 5 1 3 2 2 3 1 4 21 5 19 6 18 7 16 8 15 9 14 10 13 11 6 12
REMARK SMILES IDX 7 13 8 14 9 15 12 16 11 17 10 18 4 20 20 22 17 24
REMARK H PARENT 10 19 4 21 20 23 17 25
REMARK Flexibility Score: inf
ROOT
ATOM      1  C   UNL     1     263.156 -28.181  58.034  1.00  0.00     0.180 A 
ATOM      2  C   UNL     1     263.611 -27.379  59.095  1.00  0.00     0.208 A 
ATOM      3  C   UNL     1     262.692 -26.950  60.066  1.00  0.00     0.238 A 
ATOM      4  O   UNL     1     263.115 -26.278  61.043  1.00  0.00    -0.285 OA
ATOM      5  C   UNL     1     261.328 -27.313  59.956  1.00  0.00     0.111 A 
ATOM      6  C   UNL     1     260.304 -26.902  60.861  1.00  0.00     0.134 A 
ATOM      7  C   UNL     1     259.013 -27.429  60.728  1.00  0.00     0.093 A 
ATOM      8  C   UNL     1     258.695 -28.301  59.684  1.00  0.00     0.123 A 
ATOM      9  C   UNL     1     259.673 -28.662  58.761  1.00  0.00     0.094 A 
ATOM     10  C   UNL     1     260.979 -28.182  58.888  1.00  0.00     0.146 A 
ATOM     11  O   UNL     1     261.884 -28.559  57.994  1.00  0.00    -0.452 OA
ENDROOT
BRANCH   1  12
ATOM     12  C   UNL     1     264.059 -28.650  56.957  1.00  0.00     0.021 A 
ATOM     13  C   UNL     1     264.176 -27.952  55.742  1.00  0.00     0.016 A 
ATOM     14  C   UNL     1     265.018 -28.428  54.732  1.00  0.00     0.047 A 
ATOM     15  C   UNL     1     265.741 -29.612  54.919  1.00  0.00     0.115 A 
ATOM     16  C   UNL     1     264.773 -29.848  57.129  1.00  0.00     0.016 A 
ATOM     17  C   UNL     1     265.615 -30.321  56.117  1.00  0.00     0.047 A 
BRANCH  15  18
ATOM     18  O   UNL     1     266.585 -30.095  53.920  1.00  0.00    -0.508 OA
ATOM     19  H   UNL     1     267.241 -29.489  53.442  1.00  0.00     0.293 HD
ENDBRANCH  15  18
ENDBRANCH   1  12
BRANCH   2  20
ATOM     20  O   UNL     1     264.965 -27.049  59.197  1.00  0.00    -0.502 OA
ATOM     21  H   UNL     1     265.465 -26.565  58.462  1.00  0.00     0.293 HD
ENDBRANCH   2  20
BRANCH   6  22
ATOM     22  O   UNL     1     260.494 -25.965  61.880  1.00  0.00    -0.507 OA
ATOM     23  H   UNL     1     259.874 -25.193  62.075  1.00  0.00     0.293 HD
ENDBRANCH   6  22
BRANCH   8  24
ATOM     24  O   UNL     1     257.404 -28.808  59.551  1.00  0.00    -0.508 OA
ATOM     25  H   UNL     1     257.094 -29.252  58.695  1.00  0.00     0.293 HD
ENDBRANCH   8  24
TORSDOF 5
ENDMDL
MODEL 6
REMARK VINA RESULT:    -5.990     11.044     14.202
REMARK INTER + INTRA:          -7.276
REMARK INTER:                  -7.168
REMARK INTRA:                  -0.107
REMARK UNBOUND:                -0.236
REMARK SMILES O=c1c(O)c(-c2ccc(O)cc2)oc2cc(O)cc(O)c12
REMARK SMILES IDX 5 1 3 2 2 3 1 4 21 5 19 6 18 7 16 8 15 9 14 10 13 11 6 12
REMARK SMILES IDX 7 13 8 14 9 15 12 16 11 17 10 18 4 20 20 22 17 24
REMARK H PARENT 10 19 4 21 20 23 17 25
REMARK Flexibility Score: inf
ROOT
ATOM      1  C   UNL     1     261.945 -27.627  57.511  1.00  0.00     0.180 A 
ATOM      2  C   UNL     1     263.342 -27.751  57.595  1.00  0.00     0.208 A 
ATOM      3  C   UNL     1     264.104 -27.673  56.418  1.00  0.00     0.238 A 
ATOM      4  O   UNL     1     265.359 -27.729  56.506  1.00  0.00    -0.285 OA
ATOM      5  C   UNL     1     263.459 -27.490  55.171  1.00  0.00     0.111 A 
ATOM      6  C   UNL     1     264.129 -27.437  53.912  1.00  0.00     0.134 A 
ATOM      7  C   UNL     1     263.403 -27.121  52.758  1.00  0.00     0.093 A 
ATOM      8  C   UNL     1     262.022 -26.922  52.807  1.00  0.00     0.123 A 
ATOM      9  C   UNL     1     261.349 -27.030  54.021  1.00  0.00     0.094 A 
ATOM     10  C   UNL     1     262.051 -27.307  55.198  1.00  0.00     0.146 A 
ATOM     11  O   UNL     1     261.374 -27.391  56.336  1.00  0.00    -0.452 OA
ENDROOT
BRANCH   1  12
ATOM     12  C   UNL     1     261.072 -27.725  58.705  1.00  0.00     0.021 A 
ATOM     13  C   UNL     1     260.113 -28.745  58.830  1.00  0.00     0.016 A 
ATOM     14  C   UNL     1     259.285 -28.802  59.956  1.00  0.00     0.047 A 
ATOM     15  C   UNL     1     259.396 -27.834  60.961  1.00  0.00     0.115 A 
ATOM     16  C   UNL     1     261.164 -26.746  59.708  1.00  0.00     0.016 A 
ATOM     17  C   UNL     1     260.335 -26.806  60.834  1.00  0.00     0.047 A 
BRANCH  15  18
ATOM     18  O   UNL     1     258.577 -27.882  62.088  1.00  0.00    -0.508 OA
ATOM     19  H   UNL     1     257.573 -27.760  62.019  1.00  0.00     0.293 HD
ENDBRANCH  15  18
ENDBRANCH   1  12
BRANCH   2  20
ATOM     20  O   UNL     1     263.961 -27.908  58.838  1.00  0.00    -0.502 OA
ATOM     21  H   UNL     1     264.893 -27.562  59.030  1.00  0.00     0.293 HD
ENDBRANCH   2  20
BRANCH   6  22
ATOM     22  O   UNL     1     265.489 -27.712  53.740  1.00  0.00    -0.507 OA
ATOM     23  H   UNL     1     266.013 -28.383  54.281  1.00  0.00     0.293 HD
ENDBRANCH   6  22
BRANCH   8  24
ATOM     24  O   UNL     1     261.305 -26.623  51.650  1.00  0.00    -0.508 OA
ATOM     25  H   UNL     1     260.435 -27.094  51.428  1.00  0.00     0.293 HD
ENDBRANCH   8  24
TORSDOF 5
ENDMDL
MODEL 7
REMARK VINA RESULT:    -5.842      2.163      7.350
REMARK INTER + INTRA:          -7.103
REMARK INTER:                  -6.824
REMARK INTRA:                  -0.278
REMARK UNBOUND:                -0.236
REMARK SMILES O=c1c(O)c(-c2ccc(O)cc2)oc2cc(O)cc(O)c12
REMARK SMILES IDX 5 1 3 2 2 3 1 4 21 5 19 6 18 7 16 8 15 9 14 10 13 11 6 12
REMARK SMILES IDX 7 13 8 14 9 15 12 16 11 17 10 18 4 20 20 22 17 24
REMARK H PARENT 10 19 4 21 20 23 17 25
REMARK Flexibility Score: inf
ROOT
ATOM      1  C   UNL     1     253.149 -24.418  48.820  1.00  0.00     0.180 A 
ATOM      2  C   UNL     1     252.354 -23.317  49.181  1.00  0.00     0.208 A 
ATOM      3  C   UNL     1     252.035 -23.123  50.535  1.00  0.00     0.238 A 
ATOM      4  O   UNL     1     251.369 -22.104  50.859  1.00  0.00    -0.285 OA
ATOM      5  C   UNL     1     252.499 -24.041  51.507  1.00  0.00     0.111 A 
ATOM      6  C   UNL     1     252.203 -23.963  52.901  1.00  0.00     0.134 A 
ATOM      7  C   UNL     1     252.824 -24.851  53.789  1.00  0.00     0.093 A 
ATOM      8  C   UNL     1     253.679 -25.853  53.324  1.00  0.00     0.123 A 
ATOM      9  C   UNL     1     253.928 -25.974  51.960  1.00  0.00     0.094 A 
ATOM     10  C   UNL     1     253.352 -25.081  51.053  1.00  0.00     0.146 A 
ATOM     11  O   UNL     1     253.624 -25.224  49.762  1.00  0.00    -0.452 OA
ENDROOT
BRANCH   1  12
ATOM     12  C   UNL     1     253.506 -24.704  47.411  1.00  0.00     0.021 A 
ATOM     13  C   UNL     1     252.607 -25.348  46.542  1.00  0.00     0.016 A 
ATOM     14  C   UNL     1     252.976 -25.627  45.223  1.00  0.00     0.047 A 
ATOM     15  C   UNL     1     254.251 -25.280  44.760  1.00  0.00     0.115 A 
ATOM     16  C   UNL     1     254.790 -24.377  46.944  1.00  0.00     0.016 A 
ATOM     17  C   UNL     1     255.157 -24.657  45.623  1.00  0.00     0.047 A 
BRANCH  15  18
ATOM     18  O   UNL     1     254.628 -25.552  43.446  1.00  0.00    -0.508 OA
ATOM     19  H   UNL     1     253.991 -25.991  42.792  1.00  0.00     0.293 HD
ENDBRANCH  15  18
ENDBRANCH   1  12
BRANCH   2  20
ATOM     20  O   UNL     1     251.925 -22.410  48.208  1.00  0.00    -0.502 OA
ATOM     21  H   UNL     1     252.017 -21.408  48.319  1.00  0.00     0.293 HD
ENDBRANCH   2  20
BRANCH   6  22
ATOM     22  O   UNL     1     251.293 -23.060  53.457  1.00  0.00    -0.507 OA
ATOM     23  H   UNL     1     250.924 -23.118  54.394  1.00  0.00     0.293 HD
ENDBRANCH   6  22
BRANCH   8  24
ATOM     24  O   UNL     1     254.280 -26.742  54.214  1.00  0.00    -0.508 OA
ATOM     25  H   UNL     1     254.593 -27.659  53.918  1.00  0.00     0.293 HD
ENDBRANCH   8  24
TORSDOF 5
ENDMDL
MODEL 8
REMARK VINA RESULT:    -5.742     12.951     14.167
REMARK INTER + INTRA:          -6.985
REMARK INTER:                  -6.688
REMARK INTRA:                  -0.297
REMARK UNBOUND:                -0.236
REMARK SMILES O=c1c(O)c(-c2ccc(O)cc2)oc2cc(O)cc(O)c12
REMARK SMILES IDX 5 1 3 2 2 3 1 4 21 5 19 6 18 7 16 8 15 9 14 10 13 11 6 12
REMARK SMILES IDX 7 13 8 14 9 15 12 16 11 17 10 18 4 20 20 22 17 24
REMARK H PARENT 10 19 4 21 20 23 17 25
REMARK Flexibility Score: inf
ROOT
ATOM      1  C   UNL     1     262.117 -27.174  57.017  1.00  0.00     0.180 A 
ATOM      2  C   UNL     1     263.053 -28.160  56.662  1.00  0.00     0.208 A 
ATOM      3  C   UNL     1     263.985 -27.881  55.649  1.00  0.00     0.238 A 
ATOM      4  O   UNL     1     264.856 -28.747  55.373  1.00  0.00    -0.285 OA
ATOM      5  C   UNL     1     263.957 -26.628  54.991  1.00  0.00     0.111 A 
ATOM      6  C   UNL     1     264.827 -26.254  53.923  1.00  0.00     0.134 A 
ATOM      7  C   UNL     1     264.796 -24.941  53.436  1.00  0.00     0.093 A 
ATOM      8  C   UNL     1     263.882 -24.010  53.934  1.00  0.00     0.123 A 
ATOM      9  C   UNL     1     262.989 -24.382  54.934  1.00  0.00     0.094 A 
ATOM     10  C   UNL     1     263.019 -25.674  55.467  1.00  0.00     0.146 A 
ATOM     11  O   UNL     1     262.158 -25.985  56.427  1.00  0.00    -0.452 OA
ENDROOT
BRANCH   1  12
ATOM     12  C   UNL     1     261.087 -27.403  58.057  1.00  0.00     0.021 A 
ATOM     13  C   UNL     1     259.855 -28.005  57.749  1.00  0.00     0.016 A 
ATOM     14  C   UNL     1     258.890 -28.189  58.744  1.00  0.00     0.047 A 
ATOM     15  C   UNL     1     259.139 -27.762  60.054  1.00  0.00     0.115 A 
ATOM     16  C   UNL     1     261.322 -26.959  59.370  1.00  0.00     0.016 A 
ATOM     17  C   UNL     1     260.355 -27.145  60.363  1.00  0.00     0.047 A 
BRANCH  15  18
ATOM     18  O   UNL     1     258.185 -27.942  61.054  1.00  0.00    -0.508 OA
ATOM     19  H   UNL     1     257.269 -28.325  60.850  1.00  0.00     0.293 HD
ENDBRANCH  15  18
ENDBRANCH   1  12
BRANCH   2  20
ATOM     20  O   UNL     1     263.078 -29.383  57.339  1.00  0.00    -0.502 OA
ATOM     21  H   UNL     1     262.758 -29.483  58.294  1.00  0.00     0.293 HD
ENDBRANCH   2  20
BRANCH   6  22
ATOM     22  O   UNL     1     265.712 -27.133  53.293  1.00  0.00    -0.507 OA
ATOM     23  H   UNL     1     266.696 -26.959  53.159  1.00  0.00     0.293 HD
ENDBRANCH   6  22
BRANCH   8  24
ATOM     24  O   UNL     1     263.848 -22.710  53.432  1.00  0.00    -0.508 OA
ATOM     25  H   UNL     1     264.690 -22.153  53.344  1.00  0.00     0.293 HD
ENDBRANCH   8  24
TORSDOF 5
ENDMDL
MODEL 9
REMARK VINA RESULT:    -5.650      2.196      2.350
REMARK INTER + INTRA:          -6.877
REMARK INTER:                  -6.639
REMARK INTRA:                  -0.238
REMARK UNBOUND:                -0.236
REMARK SMILES O=c1c(O)c(-c2ccc(O)cc2)oc2cc(O)cc(O)c12
REMARK SMILES IDX 5 1 3 2 2 3 1 4 21 5 19 6 18 7 16 8 15 9 14 10 13 11 6 12
REMARK SMILES IDX 7 13 8 14 9 15 12 16 11 17 10 18 4 20 20 22 17 24
REMARK H PARENT 10 19 4 21 20 23 17 25
REMARK Flexibility Score: inf
ROOT
ATOM      1  C   UNL     1     252.625 -23.649  47.330  1.00  0.00     0.180 A 
ATOM      2  C   UNL     1     252.206 -22.318  47.160  1.00  0.00     0.208 A 
ATOM      3  C   UNL     1     251.753 -21.904  45.897  1.00  0.00     0.238 A 
ATOM      4  O   UNL     1     251.327 -20.727  45.763  1.00  0.00    -0.285 OA
ATOM      5  C   UNL     1     251.741 -22.820  44.817  1.00  0.00     0.111 A 
ATOM      6  C   UNL     1     251.340 -22.497  43.485  1.00  0.00     0.134 A 
ATOM      7  C   UNL     1     251.244 -23.515  42.529  1.00  0.00     0.093 A 
ATOM      8  C   UNL     1     251.596 -24.831  42.839  1.00  0.00     0.123 A 
ATOM      9  C   UNL     1     252.045 -25.145  44.118  1.00  0.00     0.094 A 
ATOM     10  C   UNL     1     252.117 -24.158  45.106  1.00  0.00     0.146 A 
ATOM     11  O   UNL     1     252.539 -24.501  46.316  1.00  0.00    -0.452 OA
ENDROOT
BRANCH   1  12
ATOM     12  C   UNL     1     253.139 -24.153  48.625  1.00  0.00     0.021 A 
ATOM     13  C   UNL     1     254.417 -23.800  49.093  1.00  0.00     0.016 A 
ATOM     14  C   UNL     1     254.890 -24.308  50.308  1.00  0.00     0.047 A 
ATOM     15  C   UNL     1     254.098 -25.183  51.061  1.00  0.00     0.115 A 
ATOM     16  C   UNL     1     252.359 -25.047  49.377  1.00  0.00     0.016 A 
ATOM     17  C   UNL     1     252.834 -25.553  50.592  1.00  0.00     0.047 A 
BRANCH  15  18
ATOM     18  O   UNL     1     254.558 -25.693  52.273  1.00  0.00    -0.508 OA
ATOM     19  H   UNL     1     254.912 -26.640  52.349  1.00  0.00     0.293 HD
ENDBRANCH  15  18
ENDBRANCH   1  12
BRANCH   2  20
ATOM     20  O   UNL     1     252.204 -21.436  48.244  1.00  0.00    -0.502 OA
ATOM     21  H   UNL     1     252.229 -20.431  48.127  1.00  0.00     0.293 HD
ENDBRANCH   2  20
BRANCH   6  22
ATOM     22  O   UNL     1     251.056 -21.201  43.048  1.00  0.00    -0.507 OA
ATOM     23  H   UNL     1     250.404 -20.972  42.313  1.00  0.00     0.293 HD
ENDBRANCH   6  22
BRANCH   8  24
ATOM     24  O   UNL     1     251.512 -25.834  41.875  1.00  0.00    -0.508 OA
ATOM     25  H   UNL     1     251.567 -25.626  40.885  1.00  0.00     0.293 HD
ENDBRANCH   8  24
TORSDOF 5
ENDMDL
