MODEL 1
REMARK VINA RESULT:    -3.720      0.000      0.000
REMARK INTER + INTRA:          -7.750
REMARK INTER:                  -6.330
REMARK INTRA:                  -1.420
REMARK UNBOUND:                -1.420
REMARK SMILES CCCCCCCCCCCCCC(=O)[O-]
REMARK SMILES IDX 8 1 9 2 10 3 11 4 12 5 13 6 14 7 15 8 16 9 7 10 6 11 5 12
REMARK SMILES IDX 4 13 3 14 2 15 1 16
REMARK H PARENT
REMARK Flexibility Score: inf
ROOT
ATOM      1  C   UNL     1      -6.180  30.254  47.368  1.00  0.00     0.000 C 
ENDROOT
BRANCH   1   2
ATOM      2  C   UNL     1      -5.210  30.781  46.297  1.00  0.00     0.000 C 
BRANCH   2   3
ATOM      3  C   UNL     1      -4.104  31.671  46.890  1.00  0.00     0.000 C 
BRANCH   3   4
ATOM      4  C   UNL     1      -4.555  33.128  47.100  1.00  0.00     0.000 C 
BRANCH   4   5
ATOM      5  C   UNL     1      -4.832  33.523  48.562  1.00  0.00     0.006 C 
BRANCH   5   6
ATOM      6  C   UNL     1      -6.297  33.903  48.813  1.00  0.00     0.053 C 
BRANCH   6   7
ATOM      7  C   UNL     1      -6.520  34.192  50.263  1.00  0.00     0.041 C 
ATOM      8  O   UNL     1      -7.489  34.911  50.625  1.00  0.00    -0.550 OA
ATOM      9  O   UNL     1      -5.631  33.708  51.214  1.00  0.00    -0.550 OA
ENDBRANCH   6   7
ENDBRANCH   5   6
ENDBRANCH   4   5
ENDBRANCH   3   4
ENDBRANCH   2   3
ENDBRANCH   1   2
BRANCH   1  10
ATOM     10  C   UNL     1      -7.653  30.497  47.005  1.00  0.00     0.000 C 
BRANCH  10  11
ATOM     11  C   UNL     1      -7.841  30.554  45.485  1.00  0.00    -0.000 C 
BRANCH  11  12
ATOM     12  C   UNL     1      -9.060  29.730  45.048  1.00  0.00    -0.000 C 
BRANCH  12  13
ATOM     13  C   UNL     1      -8.650  28.296  44.682  1.00  0.00    -0.000 C 
BRANCH  13  14
ATOM     14  C   UNL     1      -7.161  28.178  44.326  1.00  0.00    -0.000 C 
BRANCH  14  15
ATOM     15  C   UNL     1      -6.564  26.820  44.725  1.00  0.00    -0.003 C 
ATOM     16  C   UNL     1      -6.444  26.697  46.242  1.00  0.00     0.004 C 
ENDBRANCH  14  15
ENDBRANCH  13  14
ENDBRANCH  12  13
ENDBRANCH  11  12
ENDBRANCH  10  11
ENDBRANCH   1  10
TORSDOF 12
ENDMDL
MODEL 2
REMARK VINA RESULT:    -3.676      3.146      6.752
REMARK INTER + INTRA:          -7.674
REMARK INTER:                  -6.341
REMARK INTRA:                  -1.333
REMARK UNBOUND:                -1.420
REMARK SMILES CCCCCCCCCCCCCC(=O)[O-]
REMARK SMILES IDX 8 1 9 2 10 3 11 4 12 5 13 6 14 7 15 8 16 9 7 10 6 11 5 12
REMARK SMILES IDX 4 13 3 14 2 15 1 16
REMARK H PARENT
REMARK Flexibility Score: inf
ROOT
ATOM      1  C   UNL     1      -6.622  30.349  47.351  1.00  0.00     0.000 C 
ENDROOT
BRANCH   1   2
ATOM      2  C   UNL     1      -7.704  31.111  46.567  1.00  0.00     0.000 C 
BRANCH   2   3
ATOM      3  C   UNL     1      -8.696  30.170  45.864  1.00  0.00     0.000 C 
BRANCH   3   4
ATOM      4  C   UNL     1      -8.020  29.247  44.833  1.00  0.00     0.000 C 
BRANCH   4   5
ATOM      5  C   UNL     1      -8.122  27.741  45.138  1.00  0.00     0.006 C 
BRANCH   5   6
ATOM      6  C   UNL     1      -6.819  26.984  44.854  1.00  0.00     0.053 C 
BRANCH   6   7
ATOM      7  C   UNL     1      -6.115  26.658  46.133  1.00  0.00     0.041 C 
ATOM      8  O   UNL     1      -5.167  27.383  46.538  1.00  0.00    -0.550 OA
ATOM      9  O   UNL     1      -6.474  25.528  46.857  1.00  0.00    -0.550 OA
ENDBRANCH   6   7
ENDBRANCH   5   6
ENDBRANCH   4   5
ENDBRANCH   3   4
ENDBRANCH   2   3
ENDBRANCH   1   2
BRANCH   1  10
ATOM     10  C   UNL     1      -5.217  30.937  47.148  1.00  0.00     0.000 C 
BRANCH  10  11
ATOM     11  C   UNL     1      -5.216  31.976  46.021  1.00  0.00    -0.000 C 
BRANCH  11  12
ATOM     12  C   UNL     1      -4.518  33.269  46.462  1.00  0.00    -0.000 C 
BRANCH  12  13
ATOM     13  C   UNL     1      -4.855  33.604  47.923  1.00  0.00    -0.000 C 
BRANCH  13  14
ATOM     14  C   UNL     1      -6.105  34.487  48.054  1.00  0.00    -0.000 C 
BRANCH  14  15
ATOM     15  C   UNL     1      -6.632  34.556  49.496  1.00  0.00    -0.003 C 
ATOM     16  C   UNL     1      -5.831  33.639  50.417  1.00  0.00     0.004 C 
ENDBRANCH  14  15
ENDBRANCH  13  14
ENDBRANCH  12  13
ENDBRANCH  11  12
ENDBRANCH  10  11
ENDBRANCH   1  10
TORSDOF 12
ENDMDL
MODEL 3
REMARK VINA RESULT:    -3.671      1.238      2.102
REMARK INTER + INTRA:          -7.666
REMARK INTER:                  -6.211
REMARK INTRA:                  -1.455
REMARK UNBOUND:                -1.420
REMARK SMILES CCCCCCCCCCCCCC(=O)[O-]
REMARK SMILES IDX 8 1 9 2 10 3 11 4 12 5 13 6 14 7 15 8 16 9 7 10 6 11 5 12
REMARK SMILES IDX 4 13 3 14 2 15 1 16
REMARK H PARENT
REMARK Flexibility Score: inf
ROOT
ATOM      1  C   UNL     1      -7.960  30.282  46.780  1.00  0.00     0.000 C 
ENDROOT
BRANCH   1   2
ATOM      2  C   UNL     1      -7.549  31.754  46.958  1.00  0.00     0.000 C 
BRANCH   2   3
ATOM      3  C   UNL     1      -6.698  32.274  45.787  1.00  0.00     0.000 C 
BRANCH   3   4
ATOM      4  C   UNL     1      -5.371  32.906  46.246  1.00  0.00     0.000 C 
BRANCH   4   5
ATOM      5  C   UNL     1      -4.927  32.533  47.672  1.00  0.00     0.006 C 
BRANCH   5   6
ATOM      6  C   UNL     1      -4.677  33.758  48.561  1.00  0.00     0.053 C 
BRANCH   6   7
ATOM      7  C   UNL     1      -5.847  33.997  49.461  1.00  0.00     0.041 C 
ATOM      8  O   UNL     1      -6.877  34.575  49.023  1.00  0.00    -0.550 OA
ATOM      9  O   UNL     1      -5.783  33.626  50.798  1.00  0.00    -0.550 OA
ENDBRANCH   6   7
ENDBRANCH   5   6
ENDBRANCH   4   5
ENDBRANCH   3   4
ENDBRANCH   2   3
ENDBRANCH   1   2
BRANCH   1  10
ATOM     10  C   UNL     1      -8.607  30.008  45.413  1.00  0.00     0.000 C 
BRANCH  10  11
ATOM     11  C   UNL     1      -7.731  29.075  44.570  1.00  0.00    -0.000 C 
BRANCH  11  12
ATOM     12  C   UNL     1      -8.091  27.604  44.819  1.00  0.00    -0.000 C 
BRANCH  12  13
ATOM     13  C   UNL     1      -7.152  26.979  45.862  1.00  0.00    -0.000 C 
BRANCH  13  14
ATOM     14  C   UNL     1      -5.671  27.263  45.572  1.00  0.00    -0.000 C 
BRANCH  14  15
ATOM     15  C   UNL     1      -5.015  28.141  46.648  1.00  0.00    -0.003 C 
ATOM     16  C   UNL     1      -4.214  29.277  46.017  1.00  0.00     0.004 C 
ENDBRANCH  14  15
ENDBRANCH  13  14
ENDBRANCH  12  13
ENDBRANCH  11  12
ENDBRANCH  10  11
ENDBRANCH   1  10
TORSDOF 12
ENDMDL
MODEL 4
REMARK VINA RESULT:    -3.650      1.059      2.625
REMARK INTER + INTRA:          -7.631
REMARK INTER:                  -6.206
REMARK INTRA:                  -1.426
REMARK UNBOUND:                -1.420
REMARK SMILES CCCCCCCCCCCCCC(=O)[O-]
REMARK SMILES IDX 8 1 9 2 10 3 11 4 12 5 13 6 14 7 15 8 16 9 7 10 6 11 5 12
REMARK SMILES IDX 4 13 3 14 2 15 1 16
REMARK H PARENT
REMARK Flexibility Score: inf
ROOT
ATOM      1  C   UNL     1      -5.219  30.166  46.150  1.00  0.00     0.000 C 
ENDROOT
BRANCH   1   2
ATOM      2  C   UNL     1      -6.120  30.266  47.393  1.00  0.00     0.000 C 
BRANCH   2   3
ATOM      3  C   UNL     1      -7.283  31.254  47.201  1.00  0.00     0.000 C 
BRANCH   3   4
ATOM      4  C   UNL     1      -6.810  32.706  47.007  1.00  0.00     0.000 C 
BRANCH   4   5
ATOM      5  C   UNL     1      -5.763  33.194  48.026  1.00  0.00     0.006 C 
BRANCH   5   6
ATOM      6  C   UNL     1      -6.161  34.510  48.708  1.00  0.00     0.053 C 
BRANCH   6   7
ATOM      7  C   UNL     1      -6.479  34.275  50.150  1.00  0.00     0.041 C 
ATOM      8  O   UNL     1      -5.758  33.507  50.841  1.00  0.00    -0.550 OA
ATOM      9  O   UNL     1      -7.599  34.865  50.721  1.00  0.00    -0.550 OA
ENDBRANCH   6   7
ENDBRANCH   5   6
ENDBRANCH   4   5
ENDBRANCH   3   4
ENDBRANCH   2   3
ENDBRANCH   1   2
BRANCH   1  10
ATOM     10  C   UNL     1      -5.379  28.829  45.408  1.00  0.00     0.000 C 
BRANCH  10  11
ATOM     11  C   UNL     1      -5.737  27.701  46.382  1.00  0.00    -0.000 C 
BRANCH  11  12
ATOM     12  C   UNL     1      -6.948  26.903  45.881  1.00  0.00    -0.000 C 
BRANCH  12  13
ATOM     13  C   UNL     1      -7.416  27.417  44.512  1.00  0.00    -0.000 C 
BRANCH  13  14
ATOM     14  C   UNL     1      -8.897  27.825  44.508  1.00  0.00    -0.000 C 
BRANCH  14  15
ATOM     15  C   UNL     1      -9.103  29.306  44.858  1.00  0.00    -0.003 C 
ATOM     16  C   UNL     1      -8.494  30.212  43.791  1.00  0.00     0.004 C 
ENDBRANCH  14  15
ENDBRANCH  13  14
ENDBRANCH  12  13
ENDBRANCH  11  12
ENDBRANCH  10  11
ENDBRANCH   1  10
TORSDOF 12
ENDMDL
MODEL 5
REMARK VINA RESULT:    -3.630     17.052     19.946
REMARK INTER + INTRA:          -7.597
REMARK INTER:                  -7.059
REMARK INTRA:                  -0.538
REMARK UNBOUND:                -1.420
REMARK SMILES CCCCCCCCCCCCCC(=O)[O-]
REMARK SMILES IDX 8 1 9 2 10 3 11 4 12 5 13 6 14 7 15 8 16 9 7 10 6 11 5 12
REMARK SMILES IDX 4 13 3 14 2 15 1 16
REMARK H PARENT
REMARK Flexibility Score: inf
ROOT
ATOM      1  C   UNL     1     -22.033  21.661  38.143  1.00  0.00     0.000 C 
ENDROOT
BRANCH   1   2
ATOM      2  C   UNL     1     -22.908  21.110  37.004  1.00  0.00     0.000 C 
BRANCH   2   3
ATOM      3  C   UNL     1     -22.233  21.238  35.628  1.00  0.00     0.000 C 
BRANCH   3   4
ATOM      4  C   UNL     1     -21.031  22.200  35.636  1.00  0.00     0.000 C 
BRANCH   4   5
ATOM      5  C   UNL     1     -20.423  22.498  34.254  1.00  0.00     0.006 C 
BRANCH   5   6
ATOM      6  C   UNL     1     -19.112  23.291  34.336  1.00  0.00     0.053 C 
BRANCH   6   7
ATOM      7  C   UNL     1     -18.020  22.570  33.612  1.00  0.00     0.041 C 
ATOM      8  O   UNL     1     -17.162  21.909  34.255  1.00  0.00    -0.550 OA
ATOM      9  O   UNL     1     -17.919  22.667  32.230  1.00  0.00    -0.550 OA
ENDBRANCH   6   7
ENDBRANCH   5   6
ENDBRANCH   4   5
ENDBRANCH   3   4
ENDBRANCH   2   3
ENDBRANCH   1   2
BRANCH   1  10
ATOM     10  C   UNL     1     -22.787  21.749  39.479  1.00  0.00     0.000 C 
BRANCH  10  11
ATOM     11  C   UNL     1     -21.939  22.461  40.540  1.00  0.00    -0.000 C 
BRANCH  11  12
ATOM     12  C   UNL     1     -21.062  21.463  41.306  1.00  0.00    -0.000 C 
BRANCH  12  13
ATOM     13  C   UNL     1     -19.584  21.881  41.258  1.00  0.00    -0.000 C 
BRANCH  13  14
ATOM     14  C   UNL     1     -18.771  21.319  42.434  1.00  0.00    -0.000 C 
BRANCH  14  15
ATOM     15  C   UNL     1     -17.522  20.553  41.976  1.00  0.00    -0.003 C 
ATOM     16  C   UNL     1     -17.865  19.112  41.607  1.00  0.00     0.004 C 
ENDBRANCH  14  15
ENDBRANCH  13  14
ENDBRANCH  12  13
ENDBRANCH  11  12
ENDBRANCH  10  11
ENDBRANCH   1  10
TORSDOF 12
ENDMDL
MODEL 6
REMARK VINA RESULT:    -3.575      3.807      6.651
REMARK INTER + INTRA:          -7.503
REMARK INTER:                  -6.015
REMARK INTRA:                  -1.489
REMARK UNBOUND:                -1.420
REMARK SMILES CCCCCCCCCCCCCC(=O)[O-]
REMARK SMILES IDX 8 1 9 2 10 3 11 4 12 5 13 6 14 7 15 8 16 9 7 10 6 11 5 12
REMARK SMILES IDX 4 13 3 14 2 15 1 16
REMARK H PARENT
REMARK Flexibility Score: inf
ROOT
ATOM      1  C   UNL     1      -5.193  30.376  46.650  1.00  0.00     0.000 C 
ENDROOT
BRANCH   1   2
ATOM      2  C   UNL     1      -4.805  29.072  45.932  1.00  0.00     0.000 C 
BRANCH   2   3
ATOM      3  C   UNL     1      -5.525  27.843  46.513  1.00  0.00     0.000 C 
BRANCH   3   4
ATOM      4  C   UNL     1      -6.364  27.089  45.465  1.00  0.00     0.000 C 
BRANCH   4   5
ATOM      5  C   UNL     1      -7.853  27.477  45.417  1.00  0.00     0.006 C 
BRANCH   5   6
ATOM      6  C   UNL     1      -8.162  28.535  44.350  1.00  0.00     0.053 C 
BRANCH   6   7
ATOM      7  C   UNL     1      -9.520  28.307  43.768  1.00  0.00     0.041 C 
ATOM      8  O   UNL     1     -10.336  27.538  44.343  1.00  0.00    -0.550 OA
ATOM      9  O   UNL     1      -9.871  28.905  42.564  1.00  0.00    -0.550 OA
ENDBRANCH   6   7
ENDBRANCH   5   6
ENDBRANCH   4   5
ENDBRANCH   3   4
ENDBRANCH   2   3
ENDBRANCH   1   2
BRANCH   1  10
ATOM     10  C   UNL     1      -6.508  30.252  47.435  1.00  0.00     0.000 C 
BRANCH  10  11
ATOM     11  C   UNL     1      -7.551  31.252  46.922  1.00  0.00    -0.000 C 
BRANCH  11  12
ATOM     12  C   UNL     1      -6.876  32.473  46.284  1.00  0.00    -0.000 C 
BRANCH  12  13
ATOM     13  C   UNL     1      -7.282  33.765  47.009  1.00  0.00    -0.000 C 
BRANCH  13  14
ATOM     14  C   UNL     1      -6.076  34.527  47.580  1.00  0.00    -0.000 C 
BRANCH  14  15
ATOM     15  C   UNL     1      -5.224  33.665  48.523  1.00  0.00    -0.003 C 
ATOM     16  C   UNL     1      -5.820  33.634  49.928  1.00  0.00     0.004 C 
ENDBRANCH  14  15
ENDBRANCH  13  14
ENDBRANCH  12  13
ENDBRANCH  11  12
ENDBRANCH  10  11
ENDBRANCH   1  10
TORSDOF 12
ENDMDL
MODEL 7
REMARK VINA RESULT:    -3.557      3.704      6.523
REMARK INTER + INTRA:          -7.472
REMARK INTER:                  -6.159
REMARK INTRA:                  -1.313
REMARK UNBOUND:                -1.420
REMARK SMILES CCCCCCCCCCCCCC(=O)[O-]
REMARK SMILES IDX 8 1 9 2 10 3 11 4 12 5 13 6 14 7 15 8 16 9 7 10 6 11 5 12
REMARK SMILES IDX 4 13 3 14 2 15 1 16
REMARK H PARENT
REMARK Flexibility Score: inf
ROOT
ATOM      1  C   UNL     1      -8.531  32.042  45.013  1.00  0.00     0.000 C 
ENDROOT
BRANCH   1   2
ATOM      2  C   UNL     1      -8.415  30.668  45.695  1.00  0.00     0.000 C 
BRANCH   2   3
ATOM      3  C   UNL     1      -7.759  30.752  47.083  1.00  0.00     0.000 C 
BRANCH   3   4
ATOM      4  C   UNL     1      -6.453  29.943  47.179  1.00  0.00     0.000 C 
BRANCH   4   5
ATOM      5  C   UNL     1      -6.230  28.925  46.045  1.00  0.00     0.006 C 
BRANCH   5   6
ATOM      6  C   UNL     1      -5.391  27.717  46.481  1.00  0.00     0.053 C 
BRANCH   6   7
ATOM      7  C   UNL     1      -6.029  26.445  46.023  1.00  0.00     0.041 C 
ATOM      8  O   UNL     1      -6.472  26.345  44.847  1.00  0.00    -0.550 OA
ATOM      9  O   UNL     1      -6.180  25.384  46.906  1.00  0.00    -0.550 OA
ENDBRANCH   6   7
ENDBRANCH   5   6
ENDBRANCH   4   5
ENDBRANCH   3   4
ENDBRANCH   2   3
ENDBRANCH   1   2
BRANCH   1  10
ATOM     10  C   UNL     1      -7.862  33.164  45.823  1.00  0.00     0.000 C 
BRANCH  10  11
ATOM     11  C   UNL     1      -6.896  33.971  44.947  1.00  0.00    -0.000 C 
BRANCH  11  12
ATOM     12  C   UNL     1      -5.716  34.501  45.771  1.00  0.00    -0.000 C 
BRANCH  12  13
ATOM     13  C   UNL     1      -5.141  33.403  46.678  1.00  0.00    -0.000 C 
BRANCH  13  14
ATOM     14  C   UNL     1      -4.976  33.864  48.134  1.00  0.00    -0.000 C 
BRANCH  14  15
ATOM     15  C   UNL     1      -6.063  33.299  49.060  1.00  0.00    -0.003 C 
ATOM     16  C   UNL     1      -5.880  33.798  50.491  1.00  0.00     0.004 C 
ENDBRANCH  14  15
ENDBRANCH  13  14
ENDBRANCH  12  13
ENDBRANCH  11  12
ENDBRANCH  10  11
ENDBRANCH   1  10
TORSDOF 12
ENDMDL
MODEL 8
REMARK VINA RESULT:    -3.554      1.495      2.611
REMARK INTER + INTRA:          -7.466
REMARK INTER:                  -5.578
REMARK INTRA:                  -1.889
REMARK UNBOUND:                -1.420
REMARK SMILES CCCCCCCCCCCCCC(=O)[O-]
REMARK SMILES IDX 8 1 9 2 10 3 11 4 12 5 13 6 14 7 15 8 16 9 7 10 6 11 5 12
REMARK SMILES IDX 4 13 3 14 2 15 1 16
REMARK H PARENT
REMARK Flexibility Score: inf
ROOT
ATOM      1  C   UNL     1      -4.821  30.042  46.776  1.00  0.00     0.000 C 
ENDROOT
BRANCH   1   2
ATOM      2  C   UNL     1      -4.446  30.537  45.368  1.00  0.00     0.000 C 
BRANCH   2   3
ATOM      3  C   UNL     1      -4.496  32.069  45.249  1.00  0.00     0.000 C 
BRANCH   3   4
ATOM      4  C   UNL     1      -5.907  32.642  45.476  1.00  0.00     0.000 C 
BRANCH   4   5
ATOM      5  C   UNL     1      -6.005  33.729  46.562  1.00  0.00     0.006 C 
BRANCH   5   6
ATOM      6  C   UNL     1      -6.505  33.188  47.908  1.00  0.00     0.053 C 
BRANCH   6   7
ATOM      7  C   UNL     1      -5.508  33.471  48.986  1.00  0.00     0.041 C 
ATOM      8  O   UNL     1      -4.285  33.590  48.705  1.00  0.00    -0.550 OA
ATOM      9  O   UNL     1      -5.919  33.555  50.310  1.00  0.00    -0.550 OA
ENDBRANCH   6   7
ENDBRANCH   5   6
ENDBRANCH   4   5
ENDBRANCH   3   4
ENDBRANCH   2   3
ENDBRANCH   1   2
BRANCH   1  10
ATOM     10  C   UNL     1      -4.974  28.514  46.845  1.00  0.00     0.000 C 
BRANCH  10  11
ATOM     11  C   UNL     1      -5.412  27.945  45.491  1.00  0.00    -0.000 C 
BRANCH  11  12
ATOM     12  C   UNL     1      -6.567  26.950  45.658  1.00  0.00    -0.000 C 
BRANCH  12  13
ATOM     13  C   UNL     1      -7.915  27.615  45.343  1.00  0.00    -0.000 C 
BRANCH  13  14
ATOM     14  C   UNL     1      -7.768  28.856  44.449  1.00  0.00    -0.000 C 
BRANCH  14  15
ATOM     15  C   UNL     1      -8.538  30.069  44.990  1.00  0.00    -0.003 C 
ATOM     16  C   UNL     1      -8.368  30.198  46.502  1.00  0.00     0.004 C 
ENDBRANCH  14  15
ENDBRANCH  13  14
ENDBRANCH  12  13
ENDBRANCH  11  12
ENDBRANCH  10  11
ENDBRANCH   1  10
TORSDOF 12
ENDMDL
MODEL 9
REMARK VINA RESULT:    -3.512      1.348      2.634
REMARK INTER + INTRA:          -7.396
REMARK INTER:                  -5.977
REMARK INTRA:                  -1.418
REMARK UNBOUND:                -1.420
REMARK SMILES CCCCCCCCCCCCCC(=O)[O-]
REMARK SMILES IDX 8 1 9 2 10 3 11 4 12 5 13 6 14 7 15 8 16 9 7 10 6 11 5 12
REMARK SMILES IDX 4 13 3 14 2 15 1 16
REMARK H PARENT
REMARK Flexibility Score: inf
ROOT
ATOM      1  C   UNL     1      -7.582  31.231  45.295  1.00  0.00     0.000 C 
ENDROOT
BRANCH   1   2
ATOM      2  C   UNL     1      -8.236  32.621  45.357  1.00  0.00     0.000 C 
BRANCH   2   3
ATOM      3  C   UNL     1      -7.223  33.736  45.666  1.00  0.00     0.000 C 
BRANCH   3   4
ATOM      4  C   UNL     1      -7.268  34.197  47.134  1.00  0.00     0.000 C 
BRANCH   4   5
ATOM      5  C   UNL     1      -6.527  33.284  48.129  1.00  0.00     0.006 C 
BRANCH   5   6
ATOM      6  C   UNL     1      -5.582  34.055  49.059  1.00  0.00     0.053 C 
BRANCH   6   7
ATOM      7  C   UNL     1      -6.156  34.132  50.438  1.00  0.00     0.041 C 
ATOM      8  O   UNL     1      -5.550  33.603  51.407  1.00  0.00    -0.550 OA
ATOM      9  O   UNL     1      -7.383  34.746  50.648  1.00  0.00    -0.550 OA
ENDBRANCH   6   7
ENDBRANCH   5   6
ENDBRANCH   4   5
ENDBRANCH   3   4
ENDBRANCH   2   3
ENDBRANCH   1   2
BRANCH   1  10
ATOM     10  C   UNL     1      -8.012  30.321  46.457  1.00  0.00     0.000 C 
BRANCH  10  11
ATOM     11  C   UNL     1      -6.796  29.845  47.260  1.00  0.00    -0.000 C 
BRANCH  11  12
ATOM     12  C   UNL     1      -5.493  30.096  46.489  1.00  0.00    -0.000 C 
BRANCH  12  13
ATOM     13  C   UNL     1      -4.619  28.833  46.462  1.00  0.00    -0.000 C 
BRANCH  13  14
ATOM     14  C   UNL     1      -5.448  27.540  46.429  1.00  0.00    -0.000 C 
BRANCH  14  15
ATOM     15  C   UNL     1      -5.695  27.032  45.001  1.00  0.00    -0.003 C 
ATOM     16  C   UNL     1      -7.156  27.213  44.598  1.00  0.00     0.004 C 
ENDBRANCH  14  15
ENDBRANCH  13  14
ENDBRANCH  12  13
ENDBRANCH  11  12
ENDBRANCH  10  11
ENDBRANCH   1  10
TORSDOF 12
ENDMDL
