MODEL 1
REMARK VINA RESULT:    -6.111      0.000      0.000
REMARK INTER + INTRA:          -7.469
REMARK INTER:                  -7.183
REMARK INTRA:                  -0.287
REMARK UNBOUND:                -0.287
REMARK SMILES O=c1c(O)c(-c2ccc(O)cc2)oc2cc(O)cc(O)c12
REMARK SMILES IDX 5 1 3 2 2 3 1 4 21 5 19 6 18 7 16 8 15 9 14 10 13 11 6 12
REMARK SMILES IDX 7 13 8 14 9 15 12 16 11 17 10 18 4 20 20 22 17 24
REMARK H PARENT 10 19 4 21 20 23 17 25
REMARK Flexibility Score: inf
ROOT
ATOM      1  C   UNL     1      -9.367   8.597   6.215  1.00  0.00     0.180 A 
ATOM      2  C   UNL     1     -10.630   9.189   6.045  1.00  0.00     0.208 A 
ATOM      3  C   UNL     1     -11.775   8.378   6.107  1.00  0.00     0.238 A 
ATOM      4  O   UNL     1     -12.906   8.926   6.028  1.00  0.00    -0.285 OA
ATOM      5  C   UNL     1     -11.641   6.980   6.282  1.00  0.00     0.111 A 
ATOM      6  C   UNL     1     -12.730   6.057   6.314  1.00  0.00     0.134 A 
ATOM      7  C   UNL     1     -12.484   4.708   6.600  1.00  0.00     0.093 A 
ATOM      8  C   UNL     1     -11.183   4.238   6.790  1.00  0.00     0.123 A 
ATOM      9  C   UNL     1     -10.109   5.120   6.706  1.00  0.00     0.094 A 
ATOM     10  C   UNL     1     -10.325   6.478   6.461  1.00  0.00     0.146 A 
ATOM     11  O   UNL     1      -9.274   7.288   6.410  1.00  0.00    -0.452 OA
ENDROOT
BRANCH   1  12
ATOM     12  C   UNL     1      -8.116   9.387   6.178  1.00  0.00     0.021 A 
ATOM     13  C   UNL     1      -7.654  10.006   7.353  1.00  0.00     0.016 A 
ATOM     14  C   UNL     1      -6.486  10.775   7.336  1.00  0.00     0.047 A 
ATOM     15  C   UNL     1      -5.774  10.949   6.143  1.00  0.00     0.115 A 
ATOM     16  C   UNL     1      -7.406   9.583   4.979  1.00  0.00     0.016 A 
ATOM     17  C   UNL     1      -6.240  10.354   4.966  1.00  0.00     0.047 A 
BRANCH  15  18
ATOM     18  O   UNL     1      -4.610  11.713   6.114  1.00  0.00    -0.508 OA
ATOM     19  H   UNL     1      -4.240  12.081   5.245  1.00  0.00     0.293 HD
ENDBRANCH  15  18
ENDBRANCH   1  12
BRANCH   2  20
ATOM     20  O   UNL     1     -10.738  10.560   5.797  1.00  0.00    -0.502 OA
ATOM     21  H   UNL     1      -9.936  11.138   5.577  1.00  0.00     0.293 HD
ENDBRANCH   2  20
BRANCH   6  22
ATOM     22  O   UNL     1     -14.059   6.404   6.050  1.00  0.00    -0.507 OA
ATOM     23  H   UNL     1     -14.396   7.345   5.925  1.00  0.00     0.293 HD
ENDBRANCH   6  22
BRANCH   8  24
ATOM     24  O   UNL     1     -10.946   2.891   7.057  1.00  0.00    -0.508 OA
ATOM     25  H   UNL     1     -10.866   2.544   8.006  1.00  0.00     0.293 HD
ENDBRANCH   8  24
TORSDOF 5
ENDMDL
MODEL 2
REMARK VINA RESULT:    -5.583      1.451      6.395
REMARK INTER + INTRA:          -6.849
REMARK INTER:                  -6.850
REMARK INTRA:                   0.002
REMARK UNBOUND:                -0.287
REMARK SMILES O=c1c(O)c(-c2ccc(O)cc2)oc2cc(O)cc(O)c12
REMARK SMILES IDX 5 1 3 2 2 3 1 4 21 5 19 6 18 7 16 8 15 9 14 10 13 11 6 12
REMARK SMILES IDX 7 13 8 14 9 15 12 16 11 17 10 18 4 20 20 22 17 24
REMARK H PARENT 10 19 4 21 20 23 17 25
REMARK Flexibility Score: inf
ROOT
ATOM      1  C   UNL     1     -10.129   7.557   6.716  1.00  0.00     0.180 A 
ATOM      2  C   UNL     1     -10.901   8.552   6.093  1.00  0.00     0.208 A 
ATOM      3  C   UNL     1     -10.257   9.687   5.572  1.00  0.00     0.238 A 
ATOM      4  O   UNL     1     -10.945  10.538   4.950  1.00  0.00    -0.285 OA
ATOM      5  C   UNL     1      -8.858   9.839   5.730  1.00  0.00     0.111 A 
ATOM      6  C   UNL     1      -8.108  10.968   5.282  1.00  0.00     0.134 A 
ATOM      7  C   UNL     1      -6.712  10.960   5.398  1.00  0.00     0.093 A 
ATOM      8  C   UNL     1      -6.046   9.893   6.005  1.00  0.00     0.123 A 
ATOM      9  C   UNL     1      -6.773   8.812   6.494  1.00  0.00     0.094 A 
ATOM     10  C   UNL     1      -8.163   8.772   6.359  1.00  0.00     0.146 A 
ATOM     11  O   UNL     1      -8.815   7.712   6.821  1.00  0.00    -0.452 OA
ENDROOT
BRANCH   1  12
ATOM     12  C   UNL     1     -10.733   6.327   7.276  1.00  0.00     0.021 A 
ATOM     13  C   UNL     1     -11.760   6.434   8.230  1.00  0.00     0.016 A 
ATOM     14  C   UNL     1     -12.329   5.285   8.788  1.00  0.00     0.047 A 
ATOM     15  C   UNL     1     -11.869   4.017   8.414  1.00  0.00     0.115 A 
ATOM     16  C   UNL     1     -10.262   5.050   6.920  1.00  0.00     0.016 A 
ATOM     17  C   UNL     1     -10.833   3.904   7.481  1.00  0.00     0.047 A 
BRANCH  15  18
ATOM     18  O   UNL     1     -12.428   2.866   8.963  1.00  0.00    -0.508 OA
ATOM     19  H   UNL     1     -13.345   2.536   8.681  1.00  0.00     0.293 HD
ENDBRANCH  15  18
ENDBRANCH   1  12
BRANCH   2  20
ATOM     20  O   UNL     1     -12.289   8.420   6.015  1.00  0.00    -0.502 OA
ATOM     21  H   UNL     1     -12.877   8.346   6.837  1.00  0.00     0.293 HD
ENDBRANCH   2  20
BRANCH   6  22
ATOM     22  O   UNL     1      -8.680  12.125   4.743  1.00  0.00    -0.507 OA
ATOM     23  H   UNL     1      -8.517  12.468   3.809  1.00  0.00     0.293 HD
ENDBRANCH   6  22
BRANCH   8  24
ATOM     24  O   UNL     1      -4.659   9.902   6.132  1.00  0.00    -0.508 OA
ATOM     25  H   UNL     1      -4.203  10.292   6.949  1.00  0.00     0.293 HD
ENDBRANCH   8  24
TORSDOF 5
ENDMDL
MODEL 3
REMARK VINA RESULT:    -4.993     17.898     19.641
REMARK INTER + INTRA:          -6.155
REMARK INTER:                  -6.162
REMARK INTRA:                   0.006
REMARK UNBOUND:                -0.287
REMARK SMILES O=c1c(O)c(-c2ccc(O)cc2)oc2cc(O)cc(O)c12
REMARK SMILES IDX 5 1 3 2 2 3 1 4 21 5 19 6 18 7 16 8 15 9 14 10 13 11 6 12
REMARK SMILES IDX 7 13 8 14 9 15 12 16 11 17 10 18 4 20 20 22 17 24
REMARK H PARENT 10 19 4 21 20 23 17 25
REMARK Flexibility Score: inf
ROOT
ATOM      1  C   UNL     1     -11.921  -1.741  -9.821  1.00  0.00     0.180 A 
ATOM      2  C   UNL     1     -10.638  -1.791 -10.391  1.00  0.00     0.208 A 
ATOM      3  C   UNL     1      -9.906  -2.987 -10.318  1.00  0.00     0.238 A 
ATOM      4  O   UNL     1      -8.789  -3.047 -10.896  1.00  0.00    -0.285 OA
ATOM      5  C   UNL     1     -10.443  -4.101  -9.628  1.00  0.00     0.111 A 
ATOM      6  C   UNL     1      -9.771  -5.349  -9.452  1.00  0.00     0.134 A 
ATOM      7  C   UNL     1     -10.444  -6.416  -8.843  1.00  0.00     0.093 A 
ATOM      8  C   UNL     1     -11.739  -6.260  -8.346  1.00  0.00     0.123 A 
ATOM      9  C   UNL     1     -12.383  -5.032  -8.463  1.00  0.00     0.094 A 
ATOM     10  C   UNL     1     -11.754  -3.960  -9.100  1.00  0.00     0.146 A 
ATOM     11  O   UNL     1     -12.412  -2.812  -9.209  1.00  0.00    -0.452 OA
ENDROOT
BRANCH   1  12
ATOM     12  C   UNL     1     -12.759  -0.522  -9.871  1.00  0.00     0.021 A 
ATOM     13  C   UNL     1     -12.247   0.689  -9.373  1.00  0.00     0.016 A 
ATOM     14  C   UNL     1     -13.029   1.848  -9.389  1.00  0.00     0.047 A 
ATOM     15  C   UNL     1     -14.337   1.809  -9.889  1.00  0.00     0.115 A 
ATOM     16  C   UNL     1     -14.080  -0.558 -10.353  1.00  0.00     0.016 A 
ATOM     17  C   UNL     1     -14.860   0.603 -10.366  1.00  0.00     0.047 A 
BRANCH  15  18
ATOM     18  O   UNL     1     -15.124   2.957  -9.911  1.00  0.00    -0.508 OA
ATOM     19  H   UNL     1     -14.750   3.850 -10.211  1.00  0.00     0.293 HD
ENDBRANCH  15  18
ENDBRANCH   1  12
BRANCH   2  20
ATOM     20  O   UNL     1     -10.094  -0.658 -11.001  1.00  0.00    -0.502 OA
ATOM     21  H   UNL     1      -9.163  -0.319 -10.790  1.00  0.00     0.293 HD
ENDBRANCH   2  20
BRANCH   6  22
ATOM     22  O   UNL     1      -8.446  -5.585  -9.832  1.00  0.00    -0.507 OA
ATOM     23  H   UNL     1      -7.936  -6.435  -9.649  1.00  0.00     0.293 HD
ENDBRANCH   6  22
BRANCH   8  24
ATOM     24  O   UNL     1     -12.395  -7.322  -7.726  1.00  0.00    -0.508 OA
ATOM     25  H   UNL     1     -12.680  -8.145  -8.245  1.00  0.00     0.293 HD
ENDBRANCH   8  24
TORSDOF 5
ENDMDL
MODEL 4
REMARK VINA RESULT:    -4.940      2.543      3.470
REMARK INTER + INTRA:          -6.093
REMARK INTER:                  -5.812
REMARK INTRA:                  -0.281
REMARK UNBOUND:                -0.287
REMARK SMILES O=c1c(O)c(-c2ccc(O)cc2)oc2cc(O)cc(O)c12
REMARK SMILES IDX 5 1 3 2 2 3 1 4 21 5 19 6 18 7 16 8 15 9 14 10 13 11 6 12
REMARK SMILES IDX 7 13 8 14 9 15 12 16 11 17 10 18 4 20 20 22 17 24
REMARK H PARENT 10 19 4 21 20 23 17 25
REMARK Flexibility Score: inf
ROOT
ATOM      1  C   UNL     1     -10.179  10.198   5.722  1.00  0.00     0.180 A 
ATOM      2  C   UNL     1     -10.725  11.183   4.883  1.00  0.00     0.208 A 
ATOM      3  C   UNL     1     -12.111  11.191   4.655  1.00  0.00     0.238 A 
ATOM      4  O   UNL     1     -12.604  12.120   3.963  1.00  0.00    -0.285 OA
ATOM      5  C   UNL     1     -12.925  10.181   5.224  1.00  0.00     0.111 A 
ATOM      6  C   UNL     1     -14.334  10.064   5.024  1.00  0.00     0.134 A 
ATOM      7  C   UNL     1     -15.053   9.087   5.723  1.00  0.00     0.093 A 
ATOM      8  C   UNL     1     -14.404   8.181   6.565  1.00  0.00     0.123 A 
ATOM      9  C   UNL     1     -13.023   8.251   6.725  1.00  0.00     0.094 A 
ATOM     10  C   UNL     1     -12.284   9.239   6.071  1.00  0.00     0.146 A 
ATOM     11  O   UNL     1     -10.971   9.284   6.268  1.00  0.00    -0.452 OA
ENDROOT
BRANCH   1  12
ATOM     12  C   UNL     1      -8.730  10.134   6.022  1.00  0.00     0.021 A 
ATOM     13  C   UNL     1      -7.873   9.447   5.146  1.00  0.00     0.016 A 
ATOM     14  C   UNL     1      -6.505   9.355   5.421  1.00  0.00     0.047 A 
ATOM     15  C   UNL     1      -5.979   9.933   6.583  1.00  0.00     0.115 A 
ATOM     16  C   UNL     1      -8.198  10.695   7.198  1.00  0.00     0.016 A 
ATOM     17  C   UNL     1      -6.830  10.600   7.470  1.00  0.00     0.047 A 
BRANCH  15  18
ATOM     18  O   UNL     1      -4.619   9.848   6.867  1.00  0.00    -0.508 OA
ATOM     19  H   UNL     1      -4.019  10.665   6.835  1.00  0.00     0.293 HD
ENDBRANCH  15  18
ENDBRANCH   1  12
BRANCH   2  20
ATOM     20  O   UNL     1      -9.896  12.125   4.269  1.00  0.00    -0.502 OA
ATOM     21  H   UNL     1      -9.040  11.868   3.792  1.00  0.00     0.293 HD
ENDBRANCH   2  20
BRANCH   6  22
ATOM     22  O   UNL     1     -15.068  10.860   4.138  1.00  0.00    -0.507 OA
ATOM     23  H   UNL     1     -15.764  10.517   3.495  1.00  0.00     0.293 HD
ENDBRANCH   6  22
BRANCH   8  24
ATOM     24  O   UNL     1     -15.125   7.201   7.244  1.00  0.00    -0.508 OA
ATOM     25  H   UNL     1     -15.958   7.427   7.776  1.00  0.00     0.293 HD
ENDBRANCH   8  24
TORSDOF 5
ENDMDL
MODEL 5
REMARK VINA RESULT:    -4.808      2.369      6.490
REMARK INTER + INTRA:          -5.938
REMARK INTER:                  -5.679
REMARK INTRA:                  -0.259
REMARK UNBOUND:                -0.287
REMARK SMILES O=c1c(O)c(-c2ccc(O)cc2)oc2cc(O)cc(O)c12
REMARK SMILES IDX 5 1 3 2 2 3 1 4 21 5 19 6 18 7 16 8 15 9 14 10 13 11 6 12
REMARK SMILES IDX 7 13 8 14 9 15 12 16 11 17 10 18 4 20 20 22 17 24
REMARK H PARENT 10 19 4 21 20 23 17 25
REMARK Flexibility Score: inf
ROOT
ATOM      1  C   UNL     1     -11.781   7.158   6.542  1.00  0.00     0.180 A 
ATOM      2  C   UNL     1     -12.905   7.718   7.173  1.00  0.00     0.208 A 
ATOM      3  C   UNL     1     -13.019   9.116   7.245  1.00  0.00     0.238 A 
ATOM      4  O   UNL     1     -14.064   9.611   7.744  1.00  0.00    -0.285 OA
ATOM      5  C   UNL     1     -11.983   9.935   6.736  1.00  0.00     0.111 A 
ATOM      6  C   UNL     1     -11.971  11.362   6.795  1.00  0.00     0.134 A 
ATOM      7  C   UNL     1     -10.943  12.072   6.164  1.00  0.00     0.093 A 
ATOM      8  C   UNL     1      -9.891  11.405   5.531  1.00  0.00     0.123 A 
ATOM      9  C   UNL     1      -9.864  10.013   5.515  1.00  0.00     0.094 A 
ATOM     10  C   UNL     1     -10.896   9.278   6.102  1.00  0.00     0.146 A 
ATOM     11  O   UNL     1     -10.841   7.952   6.046  1.00  0.00    -0.452 OA
ENDROOT
BRANCH   1  12
ATOM     12  C   UNL     1     -11.597   5.695   6.414  1.00  0.00     0.021 A 
ATOM     13  C   UNL     1     -11.942   5.058   5.209  1.00  0.00     0.016 A 
ATOM     14  C   UNL     1     -11.798   3.674   5.073  1.00  0.00     0.047 A 
ATOM     15  C   UNL     1     -11.322   2.907   6.144  1.00  0.00     0.115 A 
ATOM     16  C   UNL     1     -11.140   4.915   7.492  1.00  0.00     0.016 A 
ATOM     17  C   UNL     1     -10.998   3.531   7.353  1.00  0.00     0.047 A 
BRANCH  15  18
ATOM     18  O   UNL     1     -11.174   1.527   6.020  1.00  0.00    -0.508 OA
ATOM     19  H   UNL     1     -11.269   0.911   6.820  1.00  0.00     0.293 HD
ENDBRANCH  15  18
ENDBRANCH   1  12
BRANCH   2  20
ATOM     20  O   UNL     1     -13.880   6.892   7.737  1.00  0.00    -0.502 OA
ATOM     21  H   UNL     1     -13.662   6.186   8.430  1.00  0.00     0.293 HD
ENDBRANCH   2  20
BRANCH   6  22
ATOM     22  O   UNL     1     -12.925  12.125   7.478  1.00  0.00    -0.507 OA
ATOM     23  H   UNL     1     -13.909  11.912   7.524  1.00  0.00     0.293 HD
ENDBRANCH   6  22
BRANCH   8  24
ATOM     24  O   UNL     1      -8.863  12.119   4.920  1.00  0.00    -0.508 OA
ATOM     25  H   UNL     1      -7.961  11.695   4.732  1.00  0.00     0.293 HD
ENDBRANCH   8  24
TORSDOF 5
ENDMDL
MODEL 6
REMARK VINA RESULT:    -4.797      2.315      6.559
REMARK INTER + INTRA:          -5.925
REMARK INTER:                  -5.854
REMARK INTRA:                  -0.071
REMARK UNBOUND:                -0.287
REMARK SMILES O=c1c(O)c(-c2ccc(O)cc2)oc2cc(O)cc(O)c12
REMARK SMILES IDX 5 1 3 2 2 3 1 4 21 5 19 6 18 7 16 8 15 9 14 10 13 11 6 12
REMARK SMILES IDX 7 13 8 14 9 15 12 16 11 17 10 18 4 20 20 22 17 24
REMARK H PARENT 10 19 4 21 20 23 17 25
REMARK Flexibility Score: inf
ROOT
ATOM      1  C   UNL     1     -11.205   7.707   6.533  1.00  0.00     0.180 A 
ATOM      2  C   UNL     1      -9.916   8.235   6.343  1.00  0.00     0.208 A 
ATOM      3  C   UNL     1      -9.779   9.497   5.742  1.00  0.00     0.238 A 
ATOM      4  O   UNL     1      -8.628   9.996   5.643  1.00  0.00    -0.285 OA
ATOM      5  C   UNL     1     -10.928  10.190   5.288  1.00  0.00     0.111 A 
ATOM      6  C   UNL     1     -10.904  11.454   4.624  1.00  0.00     0.134 A 
ATOM      7  C   UNL     1     -12.110  12.095   4.315  1.00  0.00     0.093 A 
ATOM      8  C   UNL     1     -13.338  11.487   4.587  1.00  0.00     0.123 A 
ATOM      9  C   UNL     1     -13.371  10.231   5.184  1.00  0.00     0.094 A 
ATOM     10  C   UNL     1     -12.186   9.583   5.539  1.00  0.00     0.146 A 
ATOM     11  O   UNL     1     -12.264   8.394   6.126  1.00  0.00    -0.452 OA
ENDROOT
BRANCH   1  12
ATOM     12  C   UNL     1     -11.431   6.391   7.172  1.00  0.00     0.021 A 
ATOM     13  C   UNL     1     -12.161   6.321   8.371  1.00  0.00     0.016 A 
ATOM     14  C   UNL     1     -12.368   5.092   9.004  1.00  0.00     0.047 A 
ATOM     15  C   UNL     1     -11.834   3.919   8.456  1.00  0.00     0.115 A 
ATOM     16  C   UNL     1     -10.880   5.211   6.638  1.00  0.00     0.016 A 
ATOM     17  C   UNL     1     -11.088   3.984   7.275  1.00  0.00     0.047 A 
BRANCH  15  18
ATOM     18  O   UNL     1     -12.033   2.688   9.077  1.00  0.00    -0.508 OA
ATOM     19  H   UNL     1     -12.835   2.108   8.857  1.00  0.00     0.293 HD
ENDBRANCH  15  18
ENDBRANCH   1  12
BRANCH   2  20
ATOM     20  O   UNL     1      -8.791   7.502   6.729  1.00  0.00    -0.502 OA
ATOM     21  H   UNL     1      -7.983   7.389   6.129  1.00  0.00     0.293 HD
ENDBRANCH   2  20
BRANCH   6  22
ATOM     22  O   UNL     1      -9.733  12.108   4.227  1.00  0.00    -0.507 OA
ATOM     23  H   UNL     1      -9.701  12.946   3.668  1.00  0.00     0.293 HD
ENDBRANCH   6  22
BRANCH   8  24
ATOM     24  O   UNL     1     -14.533  12.125   4.260  1.00  0.00    -0.508 OA
ATOM     25  H   UNL     1     -14.551  12.949   3.670  1.00  0.00     0.293 HD
ENDBRANCH   8  24
TORSDOF 5
ENDMDL
MODEL 7
REMARK VINA RESULT:    -4.729      1.392      3.238
REMARK INTER + INTRA:          -5.845
REMARK INTER:                  -5.548
REMARK INTRA:                  -0.298
REMARK UNBOUND:                -0.287
REMARK SMILES O=c1c(O)c(-c2ccc(O)cc2)oc2cc(O)cc(O)c12
REMARK SMILES IDX 5 1 3 2 2 3 1 4 21 5 19 6 18 7 16 8 15 9 14 10 13 11 6 12
REMARK SMILES IDX 7 13 8 14 9 15 12 16 11 17 10 18 4 20 20 22 17 24
REMARK H PARENT 10 19 4 21 20 23 17 25
REMARK Flexibility Score: inf
ROOT
ATOM      1  C   UNL     1      -9.404   8.939   6.152  1.00  0.00     0.180 A 
ATOM      2  C   UNL     1      -9.496   7.577   6.482  1.00  0.00     0.208 A 
ATOM      3  C   UNL     1     -10.751   6.948   6.435  1.00  0.00     0.238 A 
ATOM      4  O   UNL     1     -10.814   5.710   6.660  1.00  0.00    -0.285 OA
ATOM      5  C   UNL     1     -11.906   7.701   6.113  1.00  0.00     0.111 A 
ATOM      6  C   UNL     1     -13.234   7.178   6.079  1.00  0.00     0.134 A 
ATOM      7  C   UNL     1     -14.286   7.992   5.642  1.00  0.00     0.093 A 
ATOM      8  C   UNL     1     -14.068   9.328   5.301  1.00  0.00     0.123 A 
ATOM      9  C   UNL     1     -12.786   9.864   5.383  1.00  0.00     0.094 A 
ATOM     10  C   UNL     1     -11.710   9.067   5.777  1.00  0.00     0.146 A 
ATOM     11  O   UNL     1     -10.500   9.612   5.822  1.00  0.00    -0.452 OA
ENDROOT
BRANCH   1  12
ATOM     12  C   UNL     1      -8.116   9.668   6.164  1.00  0.00     0.021 A 
ATOM     13  C   UNL     1      -7.751  10.408   7.302  1.00  0.00     0.016 A 
ATOM     14  C   UNL     1      -6.549  11.122   7.327  1.00  0.00     0.047 A 
ATOM     15  C   UNL     1      -5.704  11.119   6.210  1.00  0.00     0.115 A 
ATOM     16  C   UNL     1      -7.272   9.686   5.038  1.00  0.00     0.016 A 
ATOM     17  C   UNL     1      -6.071  10.402   5.066  1.00  0.00     0.047 A 
BRANCH  15  18
ATOM     18  O   UNL     1      -4.505  11.826   6.223  1.00  0.00    -0.508 OA
ATOM     19  H   UNL     1      -3.610  11.351   6.198  1.00  0.00     0.293 HD
ENDBRANCH  15  18
ENDBRANCH   1  12
BRANCH   2  20
ATOM     20  O   UNL     1      -8.357   6.869   6.873  1.00  0.00    -0.502 OA
ATOM     21  H   UNL     1      -7.812   7.120   7.689  1.00  0.00     0.293 HD
ENDBRANCH   2  20
BRANCH   6  22
ATOM     22  O   UNL     1     -13.576   5.883   6.483  1.00  0.00    -0.507 OA
ATOM     23  H   UNL     1     -13.089   5.351   7.187  1.00  0.00     0.293 HD
ENDBRANCH   6  22
BRANCH   8  24
ATOM     24  O   UNL     1     -15.125  10.136   4.884  1.00  0.00    -0.508 OA
ATOM     25  H   UNL     1     -16.055   9.760   4.740  1.00  0.00     0.293 HD
ENDBRANCH   8  24
TORSDOF 5
ENDMDL
MODEL 8
REMARK VINA RESULT:    -4.143      4.497      6.863
REMARK INTER + INTRA:          -5.156
REMARK INTER:                  -5.631
REMARK INTRA:                   0.475
REMARK UNBOUND:                -0.287
REMARK SMILES O=c1c(O)c(-c2ccc(O)cc2)oc2cc(O)cc(O)c12
REMARK SMILES IDX 5 1 3 2 2 3 1 4 21 5 19 6 18 7 16 8 15 9 14 10 13 11 6 12
REMARK SMILES IDX 7 13 8 14 9 15 12 16 11 17 10 18 4 20 20 22 17 24
REMARK H PARENT 10 19 4 21 20 23 17 25
REMARK Flexibility Score: inf
ROOT
ATOM      1  C   UNL     1     -13.034   7.357   6.753  1.00  0.00     0.180 A 
ATOM      2  C   UNL     1     -13.496   7.865   7.979  1.00  0.00     0.208 A 
ATOM      3  C   UNL     1     -13.958   9.190   8.036  1.00  0.00     0.238 A 
ATOM      4  O   UNL     1     -14.439   9.614   9.120  1.00  0.00    -0.285 OA
ATOM      5  C   UNL     1     -13.900  10.008   6.882  1.00  0.00     0.111 A 
ATOM      6  C   UNL     1     -14.298  11.378   6.836  1.00  0.00     0.134 A 
ATOM      7  C   UNL     1     -14.297  12.058   5.612  1.00  0.00     0.093 A 
ATOM      8  C   UNL     1     -13.850  11.436   4.444  1.00  0.00     0.123 A 
ATOM      9  C   UNL     1     -13.407  10.117   4.488  1.00  0.00     0.094 A 
ATOM     10  C   UNL     1     -13.433   9.400   5.686  1.00  0.00     0.146 A 
ATOM     11  O   UNL     1     -13.022   8.137   5.680  1.00  0.00    -0.452 OA
ENDROOT
BRANCH   1  12
ATOM     12  C   UNL     1     -12.547   5.967   6.610  1.00  0.00     0.021 A 
ATOM     13  C   UNL     1     -11.970   5.559   5.394  1.00  0.00     0.016 A 
ATOM     14  C   UNL     1     -11.523   4.244   5.229  1.00  0.00     0.047 A 
ATOM     15  C   UNL     1     -11.660   3.317   6.269  1.00  0.00     0.115 A 
ATOM     16  C   UNL     1     -12.700   5.024   7.643  1.00  0.00     0.016 A 
ATOM     17  C   UNL     1     -12.252   3.711   7.474  1.00  0.00     0.047 A 
BRANCH  15  18
ATOM     18  O   UNL     1     -11.218   2.005   6.116  1.00  0.00    -0.508 OA
ATOM     19  H   UNL     1     -11.646   1.240   6.625  1.00  0.00     0.293 HD
ENDBRANCH  15  18
ENDBRANCH   1  12
BRANCH   2  20
ATOM     20  O   UNL     1     -13.474   7.066   9.125  1.00  0.00    -0.502 OA
ATOM     21  H   UNL     1     -12.942   6.206   9.179  1.00  0.00     0.293 HD
ENDBRANCH   2  20
BRANCH   6  22
ATOM     22  O   UNL     1     -14.678  12.121   7.959  1.00  0.00    -0.507 OA
ATOM     23  H   UNL     1     -14.159  12.896   8.341  1.00  0.00     0.293 HD
ENDBRANCH   6  22
BRANCH   8  24
ATOM     24  O   UNL     1     -13.835  12.125   3.233  1.00  0.00    -0.508 OA
ATOM     25  H   UNL     1     -14.580  12.019   2.553  1.00  0.00     0.293 HD
ENDBRANCH   8  24
TORSDOF 5
ENDMDL
