MODEL 1
REMARK VINA RESULT:     6.397      0.000      0.000
REMARK INTER + INTRA:          11.384
REMARK INTER:                  11.633
REMARK INTRA:                  -0.248
REMARK UNBOUND:                -0.248
REMARK SMILES CCCCCCCCCCCCCCCC(=O)[O-]
REMARK SMILES IDX 9 1 10 2 11 3 12 4 13 5 14 6 15 7 16 8 17 9 18 10 8 11 7 12
REMARK SMILES IDX 6 13 5 14 4 15 3 16 2 17 1 18
REMARK H PARENT
REMARK Flexibility Score: inf
ROOT
ATOM      1  C   UNL     1      -3.907 -16.925   6.980  1.00  0.00     0.000 C 
ENDROOT
BRANCH   1   2
ATOM      2  C   UNL     1      -5.058 -16.166   6.285  1.00  0.00     0.000 C 
BRANCH   2   3
ATOM      3  C   UNL     1      -6.355 -16.128   7.109  1.00  0.00     0.000 C 
BRANCH   3   4
ATOM      4  C   UNL     1      -6.792 -14.700   7.476  1.00  0.00     0.000 C 
BRANCH   4   5
ATOM      5  C   UNL     1      -6.839 -13.771   6.245  1.00  0.00     0.000 C 
BRANCH   5   6
ATOM      6  C   UNL     1      -5.976 -12.507   6.394  1.00  0.00     0.006 C 
BRANCH   6   7
ATOM      7  C   UNL     1      -4.480 -12.817   6.514  1.00  0.00     0.053 C 
BRANCH   7   8
ATOM      8  C   UNL     1      -3.917 -12.202   7.757  1.00  0.00     0.041 C 
ATOM      9  O   UNL     1      -3.685 -10.965   7.803  1.00  0.00    -0.550 OA
ATOM     10  O   UNL     1      -3.599 -13.003   8.846  1.00  0.00    -0.550 OA
ENDBRANCH   7   8
ENDBRANCH   6   7
ENDBRANCH   5   6
ENDBRANCH   4   5
ENDBRANCH   3   4
ENDBRANCH   2   3
ENDBRANCH   1   2
BRANCH   1  11
ATOM     11  C   UNL     1      -2.739 -15.995   7.354  1.00  0.00     0.000 C 
BRANCH  11  12
ATOM     12  C   UNL     1      -2.468 -14.924   6.286  1.00  0.00    -0.000 C 
BRANCH  12  13
ATOM     13  C   UNL     1      -1.238 -14.062   6.608  1.00  0.00    -0.000 C 
BRANCH  13  14
ATOM     14  C   UNL     1      -0.847 -14.195   8.087  1.00  0.00    -0.000 C 
BRANCH  14  15
ATOM     15  C   UNL     1       0.598 -13.749   8.363  1.00  0.00    -0.000 C 
BRANCH  15  16
ATOM     16  C   UNL     1       1.513 -14.921   8.762  1.00  0.00    -0.000 C 
BRANCH  16  17
ATOM     17  C   UNL     1       2.118 -14.744  10.162  1.00  0.00    -0.003 C 
ATOM     18  C   UNL     1       1.155 -15.141  11.280  1.00  0.00     0.004 C 
ENDBRANCH  16  17
ENDBRANCH  15  16
ENDBRANCH  14  15
ENDBRANCH  13  14
ENDBRANCH  12  13
ENDBRANCH  11  12
ENDBRANCH   1  11
TORSDOF 14
ENDMDL
MODEL 2
REMARK VINA RESULT:     7.337      2.438      6.339
REMARK INTER + INTRA:          13.094
REMARK INTER:                  14.487
REMARK INTRA:                  -1.393
REMARK UNBOUND:                -0.248
REMARK SMILES CCCCCCCCCCCCCCCC(=O)[O-]
REMARK SMILES IDX 9 1 10 2 11 3 12 4 13 5 14 6 15 7 16 8 17 9 18 10 8 11 7 12
REMARK SMILES IDX 6 13 5 14 4 15 3 16 2 17 1 18
REMARK H PARENT
REMARK Flexibility Score: inf
ROOT
ATOM      1  C   UNL     1      -3.698 -12.649   6.976  1.00  0.00     0.000 C 
ENDROOT
BRANCH   1   2
ATOM      2  C   UNL     1      -3.304 -13.657   5.875  1.00  0.00     0.000 C 
BRANCH   2   3
ATOM      3  C   UNL     1      -1.971 -14.373   6.147  1.00  0.00     0.000 C 
BRANCH   3   4
ATOM      4  C   UNL     1      -1.521 -14.269   7.613  1.00  0.00     0.000 C 
BRANCH   4   5
ATOM      5  C   UNL     1      -0.012 -13.968   7.740  1.00  0.00     0.000 C 
BRANCH   5   6
ATOM      6  C   UNL     1       0.511 -14.040   9.185  1.00  0.00     0.006 C 
BRANCH   6   7
ATOM      7  C   UNL     1       1.878 -14.724   9.291  1.00  0.00     0.053 C 
BRANCH   7   8
ATOM      8  C   UNL     1       2.223 -14.983  10.724  1.00  0.00     0.041 C 
ATOM      9  O   UNL     1       1.311 -15.088  11.586  1.00  0.00    -0.550 OA
ATOM     10  O   UNL     1       3.553 -15.058  11.115  1.00  0.00    -0.550 OA
ENDBRANCH   7   8
ENDBRANCH   6   7
ENDBRANCH   5   6
ENDBRANCH   4   5
ENDBRANCH   3   4
ENDBRANCH   2   3
ENDBRANCH   1   2
BRANCH   1  11
ATOM     11  C   UNL     1      -5.196 -12.722   7.322  1.00  0.00     0.000 C 
BRANCH  11  12
ATOM     12  C   UNL     1      -6.092 -12.757   6.074  1.00  0.00    -0.000 C 
BRANCH  12  13
ATOM     13  C   UNL     1      -6.949 -14.030   5.994  1.00  0.00    -0.000 C 
BRANCH  13  14
ATOM     14  C   UNL     1      -6.994 -14.747   7.352  1.00  0.00    -0.000 C 
BRANCH  14  15
ATOM     15  C   UNL     1      -6.739 -16.258   7.235  1.00  0.00    -0.000 C 
BRANCH  15  16
ATOM     16  C   UNL     1      -5.451 -16.581   6.456  1.00  0.00    -0.000 C 
BRANCH  16  17
ATOM     17  C   UNL     1      -4.223 -16.694   7.371  1.00  0.00    -0.003 C 
ATOM     18  C   UNL     1      -3.101 -17.533   6.759  1.00  0.00     0.004 C 
ENDBRANCH  16  17
ENDBRANCH  15  16
ENDBRANCH  14  15
ENDBRANCH  13  14
ENDBRANCH  12  13
ENDBRANCH  11  12
ENDBRANCH   1  11
TORSDOF 14
ENDMDL
MODEL 3
REMARK VINA RESULT:     7.692      2.249      5.820
REMARK INTER + INTRA:          13.740
REMARK INTER:                  14.392
REMARK INTRA:                  -0.652
REMARK UNBOUND:                -0.248
REMARK SMILES CCCCCCCCCCCCCCCC(=O)[O-]
REMARK SMILES IDX 9 1 10 2 11 3 12 4 13 5 14 6 15 7 16 8 17 9 18 10 8 11 7 12
REMARK SMILES IDX 6 13 5 14 4 15 3 16 2 17 1 18
REMARK H PARENT
REMARK Flexibility Score: inf
ROOT
ATOM      1  C   UNL     1      -3.859 -16.754   6.644  1.00  0.00     0.000 C 
ENDROOT
BRANCH   1   2
ATOM      2  C   UNL     1      -2.802 -15.787   7.217  1.00  0.00     0.000 C 
BRANCH   2   3
ATOM      3  C   UNL     1      -2.243 -14.801   6.177  1.00  0.00     0.000 C 
BRANCH   3   4
ATOM      4  C   UNL     1      -1.183 -13.851   6.760  1.00  0.00     0.000 C 
BRANCH   4   5
ATOM      5  C   UNL     1      -0.759 -14.257   8.187  1.00  0.00     0.000 C 
BRANCH   5   6
ATOM      6  C   UNL     1       0.691 -13.872   8.531  1.00  0.00     0.006 C 
BRANCH   6   7
ATOM      7  C   UNL     1       1.539 -15.074   8.961  1.00  0.00     0.053 C 
BRANCH   7   8
ATOM      8  C   UNL     1       1.873 -14.984  10.417  1.00  0.00     0.041 C 
ATOM      9  O   UNL     1       3.072 -14.874  10.787  1.00  0.00    -0.550 OA
ATOM     10  O   UNL     1       0.864 -15.073  11.367  1.00  0.00    -0.550 OA
ENDBRANCH   7   8
ENDBRANCH   6   7
ENDBRANCH   5   6
ENDBRANCH   4   5
ENDBRANCH   3   4
ENDBRANCH   2   3
ENDBRANCH   1   2
BRANCH   1  11
ATOM     11  C   UNL     1      -5.280 -16.419   7.132  1.00  0.00     0.000 C 
BRANCH  11  12
ATOM     12  C   UNL     1      -6.114 -15.687   6.070  1.00  0.00    -0.000 C 
BRANCH  12  13
ATOM     13  C   UNL     1      -6.967 -14.554   6.661  1.00  0.00    -0.000 C 
BRANCH  13  14
ATOM     14  C   UNL     1      -6.578 -13.200   6.050  1.00  0.00    -0.000 C 
BRANCH  14  15
ATOM     15  C   UNL     1      -5.087 -12.874   6.229  1.00  0.00    -0.000 C 
BRANCH  15  16
ATOM     16  C   UNL     1      -4.668 -12.813   7.709  1.00  0.00    -0.000 C 
BRANCH  16  17
ATOM     17  C   UNL     1      -3.309 -12.125   7.908  1.00  0.00    -0.003 C 
ATOM     18  C   UNL     1      -3.438 -10.695   8.431  1.00  0.00     0.004 C 
ENDBRANCH  16  17
ENDBRANCH  15  16
ENDBRANCH  14  15
ENDBRANCH  13  14
ENDBRANCH  12  13
ENDBRANCH  11  12
ENDBRANCH   1  11
TORSDOF 14
ENDMDL
MODEL 4
REMARK VINA RESULT:     7.787      2.223      3.533
REMARK INTER + INTRA:          13.912
REMARK INTER:                  14.544
REMARK INTRA:                  -0.632
REMARK UNBOUND:                -0.248
REMARK SMILES CCCCCCCCCCCCCCCC(=O)[O-]
REMARK SMILES IDX 9 1 10 2 11 3 12 4 13 5 14 6 15 7 16 8 17 9 18 10 8 11 7 12
REMARK SMILES IDX 6 13 5 14 4 15 3 16 2 17 1 18
REMARK H PARENT
REMARK Flexibility Score: inf
ROOT
ATOM      1  C   UNL     1      -5.421 -12.174   6.726  1.00  0.00     0.000 C 
ENDROOT
BRANCH   1   2
ATOM      2  C   UNL     1      -6.630 -12.618   5.875  1.00  0.00     0.000 C 
BRANCH   2   3
ATOM      3  C   UNL     1      -6.896 -14.132   5.928  1.00  0.00     0.000 C 
BRANCH   3   4
ATOM      4  C   UNL     1      -6.896 -14.692   7.359  1.00  0.00     0.000 C 
BRANCH   4   5
ATOM      5  C   UNL     1      -6.402 -16.153   7.413  1.00  0.00     0.000 C 
BRANCH   5   6
ATOM      6  C   UNL     1      -5.492 -16.539   6.234  1.00  0.00     0.006 C 
BRANCH   6   7
ATOM      7  C   UNL     1      -4.006 -16.304   6.527  1.00  0.00     0.053 C 
BRANCH   7   8
ATOM      8  C   UNL     1      -3.369 -17.557   7.040  1.00  0.00     0.041 C 
ATOM      9  O   UNL     1      -2.601 -18.227   6.300  1.00  0.00    -0.550 OA
ATOM     10  O   UNL     1      -3.665 -18.014   8.318  1.00  0.00    -0.550 OA
ENDBRANCH   7   8
ENDBRANCH   6   7
ENDBRANCH   5   6
ENDBRANCH   4   5
ENDBRANCH   3   4
ENDBRANCH   2   3
ENDBRANCH   1   2
BRANCH   1  11
ATOM     11  C   UNL     1      -4.249 -13.167   6.636  1.00  0.00     0.000 C 
BRANCH  11  12
ATOM     12  C   UNL     1      -3.124 -12.848   7.633  1.00  0.00    -0.000 C 
BRANCH  12  13
ATOM     13  C   UNL     1      -2.802 -14.028   8.563  1.00  0.00    -0.000 C 
BRANCH  13  14
ATOM     14  C   UNL     1      -1.447 -14.655   8.204  1.00  0.00    -0.000 C 
BRANCH  14  15
ATOM     15  C   UNL     1      -0.470 -13.644   7.584  1.00  0.00    -0.000 C 
BRANCH  15  16
ATOM     16  C   UNL     1       0.858 -13.555   8.357  1.00  0.00    -0.000 C 
BRANCH  16  17
ATOM     17  C   UNL     1       1.316 -14.917   8.899  1.00  0.00    -0.003 C 
ATOM     18  C   UNL     1       1.491 -14.924  10.417  1.00  0.00     0.004 C 
ENDBRANCH  16  17
ENDBRANCH  15  16
ENDBRANCH  14  15
ENDBRANCH  13  14
ENDBRANCH  12  13
ENDBRANCH  11  12
ENDBRANCH   1  11
TORSDOF 14
ENDMDL
MODEL 5
REMARK VINA RESULT:     7.885      0.978      2.362
REMARK INTER + INTRA:          14.091
REMARK INTER:                  14.040
REMARK INTRA:                   0.051
REMARK UNBOUND:                -0.248
REMARK SMILES CCCCCCCCCCCCCCCC(=O)[O-]
REMARK SMILES IDX 9 1 10 2 11 3 12 4 13 5 14 6 15 7 16 8 17 9 18 10 8 11 7 12
REMARK SMILES IDX 6 13 5 14 4 15 3 16 2 17 1 18
REMARK H PARENT
REMARK Flexibility Score: inf
ROOT
ATOM      1  C   UNL     1      -6.167 -16.686   7.330  1.00  0.00     0.000 C 
ENDROOT
BRANCH   1   2
ATOM      2  C   UNL     1      -6.905 -15.337   7.197  1.00  0.00     0.000 C 
BRANCH   2   3
ATOM      3  C   UNL     1      -6.524 -14.550   5.932  1.00  0.00     0.000 C 
BRANCH   3   4
ATOM      4  C   UNL     1      -6.903 -13.062   6.014  1.00  0.00     0.000 C 
BRANCH   4   5
ATOM      5  C   UNL     1      -5.694 -12.172   6.372  1.00  0.00     0.000 C 
BRANCH   5   6
ATOM      6  C   UNL     1      -4.473 -12.964   6.871  1.00  0.00     0.006 C 
BRANCH   6   7
ATOM      7  C   UNL     1      -4.002 -12.519   8.260  1.00  0.00     0.053 C 
BRANCH   7   8
ATOM      8  C   UNL     1      -3.472 -11.120   8.209  1.00  0.00     0.041 C 
ATOM      9  O   UNL     1      -3.142 -10.528   9.270  1.00  0.00    -0.550 OA
ATOM     10  O   UNL     1      -3.391 -10.452   6.994  1.00  0.00    -0.550 OA
ENDBRANCH   7   8
ENDBRANCH   6   7
ENDBRANCH   5   6
ENDBRANCH   4   5
ENDBRANCH   3   4
ENDBRANCH   2   3
ENDBRANCH   1   2
BRANCH   1  11
ATOM     11  C   UNL     1      -5.082 -16.865   6.253  1.00  0.00     0.000 C 
BRANCH  11  12
ATOM     12  C   UNL     1      -3.750 -17.366   6.831  1.00  0.00    -0.000 C 
BRANCH  12  13
ATOM     13  C   UNL     1      -2.903 -16.235   7.435  1.00  0.00    -0.000 C 
BRANCH  13  14
ATOM     14  C   UNL     1      -2.798 -15.049   6.464  1.00  0.00    -0.000 C 
BRANCH  14  15
ATOM     15  C   UNL     1      -1.453 -14.314   6.566  1.00  0.00    -0.000 C 
BRANCH  15  16
ATOM     16  C   UNL     1      -0.963 -14.176   8.019  1.00  0.00    -0.000 C 
BRANCH  16  17
ATOM     17  C   UNL     1       0.545 -13.898   8.107  1.00  0.00    -0.003 C 
ATOM     18  C   UNL     1       1.209 -14.595   9.294  1.00  0.00     0.004 C 
ENDBRANCH  16  17
ENDBRANCH  15  16
ENDBRANCH  14  15
ENDBRANCH  13  14
ENDBRANCH  12  13
ENDBRANCH  11  12
ENDBRANCH   1  11
TORSDOF 14
ENDMDL
MODEL 6
REMARK VINA RESULT:     8.293     14.017     16.466
REMARK INTER + INTRA:          14.832
REMARK INTER:                  15.523
REMARK INTRA:                  -0.691
REMARK UNBOUND:                -0.248
REMARK SMILES CCCCCCCCCCCCCCCC(=O)[O-]
REMARK SMILES IDX 9 1 10 2 11 3 12 4 13 5 14 6 15 7 16 8 17 9 18 10 8 11 7 12
REMARK SMILES IDX 6 13 5 14 4 15 3 16 2 17 1 18
REMARK H PARENT
REMARK Flexibility Score: inf
ROOT
ATOM      1  C   UNL     1      -0.993  -8.521  20.263  1.00  0.00     0.000 C 
ENDROOT
BRANCH   1   2
ATOM      2  C   UNL     1      -0.934  -8.118  21.752  1.00  0.00     0.000 C 
BRANCH   2   3
ATOM      3  C   UNL     1      -1.502  -6.717  22.034  1.00  0.00     0.000 C 
BRANCH   3   4
ATOM      4  C   UNL     1      -1.863  -6.501  23.512  1.00  0.00     0.000 C 
BRANCH   4   5
ATOM      5  C   UNL     1      -1.604  -5.050  23.970  1.00  0.00     0.000 C 
BRANCH   5   6
ATOM      6  C   UNL     1      -2.874  -4.312  24.426  1.00  0.00     0.006 C 
BRANCH   6   7
ATOM      7  C   UNL     1      -3.567  -4.995  25.610  1.00  0.00     0.053 C 
BRANCH   7   8
ATOM      8  C   UNL     1      -4.994  -5.300  25.275  1.00  0.00     0.041 C 
ATOM      9  O   UNL     1      -5.901  -5.099  26.125  1.00  0.00    -0.550 OA
ATOM     10  O   UNL     1      -5.314  -5.856  24.044  1.00  0.00    -0.550 OA
ENDBRANCH   7   8
ENDBRANCH   6   7
ENDBRANCH   5   6
ENDBRANCH   4   5
ENDBRANCH   3   4
ENDBRANCH   2   3
ENDBRANCH   1   2
BRANCH   1  11
ATOM     11  C   UNL     1      -2.390  -8.304  19.656  1.00  0.00     0.000 C 
BRANCH  11  12
ATOM     12  C   UNL     1      -3.459  -9.206  20.292  1.00  0.00    -0.000 C 
BRANCH  12  13
ATOM     13  C   UNL     1      -3.414 -10.646  19.760  1.00  0.00    -0.000 C 
BRANCH  13  14
ATOM     14  C   UNL     1      -4.439 -11.531  20.486  1.00  0.00    -0.000 C 
BRANCH  14  15
ATOM     15  C   UNL     1      -4.594 -12.915  19.838  1.00  0.00    -0.000 C 
BRANCH  15  16
ATOM     16  C   UNL     1      -4.094 -14.053  20.747  1.00  0.00    -0.000 C 
BRANCH  16  17
ATOM     17  C   UNL     1      -3.244 -15.082  19.988  1.00  0.00    -0.003 C 
ATOM     18  C   UNL     1      -4.079 -16.205  19.374  1.00  0.00     0.004 C 
ENDBRANCH  16  17
ENDBRANCH  15  16
ENDBRANCH  14  15
ENDBRANCH  13  14
ENDBRANCH  12  13
ENDBRANCH  11  12
ENDBRANCH   1  11
TORSDOF 14
ENDMDL
MODEL 7
REMARK VINA RESULT:     8.498      2.268      5.463
REMARK INTER + INTRA:          15.205
REMARK INTER:                  15.365
REMARK INTRA:                  -0.160
REMARK UNBOUND:                -0.248
REMARK SMILES CCCCCCCCCCCCCCCC(=O)[O-]
REMARK SMILES IDX 9 1 10 2 11 3 12 4 13 5 14 6 15 7 16 8 17 9 18 10 8 11 7 12
REMARK SMILES IDX 6 13 5 14 4 15 3 16 2 17 1 18
REMARK H PARENT
REMARK Flexibility Score: inf
ROOT
ATOM      1  C   UNL     1      -5.860 -12.862   5.978  1.00  0.00     0.000 C 
ENDROOT
BRANCH   1   2
ATOM      2  C   UNL     1      -4.474 -13.356   6.446  1.00  0.00     0.000 C 
BRANCH   2   3
ATOM      3  C   UNL     1      -3.799 -12.421   7.463  1.00  0.00     0.000 C 
BRANCH   3   4
ATOM      4  C   UNL     1      -2.821 -13.155   8.395  1.00  0.00     0.000 C 
BRANCH   4   5
ATOM      5  C   UNL     1      -2.060 -14.285   7.669  1.00  0.00     0.000 C 
BRANCH   5   6
ATOM      6  C   UNL     1      -0.576 -13.966   7.421  1.00  0.00     0.006 C 
BRANCH   6   7
ATOM      7  C   UNL     1       0.168 -13.558   8.697  1.00  0.00     0.053 C 
BRANCH   7   8
ATOM      8  C   UNL     1       1.129 -14.630   9.107  1.00  0.00     0.041 C 
ATOM      9  O   UNL     1       1.733 -15.307   8.234  1.00  0.00    -0.550 OA
ATOM     10  O   UNL     1       1.317 -14.916  10.453  1.00  0.00    -0.550 OA
ENDBRANCH   7   8
ENDBRANCH   6   7
ENDBRANCH   5   6
ENDBRANCH   4   5
ENDBRANCH   3   4
ENDBRANCH   2   3
ENDBRANCH   1   2
BRANCH   1  11
ATOM     11  C   UNL     1      -6.935 -13.958   6.084  1.00  0.00     0.000 C 
BRANCH  11  12
ATOM     12  C   UNL     1      -6.967 -14.625   7.467  1.00  0.00    -0.000 C 
BRANCH  12  13
ATOM     13  C   UNL     1      -6.755 -16.145   7.399  1.00  0.00    -0.000 C 
BRANCH  13  14
ATOM     14  C   UNL     1      -5.610 -16.497   6.438  1.00  0.00    -0.000 C 
BRANCH  14  15
ATOM     15  C   UNL     1      -4.394 -17.101   7.158  1.00  0.00    -0.000 C 
BRANCH  15  16
ATOM     16  C   UNL     1      -3.066 -16.458   6.718  1.00  0.00    -0.000 C 
BRANCH  16  17
ATOM     17  C   UNL     1      -2.029 -17.499   6.270  1.00  0.00    -0.003 C 
ATOM     18  C   UNL     1      -2.633 -18.886   6.058  1.00  0.00     0.004 C 
ENDBRANCH  16  17
ENDBRANCH  15  16
ENDBRANCH  14  15
ENDBRANCH  13  14
ENDBRANCH  12  13
ENDBRANCH  11  12
ENDBRANCH   1  11
TORSDOF 14
ENDMDL
MODEL 8
REMARK VINA RESULT:     8.520      1.195      2.201
REMARK INTER + INTRA:          15.245
REMARK INTER:                  16.701
REMARK INTRA:                  -1.456
REMARK UNBOUND:                -0.248
REMARK SMILES CCCCCCCCCCCCCCCC(=O)[O-]
REMARK SMILES IDX 9 1 10 2 11 3 12 4 13 5 14 6 15 7 16 8 17 9 18 10 8 11 7 12
REMARK SMILES IDX 6 13 5 14 4 15 3 16 2 17 1 18
REMARK H PARENT
REMARK Flexibility Score: inf
ROOT
ATOM      1  C   UNL     1      -2.764 -15.477   6.055  1.00  0.00     0.000 C 
ENDROOT
BRANCH   1   2
ATOM      2  C   UNL     1      -2.967 -16.519   7.175  1.00  0.00     0.000 C 
BRANCH   2   3
ATOM      3  C   UNL     1      -4.231 -17.376   6.995  1.00  0.00     0.000 C 
BRANCH   3   4
ATOM      4  C   UNL     1      -5.377 -16.619   6.304  1.00  0.00     0.000 C 
BRANCH   4   5
ATOM      5  C   UNL     1      -6.432 -16.113   7.311  1.00  0.00     0.000 C 
BRANCH   5   6
ATOM      6  C   UNL     1      -7.028 -14.744   6.943  1.00  0.00     0.006 C 
BRANCH   6   7
ATOM      7  C   UNL     1      -6.162 -13.965   5.947  1.00  0.00     0.053 C 
BRANCH   7   8
ATOM      8  C   UNL     1      -5.973 -12.554   6.409  1.00  0.00     0.041 C 
ATOM      9  O   UNL     1      -4.909 -12.215   6.991  1.00  0.00    -0.550 OA
ATOM     10  O   UNL     1      -6.994 -11.627   6.244  1.00  0.00    -0.550 OA
ENDBRANCH   7   8
ENDBRANCH   6   7
ENDBRANCH   5   6
ENDBRANCH   4   5
ENDBRANCH   3   4
ENDBRANCH   2   3
ENDBRANCH   1   2
BRANCH   1  11
ATOM     11  C   UNL     1      -2.143 -14.170   6.581  1.00  0.00     0.000 C 
BRANCH  11  12
ATOM     12  C   UNL     1      -2.344 -13.986   8.093  1.00  0.00    -0.000 C 
BRANCH  12  13
ATOM     13  C   UNL     1      -1.018 -13.965   8.870  1.00  0.00    -0.000 C 
BRANCH  13  14
ATOM     14  C   UNL     1       0.101 -13.334   8.028  1.00  0.00    -0.000 C 
BRANCH  14  15
ATOM     15  C   UNL     1       1.444 -14.065   8.180  1.00  0.00    -0.000 C 
BRANCH  15  16
ATOM     16  C   UNL     1       1.377 -15.218   9.198  1.00  0.00    -0.000 C 
BRANCH  16  17
ATOM     17  C   UNL     1       2.082 -14.876  10.519  1.00  0.00    -0.003 C 
ATOM     18  C   UNL     1       1.217 -15.165  11.746  1.00  0.00     0.004 C 
ENDBRANCH  16  17
ENDBRANCH  15  16
ENDBRANCH  14  15
ENDBRANCH  13  14
ENDBRANCH  12  13
ENDBRANCH  11  12
ENDBRANCH   1  11
TORSDOF 14
ENDMDL
MODEL 9
REMARK VINA RESULT:     8.603     13.780     16.253
REMARK INTER + INTRA:          15.395
REMARK INTER:                  16.189
REMARK INTRA:                  -0.794
REMARK UNBOUND:                -0.248
REMARK SMILES CCCCCCCCCCCCCCCC(=O)[O-]
REMARK SMILES IDX 9 1 10 2 11 3 12 4 13 5 14 6 15 7 16 8 17 9 18 10 8 11 7 12
REMARK SMILES IDX 6 13 5 14 4 15 3 16 2 17 1 18
REMARK H PARENT
REMARK Flexibility Score: inf
ROOT
ATOM      1  C   UNL     1      -0.903  -8.381  20.385  1.00  0.00     0.000 C 
ENDROOT
BRANCH   1   2
ATOM      2  C   UNL     1      -2.228  -8.182  19.618  1.00  0.00     0.000 C 
BRANCH   2   3
ATOM      3  C   UNL     1      -3.386  -9.034  20.162  1.00  0.00     0.000 C 
BRANCH   3   4
ATOM      4  C   UNL     1      -3.154 -10.544  19.989  1.00  0.00     0.000 C 
BRANCH   4   5
ATOM      5  C   UNL     1      -4.355 -11.379  20.481  1.00  0.00     0.000 C 
BRANCH   5   6
ATOM      6  C   UNL     1      -4.496 -12.736  19.769  1.00  0.00     0.006 C 
BRANCH   6   7
ATOM      7  C   UNL     1      -4.036 -13.914  20.634  1.00  0.00     0.053 C 
BRANCH   7   8
ATOM      8  C   UNL     1      -3.349 -14.943  19.792  1.00  0.00     0.041 C 
ATOM      9  O   UNL     1      -3.792 -16.121  19.745  1.00  0.00    -0.550 OA
ATOM     10  O   UNL     1      -2.191 -14.615  19.101  1.00  0.00    -0.550 OA
ENDBRANCH   7   8
ENDBRANCH   6   7
ENDBRANCH   5   6
ENDBRANCH   4   5
ENDBRANCH   3   4
ENDBRANCH   2   3
ENDBRANCH   1   2
BRANCH   1  11
ATOM     11  C   UNL     1      -1.049  -8.081  21.888  1.00  0.00     0.000 C 
BRANCH  11  12
ATOM     12  C   UNL     1      -1.336  -6.599  22.171  1.00  0.00    -0.000 C 
BRANCH  12  13
ATOM     13  C   UNL     1      -2.261  -6.393  23.380  1.00  0.00    -0.000 C 
BRANCH  13  14
ATOM     14  C   UNL     1      -1.828  -5.169  24.200  1.00  0.00    -0.000 C 
BRANCH  14  15
ATOM     15  C   UNL     1      -3.017  -4.316  24.669  1.00  0.00    -0.000 C 
BRANCH  15  16
ATOM     16  C   UNL     1      -3.493  -4.692  26.084  1.00  0.00    -0.000 C 
BRANCH  16  17
ATOM     17  C   UNL     1      -4.985  -5.054  26.125  1.00  0.00    -0.003 C 
ATOM     18  C   UNL     1      -5.519  -5.530  24.775  1.00  0.00     0.004 C 
ENDBRANCH  16  17
ENDBRANCH  15  16
ENDBRANCH  14  15
ENDBRANCH  13  14
ENDBRANCH  12  13
ENDBRANCH  11  12
ENDBRANCH   1  11
TORSDOF 14
ENDMDL
