MODEL 1
REMARK VINA RESULT:    -5.435      0.000      0.000
REMARK INTER + INTRA:          -6.868
REMARK INTER:                  -6.547
REMARK INTRA:                  -0.321
REMARK UNBOUND:                -0.321
REMARK SMILES O=c1c(O)c(-c2ccc(O)c(O)c2)oc2cc(O)cc(O)c12
REMARK SMILES IDX 5 1 3 2 2 3 1 4 22 5 20 6 19 7 17 8 16 9 15 10 14 11 6 12
REMARK SMILES IDX 7 13 8 14 9 15 13 16 11 17 10 18 12 20 4 22 21 24 18 26
REMARK H PARENT 10 19 12 21 4 23 21 25 18 27
REMARK Flexibility Score: inf
ROOT
ATOM      1  C   UNL     1       9.010  16.789  13.354  1.00  0.00     0.180 A 
ATOM      2  C   UNL     1       8.236  17.705  14.089  1.00  0.00     0.208 A 
ATOM      3  C   UNL     1       7.191  18.385  13.445  1.00  0.00     0.238 A 
ATOM      4  O   UNL     1       6.537  19.243  14.093  1.00  0.00    -0.285 OA
ATOM      5  C   UNL     1       6.921  18.130  12.078  1.00  0.00     0.111 A 
ATOM      6  C   UNL     1       5.862  18.732  11.336  1.00  0.00     0.134 A 
ATOM      7  C   UNL     1       5.769  18.505   9.957  1.00  0.00     0.093 A 
ATOM      8  C   UNL     1       6.659  17.646   9.307  1.00  0.00     0.123 A 
ATOM      9  C   UNL     1       7.659  17.007  10.034  1.00  0.00     0.094 A 
ATOM     10  C   UNL     1       7.800  17.242  11.405  1.00  0.00     0.146 A 
ATOM     11  O   UNL     1       8.774  16.621  12.059  1.00  0.00    -0.452 OA
ENDROOT
BRANCH   1  12
ATOM     12  C   UNL     1      10.112  16.015  13.970  1.00  0.00     0.025 A 
ATOM     13  C   UNL     1      11.438  16.437  13.787  1.00  0.00     0.016 A 
ATOM     14  C   UNL     1      12.495  15.711  14.342  1.00  0.00     0.051 A 
ATOM     15  C   UNL     1      12.245  14.546  15.074  1.00  0.00     0.157 A 
ATOM     16  C   UNL     1       9.863  14.832  14.688  1.00  0.00     0.062 A 
ATOM     17  C   UNL     1      10.923  14.100  15.245  1.00  0.00     0.158 A 
BRANCH  15  18
ATOM     18  O   UNL     1      13.319  13.843  15.618  1.00  0.00    -0.504 OA
ATOM     19  H   UNL     1      13.846  13.165  15.080  1.00  0.00     0.293 HD
ENDBRANCH  15  18
BRANCH  17  20
ATOM     20  O   UNL     1      10.667  12.932  15.961  1.00  0.00    -0.504 OA
ATOM     21  H   UNL     1      10.607  12.030  15.503  1.00  0.00     0.293 HD
ENDBRANCH  17  20
ENDBRANCH   1  12
BRANCH   2  22
ATOM     22  O   UNL     1       8.534  17.957  15.431  1.00  0.00    -0.502 OA
ATOM     23  H   UNL     1       9.345  17.563  15.893  1.00  0.00     0.293 HD
ENDBRANCH   2  22
BRANCH   6  24
ATOM     24  O   UNL     1       4.866  19.532  11.903  1.00  0.00    -0.507 OA
ATOM     25  H   UNL     1       5.025  20.438  12.319  1.00  0.00     0.293 HD
ENDBRANCH   6  24
BRANCH   8  26
ATOM     26  O   UNL     1       6.550  17.413   7.937  1.00  0.00    -0.508 OA
ATOM     27  H   UNL     1       7.264  16.905   7.427  1.00  0.00     0.293 HD
ENDBRANCH   8  26
TORSDOF 6
ENDMDL
MODEL 2
REMARK VINA RESULT:    -5.370      1.521      3.157
REMARK INTER + INTRA:          -6.790
REMARK INTER:                  -6.514
REMARK INTRA:                  -0.276
REMARK UNBOUND:                -0.321
REMARK SMILES O=c1c(O)c(-c2ccc(O)c(O)c2)oc2cc(O)cc(O)c12
REMARK SMILES IDX 5 1 3 2 2 3 1 4 22 5 20 6 19 7 17 8 16 9 15 10 14 11 6 12
REMARK SMILES IDX 7 13 8 14 9 15 13 16 11 17 10 18 12 20 4 22 21 24 18 26
REMARK H PARENT 10 19 12 21 4 23 21 25 18 27
REMARK Flexibility Score: inf
ROOT
ATOM      1  C   UNL     1       9.813  15.758  12.072  1.00  0.00     0.180 A 
ATOM      2  C   UNL     1       9.586  15.436  10.722  1.00  0.00     0.208 A 
ATOM      3  C   UNL     1       8.517  16.045  10.047  1.00  0.00     0.238 A 
ATOM      4  O   UNL     1       8.286  15.712   8.856  1.00  0.00    -0.285 OA
ATOM      5  C   UNL     1       7.697  16.981  10.724  1.00  0.00     0.111 A 
ATOM      6  C   UNL     1       6.611  17.687  10.126  1.00  0.00     0.134 A 
ATOM      7  C   UNL     1       5.788  18.491  10.924  1.00  0.00     0.093 A 
ATOM      8  C   UNL     1       6.050  18.664  12.285  1.00  0.00     0.123 A 
ATOM      9  C   UNL     1       7.143  18.025  12.865  1.00  0.00     0.094 A 
ATOM     10  C   UNL     1       7.962  17.188  12.102  1.00  0.00     0.146 A 
ATOM     11  O   UNL     1       8.987  16.589  12.697  1.00  0.00    -0.452 OA
ENDROOT
BRANCH   1  12
ATOM     12  C   UNL     1      10.935  15.177  12.844  1.00  0.00     0.025 A 
ATOM     13  C   UNL     1      12.240  15.644  12.623  1.00  0.00     0.016 A 
ATOM     14  C   UNL     1      13.316  15.096  13.325  1.00  0.00     0.051 A 
ATOM     15  C   UNL     1      13.108  14.064  14.246  1.00  0.00     0.157 A 
ATOM     16  C   UNL     1      10.730  14.126  13.754  1.00  0.00     0.062 A 
ATOM     17  C   UNL     1      11.810  13.572  14.459  1.00  0.00     0.158 A 
BRANCH  15  18
ATOM     18  O   UNL     1      14.201  13.538  14.934  1.00  0.00    -0.504 OA
ATOM     19  H   UNL     1      14.091  12.973  15.767  1.00  0.00     0.293 HD
ENDBRANCH  15  18
BRANCH  17  20
ATOM     20  O   UNL     1      11.596  12.534  15.365  1.00  0.00    -0.504 OA
ATOM     21  H   UNL     1      11.807  11.571  15.129  1.00  0.00     0.293 HD
ENDBRANCH  17  20
ENDBRANCH   1  12
BRANCH   2  22
ATOM     22  O   UNL     1      10.394  14.494  10.080  1.00  0.00    -0.502 OA
ATOM     23  H   UNL     1      10.307  14.285   9.092  1.00  0.00     0.293 HD
ENDBRANCH   2  22
BRANCH   6  24
ATOM     24  O   UNL     1       6.318  17.658   8.759  1.00  0.00    -0.507 OA
ATOM     25  H   UNL     1       5.528  17.180   8.351  1.00  0.00     0.293 HD
ENDBRANCH   6  24
BRANCH   8  26
ATOM     26  O   UNL     1       5.235  19.478  13.069  1.00  0.00    -0.508 OA
ATOM     27  H   UNL     1       4.536  19.087  13.691  1.00  0.00     0.293 HD
ENDBRANCH   8  26
TORSDOF 6
ENDMDL
MODEL 3
REMARK VINA RESULT:    -5.299      1.686      7.273
REMARK INTER + INTRA:          -6.704
REMARK INTER:                  -6.564
REMARK INTRA:                  -0.140
REMARK UNBOUND:                -0.321
REMARK SMILES O=c1c(O)c(-c2ccc(O)c(O)c2)oc2cc(O)cc(O)c12
REMARK SMILES IDX 5 1 3 2 2 3 1 4 22 5 20 6 19 7 17 8 16 9 15 10 14 11 6 12
REMARK SMILES IDX 7 13 8 14 9 15 13 16 11 17 10 18 12 20 4 22 21 24 18 26
REMARK H PARENT 10 19 12 21 4 23 21 25 18 27
REMARK Flexibility Score: inf
ROOT
ATOM      1  C   UNL     1       9.586  16.448  12.297  1.00  0.00     0.180 A 
ATOM      2  C   UNL     1      10.800  16.453  11.588  1.00  0.00     0.208 A 
ATOM      3  C   UNL     1      11.864  15.664  12.052  1.00  0.00     0.238 A 
ATOM      4  O   UNL     1      12.964  15.714  11.444  1.00  0.00    -0.285 OA
ATOM      5  C   UNL     1      11.697  14.867  13.211  1.00  0.00     0.111 A 
ATOM      6  C   UNL     1      12.694  13.999  13.747  1.00  0.00     0.134 A 
ATOM      7  C   UNL     1      12.465  13.357  14.970  1.00  0.00     0.093 A 
ATOM      8  C   UNL     1      11.250  13.503  15.644  1.00  0.00     0.123 A 
ATOM      9  C   UNL     1      10.248  14.301  15.098  1.00  0.00     0.094 A 
ATOM     10  C   UNL     1      10.460  14.982  13.897  1.00  0.00     0.146 A 
ATOM     11  O   UNL     1       9.482  15.742  13.417  1.00  0.00    -0.452 OA
ENDROOT
BRANCH   1  12
ATOM     12  C   UNL     1       8.411  17.234  11.856  1.00  0.00     0.025 A 
ATOM     13  C   UNL     1       7.841  18.174  12.730  1.00  0.00     0.016 A 
ATOM     14  C   UNL     1       6.720  18.911  12.342  1.00  0.00     0.051 A 
ATOM     15  C   UNL     1       6.143  18.713  11.083  1.00  0.00     0.157 A 
ATOM     16  C   UNL     1       7.818  17.020  10.600  1.00  0.00     0.062 A 
ATOM     17  C   UNL     1       6.691  17.759  10.208  1.00  0.00     0.158 A 
BRANCH  15  18
ATOM     18  O   UNL     1       5.026  19.465  10.723  1.00  0.00    -0.504 OA
ATOM     19  H   UNL     1       4.568  20.092  11.373  1.00  0.00     0.293 HD
ENDBRANCH  15  18
BRANCH  17  20
ATOM     20  O   UNL     1       6.113  17.545   8.958  1.00  0.00    -0.504 OA
ATOM     21  H   UNL     1       5.604  18.276   8.475  1.00  0.00     0.293 HD
ENDBRANCH  17  20
ENDBRANCH   1  12
BRANCH   2  22
ATOM     22  O   UNL     1      10.950  17.264  10.459  1.00  0.00    -0.502 OA
ATOM     23  H   UNL     1      10.187  17.455   9.821  1.00  0.00     0.293 HD
ENDBRANCH   2  22
BRANCH   6  24
ATOM     24  O   UNL     1      13.905  13.711  13.110  1.00  0.00    -0.507 OA
ATOM     25  H   UNL     1      14.729  13.360  13.574  1.00  0.00     0.293 HD
ENDBRANCH   6  24
BRANCH   8  26
ATOM     26  O   UNL     1      11.025  12.849  16.853  1.00  0.00    -0.508 OA
ATOM     27  H   UNL     1      10.638  11.912  16.886  1.00  0.00     0.293 HD
ENDBRANCH   8  26
TORSDOF 6
ENDMDL
MODEL 4
REMARK VINA RESULT:    -5.161     15.905     18.918
REMARK INTER + INTRA:          -6.538
REMARK INTER:                  -6.222
REMARK INTRA:                  -0.316
REMARK UNBOUND:                -0.321
REMARK SMILES O=c1c(O)c(-c2ccc(O)c(O)c2)oc2cc(O)cc(O)c12
REMARK SMILES IDX 5 1 3 2 2 3 1 4 22 5 20 6 19 7 17 8 16 9 15 10 14 11 6 12
REMARK SMILES IDX 7 13 8 14 9 15 13 16 11 17 10 18 12 20 4 22 21 24 18 26
REMARK H PARENT 10 19 12 21 4 23 21 25 18 27
REMARK Flexibility Score: inf
ROOT
ATOM      1  C   UNL     1      11.285   3.149  26.001  1.00  0.00     0.180 A 
ATOM      2  C   UNL     1      10.450   2.400  26.849  1.00  0.00     0.208 A 
ATOM      3  C   UNL     1       9.075   2.680  26.871  1.00  0.00     0.238 A 
ATOM      4  O   UNL     1       8.341   2.044  27.671  1.00  0.00    -0.285 OA
ATOM      5  C   UNL     1       8.548   3.695  26.035  1.00  0.00     0.111 A 
ATOM      6  C   UNL     1       7.166   4.035  25.948  1.00  0.00     0.134 A 
ATOM      7  C   UNL     1       6.774   5.142  25.185  1.00  0.00     0.093 A 
ATOM      8  C   UNL     1       7.709   5.881  24.454  1.00  0.00     0.123 A 
ATOM      9  C   UNL     1       9.053   5.519  24.486  1.00  0.00     0.094 A 
ATOM     10  C   UNL     1       9.479   4.441  25.267  1.00  0.00     0.146 A 
ATOM     11  O   UNL     1      10.771   4.137  25.278  1.00  0.00    -0.452 OA
ENDROOT
BRANCH   1  12
ATOM     12  C   UNL     1      12.741   2.896  25.902  1.00  0.00     0.025 A 
ATOM     13  C   UNL     1      13.210   1.885  25.049  1.00  0.00     0.016 A 
ATOM     14  C   UNL     1      14.577   1.615  24.956  1.00  0.00     0.051 A 
ATOM     15  C   UNL     1      15.495   2.339  25.724  1.00  0.00     0.157 A 
ATOM     16  C   UNL     1      13.662   3.609  26.690  1.00  0.00     0.062 A 
ATOM     17  C   UNL     1      15.036   3.338  26.599  1.00  0.00     0.158 A 
BRANCH  15  18
ATOM     18  O   UNL     1      16.854   2.049  25.608  1.00  0.00    -0.504 OA
ATOM     19  H   UNL     1      17.509   2.699  25.189  1.00  0.00     0.293 HD
ENDBRANCH  15  18
BRANCH  17  20
ATOM     20  O   UNL     1      15.943   4.054  27.378  1.00  0.00    -0.504 OA
ATOM     21  H   UNL     1      16.005   3.920  28.381  1.00  0.00     0.293 HD
ENDBRANCH  17  20
ENDBRANCH   1  12
BRANCH   2  22
ATOM     22  O   UNL     1      10.994   1.418  27.681  1.00  0.00    -0.502 OA
ATOM     23  H   UNL     1      11.535   0.640  27.324  1.00  0.00     0.293 HD
ENDBRANCH   2  22
BRANCH   6  24
ATOM     24  O   UNL     1       6.141   3.309  26.562  1.00  0.00    -0.507 OA
ATOM     25  H   UNL     1       6.235   2.367  26.913  1.00  0.00     0.293 HD
ENDBRANCH   6  24
BRANCH   8  26
ATOM     26  O   UNL     1       7.308   6.971  23.685  1.00  0.00    -0.508 OA
ATOM     27  H   UNL     1       7.592   7.916  23.917  1.00  0.00     0.293 HD
ENDBRANCH   8  26
TORSDOF 6
ENDMDL
MODEL 5
REMARK VINA RESULT:    -5.096      3.828      6.758
REMARK INTER + INTRA:          -6.459
REMARK INTER:                  -6.141
REMARK INTRA:                  -0.318
REMARK UNBOUND:                -0.321
REMARK SMILES O=c1c(O)c(-c2ccc(O)c(O)c2)oc2cc(O)cc(O)c12
REMARK SMILES IDX 5 1 3 2 2 3 1 4 22 5 20 6 19 7 17 8 16 9 15 10 14 11 6 12
REMARK SMILES IDX 7 13 8 14 9 15 13 16 11 17 10 18 12 20 4 22 21 24 18 26
REMARK H PARENT 10 19 12 21 4 23 21 25 18 27
REMARK Flexibility Score: inf
ROOT
ATOM      1  C   UNL     1      13.811  16.382  12.804  1.00  0.00     0.180 A 
ATOM      2  C   UNL     1      12.700  17.029  12.236  1.00  0.00     0.208 A 
ATOM      3  C   UNL     1      11.413  16.702  12.694  1.00  0.00     0.238 A 
ATOM      4  O   UNL     1      10.420  17.244  12.144  1.00  0.00    -0.285 OA
ATOM      5  C   UNL     1      11.255  15.744  13.725  1.00  0.00     0.111 A 
ATOM      6  C   UNL     1      10.002  15.366  14.293  1.00  0.00     0.134 A 
ATOM      7  C   UNL     1       9.952  14.314  15.216  1.00  0.00     0.093 A 
ATOM      8  C   UNL     1      11.118  13.671  15.640  1.00  0.00     0.123 A 
ATOM      9  C   UNL     1      12.351  14.074  15.135  1.00  0.00     0.094 A 
ATOM     10  C   UNL     1      12.430  15.096  14.186  1.00  0.00     0.146 A 
ATOM     11  O   UNL     1      13.626  15.441  13.722  1.00  0.00    -0.452 OA
ENDROOT
BRANCH   1  12
ATOM     12  C   UNL     1      15.200  16.691  12.392  1.00  0.00     0.025 A 
ATOM     13  C   UNL     1      15.922  17.677  13.083  1.00  0.00     0.016 A 
ATOM     14  C   UNL     1      17.225  18.000  12.698  1.00  0.00     0.051 A 
ATOM     15  C   UNL     1      17.822  17.354  11.610  1.00  0.00     0.157 A 
ATOM     16  C   UNL     1      15.793  16.058  11.286  1.00  0.00     0.062 A 
ATOM     17  C   UNL     1      17.102  16.381  10.897  1.00  0.00     0.158 A 
BRANCH  15  18
ATOM     18  O   UNL     1      19.126  17.695  11.251  1.00  0.00    -0.504 OA
ATOM     19  H   UNL     1      19.917  17.104  11.475  1.00  0.00     0.293 HD
ENDBRANCH  15  18
BRANCH  17  20
ATOM     20  O   UNL     1      17.685  15.744   9.803  1.00  0.00    -0.504 OA
ATOM     21  H   UNL     1      17.612  16.123   8.866  1.00  0.00     0.293 HD
ENDBRANCH  17  20
ENDBRANCH   1  12
BRANCH   2  22
ATOM     22  O   UNL     1      12.878  17.955  11.205  1.00  0.00    -0.502 OA
ATOM     23  H   UNL     1      13.467  18.773  11.304  1.00  0.00     0.293 HD
ENDBRANCH   2  22
BRANCH   6  24
ATOM     24  O   UNL     1       8.791  16.004  14.009  1.00  0.00    -0.507 OA
ATOM     25  H   UNL     1       8.169  15.747  13.256  1.00  0.00     0.293 HD
ENDBRANCH   6  24
BRANCH   8  26
ATOM     26  O   UNL     1      11.060  12.636  16.571  1.00  0.00    -0.508 OA
ATOM     27  H   UNL     1      10.736  11.711  16.315  1.00  0.00     0.293 HD
ENDBRANCH   8  26
TORSDOF 6
ENDMDL
MODEL 6
REMARK VINA RESULT:    -5.081     17.499     18.990
REMARK INTER + INTRA:          -6.442
REMARK INTER:                  -6.461
REMARK INTRA:                   0.019
REMARK UNBOUND:                -0.321
REMARK SMILES O=c1c(O)c(-c2ccc(O)c(O)c2)oc2cc(O)cc(O)c12
REMARK SMILES IDX 5 1 3 2 2 3 1 4 22 5 20 6 19 7 17 8 16 9 15 10 14 11 6 12
REMARK SMILES IDX 7 13 8 14 9 15 13 16 11 17 10 18 12 20 4 22 21 24 18 26
REMARK H PARENT 10 19 12 21 4 23 21 25 18 27
REMARK Flexibility Score: inf
ROOT
ATOM      1  C   UNL     1      11.899   3.233  25.831  1.00  0.00     0.180 A 
ATOM      2  C   UNL     1      11.121   2.336  25.079  1.00  0.00     0.208 A 
ATOM      3  C   UNL     1       9.773   2.640  24.836  1.00  0.00     0.238 A 
ATOM      4  O   UNL     1       9.068   1.808  24.208  1.00  0.00    -0.285 OA
ATOM      5  C   UNL     1       9.222   3.846  25.335  1.00  0.00     0.111 A 
ATOM      6  C   UNL     1       7.879   4.274  25.115  1.00  0.00     0.134 A 
ATOM      7  C   UNL     1       7.405   5.421  25.764  1.00  0.00     0.093 A 
ATOM      8  C   UNL     1       8.245   6.189  26.574  1.00  0.00     0.123 A 
ATOM      9  C   UNL     1       9.574   5.811  26.747  1.00  0.00     0.094 A 
ATOM     10  C   UNL     1      10.066   4.653  26.141  1.00  0.00     0.146 A 
ATOM     11  O   UNL     1      11.337   4.323  26.341  1.00  0.00    -0.452 OA
ENDROOT
BRANCH   1  12
ATOM     12  C   UNL     1      13.334   2.994  26.107  1.00  0.00     0.025 A 
ATOM     13  C   UNL     1      13.835   3.213  27.400  1.00  0.00     0.016 A 
ATOM     14  C   UNL     1      15.189   3.014  27.678  1.00  0.00     0.051 A 
ATOM     15  C   UNL     1      16.066   2.606  26.667  1.00  0.00     0.157 A 
ATOM     16  C   UNL     1      14.220   2.605  25.087  1.00  0.00     0.062 A 
ATOM     17  C   UNL     1      15.582   2.405  25.364  1.00  0.00     0.158 A 
BRANCH  15  18
ATOM     18  O   UNL     1      17.412   2.412  26.975  1.00  0.00    -0.504 OA
ATOM     19  H   UNL     1      18.056   1.979  26.323  1.00  0.00     0.293 HD
ENDBRANCH  15  18
BRANCH  17  20
ATOM     20  O   UNL     1      16.452   2.013  24.348  1.00  0.00    -0.504 OA
ATOM     21  H   UNL     1      16.481   1.058  24.012  1.00  0.00     0.293 HD
ENDBRANCH  17  20
ENDBRANCH   1  12
BRANCH   2  22
ATOM     22  O   UNL     1      11.680   1.141  24.614  1.00  0.00    -0.502 OA
ATOM     23  H   UNL     1      11.906   0.990  23.639  1.00  0.00     0.293 HD
ENDBRANCH   2  22
BRANCH   6  24
ATOM     24  O   UNL     1       6.985   3.632  24.253  1.00  0.00    -0.507 OA
ATOM     25  H   UNL     1       6.035   3.930  24.084  1.00  0.00     0.293 HD
ENDBRANCH   6  24
BRANCH   8  26
ATOM     26  O   UNL     1       7.769   7.337  27.205  1.00  0.00    -0.508 OA
ATOM     27  H   UNL     1       7.798   7.439  28.213  1.00  0.00     0.293 HD
ENDBRANCH   8  26
TORSDOF 6
ENDMDL
MODEL 7
REMARK VINA RESULT:    -5.080      3.731      6.765
REMARK INTER + INTRA:          -6.441
REMARK INTER:                  -6.118
REMARK INTRA:                  -0.323
REMARK UNBOUND:                -0.321
REMARK SMILES O=c1c(O)c(-c2ccc(O)c(O)c2)oc2cc(O)cc(O)c12
REMARK SMILES IDX 5 1 3 2 2 3 1 4 22 5 20 6 19 7 17 8 16 9 15 10 14 11 6 12
REMARK SMILES IDX 7 13 8 14 9 15 13 16 11 17 10 18 12 20 4 22 21 24 18 26
REMARK H PARENT 10 19 12 21 4 23 21 25 18 27
REMARK Flexibility Score: inf
ROOT
ATOM      1  C   UNL     1      13.509  16.602  13.329  1.00  0.00     0.180 A 
ATOM      2  C   UNL     1      13.802  15.267  13.657  1.00  0.00     0.208 A 
ATOM      3  C   UNL     1      12.781  14.450  14.166  1.00  0.00     0.238 A 
ATOM      4  O   UNL     1      13.062  13.272  14.508  1.00  0.00    -0.285 OA
ATOM      5  C   UNL     1      11.475  14.973  14.328  1.00  0.00     0.111 A 
ATOM      6  C   UNL     1      10.355  14.225  14.799  1.00  0.00     0.134 A 
ATOM      7  C   UNL     1       9.141  14.878  15.043  1.00  0.00     0.093 A 
ATOM      8  C   UNL     1       8.989  16.240  14.772  1.00  0.00     0.123 A 
ATOM      9  C   UNL     1      10.059  16.966  14.256  1.00  0.00     0.094 A 
ATOM     10  C   UNL     1      11.294  16.350  14.036  1.00  0.00     0.146 A 
ATOM     11  O   UNL     1      12.292  17.082  13.554  1.00  0.00    -0.452 OA
ENDROOT
BRANCH   1  12
ATOM     12  C   UNL     1      14.526  17.517  12.763  1.00  0.00     0.025 A 
ATOM     13  C   UNL     1      14.723  17.556  11.373  1.00  0.00     0.016 A 
ATOM     14  C   UNL     1      15.692  18.396  10.819  1.00  0.00     0.051 A 
ATOM     15  C   UNL     1      16.487  19.199  11.643  1.00  0.00     0.157 A 
ATOM     16  C   UNL     1      15.341  18.309  13.592  1.00  0.00     0.062 A 
ATOM     17  C   UNL     1      16.315  19.153  13.037  1.00  0.00     0.158 A 
BRANCH  15  18
ATOM     18  O   UNL     1      17.444  20.030  11.062  1.00  0.00    -0.504 OA
ATOM     19  H   UNL     1      17.650  20.001  10.070  1.00  0.00     0.293 HD
ENDBRANCH  15  18
BRANCH  17  20
ATOM     20  O   UNL     1      17.114  19.938  13.866  1.00  0.00    -0.504 OA
ATOM     21  H   UNL     1      17.661  20.710  13.502  1.00  0.00     0.293 HD
ENDBRANCH  17  20
ENDBRANCH   1  12
BRANCH   2  22
ATOM     22  O   UNL     1      15.103  14.777  13.509  1.00  0.00    -0.502 OA
ATOM     23  H   UNL     1      15.718  15.081  12.763  1.00  0.00     0.293 HD
ENDBRANCH   2  22
BRANCH   6  24
ATOM     24  O   UNL     1      10.373  12.843  15.013  1.00  0.00    -0.507 OA
ATOM     25  H   UNL     1      10.935  12.377  15.710  1.00  0.00     0.293 HD
ENDBRANCH   6  24
BRANCH   8  26
ATOM     26  O   UNL     1       7.773  16.880  15.003  1.00  0.00    -0.508 OA
ATOM     27  H   UNL     1       7.473  17.127  15.939  1.00  0.00     0.293 HD
ENDBRANCH   8  26
TORSDOF 6
ENDMDL
MODEL 8
REMARK VINA RESULT:    -5.073      4.519      7.747
REMARK INTER + INTRA:          -6.432
REMARK INTER:                  -6.118
REMARK INTRA:                  -0.314
REMARK UNBOUND:                -0.321
REMARK SMILES O=c1c(O)c(-c2ccc(O)c(O)c2)oc2cc(O)cc(O)c12
REMARK SMILES IDX 5 1 3 2 2 3 1 4 22 5 20 6 19 7 17 8 16 9 15 10 14 11 6 12
REMARK SMILES IDX 7 13 8 14 9 15 13 16 11 17 10 18 12 20 4 22 21 24 18 26
REMARK H PARENT 10 19 12 21 4 23 21 25 18 27
REMARK Flexibility Score: inf
ROOT
ATOM      1  C   UNL     1      14.207  16.591  13.843  1.00  0.00     0.180 A 
ATOM      2  C   UNL     1      14.549  17.780  14.511  1.00  0.00     0.208 A 
ATOM      3  C   UNL     1      15.624  18.546  14.032  1.00  0.00     0.238 A 
ATOM      4  O   UNL     1      15.958  19.580  14.665  1.00  0.00    -0.285 OA
ATOM      5  C   UNL     1      16.335  18.121  12.883  1.00  0.00     0.111 A 
ATOM      6  C   UNL     1      17.414  18.839  12.288  1.00  0.00     0.134 A 
ATOM      7  C   UNL     1      18.129  18.262  11.231  1.00  0.00     0.093 A 
ATOM      8  C   UNL     1      17.760  17.020  10.707  1.00  0.00     0.123 A 
ATOM      9  C   UNL     1      16.670  16.339  11.243  1.00  0.00     0.094 A 
ATOM     10  C   UNL     1      15.961  16.874  12.321  1.00  0.00     0.146 A 
ATOM     11  O   UNL     1      14.934  16.186  12.808  1.00  0.00    -0.452 OA
ENDROOT
BRANCH   1  12
ATOM     12  C   UNL     1      13.071  15.744  14.272  1.00  0.00     0.025 A 
ATOM     13  C   UNL     1      13.321  14.572  15.004  1.00  0.00     0.016 A 
ATOM     14  C   UNL     1      12.265  13.748  15.401  1.00  0.00     0.051 A 
ATOM     15  C   UNL     1      10.948  14.072  15.062  1.00  0.00     0.157 A 
ATOM     16  C   UNL     1      11.748  16.057  13.913  1.00  0.00     0.062 A 
ATOM     17  C   UNL     1      10.687  15.229  14.310  1.00  0.00     0.158 A 
BRANCH  15  18
ATOM     18  O   UNL     1       9.915  13.231  15.475  1.00  0.00    -0.504 OA
ATOM     19  H   UNL     1       8.952  13.543  15.515  1.00  0.00     0.293 HD
ENDBRANCH  15  18
BRANCH  17  20
ATOM     20  O   UNL     1       9.378  15.551  13.955  1.00  0.00    -0.504 OA
ATOM     21  H   UNL     1       8.982  16.463  14.153  1.00  0.00     0.293 HD
ENDBRANCH  17  20
ENDBRANCH   1  12
BRANCH   2  22
ATOM     22  O   UNL     1      13.847  18.169  15.655  1.00  0.00    -0.502 OA
ATOM     23  H   UNL     1      13.440  17.500  16.298  1.00  0.00     0.293 HD
ENDBRANCH   2  22
BRANCH   6  24
ATOM     24  O   UNL     1      17.805  20.125  12.674  1.00  0.00    -0.507 OA
ATOM     25  H   UNL     1      17.171  20.892  12.842  1.00  0.00     0.293 HD
ENDBRANCH   6  24
BRANCH   8  26
ATOM     26  O   UNL     1      18.467  16.459   9.645  1.00  0.00    -0.508 OA
ATOM     27  H   UNL     1      19.392  16.787   9.392  1.00  0.00     0.293 HD
ENDBRANCH   8  26
TORSDOF 6
ENDMDL
MODEL 9
REMARK VINA RESULT:    -5.004      2.033      6.867
REMARK INTER + INTRA:          -6.349
REMARK INTER:                  -6.026
REMARK INTRA:                  -0.323
REMARK UNBOUND:                -0.321
REMARK SMILES O=c1c(O)c(-c2ccc(O)c(O)c2)oc2cc(O)cc(O)c12
REMARK SMILES IDX 5 1 3 2 2 3 1 4 22 5 20 6 19 7 17 8 16 9 15 10 14 11 6 12
REMARK SMILES IDX 7 13 8 14 9 15 13 16 11 17 10 18 12 20 4 22 21 24 18 26
REMARK H PARENT 10 19 12 21 4 23 21 25 18 27
REMARK Flexibility Score: inf
ROOT
ATOM      1  C   UNL     1      10.094  16.653  13.659  1.00  0.00     0.180 A 
ATOM      2  C   UNL     1      10.101  15.464  14.409  1.00  0.00     0.208 A 
ATOM      3  C   UNL     1      11.276  14.699  14.464  1.00  0.00     0.238 A 
ATOM      4  O   UNL     1      11.260  13.609  15.093  1.00  0.00    -0.285 OA
ATOM      5  C   UNL     1      12.436  15.139  13.780  1.00  0.00     0.111 A 
ATOM      6  C   UNL     1      13.692  14.463  13.799  1.00  0.00     0.134 A 
ATOM      7  C   UNL     1      14.734  14.919  12.982  1.00  0.00     0.093 A 
ATOM      8  C   UNL     1      14.584  16.064  12.195  1.00  0.00     0.123 A 
ATOM      9  C   UNL     1      13.380  16.764  12.216  1.00  0.00     0.094 A 
ATOM     10  C   UNL     1      12.311  16.313  12.994  1.00  0.00     0.146 A 
ATOM     11  O   UNL     1      11.177  17.005  12.976  1.00  0.00    -0.452 OA
ENDROOT
BRANCH   1  12
ATOM     12  C   UNL     1       8.901  17.526  13.574  1.00  0.00     0.025 A 
ATOM     13  C   UNL     1       8.707  18.526  14.540  1.00  0.00     0.016 A 
ATOM     14  C   UNL     1       7.578  19.347  14.492  1.00  0.00     0.051 A 
ATOM     15  C   UNL     1       6.620  19.174  13.488  1.00  0.00     0.157 A 
ATOM     16  C   UNL     1       7.926  17.338  12.579  1.00  0.00     0.062 A 
ATOM     17  C   UNL     1       6.791  18.162  12.529  1.00  0.00     0.158 A 
BRANCH  15  18
ATOM     18  O   UNL     1       5.504  20.010  13.464  1.00  0.00    -0.504 OA
ATOM     19  H   UNL     1       4.586  19.674  13.199  1.00  0.00     0.293 HD
ENDBRANCH  15  18
BRANCH  17  20
ATOM     20  O   UNL     1       5.833  17.973  11.535  1.00  0.00    -0.504 OA
ATOM     21  H   UNL     1       5.137  18.679  11.325  1.00  0.00     0.293 HD
ENDBRANCH  17  20
ENDBRANCH   1  12
BRANCH   2  22
ATOM     22  O   UNL     1       8.939  15.037  15.059  1.00  0.00    -0.502 OA
ATOM     23  H   UNL     1       8.485  15.586  15.780  1.00  0.00     0.293 HD
ENDBRANCH   2  22
BRANCH   6  24
ATOM     24  O   UNL     1      13.977  13.366  14.618  1.00  0.00    -0.507 OA
ATOM     25  H   UNL     1      13.606  13.231  15.547  1.00  0.00     0.293 HD
ENDBRANCH   6  24
BRANCH   8  26
ATOM     26  O   UNL     1      15.630  16.520  11.397  1.00  0.00    -0.508 OA
ATOM     27  H   UNL     1      15.915  16.022  10.560  1.00  0.00     0.293 HD
ENDBRANCH   8  26
TORSDOF 6
ENDMDL
