MODEL 1
REMARK VINA RESULT:    -3.629      0.000      0.000
REMARK INTER + INTRA:          -8.901
REMARK INTER:                  -6.812
REMARK INTRA:                  -2.089
REMARK UNBOUND:                -2.089
REMARK SMILES CCCCCCCCC=CCCCCCCCC(=O)[O-]
REMARK SMILES IDX 10 1 9 2 11 3 12 4 13 5 14 6 15 7 16 8 17 9 18 10 19 11
REMARK SMILES IDX 20 12 8 13 7 14 6 15 5 16 4 17 3 18 2 19 1 20
REMARK H PARENT
REMARK Flexibility Score: inf
ROOT
ATOM      1  C   UNL     1      59.888  19.306  48.504  1.00  0.00    -0.031 C 
ATOM      2  C   UNL     1      60.453  18.367  49.276  1.00  0.00    -0.031 C 
ENDROOT
BRANCH   1   3
ATOM      3  C   UNL     1      60.365  20.733  48.524  1.00  0.00     0.027 C 
BRANCH   3   4
ATOM      4  C   UNL     1      61.749  20.846  49.182  1.00  0.00     0.004 C 
BRANCH   4   5
ATOM      5  C   UNL     1      61.873  22.074  50.102  1.00  0.00     0.000 C 
BRANCH   5   6
ATOM      6  C   UNL     1      60.931  23.244  49.756  1.00  0.00     0.000 C 
BRANCH   6   7
ATOM      7  C   UNL     1      61.362  24.617  50.308  1.00  0.00     0.000 C 
BRANCH   7   8
ATOM      8  C   UNL     1      60.329  25.748  50.122  1.00  0.00     0.006 C 
BRANCH   8   9
ATOM      9  C   UNL     1      58.891  25.362  50.500  1.00  0.00     0.053 C 
BRANCH   9  10
ATOM     10  C   UNL     1      57.907  26.427  50.125  1.00  0.00     0.041 C 
ATOM     11  O   UNL     1      58.284  27.622  50.001  1.00  0.00    -0.550 OA
ATOM     12  O   UNL     1      56.567  26.106  49.947  1.00  0.00    -0.550 OA
ENDBRANCH   9  10
ENDBRANCH   8   9
ENDBRANCH   7   8
ENDBRANCH   6   7
ENDBRANCH   5   6
ENDBRANCH   4   5
ENDBRANCH   3   4
ENDBRANCH   1   3
BRANCH   2  13
ATOM     13  C   UNL     1      59.970  16.942  49.227  1.00  0.00     0.027 C 
BRANCH  13  14
ATOM     14  C   UNL     1      58.435  16.880  49.216  1.00  0.00     0.004 C 
BRANCH  14  15
ATOM     15  C   UNL     1      57.819  17.178  50.594  1.00  0.00     0.000 C 
BRANCH  15  16
ATOM     16  C   UNL     1      56.777  18.314  50.599  1.00  0.00     0.000 C 
BRANCH  16  17
ATOM     17  C   UNL     1      57.041  19.394  51.674  1.00  0.00    -0.000 C 
BRANCH  17  18
ATOM     18  C   UNL     1      58.522  19.504  52.080  1.00  0.00    -0.000 C 
BRANCH  18  19
ATOM     19  C   UNL     1      58.996  20.963  52.160  1.00  0.00    -0.003 C 
ATOM     20  C   UNL     1      60.200  21.097  53.088  1.00  0.00     0.004 C 
ENDBRANCH  18  19
ENDBRANCH  17  18
ENDBRANCH  16  17
ENDBRANCH  15  16
ENDBRANCH  14  15
ENDBRANCH  13  14
ENDBRANCH   2  13
TORSDOF 15
ENDMDL
MODEL 2
REMARK VINA RESULT:    -3.600      2.758      7.344
REMARK INTER + INTRA:          -8.845
REMARK INTER:                  -7.943
REMARK INTRA:                  -0.902
REMARK UNBOUND:                -2.089
REMARK SMILES CCCCCCCCC=CCCCCCCCC(=O)[O-]
REMARK SMILES IDX 10 1 9 2 11 3 12 4 13 5 14 6 15 7 16 8 17 9 18 10 19 11
REMARK SMILES IDX 20 12 8 13 7 14 6 15 5 16 4 17 3 18 2 19 1 20
REMARK H PARENT
REMARK Flexibility Score: inf
ROOT
ATOM      1  C   UNL     1      60.792  22.102  49.020  1.00  0.00    -0.031 C 
ATOM      2  C   UNL     1      61.632  22.484  49.993  1.00  0.00    -0.031 C 
ENDROOT
BRANCH   1   3
ATOM      3  C   UNL     1      60.842  20.718  48.434  1.00  0.00     0.027 C 
BRANCH   3   4
ATOM      4  C   UNL     1      59.622  19.889  48.864  1.00  0.00     0.004 C 
BRANCH   4   5
ATOM      5  C   UNL     1      59.735  18.408  48.460  1.00  0.00     0.000 C 
BRANCH   5   6
ATOM      6  C   UNL     1      58.549  17.523  48.891  1.00  0.00     0.000 C 
BRANCH   6   7
ATOM      7  C   UNL     1      58.636  16.963  50.325  1.00  0.00     0.000 C 
BRANCH   7   8
ATOM      8  C   UNL     1      57.631  17.572  51.325  1.00  0.00     0.006 C 
BRANCH   8   9
ATOM      9  C   UNL     1      56.547  18.448  50.680  1.00  0.00     0.053 C 
BRANCH   9  10
ATOM     10  C   UNL     1      55.957  19.421  51.656  1.00  0.00     0.041 C 
ATOM     11  O   UNL     1      54.713  19.604  51.693  1.00  0.00    -0.550 OA
ATOM     12  O   UNL     1      56.787  20.150  52.499  1.00  0.00    -0.550 OA
ENDBRANCH   9  10
ENDBRANCH   8   9
ENDBRANCH   7   8
ENDBRANCH   6   7
ENDBRANCH   5   6
ENDBRANCH   4   5
ENDBRANCH   3   4
ENDBRANCH   1   3
BRANCH   2  13
ATOM     13  C   UNL     1      61.552  23.869  50.575  1.00  0.00     0.027 C 
BRANCH  13  14
ATOM     14  C   UNL     1      60.241  24.561  50.174  1.00  0.00     0.004 C 
BRANCH  14  15
ATOM     15  C   UNL     1      60.371  26.093  50.118  1.00  0.00     0.000 C 
BRANCH  15  16
ATOM     16  C   UNL     1      59.185  26.814  49.447  1.00  0.00     0.000 C 
BRANCH  16  17
ATOM     17  C   UNL     1      59.463  28.301  49.127  1.00  0.00    -0.000 C 
BRANCH  17  18
ATOM     18  C   UNL     1      58.469  29.268  49.796  1.00  0.00    -0.000 C 
BRANCH  18  19
ATOM     19  C   UNL     1      57.669  28.593  50.921  1.00  0.00    -0.003 C 
ATOM     20  C   UNL     1      56.179  28.573  50.597  1.00  0.00     0.004 C 
ENDBRANCH  18  19
ENDBRANCH  17  18
ENDBRANCH  16  17
ENDBRANCH  15  16
ENDBRANCH  14  15
ENDBRANCH  13  14
ENDBRANCH   2  13
TORSDOF 15
ENDMDL
MODEL 3
REMARK VINA RESULT:    -3.513      3.277      8.205
REMARK INTER + INTRA:          -8.682
REMARK INTER:                  -7.496
REMARK INTRA:                  -1.187
REMARK UNBOUND:                -2.089
REMARK SMILES CCCCCCCCC=CCCCCCCCC(=O)[O-]
REMARK SMILES IDX 10 1 9 2 11 3 12 4 13 5 14 6 15 7 16 8 17 9 18 10 19 11
REMARK SMILES IDX 20 12 8 13 7 14 6 15 5 16 4 17 3 18 2 19 1 20
REMARK H PARENT
REMARK Flexibility Score: inf
ROOT
ATOM      1  C   UNL     1      60.488  25.443  50.851  1.00  0.00    -0.031 C 
ATOM      2  C   UNL     1      60.679  26.478  50.021  1.00  0.00    -0.031 C 
ENDROOT
BRANCH   1   3
ATOM      3  C   UNL     1      60.006  24.109  50.349  1.00  0.00     0.027 C 
BRANCH   3   4
ATOM      4  C   UNL     1      61.186  23.179  50.030  1.00  0.00     0.004 C 
BRANCH   4   5
ATOM      5  C   UNL     1      60.861  22.164  48.920  1.00  0.00     0.000 C 
BRANCH   5   6
ATOM      6  C   UNL     1      60.422  20.773  49.417  1.00  0.00     0.000 C 
BRANCH   6   7
ATOM      7  C   UNL     1      59.911  19.816  48.322  1.00  0.00     0.000 C 
BRANCH   7   8
ATOM      8  C   UNL     1      59.702  18.357  48.776  1.00  0.00     0.006 C 
BRANCH   8   9
ATOM      9  C   UNL     1      59.545  18.181  50.294  1.00  0.00     0.053 C 
BRANCH   9  10
ATOM     10  C   UNL     1      58.131  17.873  50.680  1.00  0.00     0.041 C 
ATOM     11  O   UNL     1      57.212  17.942  49.823  1.00  0.00    -0.550 OA
ATOM     12  O   UNL     1      57.824  17.544  51.995  1.00  0.00    -0.550 OA
ENDBRANCH   9  10
ENDBRANCH   8   9
ENDBRANCH   7   8
ENDBRANCH   6   7
ENDBRANCH   5   6
ENDBRANCH   4   5
ENDBRANCH   3   4
ENDBRANCH   1   3
BRANCH   2  13
ATOM     13  C   UNL     1      61.177  27.799  50.544  1.00  0.00     0.027 C 
BRANCH  13  14
ATOM     14  C   UNL     1      60.618  28.966  49.717  1.00  0.00     0.004 C 
BRANCH  14  15
ATOM     15  C   UNL     1      59.153  28.750  49.299  1.00  0.00     0.000 C 
BRANCH  15  16
ATOM     16  C   UNL     1      58.126  29.554  50.121  1.00  0.00     0.000 C 
BRANCH  16  17
ATOM     17  C   UNL     1      56.835  28.767  50.444  1.00  0.00    -0.000 C 
BRANCH  17  18
ATOM     18  C   UNL     1      57.016  27.240  50.375  1.00  0.00    -0.000 C 
BRANCH  18  19
ATOM     19  C   UNL     1      55.713  26.515  50.009  1.00  0.00    -0.003 C 
ATOM     20  C   UNL     1      54.527  27.474  50.036  1.00  0.00     0.004 C 
ENDBRANCH  18  19
ENDBRANCH  17  18
ENDBRANCH  16  17
ENDBRANCH  15  16
ENDBRANCH  14  15
ENDBRANCH  13  14
ENDBRANCH   2  13
TORSDOF 15
ENDMDL
MODEL 4
REMARK VINA RESULT:    -3.507      2.709      7.014
REMARK INTER + INTRA:          -8.672
REMARK INTER:                  -7.533
REMARK INTRA:                  -1.139
REMARK UNBOUND:                -2.089
REMARK SMILES CCCCCCCCC=CCCCCCCCC(=O)[O-]
REMARK SMILES IDX 10 1 9 2 11 3 12 4 13 5 14 6 15 7 16 8 17 9 18 10 19 11
REMARK SMILES IDX 20 12 8 13 7 14 6 15 5 16 4 17 3 18 2 19 1 20
REMARK H PARENT
REMARK Flexibility Score: inf
ROOT
ATOM      1  C   UNL     1      60.351  20.938  49.051  1.00  0.00    -0.031 C 
ATOM      2  C   UNL     1      60.264  21.049  50.385  1.00  0.00    -0.031 C 
ENDROOT
BRANCH   1   3
ATOM      3  C   UNL     1      59.972  19.667  48.341  1.00  0.00     0.027 C 
BRANCH   3   4
ATOM      4  C   UNL     1      60.377  18.432  49.159  1.00  0.00     0.004 C 
BRANCH   4   5
ATOM      5  C   UNL     1      59.693  17.143  48.671  1.00  0.00     0.000 C 
BRANCH   5   6
ATOM      6  C   UNL     1      58.179  17.063  48.951  1.00  0.00     0.000 C 
BRANCH   6   7
ATOM      7  C   UNL     1      57.750  17.503  50.365  1.00  0.00     0.000 C 
BRANCH   7   8
ATOM      8  C   UNL     1      57.050  18.875  50.437  1.00  0.00     0.006 C 
BRANCH   8   9
ATOM      9  C   UNL     1      55.547  18.806  50.748  1.00  0.00     0.053 C 
BRANCH   9  10
ATOM     10  C   UNL     1      55.241  19.261  52.141  1.00  0.00     0.041 C 
ATOM     11  O   UNL     1      55.615  18.575  53.128  1.00  0.00    -0.550 OA
ATOM     12  O   UNL     1      54.512  20.425  52.349  1.00  0.00    -0.550 OA
ENDBRANCH   9  10
ENDBRANCH   8   9
ENDBRANCH   7   8
ENDBRANCH   6   7
ENDBRANCH   5   6
ENDBRANCH   4   5
ENDBRANCH   3   4
ENDBRANCH   1   3
BRANCH   2  13
ATOM     13  C   UNL     1      60.633  22.335  51.072  1.00  0.00     0.027 C 
BRANCH  13  14
ATOM     14  C   UNL     1      60.679  23.501  50.074  1.00  0.00     0.004 C 
BRANCH  14  15
ATOM     15  C   UNL     1      59.758  24.666  50.478  1.00  0.00     0.000 C 
BRANCH  15  16
ATOM     16  C   UNL     1      60.291  26.064  50.106  1.00  0.00     0.000 C 
BRANCH  16  17
ATOM     17  C   UNL     1      59.274  26.927  49.323  1.00  0.00    -0.000 C 
BRANCH  17  18
ATOM     18  C   UNL     1      58.097  27.419  50.185  1.00  0.00    -0.000 C 
BRANCH  18  19
ATOM     19  C   UNL     1      58.057  28.950  50.294  1.00  0.00    -0.003 C 
ATOM     20  C   UNL     1      58.875  29.601  49.183  1.00  0.00     0.004 C 
ENDBRANCH  18  19
ENDBRANCH  17  18
ENDBRANCH  16  17
ENDBRANCH  15  16
ENDBRANCH  14  15
ENDBRANCH  13  14
ENDBRANCH   2  13
TORSDOF 15
ENDMDL
MODEL 5
REMARK VINA RESULT:    -3.506      5.623      9.403
REMARK INTER + INTRA:          -8.668
REMARK INTER:                  -6.334
REMARK INTRA:                  -2.334
REMARK UNBOUND:                -2.089
REMARK SMILES CCCCCCCCC=CCCCCCCCC(=O)[O-]
REMARK SMILES IDX 10 1 9 2 11 3 12 4 13 5 14 6 15 7 16 8 17 9 18 10 19 11
REMARK SMILES IDX 20 12 8 13 7 14 6 15 5 16 4 17 3 18 2 19 1 20
REMARK H PARENT
REMARK Flexibility Score: inf
ROOT
ATOM      1  C   UNL     1      55.300  29.898  51.436  1.00  0.00    -0.031 C 
ATOM      2  C   UNL     1      56.530  29.565  51.019  1.00  0.00    -0.031 C 
ENDROOT
BRANCH   1   3
ATOM      3  C   UNL     1      54.078  29.581  50.618  1.00  0.00     0.027 C 
BRANCH   3   4
ATOM      4  C   UNL     1      53.645  28.120  50.811  1.00  0.00     0.004 C 
BRANCH   4   5
ATOM      5  C   UNL     1      53.543  27.347  49.484  1.00  0.00     0.000 C 
BRANCH   5   6
ATOM      6  C   UNL     1      54.486  26.134  49.363  1.00  0.00     0.000 C 
BRANCH   6   7
ATOM      7  C   UNL     1      55.410  25.899  50.574  1.00  0.00     0.000 C 
BRANCH   7   8
ATOM      8  C   UNL     1      56.911  26.137  50.306  1.00  0.00     0.006 C 
BRANCH   8   9
ATOM      9  C   UNL     1      57.774  26.234  51.573  1.00  0.00     0.053 C 
BRANCH   9  10
ATOM     10  C   UNL     1      57.998  24.894  52.204  1.00  0.00     0.041 C 
ATOM     11  O   UNL     1      58.939  24.158  51.808  1.00  0.00    -0.550 OA
ATOM     12  O   UNL     1      57.145  24.445  53.205  1.00  0.00    -0.550 OA
ENDBRANCH   9  10
ENDBRANCH   8   9
ENDBRANCH   7   8
ENDBRANCH   6   7
ENDBRANCH   5   6
ENDBRANCH   4   5
ENDBRANCH   3   4
ENDBRANCH   1   3
BRANCH   2  13
ATOM     13  C   UNL     1      57.736  29.878  51.862  1.00  0.00     0.027 C 
BRANCH  13  14
ATOM     14  C   UNL     1      59.000  29.989  50.997  1.00  0.00     0.004 C 
BRANCH  14  15
ATOM     15  C   UNL     1      58.748  29.615  49.526  1.00  0.00     0.000 C 
BRANCH  15  16
ATOM     16  C   UNL     1      59.560  28.405  49.024  1.00  0.00     0.000 C 
BRANCH  16  17
ATOM     17  C   UNL     1      60.701  27.983  49.978  1.00  0.00    -0.000 C 
BRANCH  17  18
ATOM     18  C   UNL     1      62.105  28.198  49.386  1.00  0.00    -0.000 C 
BRANCH  18  19
ATOM     19  C   UNL     1      62.924  29.220  50.189  1.00  0.00    -0.003 C 
ATOM     20  C   UNL     1      62.494  30.646  49.862  1.00  0.00     0.004 C 
ENDBRANCH  18  19
ENDBRANCH  17  18
ENDBRANCH  16  17
ENDBRANCH  15  16
ENDBRANCH  14  15
ENDBRANCH  13  14
ENDBRANCH   2  13
TORSDOF 15
ENDMDL
MODEL 6
REMARK VINA RESULT:    -3.502      4.105      8.462
REMARK INTER + INTRA:          -8.662
REMARK INTER:                  -6.323
REMARK INTRA:                  -2.339
REMARK UNBOUND:                -2.089
REMARK SMILES CCCCCCCCC=CCCCCCCCC(=O)[O-]
REMARK SMILES IDX 10 1 9 2 11 3 12 4 13 5 14 6 15 7 16 8 17 9 18 10 19 11
REMARK SMILES IDX 20 12 8 13 7 14 6 15 5 16 4 17 3 18 2 19 1 20
REMARK H PARENT
REMARK Flexibility Score: inf
ROOT
ATOM      1  C   UNL     1      58.161  29.104  50.652  1.00  0.00    -0.031 C 
ATOM      2  C   UNL     1      56.883  29.510  50.677  1.00  0.00    -0.031 C 
ENDROOT
BRANCH   1   3
ATOM      3  C   UNL     1      58.905  28.924  49.357  1.00  0.00     0.027 C 
BRANCH   3   4
ATOM      4  C   UNL     1      60.421  28.843  49.595  1.00  0.00     0.004 C 
BRANCH   4   5
ATOM      5  C   UNL     1      60.776  28.374  51.017  1.00  0.00     0.000 C 
BRANCH   5   6
ATOM      6  C   UNL     1      61.144  26.882  51.137  1.00  0.00     0.000 C 
BRANCH   6   7
ATOM      7  C   UNL     1      59.969  25.942  51.471  1.00  0.00     0.000 C 
BRANCH   7   8
ATOM      8  C   UNL     1      59.703  24.835  50.430  1.00  0.00     0.006 C 
BRANCH   8   9
ATOM      9  C   UNL     1      60.960  24.080  49.971  1.00  0.00     0.053 C 
BRANCH   9  10
ATOM     10  C   UNL     1      60.679  22.633  49.704  1.00  0.00     0.041 C 
ATOM     11  O   UNL     1      60.248  21.892  50.624  1.00  0.00    -0.550 OA
ATOM     12  O   UNL     1      60.928  22.097  48.446  1.00  0.00    -0.550 OA
ENDBRANCH   9  10
ENDBRANCH   8   9
ENDBRANCH   7   8
ENDBRANCH   6   7
ENDBRANCH   5   6
ENDBRANCH   4   5
ENDBRANCH   3   4
ENDBRANCH   1   3
BRANCH   2  13
ATOM     13  C   UNL     1      56.164  29.699  51.985  1.00  0.00     0.027 C 
BRANCH  13  14
ATOM     14  C   UNL     1      54.666  29.948  51.760  1.00  0.00     0.004 C 
BRANCH  14  15
ATOM     15  C   UNL     1      54.235  29.703  50.303  1.00  0.00     0.000 C 
BRANCH  15  16
ATOM     16  C   UNL     1      53.250  28.532  50.114  1.00  0.00     0.000 C 
BRANCH  16  17
ATOM     17  C   UNL     1      53.792  27.177  50.624  1.00  0.00    -0.000 C 
BRANCH  17  18
ATOM     18  C   UNL     1      54.601  26.403  49.567  1.00  0.00    -0.000 C 
BRANCH  18  19
ATOM     19  C   UNL     1      56.058  26.183  49.996  1.00  0.00    -0.003 C 
ATOM     20  C   UNL     1      56.157  25.942  51.499  1.00  0.00     0.004 C 
ENDBRANCH  18  19
ENDBRANCH  17  18
ENDBRANCH  16  17
ENDBRANCH  15  16
ENDBRANCH  14  15
ENDBRANCH  13  14
ENDBRANCH   2  13
TORSDOF 15
ENDMDL
MODEL 7
REMARK VINA RESULT:    -3.458      5.021      8.090
REMARK INTER + INTRA:          -8.580
REMARK INTER:                  -5.969
REMARK INTRA:                  -2.610
REMARK UNBOUND:                -2.089
REMARK SMILES CCCCCCCCC=CCCCCCCCC(=O)[O-]
REMARK SMILES IDX 10 1 9 2 11 3 12 4 13 5 14 6 15 7 16 8 17 9 18 10 19 11
REMARK SMILES IDX 20 12 8 13 7 14 6 15 5 16 4 17 3 18 2 19 1 20
REMARK H PARENT
REMARK Flexibility Score: inf
ROOT
ATOM      1  C   UNL     1      56.794  28.524  50.397  1.00  0.00    -0.031 C 
ATOM      2  C   UNL     1      56.998  27.394  51.090  1.00  0.00    -0.031 C 
ENDROOT
BRANCH   1   3
ATOM      3  C   UNL     1      57.756  29.678  50.471  1.00  0.00     0.027 C 
BRANCH   3   4
ATOM      4  C   UNL     1      58.879  29.531  49.433  1.00  0.00     0.004 C 
BRANCH   4   5
ATOM      5  C   UNL     1      60.276  29.781  50.027  1.00  0.00     0.000 C 
BRANCH   5   6
ATOM      6  C   UNL     1      60.487  29.229  51.451  1.00  0.00     0.000 C 
BRANCH   6   7
ATOM      7  C   UNL     1      60.578  27.693  51.551  1.00  0.00     0.000 C 
BRANCH   7   8
ATOM      8  C   UNL     1      61.038  26.981  50.263  1.00  0.00     0.006 C 
BRANCH   8   9
ATOM      9  C   UNL     1      59.991  26.040  49.649  1.00  0.00     0.053 C 
BRANCH   9  10
ATOM     10  C   UNL     1      59.999  24.691  50.299  1.00  0.00     0.041 C 
ATOM     11  O   UNL     1      60.780  23.794  49.887  1.00  0.00    -0.550 OA
ATOM     12  O   UNL     1      59.118  24.413  51.338  1.00  0.00    -0.550 OA
ENDBRANCH   9  10
ENDBRANCH   8   9
ENDBRANCH   7   8
ENDBRANCH   6   7
ENDBRANCH   5   6
ENDBRANCH   4   5
ENDBRANCH   3   4
ENDBRANCH   1   3
BRANCH   2  13
ATOM     13  C   UNL     1      56.030  26.246  50.987  1.00  0.00     0.027 C 
BRANCH  13  14
ATOM     14  C   UNL     1      55.380  26.196  49.596  1.00  0.00     0.004 C 
BRANCH  14  15
ATOM     15  C   UNL     1      53.943  25.646  49.632  1.00  0.00     0.000 C 
BRANCH  15  16
ATOM     16  C   UNL     1      52.895  26.623  50.199  1.00  0.00     0.000 C 
BRANCH  16  17
ATOM     17  C   UNL     1      52.991  28.049  49.607  1.00  0.00    -0.000 C 
BRANCH  17  18
ATOM     18  C   UNL     1      53.260  29.134  50.665  1.00  0.00    -0.000 C 
BRANCH  18  19
ATOM     19  C   UNL     1      52.991  28.635  52.092  1.00  0.00    -0.003 C 
ATOM     20  C   UNL     1      54.188  28.901  53.001  1.00  0.00     0.004 C 
ENDBRANCH  18  19
ENDBRANCH  17  18
ENDBRANCH  16  17
ENDBRANCH  15  16
ENDBRANCH  14  15
ENDBRANCH  13  14
ENDBRANCH   2  13
TORSDOF 15
ENDMDL
MODEL 8
REMARK VINA RESULT:    -3.398      3.441      7.993
REMARK INTER + INTRA:          -8.467
REMARK INTER:                  -6.857
REMARK INTRA:                  -1.609
REMARK UNBOUND:                -2.089
REMARK SMILES CCCCCCCCC=CCCCCCCCC(=O)[O-]
REMARK SMILES IDX 10 1 9 2 11 3 12 4 13 5 14 6 15 7 16 8 17 9 18 10 19 11
REMARK SMILES IDX 20 12 8 13 7 14 6 15 5 16 4 17 3 18 2 19 1 20
REMARK H PARENT
REMARK Flexibility Score: inf
ROOT
ATOM      1  C   UNL     1      59.006  24.890  51.821  1.00  0.00    -0.031 C 
ATOM      2  C   UNL     1      58.211  25.444  50.895  1.00  0.00    -0.031 C 
ENDROOT
BRANCH   1   3
ATOM      3  C   UNL     1      60.341  24.297  51.461  1.00  0.00     0.027 C 
BRANCH   3   4
ATOM      4  C   UNL     1      60.330  23.736  50.031  1.00  0.00     0.004 C 
BRANCH   4   5
ATOM      5  C   UNL     1      61.129  22.427  49.898  1.00  0.00     0.000 C 
BRANCH   5   6
ATOM      6  C   UNL     1      61.018  21.733  48.526  1.00  0.00     0.000 C 
BRANCH   6   7
ATOM      7  C   UNL     1      60.110  20.488  48.493  1.00  0.00     0.000 C 
BRANCH   7   8
ATOM      8  C   UNL     1      60.565  19.325  49.399  1.00  0.00     0.006 C 
BRANCH   8   9
ATOM      9  C   UNL     1      59.911  17.973  49.073  1.00  0.00     0.053 C 
BRANCH   9  10
ATOM     10  C   UNL     1      58.837  17.618  50.054  1.00  0.00     0.041 C 
ATOM     11  O   UNL     1      57.629  17.634  49.702  1.00  0.00    -0.550 OA
ATOM     12  O   UNL     1      59.169  17.302  51.365  1.00  0.00    -0.550 OA
ENDBRANCH   9  10
ENDBRANCH   8   9
ENDBRANCH   7   8
ENDBRANCH   6   7
ENDBRANCH   5   6
ENDBRANCH   4   5
ENDBRANCH   3   4
ENDBRANCH   1   3
BRANCH   2  13
ATOM     13  C   UNL     1      56.887  26.045  51.282  1.00  0.00     0.027 C 
BRANCH  13  14
ATOM     14  C   UNL     1      56.267  26.818  50.108  1.00  0.00     0.004 C 
BRANCH  14  15
ATOM     15  C   UNL     1      55.835  28.243  50.496  1.00  0.00     0.000 C 
BRANCH  15  16
ATOM     16  C   UNL     1      56.997  29.191  50.853  1.00  0.00     0.000 C 
BRANCH  16  17
ATOM     17  C   UNL     1      58.077  29.293  49.751  1.00  0.00    -0.000 C 
BRANCH  17  18
ATOM     18  C   UNL     1      59.493  28.950  50.247  1.00  0.00    -0.000 C 
BRANCH  18  19
ATOM     19  C   UNL     1      60.252  28.049  49.262  1.00  0.00    -0.003 C 
ATOM     20  C   UNL     1      61.466  27.410  49.929  1.00  0.00     0.004 C 
ENDBRANCH  18  19
ENDBRANCH  17  18
ENDBRANCH  16  17
ENDBRANCH  15  16
ENDBRANCH  14  15
ENDBRANCH  13  14
ENDBRANCH   2  13
TORSDOF 15
ENDMDL
MODEL 9
REMARK VINA RESULT:    -3.375      6.178      8.282
REMARK INTER + INTRA:          -8.424
REMARK INTER:                  -5.653
REMARK INTRA:                  -2.771
REMARK UNBOUND:                -2.089
REMARK SMILES CCCCCCCCC=CCCCCCCCC(=O)[O-]
REMARK SMILES IDX 10 1 9 2 11 3 12 4 13 5 14 6 15 7 16 8 17 9 18 10 19 11
REMARK SMILES IDX 20 12 8 13 7 14 6 15 5 16 4 17 3 18 2 19 1 20
REMARK H PARENT
REMARK Flexibility Score: inf
ROOT
ATOM      1  C   UNL     1      56.787  25.887  50.857  1.00  0.00    -0.031 C 
ATOM      2  C   UNL     1      56.103  26.657  49.998  1.00  0.00    -0.031 C 
ENDROOT
BRANCH   1   3
ATOM      3  C   UNL     1      58.281  25.994  50.993  1.00  0.00     0.027 C 
BRANCH   3   4
ATOM      4  C   UNL     1      58.946  26.241  49.630  1.00  0.00     0.004 C 
BRANCH   4   5
ATOM      5  C   UNL     1      59.852  27.485  49.626  1.00  0.00     0.000 C 
BRANCH   5   6
ATOM      6  C   UNL     1      59.235  28.738  48.973  1.00  0.00     0.000 C 
BRANCH   6   7
ATOM      7  C   UNL     1      58.410  29.632  49.919  1.00  0.00     0.000 C 
BRANCH   7   8
ATOM      8  C   UNL     1      58.815  29.557  51.406  1.00  0.00     0.006 C 
BRANCH   8   9
ATOM      9  C   UNL     1      59.677  30.733  51.889  1.00  0.00     0.053 C 
BRANCH   9  10
ATOM     10  C   UNL     1      59.038  31.467  53.028  1.00  0.00     0.041 C 
ATOM     11  O   UNL     1      59.662  31.623  54.109  1.00  0.00    -0.550 OA
ATOM     12  O   UNL     1      57.740  31.947  52.905  1.00  0.00    -0.550 OA
ENDBRANCH   9  10
ENDBRANCH   8   9
ENDBRANCH   7   8
ENDBRANCH   6   7
ENDBRANCH   5   6
ENDBRANCH   4   5
ENDBRANCH   3   4
ENDBRANCH   1   3
BRANCH   2  13
ATOM     13  C   UNL     1      54.606  26.544  49.891  1.00  0.00     0.027 C 
BRANCH  13  14
ATOM     14  C   UNL     1      53.943  27.928  49.941  1.00  0.00     0.004 C 
BRANCH  14  15
ATOM     15  C   UNL     1      54.916  29.038  50.375  1.00  0.00     0.000 C 
BRANCH  15  16
ATOM     16  C   UNL     1      54.305  30.093  51.319  1.00  0.00     0.000 C 
BRANCH  16  17
ATOM     17  C   UNL     1      54.795  29.976  52.781  1.00  0.00    -0.000 C 
BRANCH  17  18
ATOM     18  C   UNL     1      55.803  28.833  53.000  1.00  0.00    -0.000 C 
BRANCH  18  19
ATOM     19  C   UNL     1      55.182  27.644  53.747  1.00  0.00    -0.003 C 
ATOM     20  C   UNL     1      56.245  26.862  54.512  1.00  0.00     0.004 C 
ENDBRANCH  18  19
ENDBRANCH  17  18
ENDBRANCH  16  17
ENDBRANCH  15  16
ENDBRANCH  14  15
ENDBRANCH  13  14
ENDBRANCH   2  13
TORSDOF 15
ENDMDL
