MODEL 1
REMARK VINA RESULT:    -4.143      0.000      0.000
REMARK INTER + INTRA:          -4.570
REMARK INTER:                  -4.507
REMARK INTRA:                  -0.064
REMARK UNBOUND:                -0.064
REMARK SMILES COc1cc2ccc(=O)oc2cc1O
REMARK SMILES IDX 3 1 13 2 12 3 11 4 5 5 4 6 6 7 7 8 8 9 9 10 10 11 2 12 1 13
REMARK SMILES IDX 14 14
REMARK H PARENT 14 15
REMARK Flexibility Score: inf
ROOT
ATOM      1  C   UNL     1      14.884 -17.127  19.789  1.00  0.00     0.161 A 
ATOM      2  C   UNL     1      14.624 -17.379  21.144  1.00  0.00     0.161 A 
ATOM      3  C   UNL     1      13.362 -17.837  21.550  1.00  0.00     0.098 A 
ATOM      4  C   UNL     1      12.353 -18.048  20.608  1.00  0.00     0.142 A 
ATOM      5  C   UNL     1      12.606 -17.798  19.243  1.00  0.00     0.022 A 
ATOM      6  C   UNL     1      13.867 -17.339  18.836  1.00  0.00     0.062 A 
ATOM      7  C   UNL     1      11.576 -18.018  18.324  1.00  0.00     0.019 A 
ATOM      8  C   UNL     1      10.338 -18.475  18.778  1.00  0.00     0.094 A 
ATOM      9  C   UNL     1      10.160 -18.701  20.146  1.00  0.00     0.336 A 
ATOM     10  O   UNL     1       9.052 -19.113  20.576  1.00  0.00    -0.246 OA
ATOM     11  O   UNL     1      11.158 -18.483  21.000  1.00  0.00    -0.423 OA
ENDROOT
BRANCH   1  12
ATOM     12  O   UNL     1      16.162 -16.670  19.428  1.00  0.00    -0.493 OA
ATOM     13  C   UNL     1      16.441 -15.360  18.943  1.00  0.00     0.278 C 
ENDBRANCH   1  12
BRANCH   2  14
ATOM     14  O   UNL     1      15.630 -17.169  22.088  1.00  0.00    -0.504 OA
ATOM     15  H   UNL     1      16.609 -17.261  21.848  1.00  0.00     0.293 HD
ENDBRANCH   2  14
TORSDOF 2
ENDMDL
MODEL 2
REMARK VINA RESULT:    -4.094      1.439      2.492
REMARK INTER + INTRA:          -4.516
REMARK INTER:                  -4.468
REMARK INTRA:                  -0.048
REMARK UNBOUND:                -0.064
REMARK SMILES COc1cc2ccc(=O)oc2cc1O
REMARK SMILES IDX 3 1 13 2 12 3 11 4 5 5 4 6 6 7 7 8 8 9 9 10 10 11 2 12 1 13
REMARK SMILES IDX 14 14
REMARK H PARENT 14 15
REMARK Flexibility Score: inf
ROOT
ATOM      1  C   UNL     1      15.494 -16.922  20.264  1.00  0.00     0.161 A 
ATOM      2  C   UNL     1      15.291 -16.716  18.891  1.00  0.00     0.161 A 
ATOM      3  C   UNL     1      14.044 -16.991  18.311  1.00  0.00     0.098 A 
ATOM      4  C   UNL     1      12.993 -17.470  19.096  1.00  0.00     0.142 A 
ATOM      5  C   UNL     1      13.189 -17.680  20.477  1.00  0.00     0.022 A 
ATOM      6  C   UNL     1      14.435 -17.407  21.058  1.00  0.00     0.062 A 
ATOM      7  C   UNL     1      12.118 -18.162  21.236  1.00  0.00     0.019 A 
ATOM      8  C   UNL     1      10.896 -18.419  20.612  1.00  0.00     0.094 A 
ATOM      9  C   UNL     1      10.776 -18.188  19.238  1.00  0.00     0.336 A 
ATOM     10  O   UNL     1       9.683 -18.413  18.656  1.00  0.00    -0.246 OA
ATOM     11  O   UNL     1      11.812 -17.729  18.539  1.00  0.00    -0.423 OA
ENDROOT
BRANCH   1  12
ATOM     12  O   UNL     1      16.759 -16.634  20.802  1.00  0.00    -0.493 OA
ATOM     13  C   UNL     1      17.351 -17.335  21.891  1.00  0.00     0.278 C 
ENDBRANCH   1  12
BRANCH   2  14
ATOM     14  O   UNL     1      16.339 -16.237  18.105  1.00  0.00    -0.504 OA
ATOM     15  H   UNL     1      16.169 -15.670  17.284  1.00  0.00     0.293 HD
ENDBRANCH   2  14
TORSDOF 2
ENDMDL
MODEL 3
REMARK VINA RESULT:    -4.076      1.556      4.677
REMARK INTER + INTRA:          -4.498
REMARK INTER:                  -4.433
REMARK INTRA:                  -0.065
REMARK UNBOUND:                -0.064
REMARK SMILES COc1cc2ccc(=O)oc2cc1O
REMARK SMILES IDX 3 1 13 2 12 3 11 4 5 5 4 6 6 7 7 8 8 9 9 10 10 11 2 12 1 13
REMARK SMILES IDX 14 14
REMARK H PARENT 14 15
REMARK Flexibility Score: inf
ROOT
ATOM      1  C   UNL     1      11.729 -17.979  18.849  1.00  0.00     0.161 A 
ATOM      2  C   UNL     1      11.320 -18.070  20.188  1.00  0.00     0.161 A 
ATOM      3  C   UNL     1      12.272 -18.114  21.217  1.00  0.00     0.098 A 
ATOM      4  C   UNL     1      13.636 -18.065  20.918  1.00  0.00     0.142 A 
ATOM      5  C   UNL     1      14.055 -17.973  19.574  1.00  0.00     0.022 A 
ATOM      6  C   UNL     1      13.105 -17.930  18.544  1.00  0.00     0.062 A 
ATOM      7  C   UNL     1      15.427 -17.926  19.306  1.00  0.00     0.019 A 
ATOM      8  C   UNL     1      16.334 -17.972  20.365  1.00  0.00     0.094 A 
ATOM      9  C   UNL     1      15.845 -18.064  21.672  1.00  0.00     0.336 A 
ATOM     10  O   UNL     1      16.646 -18.106  22.641  1.00  0.00    -0.246 OA
ATOM     11  O   UNL     1      14.534 -18.107  21.899  1.00  0.00    -0.423 OA
ENDROOT
BRANCH   1  12
ATOM     12  O   UNL     1      10.741 -17.938  17.851  1.00  0.00    -0.493 OA
ATOM     13  C   UNL     1      10.384 -16.770  17.118  1.00  0.00     0.278 C 
ENDBRANCH   1  12
BRANCH   2  14
ATOM     14  O   UNL     1       9.960 -18.119  20.490  1.00  0.00    -0.504 OA
ATOM     15  H   UNL     1       9.302 -17.467  20.082  1.00  0.00     0.293 HD
ENDBRANCH   2  14
TORSDOF 2
ENDMDL
MODEL 4
REMARK VINA RESULT:    -3.979      1.528      5.299
REMARK INTER + INTRA:          -4.392
REMARK INTER:                  -4.342
REMARK INTRA:                  -0.049
REMARK UNBOUND:                -0.064
REMARK SMILES COc1cc2ccc(=O)oc2cc1O
REMARK SMILES IDX 3 1 13 2 12 3 11 4 5 5 4 6 6 7 7 8 8 9 9 10 10 11 2 12 1 13
REMARK SMILES IDX 14 14
REMARK H PARENT 14 15
REMARK Flexibility Score: inf
ROOT
ATOM      1  C   UNL     1      11.614 -18.063  19.735  1.00  0.00     0.161 A 
ATOM      2  C   UNL     1      12.449 -17.860  18.626  1.00  0.00     0.161 A 
ATOM      3  C   UNL     1      13.812 -17.584  18.808  1.00  0.00     0.098 A 
ATOM      4  C   UNL     1      14.351 -17.511  20.095  1.00  0.00     0.142 A 
ATOM      5  C   UNL     1      13.518 -17.714  21.215  1.00  0.00     0.022 A 
ATOM      6  C   UNL     1      12.155 -17.989  21.035  1.00  0.00     0.062 A 
ATOM      7  C   UNL     1      14.086 -17.633  22.490  1.00  0.00     0.019 A 
ATOM      8  C   UNL     1      15.448 -17.358  22.618  1.00  0.00     0.094 A 
ATOM      9  C   UNL     1      16.211 -17.168  21.462  1.00  0.00     0.336 A 
ATOM     10  O   UNL     1      17.441 -16.918  21.555  1.00  0.00    -0.246 OA
ATOM     11  O   UNL     1      15.645 -17.249  20.259  1.00  0.00    -0.423 OA
ENDROOT
BRANCH   1  12
ATOM     12  O   UNL     1      10.255 -18.336  19.507  1.00  0.00    -0.493 OA
ATOM     13  C   UNL     1       9.471 -19.231  20.289  1.00  0.00     0.278 C 
ENDBRANCH   1  12
BRANCH   2  14
ATOM     14  O   UNL     1      11.914 -17.932  17.341  1.00  0.00    -0.504 OA
ATOM     15  H   UNL     1      10.930 -18.111  17.185  1.00  0.00     0.293 HD
ENDBRANCH   2  14
TORSDOF 2
ENDMDL
MODEL 5
REMARK VINA RESULT:    -3.971      1.803      5.109
REMARK INTER + INTRA:          -4.383
REMARK INTER:                  -4.330
REMARK INTRA:                  -0.053
REMARK UNBOUND:                -0.064
REMARK SMILES COc1cc2ccc(=O)oc2cc1O
REMARK SMILES IDX 3 1 13 2 12 3 11 4 5 5 4 6 6 7 7 8 8 9 9 10 10 11 2 12 1 13
REMARK SMILES IDX 14 14
REMARK H PARENT 14 15
REMARK Flexibility Score: inf
ROOT
ATOM      1  C   UNL     1      11.564 -17.619  21.548  1.00  0.00     0.161 A 
ATOM      2  C   UNL     1      11.993 -17.239  22.829  1.00  0.00     0.161 A 
ATOM      3  C   UNL     1      13.361 -17.217  23.139  1.00  0.00     0.098 A 
ATOM      4  C   UNL     1      14.308 -17.572  22.176  1.00  0.00     0.142 A 
ATOM      5  C   UNL     1      13.885 -17.954  20.886  1.00  0.00     0.022 A 
ATOM      6  C   UNL     1      12.518 -17.978  20.574  1.00  0.00     0.062 A 
ATOM      7  C   UNL     1      14.856 -18.305  19.943  1.00  0.00     0.019 A 
ATOM      8  C   UNL     1      16.204 -18.266  20.301  1.00  0.00     0.094 A 
ATOM      9  C   UNL     1      16.549 -17.876  21.599  1.00  0.00     0.336 A 
ATOM     10  O   UNL     1      17.759 -17.834  21.942  1.00  0.00    -0.246 OA
ATOM     11  O   UNL     1      15.604 -17.548  22.478  1.00  0.00    -0.423 OA
ENDROOT
BRANCH   1  12
ATOM     12  O   UNL     1      10.185 -17.627  21.281  1.00  0.00    -0.493 OA
ATOM     13  C   UNL     1       9.496 -18.691  20.632  1.00  0.00     0.278 C 
ENDBRANCH   1  12
BRANCH   2  14
ATOM     14  O   UNL     1      11.050 -16.884  23.793  1.00  0.00    -0.504 OA
ATOM     15  H   UNL     1      11.270 -16.232  24.535  1.00  0.00     0.293 HD
ENDBRANCH   2  14
TORSDOF 2
ENDMDL
MODEL 6
REMARK VINA RESULT:    -3.941     13.747     15.370
REMARK INTER + INTRA:          -4.350
REMARK INTER:                  -4.297
REMARK INTRA:                  -0.053
REMARK UNBOUND:                -0.064
REMARK SMILES COc1cc2ccc(=O)oc2cc1O
REMARK SMILES IDX 3 1 13 2 12 3 11 4 5 5 4 6 6 7 7 8 8 9 9 10 10 11 2 12 1 13
REMARK SMILES IDX 14 14
REMARK H PARENT 14 15
REMARK Flexibility Score: inf
ROOT
ATOM      1  C   UNL     1      14.793  -6.112  11.611  1.00  0.00     0.161 A 
ATOM      2  C   UNL     1      15.724  -6.527  12.574  1.00  0.00     0.161 A 
ATOM      3  C   UNL     1      16.000  -5.719  13.687  1.00  0.00     0.098 A 
ATOM      4  C   UNL     1      15.350  -4.493  13.845  1.00  0.00     0.142 A 
ATOM      5  C   UNL     1      14.413  -4.068  12.881  1.00  0.00     0.022 A 
ATOM      6  C   UNL     1      14.136  -4.874  11.768  1.00  0.00     0.062 A 
ATOM      7  C   UNL     1      13.779  -2.835  13.067  1.00  0.00     0.019 A 
ATOM      8  C   UNL     1      14.087  -2.068  14.191  1.00  0.00     0.094 A 
ATOM      9  C   UNL     1      15.027  -2.554  15.105  1.00  0.00     0.336 A 
ATOM     10  O   UNL     1      15.320  -1.878  16.125  1.00  0.00    -0.246 OA
ATOM     11  O   UNL     1      15.617  -3.731  14.904  1.00  0.00    -0.423 OA
ENDROOT
BRANCH   1  12
ATOM     12  O   UNL     1      14.548  -6.953  10.513  1.00  0.00    -0.493 OA
ATOM     13  C   UNL     1      15.209  -6.851   9.256  1.00  0.00     0.278 C 
ENDBRANCH   1  12
BRANCH   2  14
ATOM     14  O   UNL     1      16.375  -7.751  12.419  1.00  0.00    -0.504 OA
ATOM     15  H   UNL     1      16.307  -8.282  11.560  1.00  0.00     0.293 HD
ENDBRANCH   2  14
TORSDOF 2
ENDMDL
MODEL 7
REMARK VINA RESULT:    -3.930     10.994     13.616
REMARK INTER + INTRA:          -4.338
REMARK INTER:                  -4.289
REMARK INTRA:                  -0.048
REMARK UNBOUND:                -0.064
REMARK SMILES COc1cc2ccc(=O)oc2cc1O
REMARK SMILES IDX 3 1 13 2 12 3 11 4 5 5 4 6 6 7 7 8 8 9 9 10 10 11 2 12 1 13
REMARK SMILES IDX 14 14
REMARK H PARENT 14 15
REMARK Flexibility Score: inf
ROOT
ATOM      1  C   UNL     1      14.816  -9.419  11.420  1.00  0.00     0.161 A 
ATOM      2  C   UNL     1      15.158  -8.454  10.461  1.00  0.00     0.161 A 
ATOM      3  C   UNL     1      15.437  -7.136  10.851  1.00  0.00     0.098 A 
ATOM      4  C   UNL     1      15.377  -6.773  12.198  1.00  0.00     0.142 A 
ATOM      5  C   UNL     1      15.034  -7.737  13.168  1.00  0.00     0.022 A 
ATOM      6  C   UNL     1      14.754  -9.054  12.781  1.00  0.00     0.062 A 
ATOM      7  C   UNL     1      14.981  -7.342  14.509  1.00  0.00     0.019 A 
ATOM      8  C   UNL     1      15.268  -6.019  14.846  1.00  0.00     0.094 A 
ATOM      9  C   UNL     1      15.601  -5.118  13.829  1.00  0.00     0.336 A 
ATOM     10  O   UNL     1      15.863  -3.921  14.112  1.00  0.00    -0.246 OA
ATOM     11  O   UNL     1      15.643  -5.520  12.561  1.00  0.00    -0.423 OA
ENDROOT
BRANCH   1  12
ATOM     12  O   UNL     1      14.544 -10.727  10.985  1.00  0.00    -0.493 OA
ATOM     13  C   UNL     1      14.820 -11.901  11.741  1.00  0.00     0.278 C 
ENDBRANCH   1  12
BRANCH   2  14
ATOM     14  O   UNL     1      15.219  -8.814   9.115  1.00  0.00    -0.504 OA
ATOM     15  H   UNL     1      15.956  -8.477   8.508  1.00  0.00     0.293 HD
ENDBRANCH   2  14
TORSDOF 2
ENDMDL
MODEL 8
REMARK VINA RESULT:    -3.744      2.000      3.301
REMARK INTER + INTRA:          -4.136
REMARK INTER:                  -4.074
REMARK INTRA:                  -0.062
REMARK UNBOUND:                -0.064
REMARK SMILES COc1cc2ccc(=O)oc2cc1O
REMARK SMILES IDX 3 1 13 2 12 3 11 4 5 5 4 6 6 7 7 8 8 9 9 10 10 11 2 12 1 13
REMARK SMILES IDX 14 14
REMARK H PARENT 14 15
REMARK Flexibility Score: inf
ROOT
ATOM      1  C   UNL     1      17.449 -15.005  19.743  1.00  0.00     0.161 A 
ATOM      2  C   UNL     1      17.404 -15.454  21.072  1.00  0.00     0.161 A 
ATOM      3  C   UNL     1      16.322 -16.225  21.522  1.00  0.00     0.098 A 
ATOM      4  C   UNL     1      15.281 -16.554  20.650  1.00  0.00     0.142 A 
ATOM      5  C   UNL     1      15.319 -16.107  19.313  1.00  0.00     0.022 A 
ATOM      6  C   UNL     1      16.399 -15.335  18.862  1.00  0.00     0.062 A 
ATOM      7  C   UNL     1      14.261 -16.451  18.465  1.00  0.00     0.019 A 
ATOM      8  C   UNL     1      13.208 -17.221  18.961  1.00  0.00     0.094 A 
ATOM      9  C   UNL     1      13.238 -17.628  20.298  1.00  0.00     0.336 A 
ATOM     10  O   UNL     1      12.298 -18.322  20.765  1.00  0.00    -0.246 OA
ATOM     11  O   UNL     1      14.257 -17.286  21.084  1.00  0.00    -0.423 OA
ENDROOT
BRANCH   1  12
ATOM     12  O   UNL     1      18.552 -14.236  19.336  1.00  0.00    -0.493 OA
ATOM     13  C   UNL     1      18.559 -12.814  19.262  1.00  0.00     0.278 C 
ENDBRANCH   1  12
BRANCH   2  14
ATOM     14  O   UNL     1      18.442 -15.128  21.944  1.00  0.00    -0.504 OA
ATOM     15  H   UNL     1      18.318 -15.155  22.949  1.00  0.00     0.293 HD
ENDBRANCH   2  14
TORSDOF 2
ENDMDL
