MODEL 1
REMARK VINA RESULT:    -6.160      0.000      0.000
REMARK INTER + INTRA:          -7.377
REMARK INTER:                  -7.241
REMARK INTRA:                  -0.136
REMARK UNBOUND:                -0.136
REMARK SMILES O=C([O-])C=Cc1ccc(O)c(O)c1
REMARK SMILES IDX 6 1 13 2 7 3 11 4 8 5 9 6 5 7 4 8 2 9 1 10 3 11 12 12 10 14
REMARK H PARENT 12 13 10 15
REMARK Flexibility Score: inf
ROOT
ATOM      1  C   UNL     1     -33.791  44.904  38.991  1.00  0.00    -0.022 A 
ATOM      2  C   UNL     1     -32.487  45.066  38.497  1.00  0.00     0.058 A 
ATOM      3  C   UNL     1     -34.866  45.425  38.247  1.00  0.00     0.012 A 
ATOM      4  C   UNL     1     -32.244  45.754  37.301  1.00  0.00     0.157 A 
ATOM      5  C   UNL     1     -34.632  46.111  37.054  1.00  0.00     0.051 A 
ATOM      6  C   UNL     1     -33.331  46.286  36.571  1.00  0.00     0.157 A 
ENDROOT
BRANCH   1   7
ATOM      7  C   UNL     1     -33.984  44.158  40.258  1.00  0.00     0.010 C 
ATOM      8  C   UNL     1     -35.122  43.532  40.588  1.00  0.00     0.025 C 
BRANCH   8   9
ATOM      9  C   UNL     1     -35.282  42.810  41.862  1.00  0.00     0.064 C 
ATOM     10  O   UNL     1     -34.889  41.619  41.990  1.00  0.00    -0.545 OA
ATOM     11  O   UNL     1     -35.878  43.451  42.940  1.00  0.00    -0.545 OA
ENDBRANCH   8   9
ENDBRANCH   1   7
BRANCH   4  12
ATOM     12  O   UNL     1     -30.918  45.880  36.880  1.00  0.00    -0.504 OA
ATOM     13  H   UNL     1     -30.119  45.680  37.465  1.00  0.00     0.293 HD
ENDBRANCH   4  12
BRANCH   6  14
ATOM     14  O   UNL     1     -33.167  46.985  35.374  1.00  0.00    -0.504 OA
ATOM     15  H   UNL     1     -33.788  47.717  35.058  1.00  0.00     0.293 HD
ENDBRANCH   6  14
TORSDOF 4
ENDMDL
MODEL 2
REMARK VINA RESULT:    -6.104      0.861      1.927
REMARK INTER + INTRA:          -7.311
REMARK INTER:                  -7.179
REMARK INTRA:                  -0.132
REMARK UNBOUND:                -0.136
REMARK SMILES O=C([O-])C=Cc1ccc(O)c(O)c1
REMARK SMILES IDX 6 1 13 2 7 3 11 4 8 5 9 6 5 7 4 8 2 9 1 10 3 11 12 12 10 14
REMARK H PARENT 12 13 10 15
REMARK Flexibility Score: inf
ROOT
ATOM      1  C   UNL     1     -33.666  44.813  38.741  1.00  0.00    -0.022 A 
ATOM      2  C   UNL     1     -34.738  45.315  37.985  1.00  0.00     0.058 A 
ATOM      3  C   UNL     1     -32.353  45.136  38.351  1.00  0.00     0.012 A 
ATOM      4  C   UNL     1     -34.518  46.101  36.846  1.00  0.00     0.157 A 
ATOM      5  C   UNL     1     -32.125  45.919  37.218  1.00  0.00     0.051 A 
ATOM      6  C   UNL     1     -33.193  46.405  36.456  1.00  0.00     0.157 A 
ENDROOT
BRANCH   1   7
ATOM      7  C   UNL     1     -33.964  43.995  39.941  1.00  0.00     0.010 C 
ATOM      8  C   UNL     1     -35.093  44.103  40.656  1.00  0.00     0.025 C 
BRANCH   8   9
ATOM      9  C   UNL     1     -35.349  43.280  41.851  1.00  0.00     0.064 C 
ATOM     10  O   UNL     1     -35.157  42.035  41.838  1.00  0.00    -0.545 OA
ATOM     11  O   UNL     1     -35.813  43.888  43.011  1.00  0.00    -0.545 OA
ENDBRANCH   8   9
ENDBRANCH   1   7
BRANCH   4  12
ATOM     12  O   UNL     1     -35.635  46.555  36.143  1.00  0.00    -0.504 OA
ATOM     13  H   UNL     1     -36.589  46.356  36.410  1.00  0.00     0.293 HD
ENDBRANCH   4  12
BRANCH   6  14
ATOM     14  O   UNL     1     -32.895  47.179  35.333  1.00  0.00    -0.504 OA
ATOM     15  H   UNL     1     -31.968  47.280  34.946  1.00  0.00     0.293 HD
ENDBRANCH   6  14
TORSDOF 4
ENDMDL
MODEL 3
REMARK VINA RESULT:    -5.824      9.709     14.361
REMARK INTER + INTRA:          -6.982
REMARK INTER:                  -6.842
REMARK INTRA:                  -0.140
REMARK UNBOUND:                -0.136
REMARK SMILES O=C([O-])C=Cc1ccc(O)c(O)c1
REMARK SMILES IDX 6 1 13 2 7 3 11 4 8 5 9 6 5 7 4 8 2 9 1 10 3 11 12 12 10 14
REMARK H PARENT 12 13 10 15
REMARK Flexibility Score: inf
ROOT
ATOM      1  C   UNL     1     -39.976  37.394  48.084  1.00  0.00    -0.022 A 
ATOM      2  C   UNL     1     -40.074  36.074  48.553  1.00  0.00     0.058 A 
ATOM      3  C   UNL     1     -40.602  38.420  48.814  1.00  0.00     0.012 A 
ATOM      4  C   UNL     1     -40.800  35.768  49.711  1.00  0.00     0.157 A 
ATOM      5  C   UNL     1     -41.327  38.124  49.969  1.00  0.00     0.051 A 
ATOM      6  C   UNL     1     -41.438  36.807  50.427  1.00  0.00     0.157 A 
ENDROOT
BRANCH   1   7
ATOM      7  C   UNL     1     -39.184  37.656  46.857  1.00  0.00     0.010 C 
ATOM      8  C   UNL     1     -39.211  38.816  46.186  1.00  0.00     0.025 C 
BRANCH   8   9
ATOM      9  C   UNL     1     -38.419  39.035  44.963  1.00  0.00     0.064 C 
ATOM     10  O   UNL     1     -37.325  38.439  44.779  1.00  0.00    -0.545 OA
ATOM     11  O   UNL     1     -38.886  39.918  43.997  1.00  0.00    -0.545 OA
ENDBRANCH   8   9
ENDBRANCH   1   7
BRANCH   4  12
ATOM     12  O   UNL     1     -40.857  34.431  50.109  1.00  0.00    -0.504 OA
ATOM     13  H   UNL     1     -40.135  33.970  50.644  1.00  0.00     0.293 HD
ENDBRANCH   4  12
BRANCH   6  14
ATOM     14  O   UNL     1     -42.181  36.579  51.587  1.00  0.00    -0.504 OA
ATOM     15  H   UNL     1     -43.101  36.164  51.595  1.00  0.00     0.293 HD
ENDBRANCH   6  14
TORSDOF 4
ENDMDL
MODEL 4
REMARK VINA RESULT:    -5.777      1.338      6.074
REMARK INTER + INTRA:          -6.926
REMARK INTER:                  -6.798
REMARK INTRA:                  -0.128
REMARK UNBOUND:                -0.136
REMARK SMILES O=C([O-])C=Cc1ccc(O)c(O)c1
REMARK SMILES IDX 6 1 13 2 7 3 11 4 8 5 9 6 5 7 4 8 2 9 1 10 3 11 12 12 10 14
REMARK H PARENT 12 13 10 15
REMARK Flexibility Score: inf
ROOT
ATOM      1  C   UNL     1     -34.801  43.754  40.145  1.00  0.00    -0.022 A 
ATOM      2  C   UNL     1     -35.113  44.732  41.102  1.00  0.00     0.058 A 
ATOM      3  C   UNL     1     -35.060  42.404  40.446  1.00  0.00     0.012 A 
ATOM      4  C   UNL     1     -35.648  44.382  42.349  1.00  0.00     0.157 A 
ATOM      5  C   UNL     1     -35.593  42.047  41.686  1.00  0.00     0.051 A 
ATOM      6  C   UNL     1     -35.889  43.021  42.646  1.00  0.00     0.157 A 
ENDROOT
BRANCH   1   7
ATOM      7  C   UNL     1     -34.246  44.188  38.840  1.00  0.00     0.010 C 
ATOM      8  C   UNL     1     -33.213  45.033  38.713  1.00  0.00     0.025 C 
BRANCH   8   9
ATOM      9  C   UNL     1     -32.696  45.451  37.398  1.00  0.00     0.064 C 
ATOM     10  O   UNL     1     -31.466  45.385  37.131  1.00  0.00    -0.545 OA
ATOM     11  O   UNL     1     -33.579  45.930  36.438  1.00  0.00    -0.545 OA
ENDBRANCH   8   9
ENDBRANCH   1   7
BRANCH   4  12
ATOM     12  O   UNL     1     -35.924  45.411  43.251  1.00  0.00    -0.504 OA
ATOM     13  H   UNL     1     -36.857  45.717  43.490  1.00  0.00     0.293 HD
ENDBRANCH   4  12
BRANCH   6  14
ATOM     14  O   UNL     1     -36.417  42.596  43.866  1.00  0.00    -0.504 OA
ATOM     15  H   UNL     1     -35.918  42.016  44.526  1.00  0.00     0.293 HD
ENDBRANCH   6  14
TORSDOF 4
ENDMDL
MODEL 5
REMARK VINA RESULT:    -5.772      2.292      2.989
REMARK INTER + INTRA:          -6.920
REMARK INTER:                  -6.781
REMARK INTRA:                  -0.139
REMARK UNBOUND:                -0.136
REMARK SMILES O=C([O-])C=Cc1ccc(O)c(O)c1
REMARK SMILES IDX 6 1 13 2 7 3 11 4 8 5 9 6 5 7 4 8 2 9 1 10 3 11 12 12 10 14
REMARK H PARENT 12 13 10 15
REMARK Flexibility Score: inf
ROOT
ATOM      1  C   UNL     1     -34.834  43.437  40.897  1.00  0.00    -0.022 A 
ATOM      2  C   UNL     1     -34.536  42.952  39.614  1.00  0.00     0.058 A 
ATOM      3  C   UNL     1     -35.112  44.807  41.054  1.00  0.00     0.012 A 
ATOM      4  C   UNL     1     -34.487  43.809  38.507  1.00  0.00     0.157 A 
ATOM      5  C   UNL     1     -35.066  45.668  39.956  1.00  0.00     0.051 A 
ATOM      6  C   UNL     1     -34.753  45.186  38.681  1.00  0.00     0.157 A 
ENDROOT
BRANCH   1   7
ATOM      7  C   UNL     1     -34.880  42.478  42.027  1.00  0.00     0.010 C 
ATOM      8  C   UNL     1     -35.234  42.814  43.276  1.00  0.00     0.025 C 
BRANCH   8   9
ATOM      9  C   UNL     1     -35.256  41.835  44.377  1.00  0.00     0.064 C 
ATOM     10  O   UNL     1     -34.201  41.269  44.767  1.00  0.00    -0.545 OA
ATOM     11  O   UNL     1     -36.463  41.530  44.994  1.00  0.00    -0.545 OA
ENDBRANCH   8   9
ENDBRANCH   1   7
BRANCH   4  12
ATOM     12  O   UNL     1     -34.175  43.252  37.265  1.00  0.00    -0.504 OA
ATOM     13  H   UNL     1     -34.838  42.753  36.688  1.00  0.00     0.293 HD
ENDBRANCH   4  12
BRANCH   6  14
ATOM     14  O   UNL     1     -34.720  46.101  37.627  1.00  0.00    -0.504 OA
ATOM     15  H   UNL     1     -34.851  45.851  36.658  1.00  0.00     0.293 HD
ENDBRANCH   6  14
TORSDOF 4
ENDMDL
MODEL 6
REMARK VINA RESULT:    -5.679      7.598     11.907
REMARK INTER + INTRA:          -6.811
REMARK INTER:                  -6.670
REMARK INTRA:                  -0.140
REMARK UNBOUND:                -0.136
REMARK SMILES O=C([O-])C=Cc1ccc(O)c(O)c1
REMARK SMILES IDX 6 1 13 2 7 3 11 4 8 5 9 6 5 7 4 8 2 9 1 10 3 11 12 12 10 14
REMARK H PARENT 12 13 10 15
REMARK Flexibility Score: inf
ROOT
ATOM      1  C   UNL     1     -38.899  38.800  46.017  1.00  0.00    -0.022 A 
ATOM      2  C   UNL     1     -38.315  38.550  47.269  1.00  0.00     0.058 A 
ATOM      3  C   UNL     1     -40.302  38.809  45.915  1.00  0.00     0.012 A 
ATOM      4  C   UNL     1     -39.102  38.289  48.398  1.00  0.00     0.157 A 
ATOM      5  C   UNL     1     -41.094  38.549  47.035  1.00  0.00     0.051 A 
ATOM      6  C   UNL     1     -40.511  38.285  48.278  1.00  0.00     0.157 A 
ENDROOT
BRANCH   1   7
ATOM      7  C   UNL     1     -38.012  39.080  44.862  1.00  0.00     0.010 C 
ATOM      8  C   UNL     1     -38.458  39.425  43.646  1.00  0.00     0.025 C 
BRANCH   8   9
ATOM      9  C   UNL     1     -37.547  39.684  42.518  1.00  0.00     0.064 C 
ATOM     10  O   UNL     1     -36.425  40.229  42.698  1.00  0.00    -0.545 OA
ATOM     11  O   UNL     1     -37.932  39.324  41.233  1.00  0.00    -0.545 OA
ENDBRANCH   8   9
ENDBRANCH   1   7
BRANCH   4  12
ATOM     12  O   UNL     1     -38.447  38.042  49.606  1.00  0.00    -0.504 OA
ATOM     13  H   UNL     1     -38.461  37.152  50.084  1.00  0.00     0.293 HD
ENDBRANCH   4  12
BRANCH   6  14
ATOM     14  O   UNL     1     -41.360  38.030  49.357  1.00  0.00    -0.504 OA
ATOM     15  H   UNL     1     -42.304  38.382  49.428  1.00  0.00     0.293 HD
ENDBRANCH   6  14
TORSDOF 4
ENDMDL
MODEL 7
REMARK VINA RESULT:    -5.655      8.941     11.754
REMARK INTER + INTRA:          -6.783
REMARK INTER:                  -6.652
REMARK INTRA:                  -0.131
REMARK UNBOUND:                -0.136
REMARK SMILES O=C([O-])C=Cc1ccc(O)c(O)c1
REMARK SMILES IDX 6 1 13 2 7 3 11 4 8 5 9 6 5 7 4 8 2 9 1 10 3 11 12 12 10 14
REMARK H PARENT 12 13 10 15
REMARK Flexibility Score: inf
ROOT
ATOM      1  C   UNL     1     -39.279  38.689  46.939  1.00  0.00    -0.022 A 
ATOM      2  C   UNL     1     -40.281  38.869  45.972  1.00  0.00     0.058 A 
ATOM      3  C   UNL     1     -37.985  39.172  46.671  1.00  0.00     0.012 A 
ATOM      4  C   UNL     1     -40.005  39.493  44.749  1.00  0.00     0.157 A 
ATOM      5  C   UNL     1     -37.702  39.795  45.455  1.00  0.00     0.051 A 
ATOM      6  C   UNL     1     -38.696  39.960  44.485  1.00  0.00     0.157 A 
ENDROOT
BRANCH   1   7
ATOM      7  C   UNL     1     -39.636  38.030  48.219  1.00  0.00     0.010 C 
ATOM      8  C   UNL     1     -40.727  37.269  48.387  1.00  0.00     0.025 C 
BRANCH   8   9
ATOM      9  C   UNL     1     -41.056  36.639  49.677  1.00  0.00     0.064 C 
ATOM     10  O   UNL     1     -40.768  35.433  49.906  1.00  0.00    -0.545 OA
ATOM     11  O   UNL     1     -41.697  37.385  50.657  1.00  0.00    -0.545 OA
ENDBRANCH   8   9
ENDBRANCH   1   7
BRANCH   4  12
ATOM     12  O   UNL     1     -41.052  39.628  43.835  1.00  0.00    -0.504 OA
ATOM     13  H   UNL     1     -41.811  38.967  43.746  1.00  0.00     0.293 HD
ENDBRANCH   4  12
BRANCH   6  14
ATOM     14  O   UNL     1     -38.345  40.588  43.290  1.00  0.00    -0.504 OA
ATOM     15  H   UNL     1     -38.564  41.550  43.071  1.00  0.00     0.293 HD
ENDBRANCH   6  14
TORSDOF 4
ENDMDL
MODEL 8
REMARK VINA RESULT:    -5.373      5.314      7.759
REMARK INTER + INTRA:          -6.452
REMARK INTER:                  -6.314
REMARK INTRA:                  -0.138
REMARK UNBOUND:                -0.136
REMARK SMILES O=C([O-])C=Cc1ccc(O)c(O)c1
REMARK SMILES IDX 6 1 13 2 7 3 11 4 8 5 9 6 5 7 4 8 2 9 1 10 3 11 12 12 10 14
REMARK H PARENT 12 13 10 15
REMARK Flexibility Score: inf
ROOT
ATOM      1  C   UNL     1     -36.842  38.796  42.156  1.00  0.00    -0.022 A 
ATOM      2  C   UNL     1     -37.764  39.271  41.209  1.00  0.00     0.058 A 
ATOM      3  C   UNL     1     -35.635  39.496  42.335  1.00  0.00     0.012 A 
ATOM      4  C   UNL     1     -37.488  40.404  40.433  1.00  0.00     0.157 A 
ATOM      5  C   UNL     1     -35.353  40.626  41.567  1.00  0.00     0.051 A 
ATOM      6  C   UNL     1     -36.265  41.090  40.613  1.00  0.00     0.157 A 
ENDROOT
BRANCH   1   7
ATOM      7  C   UNL     1     -37.196  37.596  42.953  1.00  0.00     0.010 C 
ATOM      8  C   UNL     1     -36.378  37.031  43.853  1.00  0.00     0.025 C 
BRANCH   8   9
ATOM      9  C   UNL     1     -36.760  35.832  44.619  1.00  0.00     0.064 C 
ATOM     10  O   UNL     1     -36.652  34.680  44.121  1.00  0.00    -0.545 OA
ATOM     11  O   UNL     1     -37.249  35.975  45.911  1.00  0.00    -0.545 OA
ENDBRANCH   8   9
ENDBRANCH   1   7
BRANCH   4  12
ATOM     12  O   UNL     1     -38.452  40.809  39.508  1.00  0.00    -0.504 OA
ATOM     13  H   UNL     1     -39.289  40.284  39.299  1.00  0.00     0.293 HD
ENDBRANCH   4  12
BRANCH   6  14
ATOM     14  O   UNL     1     -35.919  42.223  39.876  1.00  0.00    -0.504 OA
ATOM     15  H   UNL     1     -35.266  42.219  39.106  1.00  0.00     0.293 HD
ENDBRANCH   6  14
TORSDOF 4
ENDMDL
MODEL 9
REMARK VINA RESULT:    -5.368      9.012     13.743
REMARK INTER + INTRA:          -6.446
REMARK INTER:                  -6.309
REMARK INTRA:                  -0.136
REMARK UNBOUND:                -0.136
REMARK SMILES O=C([O-])C=Cc1ccc(O)c(O)c1
REMARK SMILES IDX 6 1 13 2 7 3 11 4 8 5 9 6 5 7 4 8 2 9 1 10 3 11 12 12 10 14
REMARK H PARENT 12 13 10 15
REMARK Flexibility Score: inf
ROOT
ATOM      1  C   UNL     1     -39.911  37.925  47.458  1.00  0.00    -0.022 A 
ATOM      2  C   UNL     1     -40.742  38.355  48.505  1.00  0.00     0.058 A 
ATOM      3  C   UNL     1     -39.562  36.563  47.386  1.00  0.00     0.012 A 
ATOM      4  C   UNL     1     -41.201  37.461  49.481  1.00  0.00     0.157 A 
ATOM      5  C   UNL     1     -40.016  35.666  48.354  1.00  0.00     0.051 A 
ATOM      6  C   UNL     1     -40.831  36.098  49.406  1.00  0.00     0.157 A 
ENDROOT
BRANCH   1   7
ATOM      7  C   UNL     1     -39.465  38.917  46.450  1.00  0.00     0.010 C 
ATOM      8  C   UNL     1     -38.433  38.722  45.617  1.00  0.00     0.025 C 
BRANCH   8   9
ATOM      9  C   UNL     1     -38.011  39.736  44.636  1.00  0.00     0.064 C 
ATOM     10  O   UNL     1     -38.460  39.730  43.459  1.00  0.00    -0.545 OA
ATOM     11  O   UNL     1     -37.100  40.714  45.014  1.00  0.00    -0.545 OA
ENDBRANCH   8   9
ENDBRANCH   1   7
BRANCH   4  12
ATOM     12  O   UNL     1     -42.017  37.967  50.495  1.00  0.00    -0.504 OA
ATOM     13  H   UNL     1     -42.748  38.647  50.343  1.00  0.00     0.293 HD
ENDBRANCH   4  12
BRANCH   6  14
ATOM     14  O   UNL     1     -41.247  35.150  50.342  1.00  0.00    -0.504 OA
ATOM     15  H   UNL     1     -42.117  35.204  50.853  1.00  0.00     0.293 HD
ENDBRANCH   6  14
TORSDOF 4
ENDMDL
