MODEL 1
REMARK VINA RESULT:     7.738      0.000      0.000
REMARK INTER + INTRA:          17.082
REMARK INTER:                  17.691
REMARK INTRA:                  -0.609
REMARK UNBOUND:                -0.609
REMARK SMILES CCCCCCCCCCCCCCCCCCCCCCCC(=O)[O-]
REMARK SMILES IDX 13 1 14 2 15 3 16 4 17 5 18 6 19 7 20 8 21 9 22 10 23 11
REMARK SMILES IDX 24 12 25 13 26 14 12 15 11 16 10 17 9 18 8 19 7 20 6 21 5 22
REMARK SMILES IDX 4 23 3 24 2 25 1 26
REMARK H PARENT
REMARK Flexibility Score: inf
ROOT
ATOM      1  C   UNL     1       2.121  42.606  10.289  1.00  0.00     0.000 C 
ENDROOT
BRANCH   1   2
ATOM      2  C   UNL     1       0.887  41.746   9.962  1.00  0.00     0.000 C 
BRANCH   2   3
ATOM      3  C   UNL     1      -0.291  41.892  10.946  1.00  0.00     0.000 C 
BRANCH   3   4
ATOM      4  C   UNL     1      -0.430  43.280  11.603  1.00  0.00     0.000 C 
BRANCH   4   5
ATOM      5  C   UNL     1      -0.062  43.329  13.097  1.00  0.00     0.000 C 
BRANCH   5   6
ATOM      6  C   UNL     1      -0.082  44.754  13.670  1.00  0.00     0.000 C 
BRANCH   6   7
ATOM      7  C   UNL     1      -1.022  44.848  14.878  1.00  0.00     0.000 C 
BRANCH   7   8
ATOM      8  C   UNL     1      -2.280  43.994  14.663  1.00  0.00     0.000 C 
BRANCH   8   9
ATOM      9  C   UNL     1      -1.996  42.482  14.708  1.00  0.00     0.000 C 
BRANCH   9  10
ATOM     10  C   UNL     1      -3.122  41.590  14.147  1.00  0.00     0.006 C 
BRANCH  10  11
ATOM     11  C   UNL     1      -4.528  41.938  14.662  1.00  0.00     0.053 C 
BRANCH  11  12
ATOM     12  C   UNL     1      -5.258  40.728  15.158  1.00  0.00     0.041 C 
ATOM     13  O   UNL     1      -4.669  39.619  15.237  1.00  0.00    -0.550 OA
ATOM     14  O   UNL     1      -6.600  40.821  15.508  1.00  0.00    -0.550 OA
ENDBRANCH  11  12
ENDBRANCH  10  11
ENDBRANCH   9  10
ENDBRANCH   8   9
ENDBRANCH   7   8
ENDBRANCH   6   7
ENDBRANCH   5   6
ENDBRANCH   4   5
ENDBRANCH   3   4
ENDBRANCH   2   3
ENDBRANCH   1   2
BRANCH   1  15
ATOM     15  C   UNL     1       1.925  44.090   9.929  1.00  0.00     0.000 C 
BRANCH  15  16
ATOM     16  C   UNL     1       3.250  44.868   9.883  1.00  0.00     0.000 C 
BRANCH  16  17
ATOM     17  C   UNL     1       4.039  44.773  11.202  1.00  0.00     0.000 C 
BRANCH  17  18
ATOM     18  C   UNL     1       5.525  45.125  11.024  1.00  0.00    -0.000 C 
BRANCH  18  19
ATOM     19  C   UNL     1       6.185  44.346   9.875  1.00  0.00    -0.000 C 
BRANCH  19  20
ATOM     20  C   UNL     1       7.713  44.503   9.915  1.00  0.00    -0.000 C 
BRANCH  20  21
ATOM     21  C   UNL     1       8.358  43.721  11.071  1.00  0.00    -0.000 C 
BRANCH  21  22
ATOM     22  C   UNL     1       8.145  42.204  10.951  1.00  0.00    -0.000 C 
BRANCH  22  23
ATOM     23  C   UNL     1       7.338  41.668  12.143  1.00  0.00    -0.000 C 
BRANCH  23  24
ATOM     24  C   UNL     1       7.408  42.591  13.370  1.00  0.00    -0.000 C 
BRANCH  24  25
ATOM     25  C   UNL     1       6.036  43.166  13.756  1.00  0.00    -0.003 C 
ATOM     26  C   UNL     1       5.298  42.230  14.709  1.00  0.00     0.004 C 
ENDBRANCH  24  25
ENDBRANCH  23  24
ENDBRANCH  22  23
ENDBRANCH  21  22
ENDBRANCH  20  21
ENDBRANCH  19  20
ENDBRANCH  18  19
ENDBRANCH  17  18
ENDBRANCH  16  17
ENDBRANCH  15  16
ENDBRANCH   1  15
TORSDOF 22
ENDMDL
MODEL 2
REMARK VINA RESULT:     9.293      1.189      2.343
REMARK INTER + INTRA:          20.636
REMARK INTER:                  20.690
REMARK INTRA:                  -0.054
REMARK UNBOUND:                -0.609
REMARK SMILES CCCCCCCCCCCCCCCCCCCCCCCC(=O)[O-]
REMARK SMILES IDX 13 1 14 2 15 3 16 4 17 5 18 6 19 7 20 8 21 9 22 10 23 11
REMARK SMILES IDX 24 12 25 13 26 14 12 15 11 16 10 17 9 18 8 19 7 20 6 21 5 22
REMARK SMILES IDX 4 23 3 24 2 25 1 26
REMARK H PARENT
REMARK Flexibility Score: inf
ROOT
ATOM      1  C   UNL     1       2.452  42.991  10.529  1.00  0.00     0.000 C 
ENDROOT
BRANCH   1   2
ATOM      2  C   UNL     1       0.974  42.612  10.732  1.00  0.00     0.000 C 
BRANCH   2   3
ATOM      3  C   UNL     1       0.141  43.634  11.531  1.00  0.00     0.000 C 
BRANCH   3   4
ATOM      4  C   UNL     1       0.917  44.414  12.611  1.00  0.00     0.000 C 
BRANCH   4   5
ATOM      5  C   UNL     1       0.423  44.191  14.052  1.00  0.00     0.000 C 
BRANCH   5   6
ATOM      6  C   UNL     1      -0.857  44.978  14.372  1.00  0.00     0.000 C 
BRANCH   6   7
ATOM      7  C   UNL     1      -2.104  44.203  13.933  1.00  0.00     0.000 C 
BRANCH   7   8
ATOM      8  C   UNL     1      -2.671  43.371  15.093  1.00  0.00     0.000 C 
BRANCH   8   9
ATOM      9  C   UNL     1      -2.464  41.857  14.904  1.00  0.00     0.000 C 
BRANCH   9  10
ATOM     10  C   UNL     1      -3.675  41.100  14.321  1.00  0.00     0.006 C 
BRANCH  10  11
ATOM     11  C   UNL     1      -5.021  41.455  14.972  1.00  0.00     0.053 C 
BRANCH  11  12
ATOM     12  C   UNL     1      -5.769  40.233  15.412  1.00  0.00     0.041 C 
ATOM     13  O   UNL     1      -5.145  39.189  15.734  1.00  0.00    -0.550 OA
ATOM     14  O   UNL     1      -7.158  40.242  15.441  1.00  0.00    -0.550 OA
ENDBRANCH  11  12
ENDBRANCH  10  11
ENDBRANCH   9  10
ENDBRANCH   8   9
ENDBRANCH   7   8
ENDBRANCH   6   7
ENDBRANCH   5   6
ENDBRANCH   4   5
ENDBRANCH   3   4
ENDBRANCH   2   3
ENDBRANCH   1   2
BRANCH   1  15
ATOM     15  C   UNL     1       2.628  44.374   9.877  1.00  0.00     0.000 C 
BRANCH  15  16
ATOM     16  C   UNL     1       3.872  45.117  10.392  1.00  0.00     0.000 C 
BRANCH  16  17
ATOM     17  C   UNL     1       4.957  44.161  10.919  1.00  0.00     0.000 C 
BRANCH  17  18
ATOM     18  C   UNL     1       4.684  43.700  12.361  1.00  0.00    -0.000 C 
BRANCH  18  19
ATOM     19  C   UNL     1       5.884  43.929  13.293  1.00  0.00    -0.000 C 
BRANCH  19  20
ATOM     20  C   UNL     1       6.377  42.600  13.886  1.00  0.00    -0.000 C 
BRANCH  20  21
ATOM     21  C   UNL     1       7.391  41.887  12.979  1.00  0.00    -0.000 C 
BRANCH  21  22
ATOM     22  C   UNL     1       8.077  42.843  11.991  1.00  0.00    -0.000 C 
BRANCH  22  23
ATOM     23  C   UNL     1       7.698  42.501  10.542  1.00  0.00    -0.000 C 
BRANCH  23  24
ATOM     24  C   UNL     1       6.415  41.659  10.449  1.00  0.00    -0.000 C 
BRANCH  24  25
ATOM     25  C   UNL     1       6.668  40.256   9.876  1.00  0.00    -0.003 C 
ATOM     26  C   UNL     1       8.144  39.882   9.973  1.00  0.00     0.004 C 
ENDBRANCH  24  25
ENDBRANCH  23  24
ENDBRANCH  22  23
ENDBRANCH  21  22
ENDBRANCH  20  21
ENDBRANCH  19  20
ENDBRANCH  18  19
ENDBRANCH  17  18
ENDBRANCH  16  17
ENDBRANCH  15  16
ENDBRANCH   1  15
TORSDOF 22
ENDMDL
MODEL 3
REMARK VINA RESULT:     9.762      1.945      2.925
REMARK INTER + INTRA:          21.708
REMARK INTER:                  17.342
REMARK INTRA:                   4.366
REMARK UNBOUND:                -0.609
REMARK SMILES CCCCCCCCCCCCCCCCCCCCCCCC(=O)[O-]
REMARK SMILES IDX 13 1 14 2 15 3 16 4 17 5 18 6 19 7 20 8 21 9 22 10 23 11
REMARK SMILES IDX 24 12 25 13 26 14 12 15 11 16 10 17 9 18 8 19 7 20 6 21 5 22
REMARK SMILES IDX 4 23 3 24 2 25 1 26
REMARK H PARENT
REMARK Flexibility Score: inf
ROOT
ATOM      1  C   UNL     1       3.516  43.456  11.827  1.00  0.00     0.000 C 
ENDROOT
BRANCH   1   2
ATOM      2  C   UNL     1       2.846  44.836  11.953  1.00  0.00     0.000 C 
BRANCH   2   3
ATOM      3  C   UNL     1       1.443  44.826  12.593  1.00  0.00     0.000 C 
BRANCH   3   4
ATOM      4  C   UNL     1       0.484  43.745  12.056  1.00  0.00     0.000 C 
BRANCH   4   5
ATOM      5  C   UNL     1       0.533  43.534  10.532  1.00  0.00     0.000 C 
BRANCH   5   6
ATOM      6  C   UNL     1       0.169  42.101  10.115  1.00  0.00     0.000 C 
BRANCH   6   7
ATOM      7  C   UNL     1      -0.217  41.255  11.334  1.00  0.00     0.000 C 
BRANCH   7   8
ATOM      8  C   UNL     1      -1.608  41.645  11.855  1.00  0.00     0.000 C 
BRANCH   8   9
ATOM      9  C   UNL     1      -1.568  42.279  13.258  1.00  0.00     0.000 C 
BRANCH   9  10
ATOM     10  C   UNL     1      -2.829  42.045  14.115  1.00  0.00     0.006 C 
BRANCH  10  11
ATOM     11  C   UNL     1      -2.847  42.817  15.444  1.00  0.00     0.053 C 
BRANCH  11  12
ATOM     12  C   UNL     1      -2.964  44.295  15.232  1.00  0.00     0.041 C 
ATOM     13  O   UNL     1      -2.243  44.872  14.378  1.00  0.00    -0.550 OA
ATOM     14  O   UNL     1      -3.854  45.039  15.998  1.00  0.00    -0.550 OA
ENDBRANCH  11  12
ENDBRANCH  10  11
ENDBRANCH   9  10
ENDBRANCH   8   9
ENDBRANCH   7   8
ENDBRANCH   6   7
ENDBRANCH   5   6
ENDBRANCH   4   5
ENDBRANCH   3   4
ENDBRANCH   2   3
ENDBRANCH   1   2
BRANCH   1  15
ATOM     15  C   UNL     1       3.203  42.762  10.490  1.00  0.00     0.000 C 
BRANCH  15  16
ATOM     16  C   UNL     1       4.420  42.027   9.905  1.00  0.00     0.000 C 
BRANCH  16  17
ATOM     17  C   UNL     1       5.685  42.904   9.879  1.00  0.00     0.000 C 
BRANCH  17  18
ATOM     18  C   UNL     1       5.362  44.405   9.977  1.00  0.00    -0.000 C 
BRANCH  18  19
ATOM     19  C   UNL     1       6.063  45.086  11.163  1.00  0.00    -0.000 C 
BRANCH  19  20
ATOM     20  C   UNL     1       7.587  45.099  10.962  1.00  0.00    -0.000 C 
BRANCH  20  21
ATOM     21  C   UNL     1       8.143  43.724  10.561  1.00  0.00    -0.000 C 
BRANCH  21  22
ATOM     22  C   UNL     1       8.532  42.866  11.775  1.00  0.00    -0.000 C 
BRANCH  22  23
ATOM     23  C   UNL     1       7.361  41.974  12.215  1.00  0.00    -0.000 C 
BRANCH  23  24
ATOM     24  C   UNL     1       7.300  41.787  13.740  1.00  0.00    -0.000 C 
BRANCH  24  25
ATOM     25  C   UNL     1       5.998  42.328  14.350  1.00  0.00    -0.003 C 
ATOM     26  C   UNL     1       5.764  43.781  13.947  1.00  0.00     0.004 C 
ENDBRANCH  24  25
ENDBRANCH  23  24
ENDBRANCH  22  23
ENDBRANCH  21  22
ENDBRANCH  20  21
ENDBRANCH  19  20
ENDBRANCH  18  19
ENDBRANCH  17  18
ENDBRANCH  16  17
ENDBRANCH  15  16
ENDBRANCH   1  15
TORSDOF 22
ENDMDL
