MODEL 1
REMARK VINA RESULT:    -3.188      0.000      0.000
REMARK INTER + INTRA:          -8.311
REMARK INTER:                  -5.797
REMARK INTRA:                  -2.514
REMARK UNBOUND:                -2.514
REMARK SMILES CCCCCCCCCCCCCCCC(=O)[O-]
REMARK SMILES IDX 9 1 10 2 11 3 12 4 13 5 14 6 15 7 16 8 17 9 18 10 8 11 7 12
REMARK SMILES IDX 6 13 5 14 4 15 3 16 2 17 1 18
REMARK H PARENT
REMARK Flexibility Score: inf
ROOT
ATOM      1  C   UNL     1      -3.135 -12.831  41.494  1.00  0.00     0.000 C 
ENDROOT
BRANCH   1   2
ATOM      2  C   UNL     1      -1.833 -12.518  42.256  1.00  0.00     0.000 C 
BRANCH   2   3
ATOM      3  C   UNL     1      -1.525 -11.018  42.418  1.00  0.00     0.000 C 
BRANCH   3   4
ATOM      4  C   UNL     1      -1.833 -10.150  41.180  1.00  0.00     0.000 C 
BRANCH   4   5
ATOM      5  C   UNL     1      -0.863 -10.326  39.999  1.00  0.00     0.000 C 
BRANCH   5   6
ATOM      6  C   UNL     1      -0.507  -8.999  39.312  1.00  0.00     0.006 C 
BRANCH   6   7
ATOM      7  C   UNL     1      -1.677  -8.014  39.385  1.00  0.00     0.053 C 
BRANCH   7   8
ATOM      8  C   UNL     1      -2.199  -7.719  38.014  1.00  0.00     0.041 C 
ATOM      9  O   UNL     1      -2.772  -6.623  37.776  1.00  0.00    -0.550 OA
ATOM     10  O   UNL     1      -2.099  -8.676  37.011  1.00  0.00    -0.550 OA
ENDBRANCH   7   8
ENDBRANCH   6   7
ENDBRANCH   5   6
ENDBRANCH   4   5
ENDBRANCH   3   4
ENDBRANCH   2   3
ENDBRANCH   1   2
BRANCH   1  11
ATOM     11  C   UNL     1      -4.318 -13.195  42.418  1.00  0.00     0.000 C 
BRANCH  11  12
ATOM     12  C   UNL     1      -5.440 -12.144  42.373  1.00  0.00    -0.000 C 
BRANCH  12  13
ATOM     13  C   UNL     1      -5.200 -10.976  43.342  1.00  0.00    -0.000 C 
BRANCH  13  14
ATOM     14  C   UNL     1      -5.142  -9.614  42.629  1.00  0.00    -0.000 C 
BRANCH  14  15
ATOM     15  C   UNL     1      -5.904  -9.627  41.286  1.00  0.00    -0.000 C 
BRANCH  15  16
ATOM     16  C   UNL     1      -5.206  -8.822  40.173  1.00  0.00    -0.000 C 
BRANCH  16  17
ATOM     17  C   UNL     1      -5.259  -9.473  38.781  1.00  0.00    -0.003 C 
ATOM     18  C   UNL     1      -4.502 -10.799  38.717  1.00  0.00     0.004 C 
ENDBRANCH  16  17
ENDBRANCH  15  16
ENDBRANCH  14  15
ENDBRANCH  13  14
ENDBRANCH  12  13
ENDBRANCH  11  12
ENDBRANCH   1  11
TORSDOF 14
ENDMDL
MODEL 2
REMARK VINA RESULT:    -3.144      3.675      7.038
REMARK INTER + INTRA:          -8.231
REMARK INTER:                  -6.329
REMARK INTRA:                  -1.902
REMARK UNBOUND:                -2.514
REMARK SMILES CCCCCCCCCCCCCCCC(=O)[O-]
REMARK SMILES IDX 9 1 10 2 11 3 12 4 13 5 14 6 15 7 16 8 17 9 18 10 8 11 7 12
REMARK SMILES IDX 6 13 5 14 4 15 3 16 2 17 1 18
REMARK H PARENT
REMARK Flexibility Score: inf
ROOT
ATOM      1  C   UNL     1      -2.795  -8.146  35.050  1.00  0.00     0.000 C 
ENDROOT
BRANCH   1   2
ATOM      2  C   UNL     1      -1.390  -8.141  35.684  1.00  0.00     0.000 C 
BRANCH   2   3
ATOM      3  C   UNL     1      -1.297  -7.409  37.036  1.00  0.00     0.000 C 
BRANCH   3   4
ATOM      4  C   UNL     1      -2.650  -7.013  37.661  1.00  0.00     0.000 C 
BRANCH   4   5
ATOM      5  C   UNL     1      -3.143  -7.933  38.792  1.00  0.00     0.000 C 
BRANCH   5   6
ATOM      6  C   UNL     1      -2.020  -8.360  39.750  1.00  0.00     0.006 C 
BRANCH   6   7
ATOM      7  C   UNL     1      -2.383  -9.659  40.474  1.00  0.00     0.053 C 
BRANCH   7   8
ATOM      8  C   UNL     1      -1.193 -10.563  40.555  1.00  0.00     0.041 C 
ATOM      9  O   UNL     1      -0.354 -10.591  39.616  1.00  0.00    -0.550 OA
ATOM     10  O   UNL     1      -1.037 -11.412  41.643  1.00  0.00    -0.550 OA
ENDBRANCH   7   8
ENDBRANCH   6   7
ENDBRANCH   5   6
ENDBRANCH   4   5
ENDBRANCH   3   4
ENDBRANCH   2   3
ENDBRANCH   1   2
BRANCH   1  11
ATOM     11  C   UNL     1      -2.840  -7.515  33.642  1.00  0.00     0.000 C 
BRANCH  11  12
ATOM     12  C   UNL     1      -2.400  -6.042  33.646  1.00  0.00    -0.000 C 
BRANCH  12  13
ATOM     13  C   UNL     1      -3.534  -5.082  33.253  1.00  0.00    -0.000 C 
BRANCH  13  14
ATOM     14  C   UNL     1      -3.834  -4.037  34.342  1.00  0.00    -0.000 C 
BRANCH  14  15
ATOM     15  C   UNL     1      -4.571  -4.652  35.552  1.00  0.00    -0.000 C 
BRANCH  15  16
ATOM     16  C   UNL     1      -5.841  -5.435  35.168  1.00  0.00    -0.000 C 
BRANCH  16  17
ATOM     17  C   UNL     1      -6.021  -6.770  35.909  1.00  0.00    -0.003 C 
ATOM     18  C   UNL     1      -6.338  -6.587  37.392  1.00  0.00     0.004 C 
ENDBRANCH  16  17
ENDBRANCH  15  16
ENDBRANCH  14  15
ENDBRANCH  13  14
ENDBRANCH  12  13
ENDBRANCH  11  12
ENDBRANCH   1  11
TORSDOF 14
ENDMDL
MODEL 3
REMARK VINA RESULT:    -3.113      3.918      6.952
REMARK INTER + INTRA:          -8.175
REMARK INTER:                  -6.597
REMARK INTRA:                  -1.579
REMARK UNBOUND:                -2.514
REMARK SMILES CCCCCCCCCCCCCCCC(=O)[O-]
REMARK SMILES IDX 9 1 10 2 11 3 12 4 13 5 14 6 15 7 16 8 17 9 18 10 8 11 7 12
REMARK SMILES IDX 6 13 5 14 4 15 3 16 2 17 1 18
REMARK H PARENT
REMARK Flexibility Score: inf
ROOT
ATOM      1  C   UNL     1      -3.817  -7.720  37.203  1.00  0.00     0.000 C 
ENDROOT
BRANCH   1   2
ATOM      2  C   UNL     1      -2.575  -6.968  37.720  1.00  0.00     0.000 C 
BRANCH   2   3
ATOM      3  C   UNL     1      -1.233  -7.487  37.171  1.00  0.00     0.000 C 
BRANCH   3   4
ATOM      4  C   UNL     1      -0.554  -8.578  38.025  1.00  0.00     0.000 C 
BRANCH   4   5
ATOM      5  C   UNL     1      -0.899  -8.544  39.524  1.00  0.00     0.000 C 
BRANCH   5   6
ATOM      6  C   UNL     1      -1.464  -9.877  40.039  1.00  0.00     0.006 C 
BRANCH   6   7
ATOM      7  C   UNL     1      -2.010  -9.727  41.462  1.00  0.00     0.053 C 
BRANCH   7   8
ATOM      8  C   UNL     1      -2.017 -11.050  42.162  1.00  0.00     0.041 C 
ATOM      9  O   UNL     1      -0.932 -11.602  42.485  1.00  0.00    -0.550 OA
ATOM     10  O   UNL     1      -3.220 -11.698  42.412  1.00  0.00    -0.550 OA
ENDBRANCH   7   8
ENDBRANCH   6   7
ENDBRANCH   5   6
ENDBRANCH   4   5
ENDBRANCH   3   4
ENDBRANCH   2   3
ENDBRANCH   1   2
BRANCH   1  11
ATOM     11  C   UNL     1      -4.938  -6.787  36.696  1.00  0.00     0.000 C 
BRANCH  11  12
ATOM     12  C   UNL     1      -4.467  -5.330  36.554  1.00  0.00    -0.000 C 
BRANCH  12  13
ATOM     13  C   UNL     1      -5.472  -4.452  35.792  1.00  0.00    -0.000 C 
BRANCH  13  14
ATOM     14  C   UNL     1      -5.055  -4.198  34.333  1.00  0.00    -0.000 C 
BRANCH  14  15
ATOM     15  C   UNL     1      -3.530  -4.337  34.132  1.00  0.00    -0.000 C 
BRANCH  15  16
ATOM     16  C   UNL     1      -3.143  -5.291  32.985  1.00  0.00    -0.000 C 
BRANCH  16  17
ATOM     17  C   UNL     1      -3.497  -6.767  33.231  1.00  0.00    -0.003 C 
ATOM     18  C   UNL     1      -2.306  -7.589  33.722  1.00  0.00     0.004 C 
ENDBRANCH  16  17
ENDBRANCH  15  16
ENDBRANCH  14  15
ENDBRANCH  13  14
ENDBRANCH  12  13
ENDBRANCH  11  12
ENDBRANCH   1  11
TORSDOF 14
ENDMDL
MODEL 4
REMARK VINA RESULT:    -3.113      3.626      6.592
REMARK INTER + INTRA:          -8.174
REMARK INTER:                  -6.575
REMARK INTRA:                  -1.600
REMARK UNBOUND:                -2.514
REMARK SMILES CCCCCCCCCCCCCCCC(=O)[O-]
REMARK SMILES IDX 9 1 10 2 11 3 12 4 13 5 14 6 15 7 16 8 17 9 18 10 8 11 7 12
REMARK SMILES IDX 6 13 5 14 4 15 3 16 2 17 1 18
REMARK H PARENT
REMARK Flexibility Score: inf
ROOT
ATOM      1  C   UNL     1      -2.781  -7.723  37.444  1.00  0.00     0.000 C 
ENDROOT
BRANCH   1   2
ATOM      2  C   UNL     1      -1.253  -7.841  37.612  1.00  0.00     0.000 C 
BRANCH   2   3
ATOM      3  C   UNL     1      -0.796  -8.422  38.963  1.00  0.00     0.000 C 
BRANCH   3   4
ATOM      4  C   UNL     1      -1.795  -8.240  40.125  1.00  0.00     0.000 C 
BRANCH   4   5
ATOM      5  C   UNL     1      -1.830  -9.391  41.145  1.00  0.00     0.000 C 
BRANCH   5   6
ATOM      6  C   UNL     1      -3.249  -9.922  41.400  1.00  0.00     0.006 C 
BRANCH   6   7
ATOM      7  C   UNL     1      -4.279  -9.155  40.567  1.00  0.00     0.053 C 
BRANCH   7   8
ATOM      8  C   UNL     1      -5.543  -8.965  41.345  1.00  0.00     0.041 C 
ATOM      9  O   UNL     1      -5.550  -9.127  42.593  1.00  0.00    -0.550 OA
ATOM     10  O   UNL     1      -6.726  -8.657  40.684  1.00  0.00    -0.550 OA
ENDBRANCH   7   8
ENDBRANCH   6   7
ENDBRANCH   5   6
ENDBRANCH   4   5
ENDBRANCH   3   4
ENDBRANCH   2   3
ENDBRANCH   1   2
BRANCH   1  11
ATOM     11  C   UNL     1      -3.271  -6.271  37.259  1.00  0.00     0.000 C 
BRANCH  11  12
ATOM     12  C   UNL     1      -4.720  -6.203  36.748  1.00  0.00    -0.000 C 
BRANCH  12  13
ATOM     13  C   UNL     1      -5.143  -4.782  36.345  1.00  0.00    -0.000 C 
BRANCH  13  14
ATOM     14  C   UNL     1      -5.172  -4.579  34.820  1.00  0.00    -0.000 C 
BRANCH  14  15
ATOM     15  C   UNL     1      -3.792  -4.167  34.262  1.00  0.00    -0.000 C 
BRANCH  15  16
ATOM     16  C   UNL     1      -3.262  -5.113  33.167  1.00  0.00    -0.000 C 
BRANCH  16  17
ATOM     17  C   UNL     1      -2.297  -6.198  33.669  1.00  0.00    -0.003 C 
ATOM     18  C   UNL     1      -2.935  -7.587  33.710  1.00  0.00     0.004 C 
ENDBRANCH  16  17
ENDBRANCH  15  16
ENDBRANCH  14  15
ENDBRANCH  13  14
ENDBRANCH  12  13
ENDBRANCH  11  12
ENDBRANCH   1  11
TORSDOF 14
ENDMDL
MODEL 5
REMARK VINA RESULT:    -3.106      2.699      5.123
REMARK INTER + INTRA:          -8.163
REMARK INTER:                  -5.717
REMARK INTRA:                  -2.445
REMARK UNBOUND:                -2.514
REMARK SMILES CCCCCCCCCCCCCCCC(=O)[O-]
REMARK SMILES IDX 9 1 10 2 11 3 12 4 13 5 14 6 15 7 16 8 17 9 18 10 8 11 7 12
REMARK SMILES IDX 6 13 5 14 4 15 3 16 2 17 1 18
REMARK H PARENT
REMARK Flexibility Score: inf
ROOT
ATOM      1  C   UNL     1      -4.089 -10.754  38.023  1.00  0.00     0.000 C 
ENDROOT
BRANCH   1   2
ATOM      2  C   UNL     1      -3.896  -9.474  37.185  1.00  0.00     0.000 C 
BRANCH   2   3
ATOM      3  C   UNL     1      -4.100  -8.160  37.961  1.00  0.00     0.000 C 
BRANCH   3   4
ATOM      4  C   UNL     1      -3.232  -6.977  37.484  1.00  0.00     0.000 C 
BRANCH   4   5
ATOM      5  C   UNL     1      -2.151  -7.333  36.449  1.00  0.00     0.000 C 
BRANCH   5   6
ATOM      6  C   UNL     1      -2.458  -6.781  35.048  1.00  0.00     0.006 C 
BRANCH   6   7
ATOM      7  C   UNL     1      -3.738  -5.941  35.059  1.00  0.00     0.053 C 
BRANCH   7   8
ATOM      8  C   UNL     1      -3.663  -4.860  34.027  1.00  0.00     0.041 C 
ATOM      9  O   UNL     1      -3.506  -5.153  32.812  1.00  0.00    -0.550 OA
ATOM     10  O   UNL     1      -3.715  -3.526  34.413  1.00  0.00    -0.550 OA
ENDBRANCH   7   8
ENDBRANCH   6   7
ENDBRANCH   5   6
ENDBRANCH   4   5
ENDBRANCH   3   4
ENDBRANCH   2   3
ENDBRANCH   1   2
BRANCH   1  11
ATOM     11  C   UNL     1      -2.786 -11.556  38.234  1.00  0.00     0.000 C 
BRANCH  11  12
ATOM     12  C   UNL     1      -1.534 -10.750  37.848  1.00  0.00    -0.000 C 
BRANCH  12  13
ATOM     13  C   UNL     1      -0.638 -10.430  39.054  1.00  0.00    -0.000 C 
BRANCH  13  14
ATOM     14  C   UNL     1      -0.478  -8.918  39.292  1.00  0.00    -0.000 C 
BRANCH  14  15
ATOM     15  C   UNL     1      -1.415  -8.402  40.406  1.00  0.00    -0.000 C 
BRANCH  15  16
ATOM     16  C   UNL     1      -1.916  -9.509  41.354  1.00  0.00    -0.000 C 
BRANCH  16  17
ATOM     17  C   UNL     1      -3.445  -9.653  41.421  1.00  0.00    -0.003 C 
ATOM     18  C   UNL     1      -3.892 -11.051  41.849  1.00  0.00     0.004 C 
ENDBRANCH  16  17
ENDBRANCH  15  16
ENDBRANCH  14  15
ENDBRANCH  13  14
ENDBRANCH  12  13
ENDBRANCH  11  12
ENDBRANCH   1  11
TORSDOF 14
ENDMDL
MODEL 6
REMARK VINA RESULT:    -3.104      3.682      6.586
REMARK INTER + INTRA:          -8.158
REMARK INTER:                  -6.252
REMARK INTRA:                  -1.906
REMARK UNBOUND:                -2.514
REMARK SMILES CCCCCCCCCCCCCCCC(=O)[O-]
REMARK SMILES IDX 9 1 10 2 11 3 12 4 13 5 14 6 15 7 16 8 17 9 18 10 8 11 7 12
REMARK SMILES IDX 6 13 5 14 4 15 3 16 2 17 1 18
REMARK H PARENT
REMARK Flexibility Score: inf
ROOT
ATOM      1  C   UNL     1      -2.096  -7.333  36.498  1.00  0.00     0.000 C 
ENDROOT
BRANCH   1   2
ATOM      2  C   UNL     1      -3.043  -6.472  37.357  1.00  0.00     0.000 C 
BRANCH   2   3
ATOM      3  C   UNL     1      -4.540  -6.654  37.046  1.00  0.00     0.000 C 
BRANCH   3   4
ATOM      4  C   UNL     1      -5.034  -5.945  35.768  1.00  0.00     0.000 C 
BRANCH   4   5
ATOM      5  C   UNL     1      -4.574  -4.486  35.610  1.00  0.00     0.000 C 
BRANCH   5   6
ATOM      6  C   UNL     1      -4.161  -4.140  34.171  1.00  0.00     0.006 C 
BRANCH   6   7
ATOM      7  C   UNL     1      -3.185  -5.182  33.616  1.00  0.00     0.053 C 
BRANCH   7   8
ATOM      8  C   UNL     1      -3.673  -5.707  32.302  1.00  0.00     0.041 C 
ATOM      9  O   UNL     1      -4.909  -5.797  32.075  1.00  0.00    -0.550 OA
ATOM     10  O   UNL     1      -2.764  -6.146  31.348  1.00  0.00    -0.550 OA
ENDBRANCH   7   8
ENDBRANCH   6   7
ENDBRANCH   5   6
ENDBRANCH   4   5
ENDBRANCH   3   4
ENDBRANCH   2   3
ENDBRANCH   1   2
BRANCH   1  11
ATOM     11  C   UNL     1      -2.499  -8.822  36.438  1.00  0.00     0.000 C 
BRANCH  11  12
ATOM     12  C   UNL     1      -1.363  -9.754  36.893  1.00  0.00    -0.000 C 
BRANCH  12  13
ATOM     13  C   UNL     1      -0.219  -9.000  37.589  1.00  0.00    -0.000 C 
BRANCH  13  14
ATOM     14  C   UNL     1      -0.142  -9.296  39.097  1.00  0.00    -0.000 C 
BRANCH  14  15
ATOM     15  C   UNL     1      -1.031  -8.340  39.923  1.00  0.00    -0.000 C 
BRANCH  15  16
ATOM     16  C   UNL     1      -2.168  -9.054  40.679  1.00  0.00    -0.000 C 
BRANCH  16  17
ATOM     17  C   UNL     1      -3.555  -8.919  40.029  1.00  0.00    -0.003 C 
ATOM     18  C   UNL     1      -4.688  -9.378  40.946  1.00  0.00     0.004 C 
ENDBRANCH  16  17
ENDBRANCH  15  16
ENDBRANCH  14  15
ENDBRANCH  13  14
ENDBRANCH  12  13
ENDBRANCH  11  12
ENDBRANCH   1  11
TORSDOF 14
ENDMDL
MODEL 7
REMARK VINA RESULT:    -3.087      2.227      4.719
REMARK INTER + INTRA:          -8.127
REMARK INTER:                  -6.095
REMARK INTRA:                  -2.031
REMARK UNBOUND:                -2.514
REMARK SMILES CCCCCCCCCCCCCCCC(=O)[O-]
REMARK SMILES IDX 9 1 10 2 11 3 12 4 13 5 14 6 15 7 16 8 17 9 18 10 8 11 7 12
REMARK SMILES IDX 6 13 5 14 4 15 3 16 2 17 1 18
REMARK H PARENT
REMARK Flexibility Score: inf
ROOT
ATOM      1  C   UNL     1      -0.180 -10.247  39.213  1.00  0.00     0.000 C 
ENDROOT
BRANCH   1   2
ATOM      2  C   UNL     1      -0.146 -10.900  37.818  1.00  0.00     0.000 C 
BRANCH   2   3
ATOM      3  C   UNL     1      -1.481 -10.854  37.052  1.00  0.00     0.000 C 
BRANCH   3   4
ATOM      4  C   UNL     1      -1.512  -9.891  35.847  1.00  0.00     0.000 C 
BRANCH   4   5
ATOM      5  C   UNL     1      -2.698  -8.911  35.821  1.00  0.00     0.000 C 
BRANCH   5   6
ATOM      6  C   UNL     1      -2.259  -7.441  35.758  1.00  0.00     0.006 C 
BRANCH   6   7
ATOM      7  C   UNL     1      -3.219  -6.619  34.893  1.00  0.00     0.053 C 
BRANCH   7   8
ATOM      8  C   UNL     1      -3.826  -5.511  35.694  1.00  0.00     0.041 C 
ATOM      9  O   UNL     1      -4.156  -4.432  35.134  1.00  0.00    -0.550 OA
ATOM     10  O   UNL     1      -3.982  -5.650  37.068  1.00  0.00    -0.550 OA
ENDBRANCH   7   8
ENDBRANCH   6   7
ENDBRANCH   5   6
ENDBRANCH   4   5
ENDBRANCH   3   4
ENDBRANCH   2   3
ENDBRANCH   1   2
BRANCH   1  11
ATOM     11  C   UNL     1      -0.271  -8.706  39.172  1.00  0.00     0.000 C 
BRANCH  11  12
ATOM     12  C   UNL     1      -1.380  -8.160  40.086  1.00  0.00    -0.000 C 
BRANCH  12  13
ATOM     13  C   UNL     1      -2.769  -8.208  39.429  1.00  0.00    -0.000 C 
BRANCH  13  14
ATOM     14  C   UNL     1      -3.733  -9.170  40.144  1.00  0.00    -0.000 C 
BRANCH  14  15
ATOM     15  C   UNL     1      -3.130  -9.736  41.449  1.00  0.00    -0.000 C 
BRANCH  15  16
ATOM     16  C   UNL     1      -3.418 -11.234  41.664  1.00  0.00    -0.000 C 
BRANCH  16  17
ATOM     17  C   UNL     1      -2.176 -12.139  41.613  1.00  0.00    -0.003 C 
ATOM     18  C   UNL     1      -1.067 -11.679  42.559  1.00  0.00     0.004 C 
ENDBRANCH  16  17
ENDBRANCH  15  16
ENDBRANCH  14  15
ENDBRANCH  13  14
ENDBRANCH  12  13
ENDBRANCH  11  12
ENDBRANCH   1  11
TORSDOF 14
ENDMDL
MODEL 8
REMARK VINA RESULT:    -3.081      3.759      6.730
REMARK INTER + INTRA:          -8.116
REMARK INTER:                  -6.131
REMARK INTRA:                  -1.985
REMARK UNBOUND:                -2.514
REMARK SMILES CCCCCCCCCCCCCCCC(=O)[O-]
REMARK SMILES IDX 9 1 10 2 11 3 12 4 13 5 14 6 15 7 16 8 17 9 18 10 8 11 7 12
REMARK SMILES IDX 6 13 5 14 4 15 3 16 2 17 1 18
REMARK H PARENT
REMARK Flexibility Score: inf
ROOT
ATOM      1  C   UNL     1      -4.529  -8.320  35.267  1.00  0.00     0.000 C 
ENDROOT
BRANCH   1   2
ATOM      2  C   UNL     1      -3.485  -8.777  36.305  1.00  0.00     0.000 C 
BRANCH   2   3
ATOM      3  C   UNL     1      -2.047  -8.307  36.021  1.00  0.00     0.000 C 
BRANCH   3   4
ATOM      4  C   UNL     1      -1.375  -7.526  37.170  1.00  0.00     0.000 C 
BRANCH   4   5
ATOM      5  C   UNL     1      -1.974  -7.770  38.566  1.00  0.00     0.000 C 
BRANCH   5   6
ATOM      6  C   UNL     1      -0.933  -8.247  39.590  1.00  0.00     0.006 C 
BRANCH   6   7
ATOM      7  C   UNL     1      -0.855  -9.776  39.621  1.00  0.00     0.053 C 
BRANCH   7   8
ATOM      8  C   UNL     1      -1.511 -10.308  40.856  1.00  0.00     0.041 C 
ATOM      9  O   UNL     1      -1.278 -11.485  41.240  1.00  0.00    -0.550 OA
ATOM     10  O   UNL     1      -2.421  -9.523  41.554  1.00  0.00    -0.550 OA
ENDBRANCH   7   8
ENDBRANCH   6   7
ENDBRANCH   5   6
ENDBRANCH   4   5
ENDBRANCH   3   4
ENDBRANCH   2   3
ENDBRANCH   1   2
BRANCH   1  11
ATOM     11  C   UNL     1      -5.664  -7.462  35.869  1.00  0.00     0.000 C 
BRANCH  11  12
ATOM     12  C   UNL     1      -5.179  -6.587  37.036  1.00  0.00    -0.000 C 
BRANCH  12  13
ATOM     13  C   UNL     1      -4.352  -5.378  36.570  1.00  0.00    -0.000 C 
BRANCH  13  14
ATOM     14  C   UNL     1      -5.144  -4.434  35.649  1.00  0.00    -0.000 C 
BRANCH  14  15
ATOM     15  C   UNL     1      -4.321  -3.995  34.418  1.00  0.00    -0.000 C 
BRANCH  15  16
ATOM     16  C   UNL     1      -4.048  -5.136  33.419  1.00  0.00    -0.000 C 
BRANCH  16  17
ATOM     17  C   UNL     1      -2.575  -5.561  33.317  1.00  0.00    -0.003 C 
ATOM     18  C   UNL     1      -2.394  -6.918  32.638  1.00  0.00     0.004 C 
ENDBRANCH  16  17
ENDBRANCH  15  16
ENDBRANCH  14  15
ENDBRANCH  13  14
ENDBRANCH  12  13
ENDBRANCH  11  12
ENDBRANCH   1  11
TORSDOF 14
ENDMDL
MODEL 9
REMARK VINA RESULT:    -3.078      2.782      5.119
REMARK INTER + INTRA:          -8.110
REMARK INTER:                  -5.630
REMARK INTRA:                  -2.480
REMARK UNBOUND:                -2.514
REMARK SMILES CCCCCCCCCCCCCCCC(=O)[O-]
REMARK SMILES IDX 9 1 10 2 11 3 12 4 13 5 14 6 15 7 16 8 17 9 18 10 8 11 7 12
REMARK SMILES IDX 6 13 5 14 4 15 3 16 2 17 1 18
REMARK H PARENT
REMARK Flexibility Score: inf
ROOT
ATOM      1  C   UNL     1      -0.203  -9.186  37.526  1.00  0.00     0.000 C 
ENDROOT
BRANCH   1   2
ATOM      2  C   UNL     1      -0.602  -7.781  37.032  1.00  0.00     0.000 C 
BRANCH   2   3
ATOM      3  C   UNL     1      -2.070  -7.648  36.587  1.00  0.00     0.000 C 
BRANCH   3   4
ATOM      4  C   UNL     1      -2.882  -6.561  37.322  1.00  0.00     0.000 C 
BRANCH   4   5
ATOM      5  C   UNL     1      -4.373  -6.493  36.950  1.00  0.00     0.000 C 
BRANCH   5   6
ATOM      6  C   UNL     1      -4.640  -6.837  35.477  1.00  0.00     0.006 C 
BRANCH   6   7
ATOM      7  C   UNL     1      -5.110  -5.602  34.703  1.00  0.00     0.053 C 
BRANCH   7   8
ATOM      8  C   UNL     1      -3.941  -4.748  34.323  1.00  0.00     0.041 C 
ATOM      9  O   UNL     1      -3.943  -3.517  34.591  1.00  0.00    -0.550 OA
ATOM     10  O   UNL     1      -2.872  -5.300  33.629  1.00  0.00    -0.550 OA
ENDBRANCH   7   8
ENDBRANCH   6   7
ENDBRANCH   5   6
ENDBRANCH   4   5
ENDBRANCH   3   4
ENDBRANCH   2   3
ENDBRANCH   1   2
BRANCH   1  11
ATOM     11  C   UNL     1      -0.029  -9.276  39.057  1.00  0.00     0.000 C 
BRANCH  11  12
ATOM     12  C   UNL     1      -0.661 -10.549  39.644  1.00  0.00    -0.000 C 
BRANCH  12  13
ATOM     13  C   UNL     1      -1.865 -10.252  40.552  1.00  0.00    -0.000 C 
BRANCH  13  14
ATOM     14  C   UNL     1      -2.382  -8.811  40.402  1.00  0.00    -0.000 C 
BRANCH  14  15
ATOM     15  C   UNL     1      -3.853  -8.766  39.933  1.00  0.00    -0.000 C 
BRANCH  15  16
ATOM     16  C   UNL     1      -4.358 -10.102  39.356  1.00  0.00    -0.000 C 
BRANCH  16  17
ATOM     17  C   UNL     1      -4.499 -10.127  37.825  1.00  0.00    -0.003 C 
ATOM     18  C   UNL     1      -3.455 -11.014  37.148  1.00  0.00     0.004 C 
ENDBRANCH  16  17
ENDBRANCH  15  16
ENDBRANCH  14  15
ENDBRANCH  13  14
ENDBRANCH  12  13
ENDBRANCH  11  12
ENDBRANCH   1  11
TORSDOF 14
ENDMDL
