MODEL 1
REMARK VINA RESULT:    -4.266      0.000      0.000
REMARK INTER + INTRA:         -11.513
REMARK INTER:                  -9.254
REMARK INTRA:                  -2.260
REMARK UNBOUND:                -2.260
REMARK SMILES CCCCCCCCCCCCCCCCCCCCCC(=O)[O-]
REMARK SMILES IDX 12 1 11 2 10 3 9 4 8 5 7 6 6 7 5 8 4 9 3 10 2 11 1 12 13 13
REMARK SMILES IDX 14 14 15 15 16 16 17 17 18 18 19 19 20 20 21 21 22 22 23 23
REMARK SMILES IDX 24 24
REMARK H PARENT
REMARK Flexibility Score: inf
ROOT
ATOM      1  C   UNL     1      12.336 -10.684  11.875  1.00  0.00     0.000 C 
ENDROOT
BRANCH   1   2
ATOM      2  C   UNL     1      12.694  -9.483  12.763  1.00  0.00     0.000 C 
BRANCH   2   3
ATOM      3  C   UNL     1      13.589  -8.452  12.049  1.00  0.00     0.000 C 
BRANCH   3   4
ATOM      4  C   UNL     1      14.037  -7.265  12.922  1.00  0.00    -0.000 C 
BRANCH   4   5
ATOM      5  C   UNL     1      14.449  -6.003  12.142  1.00  0.00    -0.000 C 
BRANCH   5   6
ATOM      6  C   UNL     1      14.131  -4.685  12.881  1.00  0.00    -0.000 C 
BRANCH   6   7
ATOM      7  C   UNL     1      13.027  -4.859  13.939  1.00  0.00    -0.000 C 
BRANCH   7   8
ATOM      8  C   UNL     1      13.428  -4.291  15.309  1.00  0.00    -0.000 C 
BRANCH   8   9
ATOM      9  C   UNL     1      14.333  -5.246  16.107  1.00  0.00    -0.000 C 
BRANCH   9  10
ATOM     10  C   UNL     1      14.765  -4.664  17.465  1.00  0.00    -0.000 C 
BRANCH  10  11
ATOM     11  C   UNL     1      16.098  -5.212  18.004  1.00  0.00    -0.003 C 
ATOM     12  C   UNL     1      16.504  -4.588  19.339  1.00  0.00     0.004 C 
ENDBRANCH  10  11
ENDBRANCH   9  10
ENDBRANCH   8   9
ENDBRANCH   7   8
ENDBRANCH   6   7
ENDBRANCH   5   6
ENDBRANCH   4   5
ENDBRANCH   3   4
ENDBRANCH   2   3
ENDBRANCH   1   2
BRANCH   1  13
ATOM     13  C   UNL     1      11.793 -11.848  12.719  1.00  0.00     0.000 C 
BRANCH  13  14
ATOM     14  C   UNL     1      12.904 -12.775  13.238  1.00  0.00     0.000 C 
BRANCH  14  15
ATOM     15  C   UNL     1      13.888 -13.196  12.133  1.00  0.00     0.000 C 
BRANCH  15  16
ATOM     16  C   UNL     1      15.346 -13.235  12.623  1.00  0.00     0.000 C 
BRANCH  16  17
ATOM     17  C   UNL     1      16.221 -12.151  11.970  1.00  0.00     0.000 C 
BRANCH  17  18
ATOM     18  C   UNL     1      16.120 -10.798  12.693  1.00  0.00     0.000 C 
BRANCH  18  19
ATOM     19  C   UNL     1      17.471 -10.072  12.786  1.00  0.00     0.000 C 
BRANCH  19  20
ATOM     20  C   UNL     1      17.324  -8.589  12.426  1.00  0.00     0.006 C 
BRANCH  20  21
ATOM     21  C   UNL     1      18.405  -7.746  13.109  1.00  0.00     0.053 C 
BRANCH  21  22
ATOM     22  C   UNL     1      17.781  -6.655  13.921  1.00  0.00     0.041 C 
ATOM     23  O   UNL     1      17.720  -5.482  13.465  1.00  0.00    -0.550 OA
ATOM     24  O   UNL     1      17.315  -6.921  15.202  1.00  0.00    -0.550 OA
ENDBRANCH  21  22
ENDBRANCH  20  21
ENDBRANCH  19  20
ENDBRANCH  18  19
ENDBRANCH  17  18
ENDBRANCH  16  17
ENDBRANCH  15  16
ENDBRANCH  14  15
ENDBRANCH  13  14
ENDBRANCH   1  13
TORSDOF 20
ENDMDL
MODEL 2
REMARK VINA RESULT:    -3.409      1.836      4.251
REMARK INTER + INTRA:          -9.654
REMARK INTER:                  -8.416
REMARK INTRA:                  -1.238
REMARK UNBOUND:                -2.260
REMARK SMILES CCCCCCCCCCCCCCCCCCCCCC(=O)[O-]
REMARK SMILES IDX 12 1 11 2 10 3 9 4 8 5 7 6 6 7 5 8 4 9 3 10 2 11 1 12 13 13
REMARK SMILES IDX 14 14 15 15 16 16 17 17 18 18 19 19 20 20 21 21 22 22 23 23
REMARK SMILES IDX 24 24
REMARK H PARENT
REMARK Flexibility Score: inf
ROOT
ATOM      1  C   UNL     1      17.903  -7.926  13.165  1.00  0.00     0.000 C 
ENDROOT
BRANCH   1   2
ATOM      2  C   UNL     1      18.795  -7.447  12.010  1.00  0.00     0.000 C 
BRANCH   2   3
ATOM      3  C   UNL     1      18.959  -5.916  11.970  1.00  0.00     0.000 C 
BRANCH   3   4
ATOM      4  C   UNL     1      17.873  -5.126  12.725  1.00  0.00    -0.000 C 
BRANCH   4   5
ATOM      5  C   UNL     1      16.591  -4.850  11.917  1.00  0.00    -0.000 C 
BRANCH   5   6
ATOM      6  C   UNL     1      15.360  -5.632  12.421  1.00  0.00    -0.000 C 
BRANCH   6   7
ATOM      7  C   UNL     1      14.285  -4.709  13.021  1.00  0.00    -0.000 C 
BRANCH   7   8
ATOM      8  C   UNL     1      13.970  -5.045  14.487  1.00  0.00    -0.000 C 
BRANCH   8   9
ATOM      9  C   UNL     1      15.149  -5.723  15.207  1.00  0.00    -0.000 C 
BRANCH   9  10
ATOM     10  C   UNL     1      15.282  -5.283  16.677  1.00  0.00    -0.000 C 
BRANCH  10  11
ATOM     11  C   UNL     1      16.458  -5.924  17.435  1.00  0.00    -0.003 C 
ATOM     12  C   UNL     1      16.575  -5.436  18.879  1.00  0.00     0.004 C 
ENDBRANCH  10  11
ENDBRANCH   9  10
ENDBRANCH   8   9
ENDBRANCH   7   8
ENDBRANCH   6   7
ENDBRANCH   5   6
ENDBRANCH   4   5
ENDBRANCH   3   4
ENDBRANCH   2   3
ENDBRANCH   1   2
BRANCH   1  13
ATOM     13  C   UNL     1      18.011  -9.449  13.346  1.00  0.00     0.000 C 
BRANCH  13  14
ATOM     14  C   UNL     1      17.140 -10.229  12.348  1.00  0.00     0.000 C 
BRANCH  14  15
ATOM     15  C   UNL     1      16.605 -11.548  12.934  1.00  0.00     0.000 C 
BRANCH  15  16
ATOM     16  C   UNL     1      15.919 -12.429  11.876  1.00  0.00     0.000 C 
BRANCH  16  17
ATOM     17  C   UNL     1      15.166 -13.620  12.494  1.00  0.00     0.000 C 
BRANCH  17  18
ATOM     18  C   UNL     1      13.777 -13.228  13.023  1.00  0.00     0.000 C 
BRANCH  18  19
ATOM     19  C   UNL     1      12.805 -12.827  11.901  1.00  0.00     0.000 C 
BRANCH  19  20
ATOM     20  C   UNL     1      12.329 -11.381  12.079  1.00  0.00     0.006 C 
BRANCH  20  21
ATOM     21  C   UNL     1      13.482 -10.392  11.875  1.00  0.00     0.053 C 
BRANCH  21  22
ATOM     22  C   UNL     1      13.291  -9.182  12.733  1.00  0.00     0.041 C 
ATOM     23  O   UNL     1      12.148  -8.895  13.179  1.00  0.00    -0.550 OA
ATOM     24  O   UNL     1      14.364  -8.341  12.998  1.00  0.00    -0.550 OA
ENDBRANCH  21  22
ENDBRANCH  20  21
ENDBRANCH  19  20
ENDBRANCH  18  19
ENDBRANCH  17  18
ENDBRANCH  16  17
ENDBRANCH  15  16
ENDBRANCH  14  15
ENDBRANCH  13  14
ENDBRANCH   1  13
TORSDOF 20
ENDMDL
MODEL 3
REMARK VINA RESULT:    -3.378      1.452      6.024
REMARK INTER + INTRA:          -9.587
REMARK INTER:                  -7.211
REMARK INTRA:                  -2.376
REMARK UNBOUND:                -2.260
REMARK SMILES CCCCCCCCCCCCCCCCCCCCCC(=O)[O-]
REMARK SMILES IDX 12 1 11 2 10 3 9 4 8 5 7 6 6 7 5 8 4 9 3 10 2 11 1 12 13 13
REMARK SMILES IDX 14 14 15 15 16 16 17 17 18 18 19 19 20 20 21 21 22 22 23 23
REMARK SMILES IDX 24 24
REMARK H PARENT
REMARK Flexibility Score: inf
ROOT
ATOM      1  C   UNL     1      14.590  -5.057  15.927  1.00  0.00     0.000 C 
ENDROOT
BRANCH   1   2
ATOM      2  C   UNL     1      13.292  -4.254  15.755  1.00  0.00     0.000 C 
BRANCH   2   3
ATOM      3  C   UNL     1      12.816  -4.184  14.292  1.00  0.00     0.000 C 
BRANCH   3   4
ATOM      4  C   UNL     1      13.938  -4.011  13.251  1.00  0.00    -0.000 C 
BRANCH   4   5
ATOM      5  C   UNL     1      14.053  -5.154  12.224  1.00  0.00    -0.000 C 
BRANCH   5   6
ATOM      6  C   UNL     1      14.442  -6.511  12.848  1.00  0.00    -0.000 C 
BRANCH   6   7
ATOM      7  C   UNL     1      14.230  -7.684  11.875  1.00  0.00    -0.000 C 
BRANCH   7   8
ATOM      8  C   UNL     1      13.804  -8.976  12.592  1.00  0.00    -0.000 C 
BRANCH   8   9
ATOM      9  C   UNL     1      14.904 -10.052  12.579  1.00  0.00    -0.000 C 
BRANCH   9  10
ATOM     10  C   UNL     1      14.436 -11.375  11.945  1.00  0.00    -0.000 C 
BRANCH  10  11
ATOM     11  C   UNL     1      13.025 -11.824  12.362  1.00  0.00    -0.003 C 
ATOM     12  C   UNL     1      13.016 -13.169  13.087  1.00  0.00     0.004 C 
ENDBRANCH  10  11
ENDBRANCH   9  10
ENDBRANCH   8   9
ENDBRANCH   7   8
ENDBRANCH   6   7
ENDBRANCH   5   6
ENDBRANCH   4   5
ENDBRANCH   3   4
ENDBRANCH   2   3
ENDBRANCH   1   2
BRANCH   1  13
ATOM     13  C   UNL     1      14.955  -5.200  17.413  1.00  0.00     0.000 C 
BRANCH  13  14
ATOM     14  C   UNL     1      16.349  -5.812  17.626  1.00  0.00     0.000 C 
BRANCH  14  15
ATOM     15  C   UNL     1      17.218  -5.761  16.357  1.00  0.00     0.000 C 
BRANCH  15  16
ATOM     16  C   UNL     1      17.711  -7.152  15.922  1.00  0.00     0.000 C 
BRANCH  16  17
ATOM     17  C   UNL     1      17.219  -7.543  14.517  1.00  0.00     0.000 C 
BRANCH  17  18
ATOM     18  C   UNL     1      18.089  -8.633  13.871  1.00  0.00     0.000 C 
BRANCH  18  19
ATOM     19  C   UNL     1      18.117  -8.539  12.337  1.00  0.00     0.000 C 
BRANCH  19  20
ATOM     20  C   UNL     1      18.023  -7.080  11.875  1.00  0.00     0.006 C 
BRANCH  20  21
ATOM     21  C   UNL     1      19.401  -6.411  11.878  1.00  0.00     0.053 C 
BRANCH  21  22
ATOM     22  C   UNL     1      19.300  -5.010  12.392  1.00  0.00     0.041 C 
ATOM     23  O   UNL     1      18.305  -4.657  13.079  1.00  0.00    -0.550 OA
ATOM     24  O   UNL     1      20.279  -4.079  12.068  1.00  0.00    -0.550 OA
ENDBRANCH  21  22
ENDBRANCH  20  21
ENDBRANCH  19  20
ENDBRANCH  18  19
ENDBRANCH  17  18
ENDBRANCH  16  17
ENDBRANCH  15  16
ENDBRANCH  14  15
ENDBRANCH  13  14
ENDBRANCH   1  13
TORSDOF 20
ENDMDL
MODEL 4
REMARK VINA RESULT:    -3.262      1.393      6.554
REMARK INTER + INTRA:          -9.335
REMARK INTER:                  -7.538
REMARK INTRA:                  -1.796
REMARK UNBOUND:                -2.260
REMARK SMILES CCCCCCCCCCCCCCCCCCCCCC(=O)[O-]
REMARK SMILES IDX 12 1 11 2 10 3 9 4 8 5 7 6 6 7 5 8 4 9 3 10 2 11 1 12 13 13
REMARK SMILES IDX 14 14 15 15 16 16 17 17 18 18 19 19 20 20 21 21 22 22 23 23
REMARK SMILES IDX 24 24
REMARK H PARENT
REMARK Flexibility Score: inf
ROOT
ATOM      1  C   UNL     1      14.191  -5.027  16.021  1.00  0.00     0.000 C 
ENDROOT
BRANCH   1   2
ATOM      2  C   UNL     1      13.385  -4.238  14.978  1.00  0.00     0.000 C 
BRANCH   2   3
ATOM      3  C   UNL     1      13.025  -5.076  13.735  1.00  0.00     0.000 C 
BRANCH   3   4
ATOM      4  C   UNL     1      14.213  -5.423  12.819  1.00  0.00    -0.000 C 
BRANCH   4   5
ATOM      5  C   UNL     1      14.073  -6.749  12.047  1.00  0.00    -0.000 C 
BRANCH   5   6
ATOM      6  C   UNL     1      14.282  -8.003  12.923  1.00  0.00    -0.000 C 
BRANCH   6   7
ATOM      7  C   UNL     1      13.093  -8.976  12.845  1.00  0.00    -0.000 C 
BRANCH   7   8
ATOM      8  C   UNL     1      13.410 -10.227  12.009  1.00  0.00    -0.000 C 
BRANCH   8   9
ATOM      9  C   UNL     1      12.366 -11.343  12.192  1.00  0.00    -0.000 C 
BRANCH   9  10
ATOM     10  C   UNL     1      12.809 -12.416  13.203  1.00  0.00    -0.000 C 
BRANCH  10  11
ATOM     11  C   UNL     1      13.665 -13.547  12.606  1.00  0.00    -0.003 C 
ATOM     12  C   UNL     1      15.160 -13.226  12.601  1.00  0.00     0.004 C 
ENDBRANCH  10  11
ENDBRANCH   9  10
ENDBRANCH   8   9
ENDBRANCH   7   8
ENDBRANCH   6   7
ENDBRANCH   5   6
ENDBRANCH   4   5
ENDBRANCH   3   4
ENDBRANCH   2   3
ENDBRANCH   1   2
BRANCH   1  13
ATOM     13  C   UNL     1      14.341  -4.222  17.321  1.00  0.00     0.000 C 
BRANCH  13  14
ATOM     14  C   UNL     1      15.229  -4.929  18.358  1.00  0.00     0.000 C 
BRANCH  14  15
ATOM     15  C   UNL     1      16.640  -5.229  17.822  1.00  0.00     0.000 C 
BRANCH  15  16
ATOM     16  C   UNL     1      16.763  -6.649  17.244  1.00  0.00     0.000 C 
BRANCH  16  17
ATOM     17  C   UNL     1      17.648  -6.704  15.986  1.00  0.00     0.000 C 
BRANCH  17  18
ATOM     18  C   UNL     1      16.851  -6.464  14.694  1.00  0.00     0.000 C 
BRANCH  18  19
ATOM     19  C   UNL     1      17.729  -5.955  13.540  1.00  0.00     0.000 C 
BRANCH  19  20
ATOM     20  C   UNL     1      18.656  -7.062  13.026  1.00  0.00     0.006 C 
BRANCH  20  21
ATOM     21  C   UNL     1      17.869  -8.123  12.249  1.00  0.00     0.053 C 
BRANCH  21  22
ATOM     22  C   UNL     1      17.861  -9.419  12.996  1.00  0.00     0.041 C 
ATOM     23  O   UNL     1      17.156 -10.380  12.590  1.00  0.00    -0.550 OA
ATOM     24  O   UNL     1      18.592  -9.549  14.170  1.00  0.00    -0.550 OA
ENDBRANCH  21  22
ENDBRANCH  20  21
ENDBRANCH  19  20
ENDBRANCH  18  19
ENDBRANCH  17  18
ENDBRANCH  16  17
ENDBRANCH  15  16
ENDBRANCH  14  15
ENDBRANCH  13  14
ENDBRANCH   1  13
TORSDOF 20
ENDMDL
MODEL 5
REMARK VINA RESULT:    -3.130      2.499      6.061
REMARK INTER + INTRA:          -9.049
REMARK INTER:                  -6.983
REMARK INTRA:                  -2.066
REMARK UNBOUND:                -2.260
REMARK SMILES CCCCCCCCCCCCCCCCCCCCCC(=O)[O-]
REMARK SMILES IDX 12 1 11 2 10 3 9 4 8 5 7 6 6 7 5 8 4 9 3 10 2 11 1 12 13 13
REMARK SMILES IDX 14 14 15 15 16 16 17 17 18 18 19 19 20 20 21 21 22 22 23 23
REMARK SMILES IDX 24 24
REMARK H PARENT
REMARK Flexibility Score: inf
ROOT
ATOM      1  C   UNL     1      17.115  -6.103  16.689  1.00  0.00     0.000 C 
ENDROOT
BRANCH   1   2
ATOM      2  C   UNL     1      15.774  -5.749  17.349  1.00  0.00     0.000 C 
BRANCH   2   3
ATOM      3  C   UNL     1      14.623  -5.606  16.334  1.00  0.00     0.000 C 
BRANCH   3   4
ATOM      4  C   UNL     1      14.201  -4.157  16.031  1.00  0.00    -0.000 C 
BRANCH   4   5
ATOM      5  C   UNL     1      12.826  -4.008  15.352  1.00  0.00    -0.000 C 
BRANCH   5   6
ATOM      6  C   UNL     1      12.718  -4.749  14.001  1.00  0.00    -0.000 C 
BRANCH   6   7
ATOM      7  C   UNL     1      13.419  -3.991  12.860  1.00  0.00    -0.000 C 
BRANCH   7   8
ATOM      8  C   UNL     1      14.830  -4.529  12.574  1.00  0.00    -0.000 C 
BRANCH   8   9
ATOM      9  C   UNL     1      14.812  -5.901  11.878  1.00  0.00    -0.000 C 
BRANCH   9  10
ATOM     10  C   UNL     1      14.291  -7.027  12.790  1.00  0.00    -0.000 C 
BRANCH  10  11
ATOM     11  C   UNL     1      13.792  -8.278  12.046  1.00  0.00    -0.003 C 
ATOM     12  C   UNL     1      12.740  -9.060  12.831  1.00  0.00     0.004 C 
ENDBRANCH  10  11
ENDBRANCH   9  10
ENDBRANCH   8   9
ENDBRANCH   7   8
ENDBRANCH   6   7
ENDBRANCH   5   6
ENDBRANCH   4   5
ENDBRANCH   3   4
ENDBRANCH   2   3
ENDBRANCH   1   2
BRANCH   1  13
ATOM     13  C   UNL     1      17.073  -5.827  15.178  1.00  0.00     0.000 C 
BRANCH  13  14
ATOM     14  C   UNL     1      17.659  -6.981  14.347  1.00  0.00     0.000 C 
BRANCH  14  15
ATOM     15  C   UNL     1      18.327  -6.495  13.048  1.00  0.00     0.000 C 
BRANCH  15  16
ATOM     16  C   UNL     1      18.139  -7.481  11.883  1.00  0.00     0.000 C 
BRANCH  16  17
ATOM     17  C   UNL     1      18.110  -8.948  12.346  1.00  0.00     0.000 C 
BRANCH  17  18
ATOM     18  C   UNL     1      16.734  -9.602  12.146  1.00  0.00     0.000 C 
BRANCH  18  19
ATOM     19  C   UNL     1      16.618 -10.968  12.842  1.00  0.00     0.000 C 
BRANCH  19  20
ATOM     20  C   UNL     1      15.948 -11.996  11.924  1.00  0.00     0.006 C 
BRANCH  20  21
ATOM     21  C   UNL     1      15.612 -13.281  12.688  1.00  0.00     0.053 C 
BRANCH  21  22
ATOM     22  C   UNL     1      14.130 -13.471  12.767  1.00  0.00     0.041 C 
ATOM     23  O   UNL     1      13.644 -14.628  12.865  1.00  0.00    -0.550 OA
ATOM     24  O   UNL     1      13.284 -12.373  12.679  1.00  0.00    -0.550 OA
ENDBRANCH  21  22
ENDBRANCH  20  21
ENDBRANCH  19  20
ENDBRANCH  18  19
ENDBRANCH  17  18
ENDBRANCH  16  17
ENDBRANCH  15  16
ENDBRANCH  14  15
ENDBRANCH  13  14
ENDBRANCH   1  13
TORSDOF 20
ENDMDL
MODEL 6
REMARK VINA RESULT:    -3.070      1.814      7.421
REMARK INTER + INTRA:          -8.920
REMARK INTER:                  -7.769
REMARK INTRA:                  -1.151
REMARK UNBOUND:                -2.260
REMARK SMILES CCCCCCCCCCCCCCCCCCCCCC(=O)[O-]
REMARK SMILES IDX 12 1 11 2 10 3 9 4 8 5 7 6 6 7 5 8 4 9 3 10 2 11 1 12 13 13
REMARK SMILES IDX 14 14 15 15 16 16 17 17 18 18 19 19 20 20 21 21 22 22 23 23
REMARK SMILES IDX 24 24
REMARK H PARENT
REMARK Flexibility Score: inf
ROOT
ATOM      1  C   UNL     1      17.305  -5.585  16.713  1.00  0.00     0.000 C 
ENDROOT
BRANCH   1   2
ATOM      2  C   UNL     1      17.386  -6.921  15.960  1.00  0.00     0.000 C 
BRANCH   2   3
ATOM      3  C   UNL     1      16.734  -6.867  14.565  1.00  0.00     0.000 C 
BRANCH   3   4
ATOM      4  C   UNL     1      17.690  -6.502  13.414  1.00  0.00    -0.000 C 
BRANCH   4   5
ATOM      5  C   UNL     1      18.507  -7.680  12.849  1.00  0.00    -0.000 C 
BRANCH   5   6
ATOM      6  C   UNL     1      17.640  -8.781  12.201  1.00  0.00    -0.000 C 
BRANCH   6   7
ATOM      7  C   UNL     1      17.201  -9.852  13.214  1.00  0.00    -0.000 C 
BRANCH   7   8
ATOM      8  C   UNL     1      17.048 -11.242  12.575  1.00  0.00    -0.000 C 
BRANCH   8   9
ATOM      9  C   UNL     1      15.589 -11.729  12.555  1.00  0.00    -0.000 C 
BRANCH   9  10
ATOM     10  C   UNL     1      15.472 -13.264  12.594  1.00  0.00    -0.000 C 
BRANCH  10  11
ATOM     11  C   UNL     1      14.032 -13.796  12.707  1.00  0.00    -0.003 C 
ATOM     12  C   UNL     1      13.020 -12.710  13.069  1.00  0.00     0.004 C 
ENDBRANCH  10  11
ENDBRANCH   9  10
ENDBRANCH   8   9
ENDBRANCH   7   8
ENDBRANCH   6   7
ENDBRANCH   5   6
ENDBRANCH   4   5
ENDBRANCH   3   4
ENDBRANCH   2   3
ENDBRANCH   1   2
BRANCH   1  13
ATOM     13  C   UNL     1      16.392  -5.703  17.943  1.00  0.00     0.000 C 
BRANCH  13  14
ATOM     14  C   UNL     1      15.021  -5.039  17.732  1.00  0.00     0.000 C 
BRANCH  14  15
ATOM     15  C   UNL     1      14.512  -5.180  16.287  1.00  0.00     0.000 C 
BRANCH  15  16
ATOM     16  C   UNL     1      13.540  -4.056  15.891  1.00  0.00     0.000 C 
BRANCH  16  17
ATOM     17  C   UNL     1      13.163  -4.095  14.399  1.00  0.00     0.000 C 
BRANCH  17  18
ATOM     18  C   UNL     1      14.347  -4.495  13.504  1.00  0.00     0.000 C 
BRANCH  18  19
ATOM     19  C   UNL     1      13.904  -4.978  12.113  1.00  0.00     0.000 C 
BRANCH  19  20
ATOM     20  C   UNL     1      14.331  -6.431  11.876  1.00  0.00     0.006 C 
BRANCH  20  21
ATOM     21  C   UNL     1      13.987  -7.311  13.081  1.00  0.00     0.053 C 
BRANCH  21  22
ATOM     22  C   UNL     1      13.481  -8.644  12.628  1.00  0.00     0.041 C 
ATOM     23  O   UNL     1      14.187  -9.366  11.875  1.00  0.00    -0.550 OA
ATOM     24  O   UNL     1      12.209  -9.066  12.994  1.00  0.00    -0.550 OA
ENDBRANCH  21  22
ENDBRANCH  20  21
ENDBRANCH  19  20
ENDBRANCH  18  19
ENDBRANCH  17  18
ENDBRANCH  16  17
ENDBRANCH  15  16
ENDBRANCH  14  15
ENDBRANCH  13  14
ENDBRANCH   1  13
TORSDOF 20
ENDMDL
MODEL 7
REMARK VINA RESULT:    -2.624      2.512      6.489
REMARK INTER + INTRA:          -7.952
REMARK INTER:                  -5.672
REMARK INTRA:                  -2.280
REMARK UNBOUND:                -2.260
REMARK SMILES CCCCCCCCCCCCCCCCCCCCCC(=O)[O-]
REMARK SMILES IDX 12 1 11 2 10 3 9 4 8 5 7 6 6 7 5 8 4 9 3 10 2 11 1 12 13 13
REMARK SMILES IDX 14 14 15 15 16 16 17 17 18 18 19 19 20 20 21 21 22 22 23 23
REMARK SMILES IDX 24 24
REMARK H PARENT
REMARK Flexibility Score: inf
ROOT
ATOM      1  C   UNL     1      13.490  -5.082  15.360  1.00  0.00     0.000 C 
ENDROOT
BRANCH   1   2
ATOM      2  C   UNL     1      14.758  -4.613  16.088  1.00  0.00     0.000 C 
BRANCH   2   3
ATOM      3  C   UNL     1      15.009  -5.367  17.408  1.00  0.00     0.000 C 
BRANCH   3   4
ATOM      4  C   UNL     1      16.113  -6.439  17.345  1.00  0.00    -0.000 C 
BRANCH   4   5
ATOM      5  C   UNL     1      17.370  -6.032  16.554  1.00  0.00    -0.000 C 
BRANCH   5   6
ATOM      6  C   UNL     1      17.385  -6.552  15.101  1.00  0.00    -0.000 C 
BRANCH   6   7
ATOM      7  C   UNL     1      17.594  -5.423  14.077  1.00  0.00    -0.000 C 
BRANCH   7   8
ATOM      8  C   UNL     1      18.350  -5.895  12.825  1.00  0.00    -0.000 C 
BRANCH   8   9
ATOM      9  C   UNL     1      17.550  -6.916  11.997  1.00  0.00    -0.000 C 
BRANCH   9  10
ATOM     10  C   UNL     1      18.055  -8.359  12.180  1.00  0.00    -0.000 C 
BRANCH  10  11
ATOM     11  C   UNL     1      17.074  -9.296  12.907  1.00  0.00    -0.003 C 
ATOM     12  C   UNL     1      17.776 -10.345  13.768  1.00  0.00     0.004 C 
ENDBRANCH  10  11
ENDBRANCH   9  10
ENDBRANCH   8   9
ENDBRANCH   7   8
ENDBRANCH   6   7
ENDBRANCH   5   6
ENDBRANCH   4   5
ENDBRANCH   3   4
ENDBRANCH   2   3
ENDBRANCH   1   2
BRANCH   1  13
ATOM     13  C   UNL     1      13.424  -4.497  13.941  1.00  0.00     0.000 C 
BRANCH  13  14
ATOM     14  C   UNL     1      14.052  -5.422  12.886  1.00  0.00     0.000 C 
BRANCH  14  15
ATOM     15  C   UNL     1      14.196  -6.872  13.382  1.00  0.00     0.000 C 
BRANCH  15  16
ATOM     16  C   UNL     1      14.015  -7.902  12.254  1.00  0.00     0.000 C 
BRANCH  16  17
ATOM     17  C   UNL     1      12.685  -8.670  12.361  1.00  0.00     0.000 C 
BRANCH  17  18
ATOM     18  C   UNL     1      12.891 -10.187  12.504  1.00  0.00     0.000 C 
BRANCH  18  19
ATOM     19  C   UNL     1      11.751 -11.003  11.875  1.00  0.00     0.000 C 
BRANCH  19  20
ATOM     20  C   UNL     1      12.030 -12.507  11.981  1.00  0.00     0.006 C 
BRANCH  20  21
ATOM     21  C   UNL     1      12.915 -12.819  13.192  1.00  0.00     0.053 C 
BRANCH  21  22
ATOM     22  C   UNL     1      14.116 -13.606  12.773  1.00  0.00     0.041 C 
ATOM     23  O   UNL     1      14.145 -14.854  12.942  1.00  0.00    -0.550 OA
ATOM     24  O   UNL     1      15.224 -12.956  12.245  1.00  0.00    -0.550 OA
ENDBRANCH  21  22
ENDBRANCH  20  21
ENDBRANCH  19  20
ENDBRANCH  18  19
ENDBRANCH  17  18
ENDBRANCH  16  17
ENDBRANCH  15  16
ENDBRANCH  14  15
ENDBRANCH  13  14
ENDBRANCH   1  13
TORSDOF 20
ENDMDL
MODEL 8
REMARK VINA RESULT:    -2.429      4.566      8.930
REMARK INTER + INTRA:          -7.530
REMARK INTER:                  -6.216
REMARK INTRA:                  -1.314
REMARK UNBOUND:                -2.260
REMARK SMILES CCCCCCCCCCCCCCCCCCCCCC(=O)[O-]
REMARK SMILES IDX 12 1 11 2 10 3 9 4 8 5 7 6 6 7 5 8 4 9 3 10 2 11 1 12 13 13
REMARK SMILES IDX 14 14 15 15 16 16 17 17 18 18 19 19 20 20 21 21 22 22 23 23
REMARK SMILES IDX 24 24
REMARK H PARENT
REMARK Flexibility Score: inf
ROOT
ATOM      1  C   UNL     1      11.687 -11.851  12.683  1.00  0.00     0.000 C 
ENDROOT
BRANCH   1   2
ATOM      2  C   UNL     1      10.980 -12.949  11.875  1.00  0.00     0.000 C 
BRANCH   2   3
ATOM      3  C   UNL     1       9.444 -12.861  11.955  1.00  0.00     0.000 C 
BRANCH   3   4
ATOM      4  C   UNL     1       8.893 -12.274  13.268  1.00  0.00    -0.000 C 
BRANCH   4   5
ATOM      5  C   UNL     1       7.366 -12.375  13.435  1.00  0.00    -0.000 C 
BRANCH   5   6
ATOM      6  C   UNL     1       6.782 -13.735  12.995  1.00  0.00    -0.000 C 
BRANCH   6   7
ATOM      7  C   UNL     1       5.746 -14.278  13.995  1.00  0.00    -0.000 C 
BRANCH   7   8
ATOM      8  C   UNL     1       4.716 -15.206  13.331  1.00  0.00    -0.000 C 
BRANCH   8   9
ATOM      9  C   UNL     1       5.240 -15.843  12.032  1.00  0.00    -0.000 C 
BRANCH   9  10
ATOM     10  C   UNL     1       4.911 -17.343  11.929  1.00  0.00    -0.000 C 
BRANCH  10  11
ATOM     11  C   UNL     1       6.089 -18.283  12.240  1.00  0.00    -0.003 C 
ATOM     12  C   UNL     1       5.749 -19.758  12.029  1.00  0.00     0.004 C 
ENDBRANCH  10  11
ENDBRANCH   9  10
ENDBRANCH   8   9
ENDBRANCH   7   8
ENDBRANCH   6   7
ENDBRANCH   5   6
ENDBRANCH   4   5
ENDBRANCH   3   4
ENDBRANCH   2   3
ENDBRANCH   1   2
BRANCH   1  13
ATOM     13  C   UNL     1      12.860 -12.432  13.489  1.00  0.00     0.000 C 
BRANCH  13  14
ATOM     14  C   UNL     1      13.591 -13.560  12.744  1.00  0.00     0.000 C 
BRANCH  14  15
ATOM     15  C   UNL     1      15.072 -13.234  12.481  1.00  0.00     0.000 C 
BRANCH  15  16
ATOM     16  C   UNL     1      15.292 -11.762  12.094  1.00  0.00     0.000 C 
BRANCH  16  17
ATOM     17  C   UNL     1      16.667 -11.231  12.537  1.00  0.00     0.000 C 
BRANCH  17  18
ATOM     18  C   UNL     1      16.779  -9.704  12.407  1.00  0.00     0.000 C 
BRANCH  18  19
ATOM     19  C   UNL     1      15.416  -8.999  12.494  1.00  0.00     0.000 C 
BRANCH  19  20
ATOM     20  C   UNL     1      15.588  -7.509  12.812  1.00  0.00     0.006 C 
BRANCH  20  21
ATOM     21  C   UNL     1      16.991  -7.220  13.355  1.00  0.00     0.053 C 
BRANCH  21  22
ATOM     22  C   UNL     1      16.924  -6.837  14.799  1.00  0.00     0.041 C 
ATOM     23  O   UNL     1      17.758  -7.305  15.618  1.00  0.00    -0.550 OA
ATOM     24  O   UNL     1      15.908  -6.003  15.251  1.00  0.00    -0.550 OA
ENDBRANCH  21  22
ENDBRANCH  20  21
ENDBRANCH  19  20
ENDBRANCH  18  19
ENDBRANCH  17  18
ENDBRANCH  16  17
ENDBRANCH  15  16
ENDBRANCH  14  15
ENDBRANCH  13  14
ENDBRANCH   1  13
TORSDOF 20
ENDMDL
