MODEL 1
REMARK VINA RESULT:    -6.040      0.000      0.000
REMARK INTER + INTRA:         -18.860
REMARK INTER:                 -15.220
REMARK INTRA:                  -3.640
REMARK UNBOUND:                -3.640
REMARK SMILES CCCCCCCCCCCCCCCCCCCCCCCCCCCC(=O)[O-]
REMARK SMILES IDX 15 1 16 2 17 3 18 4 19 5 20 6 21 7 22 8 23 9 24 10 25 11
REMARK SMILES IDX 26 12 27 13 28 14 29 15 30 16 14 17 13 18 12 19 11 20 10 21
REMARK SMILES IDX 9 22 8 23 7 24 6 25 5 26 4 27 3 28 2 29 1 30
REMARK H PARENT
REMARK Flexibility Score: inf
ROOT
ATOM      1  C   UNL     1       2.339   5.693  18.867  1.00  0.00     0.000 C 
ENDROOT
BRANCH   1   2
ATOM      2  C   UNL     1       2.587   4.695  20.013  1.00  0.00     0.000 C 
BRANCH   2   3
ATOM      3  C   UNL     1       1.573   3.536  20.023  1.00  0.00     0.000 C 
BRANCH   3   4
ATOM      4  C   UNL     1       2.206   2.193  19.622  1.00  0.00     0.000 C 
BRANCH   4   5
ATOM      5  C   UNL     1       3.712   2.256  19.303  1.00  0.00     0.000 C 
BRANCH   5   6
ATOM      6  C   UNL     1       4.069   1.717  17.901  1.00  0.00     0.000 C 
BRANCH   6   7
ATOM      7  C   UNL     1       4.723   0.328  17.962  1.00  0.00     0.000 C 
BRANCH   7   8
ATOM      8  C   UNL     1       5.494   0.027  16.671  1.00  0.00     0.000 C 
BRANCH   8   9
ATOM      9  C   UNL     1       5.542   1.257  15.754  1.00  0.00     0.000 C 
BRANCH   9  10
ATOM     10  C   UNL     1       5.864   0.879  14.292  1.00  0.00     0.000 C 
BRANCH  10  11
ATOM     11  C   UNL     1       5.541  -0.585  13.948  1.00  0.00     0.000 C 
BRANCH  11  12
ATOM     12  C   UNL     1       4.228  -0.742  13.167  1.00  0.00     0.006 C 
BRANCH  12  13
ATOM     13  C   UNL     1       3.201   0.305  13.606  1.00  0.00     0.053 C 
BRANCH  13  14
ATOM     14  C   UNL     1       2.245  -0.282  14.595  1.00  0.00     0.041 C 
ATOM     15  O   UNL     1       1.445   0.460  15.222  1.00  0.00    -0.550 OA
ATOM     16  O   UNL     1       2.202  -1.658  14.786  1.00  0.00    -0.550 OA
ENDBRANCH  13  14
ENDBRANCH  12  13
ENDBRANCH  11  12
ENDBRANCH  10  11
ENDBRANCH   9  10
ENDBRANCH   8   9
ENDBRANCH   7   8
ENDBRANCH   6   7
ENDBRANCH   5   6
ENDBRANCH   4   5
ENDBRANCH   3   4
ENDBRANCH   2   3
ENDBRANCH   1   2
BRANCH   1  17
ATOM     17  C   UNL     1       1.890   5.062  17.534  1.00  0.00     0.000 C 
BRANCH  17  18
ATOM     18  C   UNL     1       3.032   4.732  16.553  1.00  0.00     0.000 C 
BRANCH  18  19
ATOM     19  C   UNL     1       2.650   3.775  15.406  1.00  0.00     0.000 C 
BRANCH  19  20
ATOM     20  C   UNL     1       3.404   4.006  14.084  1.00  0.00     0.000 C 
BRANCH  20  21
ATOM     21  C   UNL     1       4.629   4.917  14.244  1.00  0.00     0.000 C 
BRANCH  21  22
ATOM     22  C   UNL     1       4.871   5.743  12.974  1.00  0.00    -0.000 C 
BRANCH  22  23
ATOM     23  C   UNL     1       5.226   7.196  13.323  1.00  0.00    -0.000 C 
BRANCH  23  24
ATOM     24  C   UNL     1       6.353   7.308  14.363  1.00  0.00    -0.000 C 
BRANCH  24  25
ATOM     25  C   UNL     1       5.922   7.977  15.686  1.00  0.00    -0.000 C 
BRANCH  25  26
ATOM     26  C   UNL     1       4.510   8.586  15.606  1.00  0.00    -0.000 C 
BRANCH  26  27
ATOM     27  C   UNL     1       3.671   8.302  16.863  1.00  0.00    -0.000 C 
BRANCH  27  28
ATOM     28  C   UNL     1       3.575   9.519  17.800  1.00  0.00    -0.000 C 
BRANCH  28  29
ATOM     29  C   UNL     1       2.208   9.613  18.497  1.00  0.00    -0.003 C 
ATOM     30  C   UNL     1       2.128   8.761  19.764  1.00  0.00     0.004 C 
ENDBRANCH  28  29
ENDBRANCH  27  28
ENDBRANCH  26  27
ENDBRANCH  25  26
ENDBRANCH  24  25
ENDBRANCH  23  24
ENDBRANCH  22  23
ENDBRANCH  21  22
ENDBRANCH  20  21
ENDBRANCH  19  20
ENDBRANCH  18  19
ENDBRANCH  17  18
ENDBRANCH   1  17
TORSDOF 26
ENDMDL
MODEL 2
REMARK VINA RESULT:    -6.003      2.909      8.022
REMARK INTER + INTRA:         -18.769
REMARK INTER:                 -15.526
REMARK INTRA:                  -3.243
REMARK UNBOUND:                -3.640
REMARK SMILES CCCCCCCCCCCCCCCCCCCCCCCCCCCC(=O)[O-]
REMARK SMILES IDX 15 1 16 2 17 3 18 4 19 5 20 6 21 7 22 8 23 9 24 10 25 11
REMARK SMILES IDX 26 12 27 13 28 14 29 15 30 16 14 17 13 18 12 19 11 20 10 21
REMARK SMILES IDX 9 22 8 23 7 24 6 25 5 26 4 27 3 28 2 29 1 30
REMARK H PARENT
REMARK Flexibility Score: inf
ROOT
ATOM      1  C   UNL     1       2.174   5.216  17.728  1.00  0.00     0.000 C 
ENDROOT
BRANCH   1   2
ATOM      2  C   UNL     1       3.385   4.830  16.858  1.00  0.00     0.000 C 
BRANCH   2   3
ATOM      3  C   UNL     1       2.977   4.259  15.489  1.00  0.00     0.000 C 
BRANCH   3   4
ATOM      4  C   UNL     1       4.167   3.664  14.717  1.00  0.00     0.000 C 
BRANCH   4   5
ATOM      5  C   UNL     1       4.173   3.964  13.206  1.00  0.00     0.000 C 
BRANCH   5   6
ATOM      6  C   UNL     1       4.181   5.471  12.875  1.00  0.00     0.000 C 
BRANCH   6   7
ATOM      7  C   UNL     1       5.600   6.060  12.878  1.00  0.00     0.000 C 
BRANCH   7   8
ATOM      8  C   UNL     1       5.559   7.592  12.905  1.00  0.00     0.000 C 
BRANCH   8   9
ATOM      9  C   UNL     1       6.373   8.149  14.082  1.00  0.00     0.000 C 
BRANCH   9  10
ATOM     10  C   UNL     1       5.852   7.636  15.442  1.00  0.00     0.000 C 
BRANCH  10  11
ATOM     11  C   UNL     1       4.391   8.024  15.730  1.00  0.00     0.000 C 
BRANCH  11  12
ATOM     12  C   UNL     1       4.244   8.951  16.944  1.00  0.00     0.006 C 
BRANCH  12  13
ATOM     13  C   UNL     1       2.871   8.781  17.600  1.00  0.00     0.053 C 
BRANCH  13  14
ATOM     14  C   UNL     1       2.867   9.381  18.970  1.00  0.00     0.041 C 
ATOM     15  O   UNL     1       3.561  10.401  19.218  1.00  0.00    -0.550 OA
ATOM     16  O   UNL     1       2.056   8.842  19.961  1.00  0.00    -0.550 OA
ENDBRANCH  13  14
ENDBRANCH  12  13
ENDBRANCH  11  12
ENDBRANCH  10  11
ENDBRANCH   9  10
ENDBRANCH   8   9
ENDBRANCH   7   8
ENDBRANCH   6   7
ENDBRANCH   5   6
ENDBRANCH   4   5
ENDBRANCH   3   4
ENDBRANCH   2   3
ENDBRANCH   1   2
BRANCH   1  17
ATOM     17  C   UNL     1       2.388   5.074  19.248  1.00  0.00     0.000 C 
BRANCH  17  18
ATOM     18  C   UNL     1       1.655   3.885  19.900  1.00  0.00     0.000 C 
BRANCH  18  19
ATOM     19  C   UNL     1       2.173   2.493  19.487  1.00  0.00     0.000 C 
BRANCH  19  20
ATOM     20  C   UNL     1       3.694   2.402  19.267  1.00  0.00     0.000 C 
BRANCH  20  21
ATOM     21  C   UNL     1       4.105   1.188  18.422  1.00  0.00     0.000 C 
BRANCH  21  22
ATOM     22  C   UNL     1       4.845   0.149  19.275  1.00  0.00    -0.000 C 
BRANCH  22  23
ATOM     23  C   UNL     1       4.697  -1.259  18.680  1.00  0.00    -0.000 C 
BRANCH  23  24
ATOM     24  C   UNL     1       5.615  -1.501  17.471  1.00  0.00    -0.000 C 
BRANCH  24  25
ATOM     25  C   UNL     1       4.882  -1.481  16.112  1.00  0.00    -0.000 C 
BRANCH  25  26
ATOM     26  C   UNL     1       5.164  -0.198  15.309  1.00  0.00    -0.000 C 
BRANCH  26  27
ATOM     27  C   UNL     1       4.865  -0.361  13.809  1.00  0.00    -0.000 C 
BRANCH  27  28
ATOM     28  C   UNL     1       3.391  -0.089  13.464  1.00  0.00    -0.000 C 
BRANCH  28  29
ATOM     29  C   UNL     1       2.689   0.767  14.532  1.00  0.00    -0.003 C 
ATOM     30  C   UNL     1       1.409   0.120  15.062  1.00  0.00     0.004 C 
ENDBRANCH  28  29
ENDBRANCH  27  28
ENDBRANCH  26  27
ENDBRANCH  25  26
ENDBRANCH  24  25
ENDBRANCH  23  24
ENDBRANCH  22  23
ENDBRANCH  21  22
ENDBRANCH  20  21
ENDBRANCH  19  20
ENDBRANCH  18  19
ENDBRANCH  17  18
ENDBRANCH   1  17
TORSDOF 26
ENDMDL
MODEL 3
REMARK VINA RESULT:    -5.946      1.069      3.763
REMARK INTER + INTRA:         -18.625
REMARK INTER:                 -15.313
REMARK INTRA:                  -3.311
REMARK UNBOUND:                -3.640
REMARK SMILES CCCCCCCCCCCCCCCCCCCCCCCCCCCC(=O)[O-]
REMARK SMILES IDX 15 1 16 2 17 3 18 4 19 5 20 6 21 7 22 8 23 9 24 10 25 11
REMARK SMILES IDX 26 12 27 13 28 14 29 15 30 16 14 17 13 18 12 19 11 20 10 21
REMARK SMILES IDX 9 22 8 23 7 24 6 25 5 26 4 27 3 28 2 29 1 30
REMARK H PARENT
REMARK Flexibility Score: inf
ROOT
ATOM      1  C   UNL     1       2.688   4.778  19.408  1.00  0.00     0.000 C 
ENDROOT
BRANCH   1   2
ATOM      2  C   UNL     1       2.988   3.565  18.508  1.00  0.00     0.000 C 
BRANCH   2   3
ATOM      3  C   UNL     1       3.478   2.341  19.301  1.00  0.00     0.000 C 
BRANCH   3   4
ATOM      4  C   UNL     1       4.214   1.319  18.419  1.00  0.00     0.000 C 
BRANCH   4   5
ATOM      5  C   UNL     1       4.957   0.213  19.191  1.00  0.00     0.000 C 
BRANCH   5   6
ATOM      6  C   UNL     1       4.628  -1.213  18.699  1.00  0.00     0.000 C 
BRANCH   6   7
ATOM      7  C   UNL     1       5.600  -1.691  17.610  1.00  0.00     0.000 C 
BRANCH   7   8
ATOM      8  C   UNL     1       5.006  -1.481  16.212  1.00  0.00     0.000 C 
BRANCH   8   9
ATOM      9  C   UNL     1       5.953  -0.663  15.323  1.00  0.00     0.000 C 
BRANCH   9  10
ATOM     10  C   UNL     1       5.383   0.735  14.999  1.00  0.00     0.000 C 
BRANCH  10  11
ATOM     11  C   UNL     1       4.789   0.846  13.584  1.00  0.00     0.000 C 
BRANCH  11  12
ATOM     12  C   UNL     1       3.348   0.325  13.495  1.00  0.00     0.006 C 
BRANCH  12  13
ATOM     13  C   UNL     1       2.550   0.703  14.747  1.00  0.00     0.053 C 
BRANCH  13  14
ATOM     14  C   UNL     1       1.368  -0.198  14.906  1.00  0.00     0.041 C 
ATOM     15  O   UNL     1       1.503  -1.445  14.811  1.00  0.00    -0.550 OA
ATOM     16  O   UNL     1       0.123   0.339  15.211  1.00  0.00    -0.550 OA
ENDBRANCH  13  14
ENDBRANCH  12  13
ENDBRANCH  11  12
ENDBRANCH  10  11
ENDBRANCH   9  10
ENDBRANCH   8   9
ENDBRANCH   7   8
ENDBRANCH   6   7
ENDBRANCH   5   6
ENDBRANCH   4   5
ENDBRANCH   3   4
ENDBRANCH   2   3
ENDBRANCH   1   2
BRANCH   1  17
ATOM     17  C   UNL     1       2.325   6.075  18.659  1.00  0.00     0.000 C 
BRANCH  17  18
ATOM     18  C   UNL     1       2.015   7.284  19.564  1.00  0.00     0.000 C 
BRANCH  18  19
ATOM     19  C   UNL     1       1.972   8.645  18.841  1.00  0.00     0.000 C 
BRANCH  19  20
ATOM     20  C   UNL     1       3.165   9.575  19.127  1.00  0.00     0.000 C 
BRANCH  20  21
ATOM     21  C   UNL     1       4.030   9.838  17.886  1.00  0.00     0.000 C 
BRANCH  21  22
ATOM     22  C   UNL     1       3.502   9.061  16.672  1.00  0.00    -0.000 C 
BRANCH  22  23
ATOM     23  C   UNL     1       4.570   8.102  16.127  1.00  0.00    -0.000 C 
BRANCH  23  24
ATOM     24  C   UNL     1       4.910   8.356  14.649  1.00  0.00    -0.000 C 
BRANCH  24  25
ATOM     25  C   UNL     1       6.206   7.665  14.174  1.00  0.00    -0.000 C 
BRANCH  25  26
ATOM     26  C   UNL     1       5.966   6.711  12.989  1.00  0.00    -0.000 C 
BRANCH  26  27
ATOM     27  C   UNL     1       4.538   6.141  12.969  1.00  0.00    -0.000 C 
BRANCH  27  28
ATOM     28  C   UNL     1       4.495   4.634  13.273  1.00  0.00    -0.000 C 
BRANCH  28  29
ATOM     29  C   UNL     1       4.152   4.343  14.744  1.00  0.00    -0.003 C 
ATOM     30  C   UNL     1       2.670   4.034  14.956  1.00  0.00     0.004 C 
ENDBRANCH  28  29
ENDBRANCH  27  28
ENDBRANCH  26  27
ENDBRANCH  25  26
ENDBRANCH  24  25
ENDBRANCH  23  24
ENDBRANCH  22  23
ENDBRANCH  21  22
ENDBRANCH  20  21
ENDBRANCH  19  20
ENDBRANCH  18  19
ENDBRANCH  17  18
ENDBRANCH   1  17
TORSDOF 26
ENDMDL
MODEL 4
REMARK VINA RESULT:    -5.930      1.938      8.003
REMARK INTER + INTRA:         -18.584
REMARK INTER:                 -14.805
REMARK INTRA:                  -3.780
REMARK UNBOUND:                -3.640
REMARK SMILES CCCCCCCCCCCCCCCCCCCCCCCCCCCC(=O)[O-]
REMARK SMILES IDX 15 1 16 2 17 3 18 4 19 5 20 6 21 7 22 8 23 9 24 10 25 11
REMARK SMILES IDX 26 12 27 13 28 14 29 15 30 16 14 17 13 18 12 19 11 20 10 21
REMARK SMILES IDX 9 22 8 23 7 24 6 25 5 26 4 27 3 28 2 29 1 30
REMARK H PARENT
REMARK Flexibility Score: inf
ROOT
ATOM      1  C   UNL     1       3.868   3.940  15.169  1.00  0.00     0.000 C 
ENDROOT
BRANCH   1   2
ATOM      2  C   UNL     1       3.724   4.612  13.792  1.00  0.00     0.000 C 
BRANCH   2   3
ATOM      3  C   UNL     1       5.069   5.092  13.219  1.00  0.00     0.000 C 
BRANCH   3   4
ATOM      4  C   UNL     1       5.153   6.624  13.109  1.00  0.00     0.000 C 
BRANCH   4   5
ATOM      5  C   UNL     1       6.350   7.261  13.840  1.00  0.00     0.000 C 
BRANCH   5   6
ATOM      6  C   UNL     1       6.077   7.557  15.330  1.00  0.00     0.000 C 
BRANCH   6   7
ATOM      7  C   UNL     1       4.611   7.939  15.589  1.00  0.00     0.000 C 
BRANCH   7   8
ATOM      8  C   UNL     1       4.479   8.776  16.866  1.00  0.00     0.000 C 
BRANCH   8   9
ATOM      9  C   UNL     1       3.007   9.066  17.190  1.00  0.00     0.000 C 
BRANCH   9  10
ATOM     10  C   UNL     1       2.722   9.001  18.706  1.00  0.00     0.000 C 
BRANCH  10  11
ATOM     11  C   UNL     1       2.071   7.681  19.155  1.00  0.00     0.000 C 
BRANCH  11  12
ATOM     12  C   UNL     1       2.509   6.477  18.309  1.00  0.00     0.006 C 
BRANCH  12  13
ATOM     13  C   UNL     1       1.491   5.338  18.408  1.00  0.00     0.053 C 
BRANCH  13  14
ATOM     14  C   UNL     1       1.861   4.400  19.511  1.00  0.00     0.041 C 
ATOM     15  O   UNL     1       1.156   3.383  19.744  1.00  0.00    -0.550 OA
ATOM     16  O   UNL     1       3.015   4.621  20.252  1.00  0.00    -0.550 OA
ENDBRANCH  13  14
ENDBRANCH  12  13
ENDBRANCH  11  12
ENDBRANCH  10  11
ENDBRANCH   9  10
ENDBRANCH   8   9
ENDBRANCH   7   8
ENDBRANCH   6   7
ENDBRANCH   5   6
ENDBRANCH   4   5
ENDBRANCH   3   4
ENDBRANCH   2   3
ENDBRANCH   1   2
BRANCH   1  17
ATOM     17  C   UNL     1       2.609   3.209  15.676  1.00  0.00     0.000 C 
BRANCH  17  18
ATOM     18  C   UNL     1       2.883   2.002  16.596  1.00  0.00     0.000 C 
BRANCH  18  19
ATOM     19  C   UNL     1       4.234   2.041  17.338  1.00  0.00     0.000 C 
BRANCH  19  20
ATOM     20  C   UNL     1       4.162   1.730  18.843  1.00  0.00     0.000 C 
BRANCH  20  21
ATOM     21  C   UNL     1       4.323   0.235  19.154  1.00  0.00     0.000 C 
BRANCH  21  22
ATOM     22  C   UNL     1       5.707  -0.270  18.726  1.00  0.00    -0.000 C 
BRANCH  22  23
ATOM     23  C   UNL     1       5.600  -1.616  17.993  1.00  0.00    -0.000 C 
BRANCH  23  24
ATOM     24  C   UNL     1       4.923  -1.499  16.617  1.00  0.00    -0.000 C 
BRANCH  24  25
ATOM     25  C   UNL     1       5.699  -0.626  15.607  1.00  0.00    -0.000 C 
BRANCH  25  26
ATOM     26  C   UNL     1       5.206  -0.820  14.161  1.00  0.00    -0.000 C 
BRANCH  26  27
ATOM     27  C   UNL     1       4.622   0.469  13.558  1.00  0.00    -0.000 C 
BRANCH  27  28
ATOM     28  C   UNL     1       3.096   0.401  13.375  1.00  0.00    -0.000 C 
BRANCH  28  29
ATOM     29  C   UNL     1       2.470  -0.788  14.123  1.00  0.00    -0.003 C 
ATOM     30  C   UNL     1       1.110  -0.454  14.734  1.00  0.00     0.004 C 
ENDBRANCH  28  29
ENDBRANCH  27  28
ENDBRANCH  26  27
ENDBRANCH  25  26
ENDBRANCH  24  25
ENDBRANCH  23  24
ENDBRANCH  22  23
ENDBRANCH  21  22
ENDBRANCH  20  21
ENDBRANCH  19  20
ENDBRANCH  18  19
ENDBRANCH  17  18
ENDBRANCH   1  17
TORSDOF 26
ENDMDL
MODEL 5
REMARK VINA RESULT:    -5.779      1.491      4.785
REMARK INTER + INTRA:         -18.204
REMARK INTER:                 -14.668
REMARK INTRA:                  -3.535
REMARK UNBOUND:                -3.640
REMARK SMILES CCCCCCCCCCCCCCCCCCCCCCCCCCCC(=O)[O-]
REMARK SMILES IDX 15 1 16 2 17 3 18 4 19 5 20 6 21 7 22 8 23 9 24 10 25 11
REMARK SMILES IDX 26 12 27 13 28 14 29 15 30 16 14 17 13 18 12 19 11 20 10 21
REMARK SMILES IDX 9 22 8 23 7 24 6 25 5 26 4 27 3 28 2 29 1 30
REMARK H PARENT
REMARK Flexibility Score: inf
ROOT
ATOM      1  C   UNL     1       3.007   9.650  19.153  1.00  0.00     0.000 C 
ENDROOT
BRANCH   1   2
ATOM      2  C   UNL     1       1.872   8.626  18.970  1.00  0.00     0.000 C 
BRANCH   2   3
ATOM      3  C   UNL     1       2.247   7.224  19.481  1.00  0.00     0.000 C 
BRANCH   3   4
ATOM      4  C   UNL     1       1.801   6.105  18.524  1.00  0.00     0.000 C 
BRANCH   4   5
ATOM      5  C   UNL     1       2.788   4.929  18.399  1.00  0.00     0.000 C 
BRANCH   5   6
ATOM      6  C   UNL     1       2.751   3.961  19.600  1.00  0.00     0.000 C 
BRANCH   6   7
ATOM      7  C   UNL     1       2.732   2.489  19.160  1.00  0.00     0.000 C 
BRANCH   7   8
ATOM      8  C   UNL     1       4.143   2.001  18.813  1.00  0.00     0.000 C 
BRANCH   8   9
ATOM      9  C   UNL     1       4.272   0.485  19.017  1.00  0.00     0.000 C 
BRANCH   9  10
ATOM     10  C   UNL     1       5.553  -0.082  18.367  1.00  0.00     0.000 C 
BRANCH  10  11
ATOM     11  C   UNL     1       5.317  -1.367  17.555  1.00  0.00     0.000 C 
BRANCH  11  12
ATOM     12  C   UNL     1       4.718  -1.099  16.168  1.00  0.00     0.006 C 
BRANCH  12  13
ATOM     13  C   UNL     1       5.429   0.070  15.480  1.00  0.00     0.053 C 
BRANCH  13  14
ATOM     14  C   UNL     1       5.468  -0.138  14.000  1.00  0.00     0.041 C 
ATOM     15  O   UNL     1       6.414  -0.779  13.474  1.00  0.00    -0.550 OA
ATOM     16  O   UNL     1       4.430   0.333  13.206  1.00  0.00    -0.550 OA
ENDBRANCH  13  14
ENDBRANCH  12  13
ENDBRANCH  11  12
ENDBRANCH  10  11
ENDBRANCH   9  10
ENDBRANCH   8   9
ENDBRANCH   7   8
ENDBRANCH   6   7
ENDBRANCH   5   6
ENDBRANCH   4   5
ENDBRANCH   3   4
ENDBRANCH   2   3
ENDBRANCH   1   2
BRANCH   1  17
ATOM     17  C   UNL     1       3.995   9.750  17.974  1.00  0.00     0.000 C 
BRANCH  17  18
ATOM     18  C   UNL     1       3.524   9.077  16.670  1.00  0.00     0.000 C 
BRANCH  18  19
ATOM     19  C   UNL     1       4.247   7.762  16.317  1.00  0.00     0.000 C 
BRANCH  19  20
ATOM     20  C   UNL     1       5.516   7.923  15.461  1.00  0.00     0.000 C 
BRANCH  20  21
ATOM     21  C   UNL     1       5.253   8.644  14.131  1.00  0.00     0.000 C 
BRANCH  21  22
ATOM     22  C   UNL     1       4.995   7.638  13.001  1.00  0.00    -0.000 C 
BRANCH  22  23
ATOM     23  C   UNL     1       5.317   6.207  13.455  1.00  0.00    -0.000 C 
BRANCH  23  24
ATOM     24  C   UNL     1       4.187   5.210  13.152  1.00  0.00    -0.000 C 
BRANCH  24  25
ATOM     25  C   UNL     1       4.474   3.770  13.630  1.00  0.00    -0.000 C 
BRANCH  25  26
ATOM     26  C   UNL     1       3.972   3.514  15.064  1.00  0.00    -0.000 C 
BRANCH  26  27
ATOM     27  C   UNL     1       2.516   3.019  15.101  1.00  0.00    -0.000 C 
BRANCH  27  28
ATOM     28  C   UNL     1       2.394   1.574  15.612  1.00  0.00    -0.000 C 
BRANCH  28  29
ATOM     29  C   UNL     1       1.118   0.881  15.105  1.00  0.00    -0.003 C 
ATOM     30  C   UNL     1       1.345  -0.585  14.739  1.00  0.00     0.004 C 
ENDBRANCH  28  29
ENDBRANCH  27  28
ENDBRANCH  26  27
ENDBRANCH  25  26
ENDBRANCH  24  25
ENDBRANCH  23  24
ENDBRANCH  22  23
ENDBRANCH  21  22
ENDBRANCH  20  21
ENDBRANCH  19  20
ENDBRANCH  18  19
ENDBRANCH  17  18
ENDBRANCH   1  17
TORSDOF 26
ENDMDL
MODEL 6
REMARK VINA RESULT:    -5.754      2.722      7.748
REMARK INTER + INTRA:         -18.140
REMARK INTER:                 -15.184
REMARK INTRA:                  -2.957
REMARK UNBOUND:                -3.640
REMARK SMILES CCCCCCCCCCCCCCCCCCCCCCCCCCCC(=O)[O-]
REMARK SMILES IDX 15 1 16 2 17 3 18 4 19 5 20 6 21 7 22 8 23 9 24 10 25 11
REMARK SMILES IDX 26 12 27 13 28 14 29 15 30 16 14 17 13 18 12 19 11 20 10 21
REMARK SMILES IDX 9 22 8 23 7 24 6 25 5 26 4 27 3 28 2 29 1 30
REMARK H PARENT
REMARK Flexibility Score: inf
ROOT
ATOM      1  C   UNL     1       2.970   4.182  16.376  1.00  0.00     0.000 C 
ENDROOT
BRANCH   1   2
ATOM      2  C   UNL     1       3.270   2.819  17.025  1.00  0.00     0.000 C 
BRANCH   2   3
ATOM      3  C   UNL     1       3.453   2.913  18.550  1.00  0.00     0.000 C 
BRANCH   3   4
ATOM      4  C   UNL     1       2.116   2.899  19.310  1.00  0.00     0.000 C 
BRANCH   4   5
ATOM      5  C   UNL     1       1.418   4.268  19.416  1.00  0.00     0.000 C 
BRANCH   5   6
ATOM      6  C   UNL     1       2.380   5.428  19.750  1.00  0.00     0.000 C 
BRANCH   6   7
ATOM      7  C   UNL     1       2.188   6.631  18.813  1.00  0.00     0.000 C 
BRANCH   7   8
ATOM      8  C   UNL     1       2.147   7.943  19.604  1.00  0.00     0.000 C 
BRANCH   8   9
ATOM      9  C   UNL     1       2.133   9.157  18.666  1.00  0.00     0.000 C 
BRANCH   9  10
ATOM     10  C   UNL     1       3.477   9.919  18.681  1.00  0.00     0.000 C 
BRANCH  10  11
ATOM     11  C   UNL     1       4.487   9.409  17.638  1.00  0.00     0.000 C 
BRANCH  11  12
ATOM     12  C   UNL     1       3.830   8.598  16.513  1.00  0.00     0.006 C 
BRANCH  12  13
ATOM     13  C   UNL     1       4.849   7.679  15.833  1.00  0.00     0.053 C 
BRANCH  13  14
ATOM     14  C   UNL     1       5.348   8.297  14.566  1.00  0.00     0.041 C 
ATOM     15  O   UNL     1       6.241   7.725  13.890  1.00  0.00    -0.550 OA
ATOM     16  O   UNL     1       4.789   9.483  14.106  1.00  0.00    -0.550 OA
ENDBRANCH  13  14
ENDBRANCH  12  13
ENDBRANCH  11  12
ENDBRANCH  10  11
ENDBRANCH   9  10
ENDBRANCH   8   9
ENDBRANCH   7   8
ENDBRANCH   6   7
ENDBRANCH   5   6
ENDBRANCH   4   5
ENDBRANCH   3   4
ENDBRANCH   2   3
ENDBRANCH   1   2
BRANCH   1  17
ATOM     17  C   UNL     1       2.966   4.186  14.834  1.00  0.00     0.000 C 
BRANCH  17  18
ATOM     18  C   UNL     1       4.362   4.216  14.180  1.00  0.00     0.000 C 
BRANCH  18  19
ATOM     19  C   UNL     1       4.504   3.358  12.907  1.00  0.00     0.000 C 
BRANCH  19  20
ATOM     20  C   UNL     1       5.735   2.435  12.875  1.00  0.00     0.000 C 
BRANCH  20  21
ATOM     21  C   UNL     1       5.463   1.054  13.489  1.00  0.00     0.000 C 
BRANCH  21  22
ATOM     22  C   UNL     1       4.109   0.502  13.024  1.00  0.00    -0.000 C 
BRANCH  22  23
ATOM     23  C   UNL     1       3.108   0.448  14.187  1.00  0.00    -0.000 C 
BRANCH  23  24
ATOM     24  C   UNL     1       2.373  -0.898  14.287  1.00  0.00    -0.000 C 
BRANCH  24  25
ATOM     25  C   UNL     1       2.798  -1.758  15.497  1.00  0.00    -0.000 C 
BRANCH  25  26
ATOM     26  C   UNL     1       4.315  -2.023  15.528  1.00  0.00    -0.000 C 
BRANCH  26  27
ATOM     27  C   UNL     1       5.043  -1.168  16.578  1.00  0.00    -0.000 C 
BRANCH  27  28
ATOM     28  C   UNL     1       4.565  -1.453  18.012  1.00  0.00    -0.000 C 
BRANCH  28  29
ATOM     29  C   UNL     1       4.961  -0.337  18.994  1.00  0.00    -0.003 C 
ATOM     30  C   UNL     1       6.218  -0.672  19.796  1.00  0.00     0.004 C 
ENDBRANCH  28  29
ENDBRANCH  27  28
ENDBRANCH  26  27
ENDBRANCH  25  26
ENDBRANCH  24  25
ENDBRANCH  23  24
ENDBRANCH  22  23
ENDBRANCH  21  22
ENDBRANCH  20  21
ENDBRANCH  19  20
ENDBRANCH  18  19
ENDBRANCH  17  18
ENDBRANCH   1  17
TORSDOF 26
ENDMDL
MODEL 7
REMARK VINA RESULT:    -5.727      0.980      6.659
REMARK INTER + INTRA:         -18.072
REMARK INTER:                 -14.811
REMARK INTRA:                  -3.261
REMARK UNBOUND:                -3.640
REMARK SMILES CCCCCCCCCCCCCCCCCCCCCCCCCCCC(=O)[O-]
REMARK SMILES IDX 15 1 16 2 17 3 18 4 19 5 20 6 21 7 22 8 23 9 24 10 25 11
REMARK SMILES IDX 26 12 27 13 28 14 29 15 30 16 14 17 13 18 12 19 11 20 10 21
REMARK SMILES IDX 9 22 8 23 7 24 6 25 5 26 4 27 3 28 2 29 1 30
REMARK H PARENT
REMARK Flexibility Score: inf
ROOT
ATOM      1  C   UNL     1       1.873   8.573  19.145  1.00  0.00     0.000 C 
ENDROOT
BRANCH   1   2
ATOM      2  C   UNL     1       3.031   9.474  18.679  1.00  0.00     0.000 C 
BRANCH   2   3
ATOM      3  C   UNL     1       3.228   9.449  17.152  1.00  0.00     0.000 C 
BRANCH   3   4
ATOM      4  C   UNL     1       4.233   8.376  16.702  1.00  0.00     0.000 C 
BRANCH   4   5
ATOM      5  C   UNL     1       4.668   8.475  15.228  1.00  0.00     0.000 C 
BRANCH   5   6
ATOM      6  C   UNL     1       5.616   7.339  14.786  1.00  0.00     0.000 C 
BRANCH   6   7
ATOM      7  C   UNL     1       5.525   7.060  13.277  1.00  0.00     0.000 C 
BRANCH   7   8
ATOM      8  C   UNL     1       4.873   5.699  13.009  1.00  0.00     0.000 C 
BRANCH   8   9
ATOM      9  C   UNL     1       4.473   5.007  14.320  1.00  0.00     0.000 C 
BRANCH   9  10
ATOM     10  C   UNL     1       3.970   3.566  14.085  1.00  0.00     0.000 C 
BRANCH  10  11
ATOM     11  C   UNL     1       2.596   3.281  14.718  1.00  0.00     0.000 C 
BRANCH  11  12
ATOM     12  C   UNL     1       2.517   1.900  15.384  1.00  0.00     0.006 C 
BRANCH  12  13
ATOM     13  C   UNL     1       2.452   0.788  14.333  1.00  0.00     0.053 C 
BRANCH  13  14
ATOM     14  C   UNL     1       1.429  -0.234  14.715  1.00  0.00     0.041 C 
ATOM     15  O   UNL     1       0.277   0.125  15.073  1.00  0.00    -0.550 OA
ATOM     16  O   UNL     1       1.733  -1.586  14.627  1.00  0.00    -0.550 OA
ENDBRANCH  13  14
ENDBRANCH  12  13
ENDBRANCH  11  12
ENDBRANCH  10  11
ENDBRANCH   9  10
ENDBRANCH   8   9
ENDBRANCH   7   8
ENDBRANCH   6   7
ENDBRANCH   5   6
ENDBRANCH   4   5
ENDBRANCH   3   4
ENDBRANCH   2   3
ENDBRANCH   1   2
BRANCH   1  17
ATOM     17  C   UNL     1       2.281   7.149  19.572  1.00  0.00     0.000 C 
BRANCH  17  18
ATOM     18  C   UNL     1       1.587   6.013  18.795  1.00  0.00     0.000 C 
BRANCH  18  19
ATOM     19  C   UNL     1       2.413   5.415  17.638  1.00  0.00     0.000 C 
BRANCH  19  20
ATOM     20  C   UNL     1       3.166   4.116  17.977  1.00  0.00     0.000 C 
BRANCH  20  21
ATOM     21  C   UNL     1       2.937   3.650  19.422  1.00  0.00     0.000 C 
BRANCH  21  22
ATOM     22  C   UNL     1       2.935   2.118  19.513  1.00  0.00    -0.000 C 
BRANCH  22  23
ATOM     23  C   UNL     1       4.148   1.522  18.784  1.00  0.00    -0.000 C 
BRANCH  23  24
ATOM     24  C   UNL     1       4.618   0.189  19.388  1.00  0.00    -0.000 C 
BRANCH  24  25
ATOM     25  C   UNL     1       5.254  -0.776  18.363  1.00  0.00    -0.000 C 
BRANCH  25  26
ATOM     26  C   UNL     1       4.586  -0.688  16.978  1.00  0.00    -0.000 C 
BRANCH  26  27
ATOM     27  C   UNL     1       5.603  -0.484  15.843  1.00  0.00    -0.000 C 
BRANCH  27  28
ATOM     28  C   UNL     1       5.191  -1.194  14.542  1.00  0.00    -0.000 C 
BRANCH  28  29
ATOM     29  C   UNL     1       5.795  -0.527  13.295  1.00  0.00    -0.003 C 
ATOM     30  C   UNL     1       6.247   0.910  13.553  1.00  0.00     0.004 C 
ENDBRANCH  28  29
ENDBRANCH  27  28
ENDBRANCH  26  27
ENDBRANCH  25  26
ENDBRANCH  24  25
ENDBRANCH  23  24
ENDBRANCH  22  23
ENDBRANCH  21  22
ENDBRANCH  20  21
ENDBRANCH  19  20
ENDBRANCH  18  19
ENDBRANCH  17  18
ENDBRANCH   1  17
TORSDOF 26
ENDMDL
MODEL 8
REMARK VINA RESULT:    -5.700      1.749      4.402
REMARK INTER + INTRA:         -18.004
REMARK INTER:                 -14.507
REMARK INTRA:                  -3.497
REMARK UNBOUND:                -3.640
REMARK SMILES CCCCCCCCCCCCCCCCCCCCCCCCCCCC(=O)[O-]
REMARK SMILES IDX 15 1 16 2 17 3 18 4 19 5 20 6 21 7 22 8 23 9 24 10 25 11
REMARK SMILES IDX 26 12 27 13 28 14 29 15 30 16 14 17 13 18 12 19 11 20 10 21
REMARK SMILES IDX 9 22 8 23 7 24 6 25 5 26 4 27 3 28 2 29 1 30
REMARK H PARENT
REMARK Flexibility Score: inf
ROOT
ATOM      1  C   UNL     1       3.708   4.552  15.096  1.00  0.00     0.000 C 
ENDROOT
BRANCH   1   2
ATOM      2  C   UNL     1       2.861   3.462  15.776  1.00  0.00     0.000 C 
BRANCH   2   3
ATOM      3  C   UNL     1       2.544   2.283  14.839  1.00  0.00     0.000 C 
BRANCH   3   4
ATOM      4  C   UNL     1       1.713   1.187  15.528  1.00  0.00     0.000 C 
BRANCH   4   5
ATOM      5  C   UNL     1       1.607  -0.135  14.743  1.00  0.00     0.000 C 
BRANCH   5   6
ATOM      6  C   UNL     1       2.559  -0.211  13.530  1.00  0.00     0.000 C 
BRANCH   6   7
ATOM      7  C   UNL     1       3.608  -1.324  13.683  1.00  0.00     0.000 C 
BRANCH   7   8
ATOM      8  C   UNL     1       4.903  -0.963  12.947  1.00  0.00     0.000 C 
BRANCH   8   9
ATOM      9  C   UNL     1       6.015  -0.580  13.935  1.00  0.00     0.000 C 
BRANCH   9  10
ATOM     10  C   UNL     1       6.048   0.939  14.211  1.00  0.00     0.000 C 
BRANCH  10  11
ATOM     11  C   UNL     1       5.489   1.327  15.591  1.00  0.00     0.000 C 
BRANCH  11  12
ATOM     12  C   UNL     1       5.112   0.111  16.449  1.00  0.00     0.006 C 
BRANCH  12  13
ATOM     13  C   UNL     1       5.100   0.473  17.937  1.00  0.00     0.053 C 
BRANCH  13  14
ATOM     14  C   UNL     1       5.545  -0.692  18.763  1.00  0.00     0.041 C 
ATOM     15  O   UNL     1       5.370  -1.867  18.348  1.00  0.00    -0.550 OA
ATOM     16  O   UNL     1       6.200  -0.477  19.969  1.00  0.00    -0.550 OA
ENDBRANCH  13  14
ENDBRANCH  12  13
ENDBRANCH  11  12
ENDBRANCH  10  11
ENDBRANCH   9  10
ENDBRANCH   8   9
ENDBRANCH   7   8
ENDBRANCH   6   7
ENDBRANCH   5   6
ENDBRANCH   4   5
ENDBRANCH   3   4
ENDBRANCH   2   3
ENDBRANCH   1   2
BRANCH   1  17
ATOM     17  C   UNL     1       3.722   4.505  13.555  1.00  0.00     0.000 C 
BRANCH  17  18
ATOM     18  C   UNL     1       5.027   5.000  12.900  1.00  0.00     0.000 C 
BRANCH  18  19
ATOM     19  C   UNL     1       5.244   6.525  12.949  1.00  0.00     0.000 C 
BRANCH  19  20
ATOM     20  C   UNL     1       6.202   7.013  14.050  1.00  0.00     0.000 C 
BRANCH  20  21
ATOM     21  C   UNL     1       5.470   7.603  15.263  1.00  0.00     0.000 C 
BRANCH  21  22
ATOM     22  C   UNL     1       4.857   8.969  14.926  1.00  0.00    -0.000 C 
BRANCH  22  23
ATOM     23  C   UNL     1       3.763   9.345  15.937  1.00  0.00    -0.000 C 
BRANCH  23  24
ATOM     24  C   UNL     1       3.690   8.381  17.132  1.00  0.00    -0.000 C 
BRANCH  24  25
ATOM     25  C   UNL     1       2.707   8.825  18.238  1.00  0.00    -0.000 C 
BRANCH  25  26
ATOM     26  C   UNL     1       2.154   7.636  19.046  1.00  0.00    -0.000 C 
BRANCH  26  27
ATOM     27  C   UNL     1       2.501   6.278  18.413  1.00  0.00    -0.000 C 
BRANCH  27  28
ATOM     28  C   UNL     1       1.302   5.315  18.379  1.00  0.00    -0.000 C 
BRANCH  28  29
ATOM     29  C   UNL     1       1.514   4.087  19.281  1.00  0.00    -0.003 C 
ATOM     30  C   UNL     1       2.980   3.665  19.374  1.00  0.00     0.004 C 
ENDBRANCH  28  29
ENDBRANCH  27  28
ENDBRANCH  26  27
ENDBRANCH  25  26
ENDBRANCH  24  25
ENDBRANCH  23  24
ENDBRANCH  22  23
ENDBRANCH  21  22
ENDBRANCH  20  21
ENDBRANCH  19  20
ENDBRANCH  18  19
ENDBRANCH  17  18
ENDBRANCH   1  17
TORSDOF 26
ENDMDL
MODEL 9
REMARK VINA RESULT:    -5.659      0.915      1.869
REMARK INTER + INTRA:         -17.902
REMARK INTER:                 -14.998
REMARK INTRA:                  -2.903
REMARK UNBOUND:                -3.640
REMARK SMILES CCCCCCCCCCCCCCCCCCCCCCCCCCCC(=O)[O-]
REMARK SMILES IDX 15 1 16 2 17 3 18 4 19 5 20 6 21 7 22 8 23 9 24 10 25 11
REMARK SMILES IDX 26 12 27 13 28 14 29 15 30 16 14 17 13 18 12 19 11 20 10 21
REMARK SMILES IDX 9 22 8 23 7 24 6 25 5 26 4 27 3 28 2 29 1 30
REMARK H PARENT
REMARK Flexibility Score: inf
ROOT
ATOM      1  C   UNL     1       2.993   4.590  16.630  1.00  0.00     0.000 C 
ENDROOT
BRANCH   1   2
ATOM      2  C   UNL     1       1.913   4.854  17.695  1.00  0.00     0.000 C 
BRANCH   2   3
ATOM      3  C   UNL     1       2.504   5.311  19.041  1.00  0.00     0.000 C 
BRANCH   3   4
ATOM      4  C   UNL     1       2.635   4.160  20.052  1.00  0.00     0.000 C 
BRANCH   4   5
ATOM      5  C   UNL     1       2.519   2.749  19.445  1.00  0.00     0.000 C 
BRANCH   5   6
ATOM      6  C   UNL     1       3.883   2.073  19.189  1.00  0.00     0.000 C 
BRANCH   6   7
ATOM      7  C   UNL     1       3.954   1.416  17.802  1.00  0.00     0.000 C 
BRANCH   7   8
ATOM      8  C   UNL     1       5.330   0.784  17.563  1.00  0.00     0.000 C 
BRANCH   8   9
ATOM      9  C   UNL     1       5.292  -0.734  17.788  1.00  0.00     0.000 C 
BRANCH   9  10
ATOM     10  C   UNL     1       4.778  -1.492  16.545  1.00  0.00     0.000 C 
BRANCH  10  11
ATOM     11  C   UNL     1       5.019  -0.743  15.223  1.00  0.00     0.000 C 
BRANCH  11  12
ATOM     12  C   UNL     1       4.053  -1.168  14.108  1.00  0.00     0.006 C 
BRANCH  12  13
ATOM     13  C   UNL     1       2.913  -0.156  13.956  1.00  0.00     0.053 C 
BRANCH  13  14
ATOM     14  C   UNL     1       1.669  -0.669  14.607  1.00  0.00     0.041 C 
ATOM     15  O   UNL     1       1.599  -1.866  14.989  1.00  0.00    -0.550 OA
ATOM     16  O   UNL     1       0.602   0.190  14.837  1.00  0.00    -0.550 OA
ENDBRANCH  13  14
ENDBRANCH  12  13
ENDBRANCH  11  12
ENDBRANCH  10  11
ENDBRANCH   9  10
ENDBRANCH   8   9
ENDBRANCH   7   8
ENDBRANCH   6   7
ENDBRANCH   5   6
ENDBRANCH   4   5
ENDBRANCH   3   4
ENDBRANCH   2   3
ENDBRANCH   1   2
BRANCH   1  17
ATOM     17  C   UNL     1       2.490   3.905  15.344  1.00  0.00     0.000 C 
BRANCH  17  18
ATOM     18  C   UNL     1       3.556   3.095  14.578  1.00  0.00     0.000 C 
BRANCH  18  19
ATOM     19  C   UNL     1       4.850   3.865  14.252  1.00  0.00     0.000 C 
BRANCH  19  20
ATOM     20  C   UNL     1       4.872   4.554  12.876  1.00  0.00     0.000 C 
BRANCH  20  21
ATOM     21  C   UNL     1       4.623   6.066  12.959  1.00  0.00     0.000 C 
BRANCH  21  22
ATOM     22  C   UNL     1       5.942   6.835  13.110  1.00  0.00    -0.000 C 
BRANCH  22  23
ATOM     23  C   UNL     1       5.731   8.145  13.884  1.00  0.00    -0.000 C 
BRANCH  23  24
ATOM     24  C   UNL     1       5.812   7.963  15.408  1.00  0.00    -0.000 C 
BRANCH  24  25
ATOM     25  C   UNL     1       4.462   7.614  16.072  1.00  0.00    -0.000 C 
BRANCH  25  26
ATOM     26  C   UNL     1       3.752   8.853  16.650  1.00  0.00    -0.000 C 
BRANCH  26  27
ATOM     27  C   UNL     1       4.540   9.502  17.800  1.00  0.00    -0.000 C 
BRANCH  27  28
ATOM     28  C   UNL     1       3.626  10.171  18.842  1.00  0.00    -0.000 C 
BRANCH  28  29
ATOM     29  C   UNL     1       2.176   9.668  18.757  1.00  0.00    -0.003 C 
ATOM     30  C   UNL     1       1.908   8.473  19.672  1.00  0.00     0.004 C 
ENDBRANCH  28  29
ENDBRANCH  27  28
ENDBRANCH  26  27
ENDBRANCH  25  26
ENDBRANCH  24  25
ENDBRANCH  23  24
ENDBRANCH  22  23
ENDBRANCH  21  22
ENDBRANCH  20  21
ENDBRANCH  19  20
ENDBRANCH  18  19
ENDBRANCH  17  18
ENDBRANCH   1  17
TORSDOF 26
ENDMDL
