MODEL 1
REMARK VINA RESULT:    -3.458      0.000      0.000
REMARK INTER + INTRA:          -9.318
REMARK INTER:                  -6.490
REMARK INTRA:                  -2.829
REMARK UNBOUND:                -2.829
REMARK SMILES CCCCCCCCC=CCCCCCCCC(=O)[O-]
REMARK SMILES IDX 10 1 9 2 11 3 12 4 13 5 14 6 15 7 16 8 17 9 18 10 19 11
REMARK SMILES IDX 20 12 8 13 7 14 6 15 5 16 4 17 3 18 2 19 1 20
REMARK H PARENT
REMARK Flexibility Score: inf
ROOT
ATOM      1  C   UNL     1      -1.366  32.643 -13.476  1.00  0.00    -0.031 C 
ATOM      2  C   UNL     1      -2.458  33.159 -14.068  1.00  0.00    -0.031 C 
ENDROOT
BRANCH   1   3
ATOM      3  C   UNL     1      -0.260  31.913 -14.199  1.00  0.00     0.027 C 
BRANCH   3   4
ATOM      4  C   UNL     1      -0.538  30.405 -14.296  1.00  0.00     0.004 C 
BRANCH   4   5
ATOM      5  C   UNL     1      -1.288  29.874 -13.065  1.00  0.00     0.000 C 
BRANCH   5   6
ATOM      6  C   UNL     1      -2.590  29.171 -13.476  1.00  0.00     0.000 C 
BRANCH   6   7
ATOM      7  C   UNL     1      -3.842  29.865 -12.915  1.00  0.00     0.000 C 
BRANCH   7   8
ATOM      8  C   UNL     1      -3.626  30.416 -11.494  1.00  0.00     0.006 C 
BRANCH   8   9
ATOM      9  C   UNL     1      -4.237  31.812 -11.316  1.00  0.00     0.053 C 
BRANCH   9  10
ATOM     10  C   UNL     1      -5.375  31.804 -10.341  1.00  0.00     0.041 C 
ATOM     11  O   UNL     1      -6.457  31.232 -10.634  1.00  0.00    -0.550 OA
ATOM     12  O   UNL     1      -5.248  32.454  -9.119  1.00  0.00    -0.550 OA
ENDBRANCH   9  10
ENDBRANCH   8   9
ENDBRANCH   7   8
ENDBRANCH   6   7
ENDBRANCH   5   6
ENDBRANCH   4   5
ENDBRANCH   3   4
ENDBRANCH   1   3
BRANCH   2  13
ATOM     13  C   UNL     1      -2.701  33.180 -15.557  1.00  0.00     0.027 C 
BRANCH  13  14
ATOM     14  C   UNL     1      -3.415  31.908 -16.048  1.00  0.00     0.004 C 
BRANCH  14  15
ATOM     15  C   UNL     1      -3.123  31.540 -17.514  1.00  0.00     0.000 C 
BRANCH  15  16
ATOM     16  C   UNL     1      -2.232  30.296 -17.652  1.00  0.00     0.000 C 
BRANCH  16  17
ATOM     17  C   UNL     1      -3.060  29.072 -18.068  1.00  0.00    -0.000 C 
BRANCH  17  18
ATOM     18  C   UNL     1      -3.276  28.082 -16.913  1.00  0.00    -0.000 C 
BRANCH  18  19
ATOM     19  C   UNL     1      -4.748  27.674 -16.749  1.00  0.00    -0.003 C 
ATOM     20  C   UNL     1      -5.641  28.899 -16.571  1.00  0.00     0.004 C 
ENDBRANCH  18  19
ENDBRANCH  17  18
ENDBRANCH  16  17
ENDBRANCH  15  16
ENDBRANCH  14  15
ENDBRANCH  13  14
ENDBRANCH   2  13
TORSDOF 15
ENDMDL
MODEL 2
REMARK VINA RESULT:    -3.366      3.769      6.234
REMARK INTER + INTRA:          -9.146
REMARK INTER:                  -6.099
REMARK INTRA:                  -3.046
REMARK UNBOUND:                -2.829
REMARK SMILES CCCCCCCCC=CCCCCCCCC(=O)[O-]
REMARK SMILES IDX 10 1 9 2 11 3 12 4 13 5 14 6 15 7 16 8 17 9 18 10 19 11
REMARK SMILES IDX 20 12 8 13 7 14 6 15 5 16 4 17 3 18 2 19 1 20
REMARK H PARENT
REMARK Flexibility Score: inf
ROOT
ATOM      1  C   UNL     1      -1.772  32.960 -13.489  1.00  0.00    -0.031 C 
ATOM      2  C   UNL     1      -1.897  32.016 -12.538  1.00  0.00    -0.031 C 
ENDROOT
BRANCH   1   3
ATOM      3  C   UNL     1      -2.801  33.247 -14.555  1.00  0.00     0.027 C 
BRANCH   3   4
ATOM      4  C   UNL     1      -2.381  32.684 -15.921  1.00  0.00     0.004 C 
BRANCH   4   5
ATOM      5  C   UNL     1      -3.504  31.871 -16.583  1.00  0.00     0.000 C 
BRANCH   5   6
ATOM      6  C   UNL     1      -3.031  31.265 -17.913  1.00  0.00     0.000 C 
BRANCH   6   7
ATOM      7  C   UNL     1      -3.376  29.771 -18.040  1.00  0.00     0.000 C 
BRANCH   7   8
ATOM      8  C   UNL     1      -2.340  28.993 -18.869  1.00  0.00     0.006 C 
BRANCH   8   9
ATOM      9  C   UNL     1      -1.091  29.834 -19.170  1.00  0.00     0.053 C 
BRANCH   9  10
ATOM     10  C   UNL     1       0.121  29.305 -18.465  1.00  0.00     0.041 C 
ATOM     11  O   UNL     1       1.130  30.040 -18.302  1.00  0.00    -0.550 OA
ATOM     12  O   UNL     1       0.146  27.990 -18.014  1.00  0.00    -0.550 OA
ENDBRANCH   9  10
ENDBRANCH   8   9
ENDBRANCH   7   8
ENDBRANCH   6   7
ENDBRANCH   5   6
ENDBRANCH   4   5
ENDBRANCH   3   4
ENDBRANCH   1   3
BRANCH   2  13
ATOM     13  C   UNL     1      -3.126  31.166 -12.324  1.00  0.00     0.027 C 
BRANCH  13  14
ATOM     14  C   UNL     1      -2.872  29.685 -12.652  1.00  0.00     0.004 C 
BRANCH  14  15
ATOM     15  C   UNL     1      -3.316  29.261 -14.065  1.00  0.00     0.000 C 
BRANCH  15  16
ATOM     16  C   UNL     1      -2.178  28.636 -14.886  1.00  0.00     0.000 C 
BRANCH  16  17
ATOM     17  C   UNL     1      -0.975  29.587 -14.967  1.00  0.00    -0.000 C 
BRANCH  17  18
ATOM     18  C   UNL     1       0.343  28.912 -14.558  1.00  0.00    -0.000 C 
BRANCH  18  19
ATOM     19  C   UNL     1       0.909  29.467 -13.242  1.00  0.00    -0.003 C 
ATOM     20  C   UNL     1       0.605  28.532 -12.075  1.00  0.00     0.004 C 
ENDBRANCH  18  19
ENDBRANCH  17  18
ENDBRANCH  16  17
ENDBRANCH  15  16
ENDBRANCH  14  15
ENDBRANCH  13  14
ENDBRANCH   2  13
TORSDOF 15
ENDMDL
MODEL 3
REMARK VINA RESULT:    -3.358      2.987      5.362
REMARK INTER + INTRA:          -9.130
REMARK INTER:                  -6.291
REMARK INTRA:                  -2.839
REMARK UNBOUND:                -2.829
REMARK SMILES CCCCCCCCC=CCCCCCCCC(=O)[O-]
REMARK SMILES IDX 10 1 9 2 11 3 12 4 13 5 14 6 15 7 16 8 17 9 18 10 19 11
REMARK SMILES IDX 20 12 8 13 7 14 6 15 5 16 4 17 3 18 2 19 1 20
REMARK H PARENT
REMARK Flexibility Score: inf
ROOT
ATOM      1  C   UNL     1      -2.921  33.315 -14.905  1.00  0.00    -0.031 C 
ATOM      2  C   UNL     1      -2.508  33.229 -13.627  1.00  0.00    -0.031 C 
ENDROOT
BRANCH   1   3
ATOM      3  C   UNL     1      -2.895  32.176 -15.895  1.00  0.00     0.027 C 
BRANCH   3   4
ATOM      4  C   UNL     1      -1.647  32.225 -16.790  1.00  0.00     0.004 C 
BRANCH   4   5
ATOM      5  C   UNL     1      -1.844  31.449 -18.101  1.00  0.00     0.000 C 
BRANCH   5   6
ATOM      6  C   UNL     1      -3.145  30.634 -18.066  1.00  0.00     0.000 C 
BRANCH   6   7
ATOM      7  C   UNL     1      -2.931  29.159 -18.446  1.00  0.00     0.000 C 
BRANCH   7   8
ATOM      8  C   UNL     1      -3.057  28.213 -17.239  1.00  0.00     0.006 C 
BRANCH   8   9
ATOM      9  C   UNL     1      -4.222  28.602 -16.319  1.00  0.00     0.053 C 
BRANCH   9  10
ATOM     10  C   UNL     1      -5.513  27.983 -16.760  1.00  0.00     0.041 C 
ATOM     11  O   UNL     1      -5.598  26.737 -16.917  1.00  0.00    -0.550 OA
ATOM     12  O   UNL     1      -6.616  28.787 -17.027  1.00  0.00    -0.550 OA
ENDBRANCH   9  10
ENDBRANCH   8   9
ENDBRANCH   7   8
ENDBRANCH   6   7
ENDBRANCH   5   6
ENDBRANCH   4   5
ENDBRANCH   3   4
ENDBRANCH   1   3
BRANCH   2  13
ATOM     13  C   UNL     1      -2.051  31.958 -12.953  1.00  0.00     0.027 C 
BRANCH  13  14
ATOM     14  C   UNL     1      -0.526  31.924 -12.750  1.00  0.00     0.004 C 
BRANCH  14  15
ATOM     15  C   UNL     1       0.129  30.570 -13.078  1.00  0.00     0.000 C 
BRANCH  15  16
ATOM     16  C   UNL     1      -0.840  29.584 -13.749  1.00  0.00     0.000 C 
BRANCH  16  17
ATOM     17  C   UNL     1      -0.386  29.256 -15.178  1.00  0.00    -0.000 C 
BRANCH  17  18
ATOM     18  C   UNL     1       0.944  29.931 -15.547  1.00  0.00    -0.000 C 
BRANCH  18  19
ATOM     19  C   UNL     1       1.587  29.325 -16.804  1.00  0.00    -0.003 C 
ATOM     20  C   UNL     1       0.571  28.517 -17.606  1.00  0.00     0.004 C 
ENDBRANCH  18  19
ENDBRANCH  17  18
ENDBRANCH  16  17
ENDBRANCH  15  16
ENDBRANCH  14  15
ENDBRANCH  13  14
ENDBRANCH   2  13
TORSDOF 15
ENDMDL
MODEL 4
REMARK VINA RESULT:    -3.349      4.099      5.532
REMARK INTER + INTRA:          -9.114
REMARK INTER:                  -6.232
REMARK INTRA:                  -2.881
REMARK UNBOUND:                -2.829
REMARK SMILES CCCCCCCCC=CCCCCCCCC(=O)[O-]
REMARK SMILES IDX 10 1 9 2 11 3 12 4 13 5 14 6 15 7 16 8 17 9 18 10 19 11
REMARK SMILES IDX 20 12 8 13 7 14 6 15 5 16 4 17 3 18 2 19 1 20
REMARK H PARENT
REMARK Flexibility Score: inf
ROOT
ATOM      1  C   UNL     1      -0.890  31.385 -12.965  1.00  0.00    -0.031 C 
ATOM      2  C   UNL     1      -1.325  32.628 -13.246  1.00  0.00    -0.031 C 
ENDROOT
BRANCH   1   3
ATOM      3  C   UNL     1      -1.778  30.170 -12.852  1.00  0.00     0.027 C 
BRANCH   3   4
ATOM      4  C   UNL     1      -1.779  29.340 -14.145  1.00  0.00     0.004 C 
BRANCH   4   5
ATOM      5  C   UNL     1      -0.357  29.062 -14.656  1.00  0.00     0.000 C 
BRANCH   5   6
ATOM      6  C   UNL     1      -0.135  29.702 -16.034  1.00  0.00     0.000 C 
BRANCH   6   7
ATOM      7  C   UNL     1       1.284  30.270 -16.202  1.00  0.00     0.000 C 
BRANCH   7   8
ATOM      8  C   UNL     1       1.371  31.762 -15.833  1.00  0.00     0.006 C 
BRANCH   8   9
ATOM      9  C   UNL     1       2.260  32.003 -14.606  1.00  0.00     0.053 C 
BRANCH   9  10
ATOM     10  C   UNL     1       3.467  32.825 -14.943  1.00  0.00     0.041 C 
ATOM     11  O   UNL     1       4.542  32.663 -14.308  1.00  0.00    -0.550 OA
ATOM     12  O   UNL     1       3.394  33.791 -15.940  1.00  0.00    -0.550 OA
ENDBRANCH   9  10
ENDBRANCH   8   9
ENDBRANCH   7   8
ENDBRANCH   6   7
ENDBRANCH   5   6
ENDBRANCH   4   5
ENDBRANCH   3   4
ENDBRANCH   1   3
BRANCH   2  13
ATOM     13  C   UNL     1      -2.750  32.984 -13.593  1.00  0.00     0.027 C 
BRANCH  13  14
ATOM     14  C   UNL     1      -2.883  33.518 -15.030  1.00  0.00     0.004 C 
BRANCH  14  15
ATOM     15  C   UNL     1      -2.433  32.528 -16.121  1.00  0.00     0.000 C 
BRANCH  15  16
ATOM     16  C   UNL     1      -3.530  31.522 -16.503  1.00  0.00     0.000 C 
BRANCH  16  17
ATOM     17  C   UNL     1      -3.169  30.784 -17.799  1.00  0.00    -0.000 C 
BRANCH  17  18
ATOM     18  C   UNL     1      -2.071  31.498 -18.602  1.00  0.00    -0.000 C 
BRANCH  18  19
ATOM     19  C   UNL     1      -1.255  30.535 -19.478  1.00  0.00    -0.003 C 
ATOM     20  C   UNL     1      -1.822  29.119 -19.413  1.00  0.00     0.004 C 
ENDBRANCH  18  19
ENDBRANCH  17  18
ENDBRANCH  16  17
ENDBRANCH  15  16
ENDBRANCH  14  15
ENDBRANCH  13  14
ENDBRANCH   2  13
TORSDOF 15
ENDMDL
MODEL 5
REMARK VINA RESULT:    -3.326      1.693      2.179
REMARK INTER + INTRA:          -9.070
REMARK INTER:                  -6.087
REMARK INTRA:                  -2.984
REMARK UNBOUND:                -2.829
REMARK SMILES CCCCCCCCC=CCCCCCCCC(=O)[O-]
REMARK SMILES IDX 10 1 9 2 11 3 12 4 13 5 14 6 15 7 16 8 17 9 18 10 19 11
REMARK SMILES IDX 20 12 8 13 7 14 6 15 5 16 4 17 3 18 2 19 1 20
REMARK H PARENT
REMARK Flexibility Score: inf
ROOT
ATOM      1  C   UNL     1      -1.871  32.814 -13.391  1.00  0.00    -0.031 C 
ATOM      2  C   UNL     1      -2.786  33.049 -14.351  1.00  0.00    -0.031 C 
ENDROOT
BRANCH   1   3
ATOM      3  C   UNL     1      -0.486  32.267 -13.639  1.00  0.00     0.027 C 
BRANCH   3   4
ATOM      4  C   UNL     1      -0.261  30.932 -12.914  1.00  0.00     0.004 C 
BRANCH   4   5
ATOM      5  C   UNL     1       0.004  29.778 -13.892  1.00  0.00     0.000 C 
BRANCH   5   6
ATOM      6  C   UNL     1      -1.278  29.394 -14.647  1.00  0.00     0.000 C 
BRANCH   6   7
ATOM      7  C   UNL     1      -2.291  28.655 -13.757  1.00  0.00     0.000 C 
BRANCH   7   8
ATOM      8  C   UNL     1      -3.627  29.408 -13.630  1.00  0.00     0.006 C 
BRANCH   8   9
ATOM      9  C   UNL     1      -3.849  29.956 -12.214  1.00  0.00     0.053 C 
BRANCH   9  10
ATOM     10  C   UNL     1      -4.140  28.863 -11.231  1.00  0.00     0.041 C 
ATOM     11  O   UNL     1      -5.263  28.295 -11.228  1.00  0.00    -0.550 OA
ATOM     12  O   UNL     1      -3.177  28.492 -10.298  1.00  0.00    -0.550 OA
ENDBRANCH   9  10
ENDBRANCH   8   9
ENDBRANCH   7   8
ENDBRANCH   6   7
ENDBRANCH   5   6
ENDBRANCH   4   5
ENDBRANCH   3   4
ENDBRANCH   1   3
BRANCH   2  13
ATOM     13  C   UNL     1      -2.537  32.899 -15.832  1.00  0.00     0.027 C 
BRANCH  13  14
ATOM     14  C   UNL     1      -3.396  31.784 -16.455  1.00  0.00     0.004 C 
BRANCH  14  15
ATOM     15  C   UNL     1      -2.963  31.366 -17.873  1.00  0.00     0.000 C 
BRANCH  15  16
ATOM     16  C   UNL     1      -3.112  29.857 -18.122  1.00  0.00     0.000 C 
BRANCH  16  17
ATOM     17  C   UNL     1      -4.257  29.274 -17.282  1.00  0.00    -0.000 C 
BRANCH  17  18
ATOM     18  C   UNL     1      -4.033  27.797 -16.920  1.00  0.00    -0.000 C 
BRANCH  18  19
ATOM     19  C   UNL     1      -2.682  27.263 -17.418  1.00  0.00    -0.003 C 
ATOM     20  C   UNL     1      -2.699  25.741 -17.526  1.00  0.00     0.004 C 
ENDBRANCH  18  19
ENDBRANCH  17  18
ENDBRANCH  16  17
ENDBRANCH  15  16
ENDBRANCH  14  15
ENDBRANCH  13  14
ENDBRANCH   2  13
TORSDOF 15
ENDMDL
MODEL 6
REMARK VINA RESULT:    -3.320      3.116      5.911
REMARK INTER + INTRA:          -9.060
REMARK INTER:                  -6.356
REMARK INTRA:                  -2.705
REMARK UNBOUND:                -2.829
REMARK SMILES CCCCCCCCC=CCCCCCCCC(=O)[O-]
REMARK SMILES IDX 10 1 9 2 11 3 12 4 13 5 14 6 15 7 16 8 17 9 18 10 19 11
REMARK SMILES IDX 20 12 8 13 7 14 6 15 5 16 4 17 3 18 2 19 1 20
REMARK H PARENT
REMARK Flexibility Score: inf
ROOT
ATOM      1  C   UNL     1      -2.889  33.197 -14.453  1.00  0.00    -0.031 C 
ATOM      2  C   UNL     1      -1.964  32.943 -13.509  1.00  0.00    -0.031 C 
ENDROOT
BRANCH   1   3
ATOM      3  C   UNL     1      -2.657  33.075 -15.940  1.00  0.00     0.027 C 
BRANCH   3   4
ATOM      4  C   UNL     1      -3.384  31.859 -16.533  1.00  0.00     0.004 C 
BRANCH   4   5
ATOM      5  C   UNL     1      -3.015  31.625 -18.006  1.00  0.00     0.000 C 
BRANCH   5   6
ATOM      6  C   UNL     1      -1.813  30.676 -18.126  1.00  0.00     0.000 C 
BRANCH   6   7
ATOM      7  C   UNL     1      -1.732  29.993 -19.502  1.00  0.00     0.000 C 
BRANCH   7   8
ATOM      8  C   UNL     1      -2.073  28.495 -19.440  1.00  0.00     0.006 C 
BRANCH   8   9
ATOM      9  C   UNL     1      -2.049  27.956 -18.003  1.00  0.00     0.053 C 
BRANCH   9  10
ATOM     10  C   UNL     1      -3.062  26.871 -17.797  1.00  0.00     0.041 C 
ATOM     11  O   UNL     1      -3.951  26.993 -16.914  1.00  0.00    -0.550 OA
ATOM     12  O   UNL     1      -3.006  25.711 -18.562  1.00  0.00    -0.550 OA
ENDBRANCH   9  10
ENDBRANCH   8   9
ENDBRANCH   7   8
ENDBRANCH   6   7
ENDBRANCH   5   6
ENDBRANCH   4   5
ENDBRANCH   3   4
ENDBRANCH   1   3
BRANCH   2  13
ATOM     13  C   UNL     1      -0.582  32.400 -13.782  1.00  0.00     0.027 C 
BRANCH  13  14
ATOM     14  C   UNL     1      -0.192  31.284 -12.798  1.00  0.00     0.004 C 
BRANCH  14  15
ATOM     15  C   UNL     1       0.041  29.910 -13.454  1.00  0.00     0.000 C 
BRANCH  15  16
ATOM     16  C   UNL     1      -0.819  29.695 -14.709  1.00  0.00     0.000 C 
BRANCH  16  17
ATOM     17  C   UNL     1      -1.968  28.718 -14.424  1.00  0.00    -0.000 C 
BRANCH  17  18
ATOM     18  C   UNL     1      -3.269  29.432 -14.025  1.00  0.00    -0.000 C 
BRANCH  18  19
ATOM     19  C   UNL     1      -3.748  29.047 -12.617  1.00  0.00    -0.003 C 
ATOM     20  C   UNL     1      -3.677  30.240 -11.667  1.00  0.00     0.004 C 
ENDBRANCH  18  19
ENDBRANCH  17  18
ENDBRANCH  16  17
ENDBRANCH  15  16
ENDBRANCH  14  15
ENDBRANCH  13  14
ENDBRANCH   2  13
TORSDOF 15
ENDMDL
MODEL 7
REMARK VINA RESULT:    -3.271      1.745      3.887
REMARK INTER + INTRA:          -8.967
REMARK INTER:                  -6.050
REMARK INTRA:                  -2.918
REMARK UNBOUND:                -2.829
REMARK SMILES CCCCCCCCC=CCCCCCCCC(=O)[O-]
REMARK SMILES IDX 10 1 9 2 11 3 12 4 13 5 14 6 15 7 16 8 17 9 18 10 19 11
REMARK SMILES IDX 20 12 8 13 7 14 6 15 5 16 4 17 3 18 2 19 1 20
REMARK H PARENT
REMARK Flexibility Score: inf
ROOT
ATOM      1  C   UNL     1      -2.952  31.513 -16.324  1.00  0.00    -0.031 C 
ATOM      2  C   UNL     1      -2.570  32.664 -15.740  1.00  0.00    -0.031 C 
ENDROOT
BRANCH   1   3
ATOM      3  C   UNL     1      -3.644  30.376 -15.612  1.00  0.00     0.027 C 
BRANCH   3   4
ATOM      4  C   UNL     1      -2.653  29.282 -15.186  1.00  0.00     0.004 C 
BRANCH   4   5
ATOM      5  C   UNL     1      -2.925  28.776 -13.761  1.00  0.00     0.000 C 
BRANCH   5   6
ATOM      6  C   UNL     1      -3.889  29.715 -13.021  1.00  0.00     0.000 C 
BRANCH   6   7
ATOM      7  C   UNL     1      -3.297  30.260 -11.711  1.00  0.00     0.000 C 
BRANCH   7   8
ATOM      8  C   UNL     1      -4.087  31.459 -11.158  1.00  0.00     0.006 C 
BRANCH   8   9
ATOM      9  C   UNL     1      -4.194  31.425  -9.628  1.00  0.00     0.053 C 
BRANCH   9  10
ATOM     10  C   UNL     1      -4.584  30.068  -9.125  1.00  0.00     0.041 C 
ATOM     11  O   UNL     1      -5.738  29.618  -9.344  1.00  0.00    -0.550 OA
ATOM     12  O   UNL     1      -3.678  29.313  -8.389  1.00  0.00    -0.550 OA
ENDBRANCH   9  10
ENDBRANCH   8   9
ENDBRANCH   7   8
ENDBRANCH   6   7
ENDBRANCH   5   6
ENDBRANCH   4   5
ENDBRANCH   3   4
ENDBRANCH   1   3
BRANCH   2  13
ATOM     13  C   UNL     1      -2.862  33.041 -14.309  1.00  0.00     0.027 C 
BRANCH  13  14
ATOM     14  C   UNL     1      -1.607  32.969 -13.421  1.00  0.00     0.004 C 
BRANCH  14  15
ATOM     15  C   UNL     1      -0.440  32.172 -14.033  1.00  0.00     0.000 C 
BRANCH  15  16
ATOM     16  C   UNL     1       0.035  31.023 -13.130  1.00  0.00     0.000 C 
BRANCH  16  17
ATOM     17  C   UNL     1       0.708  29.919 -13.958  1.00  0.00    -0.000 C 
BRANCH  17  18
ATOM     18  C   UNL     1       1.334  28.820 -13.084  1.00  0.00    -0.000 C 
BRANCH  18  19
ATOM     19  C   UNL     1       0.380  28.318 -11.990  1.00  0.00    -0.003 C 
ATOM     20  C   UNL     1      -0.113  26.906 -12.297  1.00  0.00     0.004 C 
ENDBRANCH  18  19
ENDBRANCH  17  18
ENDBRANCH  16  17
ENDBRANCH  15  16
ENDBRANCH  14  15
ENDBRANCH  13  14
ENDBRANCH   2  13
TORSDOF 15
ENDMDL
MODEL 8
REMARK VINA RESULT:    -3.204      2.830      5.751
REMARK INTER + INTRA:          -8.843
REMARK INTER:                  -6.418
REMARK INTRA:                  -2.425
REMARK UNBOUND:                -2.829
REMARK SMILES CCCCCCCCC=CCCCCCCCC(=O)[O-]
REMARK SMILES IDX 10 1 9 2 11 3 12 4 13 5 14 6 15 7 16 8 17 9 18 10 19 11
REMARK SMILES IDX 20 12 8 13 7 14 6 15 5 16 4 17 3 18 2 19 1 20
REMARK H PARENT
REMARK Flexibility Score: inf
ROOT
ATOM      1  C   UNL     1      -1.802  32.594 -13.259  1.00  0.00    -0.031 C 
ATOM      2  C   UNL     1      -2.186  31.596 -12.442  1.00  0.00    -0.031 C 
ENDROOT
BRANCH   1   3
ATOM      3  C   UNL     1      -2.738  33.417 -14.110  1.00  0.00     0.027 C 
BRANCH   3   4
ATOM      4  C   UNL     1      -2.937  32.797 -15.502  1.00  0.00     0.004 C 
BRANCH   4   5
ATOM      5  C   UNL     1      -1.638  32.201 -16.062  1.00  0.00     0.000 C 
BRANCH   5   6
ATOM      6  C   UNL     1      -1.778  30.687 -16.281  1.00  0.00     0.000 C 
BRANCH   6   7
ATOM      7  C   UNL     1      -3.243  30.220 -16.275  1.00  0.00     0.000 C 
BRANCH   7   8
ATOM      8  C   UNL     1      -3.488  29.053 -15.302  1.00  0.00     0.006 C 
BRANCH   8   9
ATOM      9  C   UNL     1      -4.984  28.781 -15.091  1.00  0.00     0.053 C 
BRANCH   9  10
ATOM     10  C   UNL     1      -5.629  28.223 -16.322  1.00  0.00     0.041 C 
ATOM     11  O   UNL     1      -5.136  27.216 -16.895  1.00  0.00    -0.550 OA
ATOM     12  O   UNL     1      -6.761  28.832 -16.852  1.00  0.00    -0.550 OA
ENDBRANCH   9  10
ENDBRANCH   8   9
ENDBRANCH   7   8
ENDBRANCH   6   7
ENDBRANCH   5   6
ENDBRANCH   4   5
ENDBRANCH   3   4
ENDBRANCH   1   3
BRANCH   2  13
ATOM     13  C   UNL     1      -3.620  31.208 -12.172  1.00  0.00     0.027 C 
BRANCH  13  14
ATOM     14  C   UNL     1      -4.231  32.014 -11.013  1.00  0.00     0.004 C 
BRANCH  14  15
ATOM     15  C   UNL     1      -4.330  31.243  -9.683  1.00  0.00     0.000 C 
BRANCH  15  16
ATOM     16  C   UNL     1      -4.575  29.740  -9.882  1.00  0.00     0.000 C 
BRANCH  16  17
ATOM     17  C   UNL     1      -3.649  28.910  -8.982  1.00  0.00    -0.000 C 
BRANCH  17  18
ATOM     18  C   UNL     1      -3.124  27.644  -9.677  1.00  0.00    -0.000 C 
BRANCH  18  19
ATOM     19  C   UNL     1      -3.283  27.698 -11.204  1.00  0.00    -0.003 C 
ATOM     20  C   UNL     1      -1.938  27.931 -11.888  1.00  0.00     0.004 C 
ENDBRANCH  18  19
ENDBRANCH  17  18
ENDBRANCH  16  17
ENDBRANCH  15  16
ENDBRANCH  14  15
ENDBRANCH  13  14
ENDBRANCH   2  13
TORSDOF 15
ENDMDL
MODEL 9
REMARK VINA RESULT:    -3.204      5.955      7.824
REMARK INTER + INTRA:          -8.842
REMARK INTER:                  -5.741
REMARK INTRA:                  -3.101
REMARK UNBOUND:                -2.829
REMARK SMILES CCCCCCCCC=CCCCCCCCC(=O)[O-]
REMARK SMILES IDX 10 1 9 2 11 3 12 4 13 5 14 6 15 7 16 8 17 9 18 10 19 11
REMARK SMILES IDX 20 12 8 13 7 14 6 15 5 16 4 17 3 18 2 19 1 20
REMARK H PARENT
REMARK Flexibility Score: inf
ROOT
ATOM      1  C   UNL     1      -0.248  24.857  -9.658  1.00  0.00    -0.031 C 
ATOM      2  C   UNL     1       0.182  23.594  -9.478  1.00  0.00    -0.031 C 
ENDROOT
BRANCH   1   3
ATOM      3  C   UNL     1       0.653  26.064  -9.769  1.00  0.00     0.027 C 
BRANCH   3   4
ATOM      4  C   UNL     1       0.851  26.496 -11.230  1.00  0.00     0.004 C 
BRANCH   4   5
ATOM      5  C   UNL     1      -0.050  27.681 -11.611  1.00  0.00     0.000 C 
BRANCH   5   6
ATOM      6  C   UNL     1      -1.204  27.223 -12.515  1.00  0.00     0.000 C 
BRANCH   6   7
ATOM      7  C   UNL     1      -2.565  27.250 -11.799  1.00  0.00     0.000 C 
BRANCH   7   8
ATOM      8  C   UNL     1      -2.522  28.036 -10.477  1.00  0.00     0.006 C 
BRANCH   8   9
ATOM      9  C   UNL     1      -3.050  27.210  -9.296  1.00  0.00     0.053 C 
BRANCH   9  10
ATOM     10  C   UNL     1      -2.638  27.793  -7.979  1.00  0.00     0.041 C 
ATOM     11  O   UNL     1      -1.524  27.495  -7.474  1.00  0.00    -0.550 OA
ATOM     12  O   UNL     1      -3.499  28.644  -7.294  1.00  0.00    -0.550 OA
ENDBRANCH   9  10
ENDBRANCH   8   9
ENDBRANCH   7   8
ENDBRANCH   6   7
ENDBRANCH   5   6
ENDBRANCH   4   5
ENDBRANCH   3   4
ENDBRANCH   1   3
BRANCH   2  13
ATOM     13  C   UNL     1       1.630  23.172  -9.459  1.00  0.00     0.027 C 
BRANCH  13  14
ATOM     14  C   UNL     1       2.024  22.391 -10.725  1.00  0.00     0.004 C 
BRANCH  14  15
ATOM     15  C   UNL     1       0.964  21.384 -11.207  1.00  0.00     0.000 C 
BRANCH  15  16
ATOM     16  C   UNL     1       0.589  21.573 -12.685  1.00  0.00     0.000 C 
BRANCH  16  17
ATOM     17  C   UNL     1       0.898  23.003 -13.150  1.00  0.00    -0.000 C 
BRANCH  17  18
ATOM     18  C   UNL     1      -0.372  23.828 -13.412  1.00  0.00    -0.000 C 
BRANCH  18  19
ATOM     19  C   UNL     1      -1.659  23.006 -13.240  1.00  0.00    -0.003 C 
ATOM     20  C   UNL     1      -2.549  23.602 -12.153  1.00  0.00     0.004 C 
ENDBRANCH  18  19
ENDBRANCH  17  18
ENDBRANCH  16  17
ENDBRANCH  15  16
ENDBRANCH  14  15
ENDBRANCH  13  14
ENDBRANCH   2  13
TORSDOF 15
ENDMDL
