MODEL 1
REMARK VINA RESULT:    -4.477      0.000      0.000
REMARK INTER + INTRA:         -12.549
REMARK INTER:                  -9.712
REMARK INTRA:                  -2.837
REMARK UNBOUND:                -2.837
REMARK SMILES CCCCCCCCCCCCCCCCCCCCCC(=O)[O-]
REMARK SMILES IDX 12 1 11 2 10 3 9 4 8 5 7 6 6 7 5 8 4 9 3 10 2 11 1 12 13 13
REMARK SMILES IDX 14 14 15 15 16 16 17 17 18 18 19 19 20 20 21 21 22 22 23 23
REMARK SMILES IDX 24 24
REMARK H PARENT
REMARK Flexibility Score: inf
ROOT
ATOM      1  C   UNL     1      47.516   6.663  21.121  1.00  0.00     0.000 C 
ENDROOT
BRANCH   1   2
ATOM      2  C   UNL     1      47.868   7.177  22.528  1.00  0.00     0.000 C 
BRANCH   2   3
ATOM      3  C   UNL     1      46.988   8.360  22.988  1.00  0.00     0.000 C 
BRANCH   3   4
ATOM      4  C   UNL     1      47.804   9.649  23.167  1.00  0.00    -0.000 C 
BRANCH   4   5
ATOM      5  C   UNL     1      46.937  10.888  22.920  1.00  0.00    -0.000 C 
BRANCH   5   6
ATOM      6  C   UNL     1      45.932  10.638  21.787  1.00  0.00    -0.000 C 
BRANCH   6   7
ATOM      7  C   UNL     1      44.471  10.826  22.230  1.00  0.00    -0.000 C 
BRANCH   7   8
ATOM      8  C   UNL     1      43.776   9.511  22.641  1.00  0.00    -0.000 C 
BRANCH   8   9
ATOM      9  C   UNL     1      43.264   9.554  24.091  1.00  0.00    -0.000 C 
BRANCH   9  10
ATOM     10  C   UNL     1      43.839  10.762  24.842  1.00  0.00    -0.000 C 
BRANCH  10  11
ATOM     11  C   UNL     1      44.840  10.351  25.933  1.00  0.00    -0.003 C 
ATOM     12  C   UNL     1      44.880   8.839  26.156  1.00  0.00     0.004 C 
ENDBRANCH  10  11
ENDBRANCH   9  10
ENDBRANCH   8   9
ENDBRANCH   7   8
ENDBRANCH   6   7
ENDBRANCH   5   6
ENDBRANCH   4   5
ENDBRANCH   3   4
ENDBRANCH   2   3
ENDBRANCH   1   2
BRANCH   1  13
ATOM     13  C   UNL     1      46.300   7.382  20.515  1.00  0.00     0.000 C 
BRANCH  13  14
ATOM     14  C   UNL     1      46.408   7.536  18.989  1.00  0.00     0.000 C 
BRANCH  14  15
ATOM     15  C   UNL     1      45.944   8.918  18.497  1.00  0.00     0.000 C 
BRANCH  15  16
ATOM     16  C   UNL     1      44.438   8.968  18.194  1.00  0.00     0.000 C 
BRANCH  16  17
ATOM     17  C   UNL     1      44.138   8.976  16.685  1.00  0.00     0.000 C 
BRANCH  17  18
ATOM     18  C   UNL     1      45.395   9.243  15.842  1.00  0.00     0.000 C 
BRANCH  18  19
ATOM     19  C   UNL     1      45.677   8.103  14.848  1.00  0.00     0.000 C 
BRANCH  19  20
ATOM     20  C   UNL     1      45.378   6.718  15.444  1.00  0.00     0.006 C 
BRANCH  20  21
ATOM     21  C   UNL     1      46.008   5.583  14.626  1.00  0.00     0.053 C 
BRANCH  21  22
ATOM     22  C   UNL     1      47.342   5.210  15.191  1.00  0.00     0.041 C 
ATOM     23  O   UNL     1      48.242   4.748  14.442  1.00  0.00    -0.550 OA
ATOM     24  O   UNL     1      47.607   5.412  16.540  1.00  0.00    -0.550 OA
ENDBRANCH  21  22
ENDBRANCH  20  21
ENDBRANCH  19  20
ENDBRANCH  18  19
ENDBRANCH  17  18
ENDBRANCH  16  17
ENDBRANCH  15  16
ENDBRANCH  14  15
ENDBRANCH  13  14
ENDBRANCH   1  13
TORSDOF 20
ENDMDL
MODEL 2
REMARK VINA RESULT:    -4.359      3.758      8.015
REMARK INTER + INTRA:         -12.293
REMARK INTER:                  -9.476
REMARK INTRA:                  -2.817
REMARK UNBOUND:                -2.837
REMARK SMILES CCCCCCCCCCCCCCCCCCCCCC(=O)[O-]
REMARK SMILES IDX 12 1 11 2 10 3 9 4 8 5 7 6 6 7 5 8 4 9 3 10 2 11 1 12 13 13
REMARK SMILES IDX 14 14 15 15 16 16 17 17 18 18 19 19 20 20 21 21 22 22 23 23
REMARK SMILES IDX 24 24
REMARK H PARENT
REMARK Flexibility Score: inf
ROOT
ATOM      1  C   UNL     1      46.729   6.654  19.055  1.00  0.00     0.000 C 
ENDROOT
BRANCH   1   2
ATOM      2  C   UNL     1      46.763   7.434  17.730  1.00  0.00     0.000 C 
BRANCH   2   3
ATOM      3  C   UNL     1      46.234   6.624  16.526  1.00  0.00     0.000 C 
BRANCH   3   4
ATOM      4  C   UNL     1      44.753   6.917  16.241  1.00  0.00    -0.000 C 
BRANCH   4   5
ATOM      5  C   UNL     1      44.573   7.537  14.852  1.00  0.00    -0.000 C 
BRANCH   5   6
ATOM      6  C   UNL     1      45.923   7.966  14.262  1.00  0.00    -0.000 C 
BRANCH   6   7
ATOM      7  C   UNL     1      46.043   9.490  14.086  1.00  0.00    -0.000 C 
BRANCH   7   8
ATOM      8  C   UNL     1      46.719  10.197  15.279  1.00  0.00    -0.000 C 
BRANCH   8   9
ATOM      9  C   UNL     1      45.710  10.976  16.139  1.00  0.00    -0.000 C 
BRANCH   9  10
ATOM     10  C   UNL     1      45.985  10.769  17.634  1.00  0.00    -0.000 C 
BRANCH  10  11
ATOM     11  C   UNL     1      44.697  10.541  18.441  1.00  0.00    -0.003 C 
ATOM     12  C   UNL     1      43.565   9.961  17.592  1.00  0.00     0.004 C 
ENDBRANCH  10  11
ENDBRANCH   9  10
ENDBRANCH   8   9
ENDBRANCH   7   8
ENDBRANCH   6   7
ENDBRANCH   5   6
ENDBRANCH   4   5
ENDBRANCH   3   4
ENDBRANCH   2   3
ENDBRANCH   1   2
BRANCH   1  13
ATOM     13  C   UNL     1      46.630   7.575  20.282  1.00  0.00     0.000 C 
BRANCH  13  14
ATOM     14  C   UNL     1      47.407   7.030  21.491  1.00  0.00     0.000 C 
BRANCH  14  15
ATOM     15  C   UNL     1      47.053   7.754  22.801  1.00  0.00     0.000 C 
BRANCH  15  16
ATOM     16  C   UNL     1      47.761   9.110  22.944  1.00  0.00     0.000 C 
BRANCH  16  17
ATOM     17  C   UNL     1      46.781  10.261  23.234  1.00  0.00     0.000 C 
BRANCH  17  18
ATOM     18  C   UNL     1      45.893  10.590  22.024  1.00  0.00     0.000 C 
BRANCH  18  19
ATOM     19  C   UNL     1      44.462  10.050  22.194  1.00  0.00     0.000 C 
BRANCH  19  20
ATOM     20  C   UNL     1      43.768  10.612  23.445  1.00  0.00     0.006 C 
BRANCH  20  21
ATOM     21  C   UNL     1      43.307   9.505  24.402  1.00  0.00     0.053 C 
BRANCH  21  22
ATOM     22  C   UNL     1      43.999   9.632  25.722  1.00  0.00     0.041 C 
ATOM     23  O   UNL     1      43.907   8.714  26.578  1.00  0.00    -0.550 OA
ATOM     24  O   UNL     1      44.781  10.749  25.991  1.00  0.00    -0.550 OA
ENDBRANCH  21  22
ENDBRANCH  20  21
ENDBRANCH  19  20
ENDBRANCH  18  19
ENDBRANCH  17  18
ENDBRANCH  16  17
ENDBRANCH  15  16
ENDBRANCH  14  15
ENDBRANCH  13  14
ENDBRANCH   1  13
TORSDOF 20
ENDMDL
MODEL 3
REMARK VINA RESULT:    -4.347      0.908      2.038
REMARK INTER + INTRA:         -12.268
REMARK INTER:                  -9.575
REMARK INTRA:                  -2.693
REMARK UNBOUND:                -2.837
REMARK SMILES CCCCCCCCCCCCCCCCCCCCCC(=O)[O-]
REMARK SMILES IDX 12 1 11 2 10 3 9 4 8 5 7 6 6 7 5 8 4 9 3 10 2 11 1 12 13 13
REMARK SMILES IDX 14 14 15 15 16 16 17 17 18 18 19 19 20 20 21 21 22 22 23 23
REMARK SMILES IDX 24 24
REMARK H PARENT
REMARK Flexibility Score: inf
ROOT
ATOM      1  C   UNL     1      46.429   7.730  19.009  1.00  0.00     0.000 C 
ENDROOT
BRANCH   1   2
ATOM      2  C   UNL     1      46.136   7.203  20.424  1.00  0.00     0.000 C 
BRANCH   2   3
ATOM      3  C   UNL     1      47.384   7.158  21.334  1.00  0.00     0.000 C 
BRANCH   3   4
ATOM      4  C   UNL     1      47.101   7.732  22.730  1.00  0.00    -0.000 C 
BRANCH   4   5
ATOM      5  C   UNL     1      47.812   9.075  22.927  1.00  0.00    -0.000 C 
BRANCH   5   6
ATOM      6  C   UNL     1      46.799  10.199  23.188  1.00  0.00    -0.000 C 
BRANCH   6   7
ATOM      7  C   UNL     1      46.037  10.625  21.921  1.00  0.00    -0.000 C 
BRANCH   7   8
ATOM      8  C   UNL     1      44.539  10.256  21.949  1.00  0.00    -0.000 C 
BRANCH   8   9
ATOM      9  C   UNL     1      43.876  10.623  23.287  1.00  0.00    -0.000 C 
BRANCH   9  10
ATOM     10  C   UNL     1      43.405   9.366  24.031  1.00  0.00    -0.000 C 
BRANCH  10  11
ATOM     11  C   UNL     1      43.550   9.498  25.555  1.00  0.00    -0.003 C 
ATOM     12  C   UNL     1      44.847   8.880  26.079  1.00  0.00     0.004 C 
ENDBRANCH  10  11
ENDBRANCH   9  10
ENDBRANCH   8   9
ENDBRANCH   7   8
ENDBRANCH   6   7
ENDBRANCH   5   6
ENDBRANCH   4   5
ENDBRANCH   3   4
ENDBRANCH   2   3
ENDBRANCH   1   2
BRANCH   1  13
ATOM     13  C   UNL     1      45.399   8.770  18.540  1.00  0.00     0.000 C 
BRANCH  13  14
ATOM     14  C   UNL     1      46.032  10.145  18.273  1.00  0.00     0.000 C 
BRANCH  14  15
ATOM     15  C   UNL     1      45.856  10.607  16.816  1.00  0.00     0.000 C 
BRANCH  15  16
ATOM     16  C   UNL     1      46.806   9.890  15.844  1.00  0.00     0.000 C 
BRANCH  16  17
ATOM     17  C   UNL     1      46.237   9.803  14.417  1.00  0.00     0.000 C 
BRANCH  17  18
ATOM     18  C   UNL     1      45.902   8.359  14.010  1.00  0.00     0.000 C 
BRANCH  18  19
ATOM     19  C   UNL     1      44.834   7.734  14.924  1.00  0.00     0.000 C 
BRANCH  19  20
ATOM     20  C   UNL     1      45.176   6.289  15.322  1.00  0.00     0.006 C 
BRANCH  20  21
ATOM     21  C   UNL     1      46.123   5.617  14.320  1.00  0.00     0.053 C 
BRANCH  21  22
ATOM     22  C   UNL     1      47.355   5.126  15.013  1.00  0.00     0.041 C 
ATOM     23  O   UNL     1      47.617   5.505  16.185  1.00  0.00    -0.550 OA
ATOM     24  O   UNL     1      48.192   4.216  14.381  1.00  0.00    -0.550 OA
ENDBRANCH  21  22
ENDBRANCH  20  21
ENDBRANCH  19  20
ENDBRANCH  18  19
ENDBRANCH  17  18
ENDBRANCH  16  17
ENDBRANCH  15  16
ENDBRANCH  14  15
ENDBRANCH  13  14
ENDBRANCH   1  13
TORSDOF 20
ENDMDL
MODEL 4
REMARK VINA RESULT:    -4.294      3.583      8.240
REMARK INTER + INTRA:         -12.152
REMARK INTER:                  -9.440
REMARK INTRA:                  -2.712
REMARK UNBOUND:                -2.837
REMARK SMILES CCCCCCCCCCCCCCCCCCCCCC(=O)[O-]
REMARK SMILES IDX 12 1 11 2 10 3 9 4 8 5 7 6 6 7 5 8 4 9 3 10 2 11 1 12 13 13
REMARK SMILES IDX 14 14 15 15 16 16 17 17 18 18 19 19 20 20 21 21 22 22 23 23
REMARK SMILES IDX 24 24
REMARK H PARENT
REMARK Flexibility Score: inf
ROOT
ATOM      1  C   UNL     1      46.576   7.361  18.619  1.00  0.00     0.000 C 
ENDROOT
BRANCH   1   2
ATOM      2  C   UNL     1      45.197   7.714  18.034  1.00  0.00     0.000 C 
BRANCH   2   3
ATOM      3  C   UNL     1      44.438   8.782  18.851  1.00  0.00     0.000 C 
BRANCH   3   4
ATOM      4  C   UNL     1      44.844  10.209  18.453  1.00  0.00    -0.000 C 
BRANCH   4   5
ATOM      5  C   UNL     1      45.115  10.304  16.948  1.00  0.00    -0.000 C 
BRANCH   5   6
ATOM      6  C   UNL     1      46.547  10.783  16.677  1.00  0.00    -0.000 C 
BRANCH   6   7
ATOM      7  C   UNL     1      47.065  10.369  15.289  1.00  0.00    -0.000 C 
BRANCH   7   8
ATOM      8  C   UNL     1      45.971   9.784  14.371  1.00  0.00    -0.000 C 
BRANCH   8   9
ATOM      9  C   UNL     1      46.245   8.316  14.005  1.00  0.00    -0.000 C 
BRANCH   9  10
ATOM     10  C   UNL     1      45.047   7.426  14.366  1.00  0.00    -0.000 C 
BRANCH  10  11
ATOM     11  C   UNL     1      45.471   6.001  14.750  1.00  0.00    -0.003 C 
ATOM     12  C   UNL     1      46.923   5.926  15.227  1.00  0.00     0.004 C 
ENDBRANCH  10  11
ENDBRANCH   9  10
ENDBRANCH   8   9
ENDBRANCH   7   8
ENDBRANCH   6   7
ENDBRANCH   5   6
ENDBRANCH   4   5
ENDBRANCH   3   4
ENDBRANCH   2   3
ENDBRANCH   1   2
BRANCH   1  13
ATOM     13  C   UNL     1      46.644   7.567  20.140  1.00  0.00     0.000 C 
BRANCH  13  14
ATOM     14  C   UNL     1      47.072   6.294  20.888  1.00  0.00     0.000 C 
BRANCH  14  15
ATOM     15  C   UNL     1      47.829   6.597  22.192  1.00  0.00     0.000 C 
BRANCH  15  16
ATOM     16  C   UNL     1      47.913   8.102  22.497  1.00  0.00     0.000 C 
BRANCH  16  17
ATOM     17  C   UNL     1      46.795   8.576  23.442  1.00  0.00     0.000 C 
BRANCH  17  18
ATOM     18  C   UNL     1      46.530  10.085  23.319  1.00  0.00     0.000 C 
BRANCH  18  19
ATOM     19  C   UNL     1      45.434  10.397  22.285  1.00  0.00     0.000 C 
BRANCH  19  20
ATOM     20  C   UNL     1      44.089   9.744  22.641  1.00  0.00     0.006 C 
BRANCH  20  21
ATOM     21  C   UNL     1      43.261  10.604  23.604  1.00  0.00     0.053 C 
BRANCH  21  22
ATOM     22  C   UNL     1      42.869   9.809  24.809  1.00  0.00     0.041 C 
ATOM     23  O   UNL     1      43.753   9.312  25.556  1.00  0.00    -0.550 OA
ATOM     24  O   UNL     1      41.527   9.653  25.133  1.00  0.00    -0.550 OA
ENDBRANCH  21  22
ENDBRANCH  20  21
ENDBRANCH  19  20
ENDBRANCH  18  19
ENDBRANCH  17  18
ENDBRANCH  16  17
ENDBRANCH  15  16
ENDBRANCH  14  15
ENDBRANCH  13  14
ENDBRANCH   1  13
TORSDOF 20
ENDMDL
MODEL 5
REMARK VINA RESULT:    -4.128      2.484      7.692
REMARK INTER + INTRA:         -11.792
REMARK INTER:                  -8.464
REMARK INTRA:                  -3.328
REMARK UNBOUND:                -2.837
REMARK SMILES CCCCCCCCCCCCCCCCCCCCCC(=O)[O-]
REMARK SMILES IDX 12 1 11 2 10 3 9 4 8 5 7 6 6 7 5 8 4 9 3 10 2 11 1 12 13 13
REMARK SMILES IDX 14 14 15 15 16 16 17 17 18 18 19 19 20 20 21 21 22 22 23 23
REMARK SMILES IDX 24 24
REMARK H PARENT
REMARK Flexibility Score: inf
ROOT
ATOM      1  C   UNL     1      46.826   7.232  18.325  1.00  0.00     0.000 C 
ENDROOT
BRANCH   1   2
ATOM      2  C   UNL     1      46.460   6.316  17.145  1.00  0.00     0.000 C 
BRANCH   2   3
ATOM      3  C   UNL     1      47.690   5.740  16.409  1.00  0.00     0.000 C 
BRANCH   3   4
ATOM      4  C   UNL     1      47.292   4.931  15.166  1.00  0.00    -0.000 C 
BRANCH   4   5
ATOM      5  C   UNL     1      46.405   5.760  14.231  1.00  0.00    -0.000 C 
BRANCH   5   6
ATOM      6  C   UNL     1      45.030   5.101  14.051  1.00  0.00    -0.000 C 
BRANCH   6   7
ATOM      7  C   UNL     1      43.864   6.051  14.371  1.00  0.00    -0.000 C 
BRANCH   7   8
ATOM      8  C   UNL     1      44.246   7.545  14.300  1.00  0.00    -0.000 C 
BRANCH   8   9
ATOM      9  C   UNL     1      44.072   8.253  15.654  1.00  0.00    -0.000 C 
BRANCH   9  10
ATOM     10  C   UNL     1      44.802   9.603  15.668  1.00  0.00    -0.000 C 
BRANCH  10  11
ATOM     11  C   UNL     1      46.084   9.584  14.820  1.00  0.00    -0.003 C 
ATOM     12  C   UNL     1      47.345   9.815  15.653  1.00  0.00     0.004 C 
ENDBRANCH  10  11
ENDBRANCH   9  10
ENDBRANCH   8   9
ENDBRANCH   7   8
ENDBRANCH   6   7
ENDBRANCH   5   6
ENDBRANCH   4   5
ENDBRANCH   3   4
ENDBRANCH   2   3
ENDBRANCH   1   2
BRANCH   1  13
ATOM     13  C   UNL     1      45.629   8.053  18.831  1.00  0.00     0.000 C 
BRANCH  13  14
ATOM     14  C   UNL     1      46.024   9.482  19.234  1.00  0.00     0.000 C 
BRANCH  14  15
ATOM     15  C   UNL     1      44.827  10.448  19.252  1.00  0.00     0.000 C 
BRANCH  15  16
ATOM     16  C   UNL     1      43.785  10.086  20.323  1.00  0.00     0.000 C 
BRANCH  16  17
ATOM     17  C   UNL     1      43.735  11.112  21.469  1.00  0.00     0.000 C 
BRANCH  17  18
ATOM     18  C   UNL     1      43.819  10.445  22.851  1.00  0.00     0.000 C 
BRANCH  18  19
ATOM     19  C   UNL     1      44.164   8.949  22.752  1.00  0.00     0.000 C 
BRANCH  19  20
ATOM     20  C   UNL     1      45.496   8.607  23.438  1.00  0.00     0.006 C 
BRANCH  20  21
ATOM     21  C   UNL     1      46.703   9.186  22.690  1.00  0.00     0.053 C 
BRANCH  21  22
ATOM     22  C   UNL     1      47.769   8.148  22.534  1.00  0.00     0.041 C 
ATOM     23  O   UNL     1      47.552   7.115  21.848  1.00  0.00    -0.550 OA
ATOM     24  O   UNL     1      49.017   8.342  23.112  1.00  0.00    -0.550 OA
ENDBRANCH  21  22
ENDBRANCH  20  21
ENDBRANCH  19  20
ENDBRANCH  18  19
ENDBRANCH  17  18
ENDBRANCH  16  17
ENDBRANCH  15  16
ENDBRANCH  14  15
ENDBRANCH  13  14
ENDBRANCH   1  13
TORSDOF 20
ENDMDL
MODEL 6
REMARK VINA RESULT:    -4.036      1.486      1.763
REMARK INTER + INTRA:         -11.592
REMARK INTER:                  -8.732
REMARK INTRA:                  -2.859
REMARK UNBOUND:                -2.837
REMARK SMILES CCCCCCCCCCCCCCCCCCCCCC(=O)[O-]
REMARK SMILES IDX 12 1 11 2 10 3 9 4 8 5 7 6 6 7 5 8 4 9 3 10 2 11 1 12 13 13
REMARK SMILES IDX 14 14 15 15 16 16 17 17 18 18 19 19 20 20 21 21 22 22 23 23
REMARK SMILES IDX 24 24
REMARK H PARENT
REMARK Flexibility Score: inf
ROOT
ATOM      1  C   UNL     1      46.356   7.029  20.770  1.00  0.00     0.000 C 
ENDROOT
BRANCH   1   2
ATOM      2  C   UNL     1      47.563   7.255  21.697  1.00  0.00     0.000 C 
BRANCH   2   3
ATOM      3  C   UNL     1      47.183   7.860  23.066  1.00  0.00     0.000 C 
BRANCH   3   4
ATOM      4  C   UNL     1      47.747   9.278  23.246  1.00  0.00    -0.000 C 
BRANCH   4   5
ATOM      5  C   UNL     1      47.040  10.273  22.320  1.00  0.00    -0.000 C 
BRANCH   5   6
ATOM      6  C   UNL     1      46.013  11.110  23.096  1.00  0.00    -0.000 C 
BRANCH   6   7
ATOM      7  C   UNL     1      44.626  11.123  22.431  1.00  0.00    -0.000 C 
BRANCH   7   8
ATOM      8  C   UNL     1      44.093   9.716  22.087  1.00  0.00    -0.000 C 
BRANCH   8   9
ATOM      9  C   UNL     1      43.790   8.887  23.345  1.00  0.00    -0.000 C 
BRANCH   9  10
ATOM     10  C   UNL     1      43.091   9.740  24.412  1.00  0.00    -0.000 C 
BRANCH  10  11
ATOM     11  C   UNL     1      43.473   9.322  25.840  1.00  0.00    -0.003 C 
ATOM     12  C   UNL     1      44.942   8.912  25.960  1.00  0.00     0.004 C 
ENDBRANCH  10  11
ENDBRANCH   9  10
ENDBRANCH   8   9
ENDBRANCH   7   8
ENDBRANCH   6   7
ENDBRANCH   5   6
ENDBRANCH   4   5
ENDBRANCH   3   4
ENDBRANCH   2   3
ENDBRANCH   1   2
BRANCH   1  13
ATOM     13  C   UNL     1      46.749   6.990  19.285  1.00  0.00     0.000 C 
BRANCH  13  14
ATOM     14  C   UNL     1      45.835   7.865  18.412  1.00  0.00     0.000 C 
BRANCH  14  15
ATOM     15  C   UNL     1      45.860   9.347  18.824  1.00  0.00     0.000 C 
BRANCH  15  16
ATOM     16  C   UNL     1      44.717  10.160  18.195  1.00  0.00     0.000 C 
BRANCH  16  17
ATOM     17  C   UNL     1      44.443   9.764  16.734  1.00  0.00     0.000 C 
BRANCH  17  18
ATOM     18  C   UNL     1      45.433  10.418  15.758  1.00  0.00     0.000 C 
BRANCH  18  19
ATOM     19  C   UNL     1      46.362   9.385  15.097  1.00  0.00     0.000 C 
BRANCH  19  20
ATOM     20  C   UNL     1      45.640   8.542  14.034  1.00  0.00     0.006 C 
BRANCH  20  21
ATOM     21  C   UNL     1      45.998   7.054  14.127  1.00  0.00     0.053 C 
BRANCH  21  22
ATOM     22  C   UNL     1      44.828   6.265  14.624  1.00  0.00     0.041 C 
ATOM     23  O   UNL     1      44.094   6.725  15.537  1.00  0.00    -0.550 OA
ATOM     24  O   UNL     1      44.522   5.038  14.048  1.00  0.00    -0.550 OA
ENDBRANCH  21  22
ENDBRANCH  20  21
ENDBRANCH  19  20
ENDBRANCH  18  19
ENDBRANCH  17  18
ENDBRANCH  16  17
ENDBRANCH  15  16
ENDBRANCH  14  15
ENDBRANCH  13  14
ENDBRANCH   1  13
TORSDOF 20
ENDMDL
MODEL 7
REMARK VINA RESULT:    -4.018      3.307      7.903
REMARK INTER + INTRA:         -11.552
REMARK INTER:                  -9.251
REMARK INTRA:                  -2.301
REMARK UNBOUND:                -2.837
REMARK SMILES CCCCCCCCCCCCCCCCCCCCCC(=O)[O-]
REMARK SMILES IDX 12 1 11 2 10 3 9 4 8 5 7 6 6 7 5 8 4 9 3 10 2 11 1 12 13 13
REMARK SMILES IDX 14 14 15 15 16 16 17 17 18 18 19 19 20 20 21 21 22 22 23 23
REMARK SMILES IDX 24 24
REMARK H PARENT
REMARK Flexibility Score: inf
ROOT
ATOM      1  C   UNL     1      47.041   5.903  16.888  1.00  0.00     0.000 C 
ENDROOT
BRANCH   1   2
ATOM      2  C   UNL     1      47.057   5.887  15.349  1.00  0.00     0.000 C 
BRANCH   2   3
ATOM      3  C   UNL     1      45.648   5.837  14.720  1.00  0.00     0.000 C 
BRANCH   3   4
ATOM      4  C   UNL     1      44.862   7.134  14.962  1.00  0.00    -0.000 C 
BRANCH   4   5
ATOM      5  C   UNL     1      45.167   8.173  13.878  1.00  0.00    -0.000 C 
BRANCH   5   6
ATOM      6  C   UNL     1      46.374   9.037  14.268  1.00  0.00    -0.000 C 
BRANCH   6   7
ATOM      7  C   UNL     1      45.984  10.476  14.647  1.00  0.00    -0.000 C 
BRANCH   7   8
ATOM      8  C   UNL     1      45.824  10.693  16.166  1.00  0.00    -0.000 C 
BRANCH   8   9
ATOM      9  C   UNL     1      44.358  10.933  16.566  1.00  0.00    -0.000 C 
BRANCH   9  10
ATOM     10  C   UNL     1      43.857   9.831  17.508  1.00  0.00    -0.000 C 
BRANCH  10  11
ATOM     11  C   UNL     1      43.592  10.351  18.930  1.00  0.00    -0.003 C 
ATOM     12  C   UNL     1      44.875  10.750  19.659  1.00  0.00     0.004 C 
ENDBRANCH  10  11
ENDBRANCH   9  10
ENDBRANCH   8   9
ENDBRANCH   7   8
ENDBRANCH   6   7
ENDBRANCH   5   6
ENDBRANCH   4   5
ENDBRANCH   3   4
ENDBRANCH   2   3
ENDBRANCH   1   2
BRANCH   1  13
ATOM     13  C   UNL     1      47.120   7.324  17.466  1.00  0.00     0.000 C 
BRANCH  13  14
ATOM     14  C   UNL     1      46.219   7.509  18.697  1.00  0.00     0.000 C 
BRANCH  14  15
ATOM     15  C   UNL     1      46.795   6.847  19.960  1.00  0.00     0.000 C 
BRANCH  15  16
ATOM     16  C   UNL     1      46.553   7.676  21.232  1.00  0.00     0.000 C 
BRANCH  16  17
ATOM     17  C   UNL     1      47.713   7.570  22.237  1.00  0.00     0.000 C 
BRANCH  17  18
ATOM     18  C   UNL     1      47.915   8.869  23.033  1.00  0.00     0.000 C 
BRANCH  18  19
ATOM     19  C   UNL     1      46.809   9.900  22.747  1.00  0.00     0.000 C 
BRANCH  19  20
ATOM     20  C   UNL     1      46.305  10.589  24.026  1.00  0.00     0.006 C 
BRANCH  20  21
ATOM     21  C   UNL     1      44.779  10.518  24.163  1.00  0.00     0.053 C 
BRANCH  21  22
ATOM     22  C   UNL     1      44.389   9.415  25.095  1.00  0.00     0.041 C 
ATOM     23  O   UNL     1      43.289   9.459  25.705  1.00  0.00    -0.550 OA
ATOM     24  O   UNL     1      45.222   8.315  25.256  1.00  0.00    -0.550 OA
ENDBRANCH  21  22
ENDBRANCH  20  21
ENDBRANCH  19  20
ENDBRANCH  18  19
ENDBRANCH  17  18
ENDBRANCH  16  17
ENDBRANCH  15  16
ENDBRANCH  14  15
ENDBRANCH  13  14
ENDBRANCH   1  13
TORSDOF 20
ENDMDL
MODEL 8
REMARK VINA RESULT:    -4.013      2.197      7.721
REMARK INTER + INTRA:         -11.542
REMARK INTER:                  -9.152
REMARK INTRA:                  -2.391
REMARK UNBOUND:                -2.837
REMARK SMILES CCCCCCCCCCCCCCCCCCCCCC(=O)[O-]
REMARK SMILES IDX 12 1 11 2 10 3 9 4 8 5 7 6 6 7 5 8 4 9 3 10 2 11 1 12 13 13
REMARK SMILES IDX 14 14 15 15 16 16 17 17 18 18 19 19 20 20 21 21 22 22 23 23
REMARK SMILES IDX 24 24
REMARK H PARENT
REMARK Flexibility Score: inf
ROOT
ATOM      1  C   UNL     1      44.304   9.680  20.754  1.00  0.00     0.000 C 
ENDROOT
BRANCH   1   2
ATOM      2  C   UNL     1      44.362  10.020  19.254  1.00  0.00     0.000 C 
BRANCH   2   3
ATOM      3  C   UNL     1      45.747   9.768  18.620  1.00  0.00     0.000 C 
BRANCH   3   4
ATOM      4  C   UNL     1      46.156  10.896  17.662  1.00  0.00    -0.000 C 
BRANCH   4   5
ATOM      5  C   UNL     1      46.790  10.332  16.386  1.00  0.00    -0.000 C 
BRANCH   5   6
ATOM      6  C   UNL     1      45.834  10.464  15.192  1.00  0.00    -0.000 C 
BRANCH   6   7
ATOM      7  C   UNL     1      46.286   9.648  13.969  1.00  0.00    -0.000 C 
BRANCH   7   8
ATOM      8  C   UNL     1      46.078   8.128  14.130  1.00  0.00    -0.000 C 
BRANCH   8   9
ATOM      9  C   UNL     1      44.739   7.794  14.806  1.00  0.00    -0.000 C 
BRANCH   9  10
ATOM     10  C   UNL     1      44.893   6.623  15.786  1.00  0.00    -0.000 C 
BRANCH  10  11
ATOM     11  C   UNL     1      46.365   6.268  16.048  1.00  0.00    -0.003 C 
ATOM     12  C   UNL     1      46.813   6.626  17.465  1.00  0.00     0.004 C 
ENDBRANCH  10  11
ENDBRANCH   9  10
ENDBRANCH   8   9
ENDBRANCH   7   8
ENDBRANCH   6   7
ENDBRANCH   5   6
ENDBRANCH   4   5
ENDBRANCH   3   4
ENDBRANCH   2   3
ENDBRANCH   1   2
BRANCH   1  13
ATOM     13  C   UNL     1      44.219  10.932  21.641  1.00  0.00     0.000 C 
BRANCH  13  14
ATOM     14  C   UNL     1      42.993  10.913  22.569  1.00  0.00     0.000 C 
BRANCH  14  15
ATOM     15  C   UNL     1      43.363  11.116  24.048  1.00  0.00     0.000 C 
BRANCH  15  16
ATOM     16  C   UNL     1      42.908   9.951  24.942  1.00  0.00     0.000 C 
BRANCH  16  17
ATOM     17  C   UNL     1      44.084   9.255  25.650  1.00  0.00     0.000 C 
BRANCH  17  18
ATOM     18  C   UNL     1      45.445   9.698  25.092  1.00  0.00     0.000 C 
BRANCH  18  19
ATOM     19  C   UNL     1      45.973   8.729  24.020  1.00  0.00     0.000 C 
BRANCH  19  20
ATOM     20  C   UNL     1      47.050   9.370  23.130  1.00  0.00     0.006 C 
BRANCH  20  21
ATOM     21  C   UNL     1      48.256   8.447  22.917  1.00  0.00     0.053 C 
BRANCH  21  22
ATOM     22  C   UNL     1      47.854   7.233  22.140  1.00  0.00     0.041 C 
ATOM     23  O   UNL     1      48.139   6.084  22.567  1.00  0.00    -0.550 OA
ATOM     24  O   UNL     1      47.127   7.370  20.964  1.00  0.00    -0.550 OA
ENDBRANCH  21  22
ENDBRANCH  20  21
ENDBRANCH  19  20
ENDBRANCH  18  19
ENDBRANCH  17  18
ENDBRANCH  16  17
ENDBRANCH  15  16
ENDBRANCH  14  15
ENDBRANCH  13  14
ENDBRANCH   1  13
TORSDOF 20
ENDMDL
MODEL 9
REMARK VINA RESULT:    -3.925      4.717     10.032
REMARK INTER + INTRA:         -11.352
REMARK INTER:                 -10.146
REMARK INTRA:                  -1.206
REMARK UNBOUND:                -2.837
REMARK SMILES CCCCCCCCCCCCCCCCCCCCCC(=O)[O-]
REMARK SMILES IDX 12 1 11 2 10 3 9 4 8 5 7 6 6 7 5 8 4 9 3 10 2 11 1 12 13 13
REMARK SMILES IDX 14 14 15 15 16 16 17 17 18 18 19 19 20 20 21 21 22 22 23 23
REMARK SMILES IDX 24 24
REMARK H PARENT
REMARK Flexibility Score: inf
ROOT
ATOM      1  C   UNL     1      47.694   5.080  16.255  1.00  0.00     0.000 C 
ENDROOT
BRANCH   1   2
ATOM      2  C   UNL     1      47.631   5.030  14.719  1.00  0.00     0.000 C 
BRANCH   2   3
ATOM      3  C   UNL     1      47.170   3.663  14.167  1.00  0.00     0.000 C 
BRANCH   3   4
ATOM      4  C   UNL     1      45.650   3.615  13.945  1.00  0.00    -0.000 C 
BRANCH   4   5
ATOM      5  C   UNL     1      45.150   2.169  13.875  1.00  0.00    -0.000 C 
BRANCH   5   6
ATOM      6  C   UNL     1      46.311   1.177  14.038  1.00  0.00    -0.000 C 
BRANCH   6   7
ATOM      7  C   UNL     1      45.842  -0.286  14.120  1.00  0.00    -0.000 C 
BRANCH   7   8
ATOM      8  C   UNL     1      45.547  -0.759  15.559  1.00  0.00    -0.000 C 
BRANCH   8   9
ATOM      9  C   UNL     1      46.723  -1.543  16.164  1.00  0.00    -0.000 C 
BRANCH   9  10
ATOM     10  C   UNL     1      46.901  -2.897  15.463  1.00  0.00    -0.000 C 
BRANCH  10  11
ATOM     11  C   UNL     1      48.055  -3.718  16.060  1.00  0.00    -0.003 C 
ATOM     12  C   UNL     1      47.955  -3.857  17.580  1.00  0.00     0.004 C 
ENDBRANCH  10  11
ENDBRANCH   9  10
ENDBRANCH   8   9
ENDBRANCH   7   8
ENDBRANCH   6   7
ENDBRANCH   5   6
ENDBRANCH   4   5
ENDBRANCH   3   4
ENDBRANCH   2   3
ENDBRANCH   1   2
BRANCH   1  13
ATOM     13  C   UNL     1      46.913   6.267  16.841  1.00  0.00     0.000 C 
BRANCH  13  14
ATOM     14  C   UNL     1      46.063   6.990  15.785  1.00  0.00     0.000 C 
BRANCH  14  15
ATOM     15  C   UNL     1      45.316   8.208  16.354  1.00  0.00     0.000 C 
BRANCH  15  16
ATOM     16  C   UNL     1      44.228   7.819  17.369  1.00  0.00     0.000 C 
BRANCH  16  17
ATOM     17  C   UNL     1      44.123   8.818  18.535  1.00  0.00     0.000 C 
BRANCH  17  18
ATOM     18  C   UNL     1      45.498   9.330  18.989  1.00  0.00     0.000 C 
BRANCH  18  19
ATOM     19  C   UNL     1      45.766   9.031  20.475  1.00  0.00     0.000 C 
BRANCH  19  20
ATOM     20  C   UNL     1      46.405   7.650  20.689  1.00  0.00     0.006 C 
BRANCH  20  21
ATOM     21  C   UNL     1      47.223   7.580  21.984  1.00  0.00     0.053 C 
BRANCH  21  22
ATOM     22  C   UNL     1      46.730   8.593  22.969  1.00  0.00     0.041 C 
ATOM     23  O   UNL     1      47.458   9.566  23.296  1.00  0.00    -0.550 OA
ATOM     24  O   UNL     1      45.448   8.485  23.493  1.00  0.00    -0.550 OA
ENDBRANCH  21  22
ENDBRANCH  20  21
ENDBRANCH  19  20
ENDBRANCH  18  19
ENDBRANCH  17  18
ENDBRANCH  16  17
ENDBRANCH  15  16
ENDBRANCH  14  15
ENDBRANCH  13  14
ENDBRANCH   1  13
TORSDOF 20
ENDMDL
