MODEL 1
REMARK VINA RESULT:    -1.470      0.000      0.000
REMARK INTER + INTRA:          -9.656
REMARK INTER:                  -3.705
REMARK INTRA:                  -5.952
REMARK UNBOUND:                -5.952
REMARK SMILES CCCCCCCCCCCCCCCCCCCCCCCCCCCC(=O)[O-]
REMARK SMILES IDX 15 1 16 2 17 3 18 4 19 5 20 6 21 7 22 8 23 9 24 10 25 11
REMARK SMILES IDX 26 12 27 13 28 14 29 15 30 16 14 17 13 18 12 19 11 20 10 21
REMARK SMILES IDX 9 22 8 23 7 24 6 25 5 26 4 27 3 28 2 29 1 30
REMARK H PARENT
REMARK Flexibility Score: inf
ROOT
ATOM      1  C   UNL     1     -14.914 -22.846  27.748  1.00  0.00     0.000 C 
ENDROOT
BRANCH   1   2
ATOM      2  C   UNL     1     -15.516 -22.769  26.333  1.00  0.00     0.000 C 
BRANCH   2   3
ATOM      3  C   UNL     1     -16.097 -24.109  25.855  1.00  0.00     0.000 C 
BRANCH   3   4
ATOM      4  C   UNL     1     -16.424 -24.108  24.351  1.00  0.00     0.000 C 
BRANCH   4   5
ATOM      5  C   UNL     1     -17.834 -23.569  24.059  1.00  0.00     0.000 C 
BRANCH   5   6
ATOM      6  C   UNL     1     -18.877 -24.100  25.059  1.00  0.00     0.000 C 
BRANCH   6   7
ATOM      7  C   UNL     1     -19.859 -23.004  25.525  1.00  0.00     0.000 C 
BRANCH   7   8
ATOM      8  C   UNL     1     -19.182 -21.862  26.309  1.00  0.00     0.000 C 
BRANCH   8   9
ATOM      9  C   UNL     1     -19.730 -20.454  26.008  1.00  0.00     0.000 C 
BRANCH   9  10
ATOM     10  C   UNL     1     -18.905 -19.655  24.981  1.00  0.00     0.000 C 
BRANCH  10  11
ATOM     11  C   UNL     1     -17.439 -20.117  24.927  1.00  0.00     0.000 C 
BRANCH  11  12
ATOM     12  C   UNL     1     -16.451 -18.942  24.969  1.00  0.00     0.006 C 
BRANCH  12  13
ATOM     13  C   UNL     1     -16.154 -18.484  26.402  1.00  0.00     0.053 C 
BRANCH  13  14
ATOM     14  C   UNL     1     -16.446 -17.026  26.555  1.00  0.00     0.041 C 
ATOM     15  O   UNL     1     -17.581 -16.571  26.248  1.00  0.00    -0.550 OA
ATOM     16  O   UNL     1     -15.456 -16.159  26.998  1.00  0.00    -0.550 OA
ENDBRANCH  13  14
ENDBRANCH  12  13
ENDBRANCH  11  12
ENDBRANCH  10  11
ENDBRANCH   9  10
ENDBRANCH   8   9
ENDBRANCH   7   8
ENDBRANCH   6   7
ENDBRANCH   5   6
ENDBRANCH   4   5
ENDBRANCH   3   4
ENDBRANCH   2   3
ENDBRANCH   1   2
BRANCH   1  17
ATOM     17  C   UNL     1     -15.300 -21.642  28.630  1.00  0.00     0.000 C 
BRANCH  17  18
ATOM     18  C   UNL     1     -16.817 -21.421  28.810  1.00  0.00     0.000 C 
BRANCH  18  19
ATOM     19  C   UNL     1     -17.317 -21.508  30.264  1.00  0.00     0.000 C 
BRANCH  19  20
ATOM     20  C   UNL     1     -16.170 -21.555  31.283  1.00  0.00     0.000 C 
BRANCH  20  21
ATOM     21  C   UNL     1     -16.201 -22.866  32.077  1.00  0.00     0.000 C 
BRANCH  21  22
ATOM     22  C   UNL     1     -15.107 -23.829  31.601  1.00  0.00    -0.000 C 
BRANCH  22  23
ATOM     23  C   UNL     1     -15.680 -25.234  31.355  1.00  0.00    -0.000 C 
BRANCH  23  24
ATOM     24  C   UNL     1     -17.109 -25.197  30.773  1.00  0.00    -0.000 C 
BRANCH  24  25
ATOM     25  C   UNL     1     -17.156 -25.245  29.237  1.00  0.00    -0.000 C 
BRANCH  25  26
ATOM     26  C   UNL     1     -18.456 -24.664  28.657  1.00  0.00    -0.000 C 
BRANCH  26  27
ATOM     27  C   UNL     1     -19.607 -24.664  29.675  1.00  0.00    -0.000 C 
BRANCH  27  28
ATOM     28  C   UNL     1     -20.735 -23.689  29.295  1.00  0.00    -0.000 C 
BRANCH  28  29
ATOM     29  C   UNL     1     -20.808 -22.480  30.241  1.00  0.00    -0.003 C 
ATOM     30  C   UNL     1     -20.957 -21.154  29.495  1.00  0.00     0.004 C 
ENDBRANCH  28  29
ENDBRANCH  27  28
ENDBRANCH  26  27
ENDBRANCH  25  26
ENDBRANCH  24  25
ENDBRANCH  23  24
ENDBRANCH  22  23
ENDBRANCH  21  22
ENDBRANCH  20  21
ENDBRANCH  19  20
ENDBRANCH  18  19
ENDBRANCH  17  18
ENDBRANCH   1  17
TORSDOF 26
ENDMDL
MODEL 2
REMARK VINA RESULT:    -1.240      3.263      6.050
REMARK INTER + INTRA:          -9.076
REMARK INTER:                  -2.582
REMARK INTRA:                  -6.494
REMARK UNBOUND:                -5.952
REMARK SMILES CCCCCCCCCCCCCCCCCCCCCCCCCCCC(=O)[O-]
REMARK SMILES IDX 15 1 16 2 17 3 18 4 19 5 20 6 21 7 22 8 23 9 24 10 25 11
REMARK SMILES IDX 26 12 27 13 28 14 29 15 30 16 14 17 13 18 12 19 11 20 10 21
REMARK SMILES IDX 9 22 8 23 7 24 6 25 5 26 4 27 3 28 2 29 1 30
REMARK H PARENT
REMARK Flexibility Score: inf
ROOT
ATOM      1  C   UNL     1     -18.842 -22.765  28.459  1.00  0.00     0.000 C 
ENDROOT
BRANCH   1   2
ATOM      2  C   UNL     1     -19.397 -21.957  29.646  1.00  0.00     0.000 C 
BRANCH   2   3
ATOM      3  C   UNL     1     -19.895 -22.846  30.796  1.00  0.00     0.000 C 
BRANCH   3   4
ATOM      4  C   UNL     1     -19.740 -24.346  30.493  1.00  0.00     0.000 C 
BRANCH   4   5
ATOM      5  C   UNL     1     -20.145 -25.230  31.685  1.00  0.00     0.000 C 
BRANCH   5   6
ATOM      6  C   UNL     1     -19.791 -26.710  31.455  1.00  0.00     0.000 C 
BRANCH   6   7
ATOM      7  C   UNL     1     -20.610 -27.342  30.310  1.00  0.00     0.000 C 
BRANCH   7   8
ATOM      8  C   UNL     1     -22.135 -27.290  30.541  1.00  0.00     0.000 C 
BRANCH   8   9
ATOM      9  C   UNL     1     -22.986 -27.298  29.257  1.00  0.00     0.000 C 
BRANCH   9  10
ATOM     10  C   UNL     1     -23.856 -26.042  29.061  1.00  0.00     0.000 C 
BRANCH  10  11
ATOM     11  C   UNL     1     -23.480 -24.916  30.039  1.00  0.00     0.000 C 
BRANCH  11  12
ATOM     12  C   UNL     1     -23.224 -23.580  29.325  1.00  0.00     0.006 C 
BRANCH  12  13
ATOM     13  C   UNL     1     -22.450 -23.761  28.014  1.00  0.00     0.053 C 
BRANCH  13  14
ATOM     14  C   UNL     1     -22.590 -22.545  27.155  1.00  0.00     0.041 C 
ATOM     15  O   UNL     1     -22.197 -21.424  27.574  1.00  0.00    -0.550 OA
ATOM     16  O   UNL     1     -23.191 -22.640  25.906  1.00  0.00    -0.550 OA
ENDBRANCH  13  14
ENDBRANCH  12  13
ENDBRANCH  11  12
ENDBRANCH  10  11
ENDBRANCH   9  10
ENDBRANCH   8   9
ENDBRANCH   7   8
ENDBRANCH   6   7
ENDBRANCH   5   6
ENDBRANCH   4   5
ENDBRANCH   3   4
ENDBRANCH   2   3
ENDBRANCH   1   2
BRANCH   1  17
ATOM     17  C   UNL     1     -17.349 -22.489  28.192  1.00  0.00     0.000 C 
BRANCH  17  18
ATOM     18  C   UNL     1     -16.697 -21.451  29.129  1.00  0.00     0.000 C 
BRANCH  18  19
ATOM     19  C   UNL     1     -15.673 -22.028  30.123  1.00  0.00     0.000 C 
BRANCH  19  20
ATOM     20  C   UNL     1     -16.176 -22.002  31.573  1.00  0.00     0.000 C 
BRANCH  20  21
ATOM     21  C   UNL     1     -16.493 -23.420  32.064  1.00  0.00     0.000 C 
BRANCH  21  22
ATOM     22  C   UNL     1     -15.516 -24.444  31.475  1.00  0.00    -0.000 C 
BRANCH  22  23
ATOM     23  C   UNL     1     -16.269 -25.639  30.870  1.00  0.00    -0.000 C 
BRANCH  23  24
ATOM     24  C   UNL     1     -16.131 -25.709  29.334  1.00  0.00    -0.000 C 
BRANCH  24  25
ATOM     25  C   UNL     1     -17.323 -26.380  28.633  1.00  0.00    -0.000 C 
BRANCH  25  26
ATOM     26  C   UNL     1     -17.145 -26.484  27.109  1.00  0.00    -0.000 C 
BRANCH  26  27
ATOM     27  C   UNL     1     -18.347 -25.919  26.337  1.00  0.00    -0.000 C 
BRANCH  27  28
ATOM     28  C   UNL     1     -19.656 -25.989  27.142  1.00  0.00    -0.000 C 
BRANCH  28  29
ATOM     29  C   UNL     1     -20.757 -26.766  26.404  1.00  0.00    -0.003 C 
ATOM     30  C   UNL     1     -20.203 -27.909  25.551  1.00  0.00     0.004 C 
ENDBRANCH  28  29
ENDBRANCH  27  28
ENDBRANCH  26  27
ENDBRANCH  25  26
ENDBRANCH  24  25
ENDBRANCH  23  24
ENDBRANCH  22  23
ENDBRANCH  21  22
ENDBRANCH  20  21
ENDBRANCH  19  20
ENDBRANCH  18  19
ENDBRANCH  17  18
ENDBRANCH   1  17
TORSDOF 26
ENDMDL
MODEL 3
REMARK VINA RESULT:    -1.221      3.370      5.186
REMARK INTER + INTRA:          -9.027
REMARK INTER:                  -3.292
REMARK INTRA:                  -5.736
REMARK UNBOUND:                -5.952
REMARK SMILES CCCCCCCCCCCCCCCCCCCCCCCCCCCC(=O)[O-]
REMARK SMILES IDX 15 1 16 2 17 3 18 4 19 5 20 6 21 7 22 8 23 9 24 10 25 11
REMARK SMILES IDX 26 12 27 13 28 14 29 15 30 16 14 17 13 18 12 19 11 20 10 21
REMARK SMILES IDX 9 22 8 23 7 24 6 25 5 26 4 27 3 28 2 29 1 30
REMARK H PARENT
REMARK Flexibility Score: inf
ROOT
ATOM      1  C   UNL     1     -18.055 -22.866  27.627  1.00  0.00     0.000 C 
ENDROOT
BRANCH   1   2
ATOM      2  C   UNL     1     -19.076 -24.017  27.676  1.00  0.00     0.000 C 
BRANCH   2   3
ATOM      3  C   UNL     1     -18.519 -25.338  27.124  1.00  0.00     0.000 C 
BRANCH   3   4
ATOM      4  C   UNL     1     -19.581 -26.450  27.070  1.00  0.00     0.000 C 
BRANCH   4   5
ATOM      5  C   UNL     1     -20.987 -25.936  27.420  1.00  0.00     0.000 C 
BRANCH   5   6
ATOM      6  C   UNL     1     -21.853 -27.022  28.083  1.00  0.00     0.000 C 
BRANCH   6   7
ATOM      7  C   UNL     1     -22.570 -26.512  29.351  1.00  0.00     0.000 C 
BRANCH   7   8
ATOM      8  C   UNL     1     -21.659 -25.693  30.289  1.00  0.00     0.000 C 
BRANCH   8   9
ATOM      9  C   UNL     1     -22.086 -24.227  30.492  1.00  0.00     0.000 C 
BRANCH   9  10
ATOM     10  C   UNL     1     -22.969 -23.659  29.365  1.00  0.00     0.000 C 
BRANCH  10  11
ATOM     11  C   UNL     1     -22.514 -22.259  28.918  1.00  0.00     0.000 C 
BRANCH  11  12
ATOM     12  C   UNL     1     -22.666 -21.210  30.030  1.00  0.00     0.006 C 
BRANCH  12  13
ATOM     13  C   UNL     1     -21.795 -19.971  29.782  1.00  0.00     0.053 C 
BRANCH  13  14
ATOM     14  C   UNL     1     -21.588 -19.217  31.057  1.00  0.00     0.041 C 
ATOM     15  O   UNL     1     -20.726 -19.605  31.890  1.00  0.00    -0.550 OA
ATOM     16  O   UNL     1     -22.374 -18.109  31.346  1.00  0.00    -0.550 OA
ENDBRANCH  13  14
ENDBRANCH  12  13
ENDBRANCH  11  12
ENDBRANCH  10  11
ENDBRANCH   9  10
ENDBRANCH   8   9
ENDBRANCH   7   8
ENDBRANCH   6   7
ENDBRANCH   5   6
ENDBRANCH   4   5
ENDBRANCH   3   4
ENDBRANCH   2   3
ENDBRANCH   1   2
BRANCH   1  17
ATOM     17  C   UNL     1     -18.125 -21.949  28.863  1.00  0.00     0.000 C 
BRANCH  17  18
ATOM     18  C   UNL     1     -19.058 -22.437  29.990  1.00  0.00     0.000 C 
BRANCH  18  19
ATOM     19  C   UNL     1     -18.504 -22.260  31.415  1.00  0.00     0.000 C 
BRANCH  19  20
ATOM     20  C   UNL     1     -17.462 -21.137  31.509  1.00  0.00     0.000 C 
BRANCH  20  21
ATOM     21  C   UNL     1     -16.156 -21.656  32.124  1.00  0.00     0.000 C 
BRANCH  21  22
ATOM     22  C   UNL     1     -16.071 -23.184  32.039  1.00  0.00    -0.000 C 
BRANCH  22  23
ATOM     23  C   UNL     1     -15.236 -23.621  30.825  1.00  0.00    -0.000 C 
BRANCH  23  24
ATOM     24  C   UNL     1     -15.914 -24.747  30.015  1.00  0.00    -0.000 C 
BRANCH  24  25
ATOM     25  C   UNL     1     -16.533 -25.853  30.884  1.00  0.00    -0.000 C 
BRANCH  25  26
ATOM     26  C   UNL     1     -18.036 -26.048  30.629  1.00  0.00    -0.000 C 
BRANCH  26  27
ATOM     27  C   UNL     1     -18.547 -27.407  31.132  1.00  0.00    -0.000 C 
BRANCH  27  28
ATOM     28  C   UNL     1     -18.869 -28.380  29.984  1.00  0.00    -0.000 C 
BRANCH  28  29
ATOM     29  C   UNL     1     -19.560 -29.661  30.479  1.00  0.00    -0.003 C 
ATOM     30  C   UNL     1     -20.916 -29.387  31.129  1.00  0.00     0.004 C 
ENDBRANCH  28  29
ENDBRANCH  27  28
ENDBRANCH  26  27
ENDBRANCH  25  26
ENDBRANCH  24  25
ENDBRANCH  23  24
ENDBRANCH  22  23
ENDBRANCH  21  22
ENDBRANCH  20  21
ENDBRANCH  19  20
ENDBRANCH  18  19
ENDBRANCH  17  18
ENDBRANCH   1  17
TORSDOF 26
ENDMDL
MODEL 4
REMARK VINA RESULT:    -1.212      2.508      5.289
REMARK INTER + INTRA:          -9.005
REMARK INTER:                  -3.798
REMARK INTRA:                  -5.208
REMARK UNBOUND:                -5.952
REMARK SMILES CCCCCCCCCCCCCCCCCCCCCCCCCCCC(=O)[O-]
REMARK SMILES IDX 15 1 16 2 17 3 18 4 19 5 20 6 21 7 22 8 23 9 24 10 25 11
REMARK SMILES IDX 26 12 27 13 28 14 29 15 30 16 14 17 13 18 12 19 11 20 10 21
REMARK SMILES IDX 9 22 8 23 7 24 6 25 5 26 4 27 3 28 2 29 1 30
REMARK H PARENT
REMARK Flexibility Score: inf
ROOT
ATOM      1  C   UNL     1     -18.801 -25.045  29.456  1.00  0.00     0.000 C 
ENDROOT
BRANCH   1   2
ATOM      2  C   UNL     1     -19.612 -25.650  28.296  1.00  0.00     0.000 C 
BRANCH   2   3
ATOM      3  C   UNL     1     -18.879 -26.797  27.585  1.00  0.00     0.000 C 
BRANCH   3   4
ATOM      4  C   UNL     1     -17.787 -27.434  28.462  1.00  0.00     0.000 C 
BRANCH   4   5
ATOM      5  C   UNL     1     -16.383 -27.286  27.851  1.00  0.00     0.000 C 
BRANCH   5   6
ATOM      6  C   UNL     1     -16.418 -26.568  26.490  1.00  0.00     0.000 C 
BRANCH   6   7
ATOM      7  C   UNL     1     -15.504 -25.324  26.456  1.00  0.00     0.000 C 
BRANCH   7   8
ATOM      8  C   UNL     1     -15.208 -24.738  27.852  1.00  0.00     0.000 C 
BRANCH   8   9
ATOM      9  C   UNL     1     -15.488 -23.230  27.995  1.00  0.00     0.000 C 
BRANCH   9  10
ATOM     10  C   UNL     1     -16.967 -22.837  27.822  1.00  0.00     0.000 C 
BRANCH  10  11
ATOM     11  C   UNL     1     -17.135 -21.360  27.425  1.00  0.00     0.000 C 
BRANCH  11  12
ATOM     12  C   UNL     1     -18.399 -21.117  26.588  1.00  0.00     0.006 C 
BRANCH  12  13
ATOM     13  C   UNL     1     -19.526 -22.098  26.938  1.00  0.00     0.053 C 
BRANCH  13  14
ATOM     14  C   UNL     1     -20.853 -21.519  26.566  1.00  0.00     0.041 C 
ATOM     15  O   UNL     1     -21.914 -22.014  27.033  1.00  0.00    -0.550 OA
ATOM     16  O   UNL     1     -20.925 -20.459  25.670  1.00  0.00    -0.550 OA
ENDBRANCH  13  14
ENDBRANCH  12  13
ENDBRANCH  11  12
ENDBRANCH  10  11
ENDBRANCH   9  10
ENDBRANCH   8   9
ENDBRANCH   7   8
ENDBRANCH   6   7
ENDBRANCH   5   6
ENDBRANCH   4   5
ENDBRANCH   3   4
ENDBRANCH   2   3
ENDBRANCH   1   2
BRANCH   1  17
ATOM     17  C   UNL     1     -19.531 -25.138  30.810  1.00  0.00     0.000 C 
BRANCH  17  18
ATOM     18  C   UNL     1     -19.832 -23.784  31.487  1.00  0.00     0.000 C 
BRANCH  18  19
ATOM     19  C   UNL     1     -20.352 -22.687  30.540  1.00  0.00     0.000 C 
BRANCH  19  20
ATOM     20  C   UNL     1     -19.442 -21.452  30.506  1.00  0.00     0.000 C 
BRANCH  20  21
ATOM     21  C   UNL     1     -19.233 -20.892  31.918  1.00  0.00     0.000 C 
BRANCH  21  22
ATOM     22  C   UNL     1     -17.785 -20.432  32.125  1.00  0.00    -0.000 C 
BRANCH  22  23
ATOM     23  C   UNL     1     -16.810 -21.300  31.314  1.00  0.00    -0.000 C 
BRANCH  23  24
ATOM     24  C   UNL     1     -16.296 -22.517  32.112  1.00  0.00    -0.000 C 
BRANCH  24  25
ATOM     25  C   UNL     1     -15.287 -23.384  31.342  1.00  0.00    -0.000 C 
BRANCH  25  26
ATOM     26  C   UNL     1     -14.969 -24.711  32.051  1.00  0.00    -0.000 C 
BRANCH  26  27
ATOM     27  C   UNL     1     -15.680 -25.909  31.403  1.00  0.00    -0.000 C 
BRANCH  27  28
ATOM     28  C   UNL     1     -15.068 -27.258  31.821  1.00  0.00    -0.000 C 
BRANCH  28  29
ATOM     29  C   UNL     1     -16.036 -28.432  31.604  1.00  0.00    -0.003 C 
ATOM     30  C   UNL     1     -15.352 -29.655  30.991  1.00  0.00     0.004 C 
ENDBRANCH  28  29
ENDBRANCH  27  28
ENDBRANCH  26  27
ENDBRANCH  25  26
ENDBRANCH  24  25
ENDBRANCH  23  24
ENDBRANCH  22  23
ENDBRANCH  21  22
ENDBRANCH  20  21
ENDBRANCH  19  20
ENDBRANCH  18  19
ENDBRANCH  17  18
ENDBRANCH   1  17
TORSDOF 26
ENDMDL
MODEL 5
REMARK VINA RESULT:    -1.185     18.909     22.077
REMARK INTER + INTRA:          -8.937
REMARK INTER:                  -3.173
REMARK INTRA:                  -5.763
REMARK UNBOUND:                -5.952
REMARK SMILES CCCCCCCCCCCCCCCCCCCCCCCCCCCC(=O)[O-]
REMARK SMILES IDX 15 1 16 2 17 3 18 4 19 5 20 6 21 7 22 8 23 9 24 10 25 11
REMARK SMILES IDX 26 12 27 13 28 14 29 15 30 16 14 17 13 18 12 19 11 20 10 21
REMARK SMILES IDX 9 22 8 23 7 24 6 25 5 26 4 27 3 28 2 29 1 30
REMARK H PARENT
REMARK Flexibility Score: inf
ROOT
ATOM      1  C   UNL     1     -30.370 -31.395  15.782  1.00  0.00     0.000 C 
ENDROOT
BRANCH   1   2
ATOM      2  C   UNL     1     -30.204 -31.398  14.251  1.00  0.00     0.000 C 
BRANCH   2   3
ATOM      3  C   UNL     1     -31.433 -31.956  13.516  1.00  0.00     0.000 C 
BRANCH   3   4
ATOM      4  C   UNL     1     -32.253 -30.857  12.818  1.00  0.00     0.000 C 
BRANCH   4   5
ATOM      5  C   UNL     1     -33.475 -31.422  12.074  1.00  0.00     0.000 C 
BRANCH   5   6
ATOM      6  C   UNL     1     -34.801 -30.936  12.686  1.00  0.00     0.000 C 
BRANCH   6   7
ATOM      7  C   UNL     1     -34.944 -31.329  14.172  1.00  0.00     0.000 C 
BRANCH   7   8
ATOM      8  C   UNL     1     -35.112 -30.121  15.117  1.00  0.00     0.000 C 
BRANCH   8   9
ATOM      9  C   UNL     1     -33.797 -29.550  15.680  1.00  0.00     0.000 C 
BRANCH   9  10
ATOM     10  C   UNL     1     -33.707 -29.557  17.218  1.00  0.00     0.000 C 
BRANCH  10  11
ATOM     11  C   UNL     1     -32.646 -28.575  17.743  1.00  0.00     0.000 C 
BRANCH  11  12
ATOM     12  C   UNL     1     -31.656 -28.141  16.652  1.00  0.00     0.006 C 
BRANCH  12  13
ATOM     13  C   UNL     1     -30.234 -27.960  17.196  1.00  0.00     0.053 C 
BRANCH  13  14
ATOM     14  C   UNL     1     -29.260 -27.814  16.070  1.00  0.00     0.041 C 
ATOM     15  O   UNL     1     -28.030 -27.685  16.309  1.00  0.00    -0.550 OA
ATOM     16  O   UNL     1     -29.714 -27.779  14.757  1.00  0.00    -0.550 OA
ENDBRANCH  13  14
ENDBRANCH  12  13
ENDBRANCH  11  12
ENDBRANCH  10  11
ENDBRANCH   9  10
ENDBRANCH   8   9
ENDBRANCH   7   8
ENDBRANCH   6   7
ENDBRANCH   5   6
ENDBRANCH   4   5
ENDBRANCH   3   4
ENDBRANCH   2   3
ENDBRANCH   1   2
BRANCH   1  17
ATOM     17  C   UNL     1     -29.369 -32.326  16.494  1.00  0.00     0.000 C 
BRANCH  17  18
ATOM     18  C   UNL     1     -29.038 -33.632  15.742  1.00  0.00     0.000 C 
BRANCH  18  19
ATOM     19  C   UNL     1     -29.585 -34.914  16.395  1.00  0.00     0.000 C 
BRANCH  19  20
ATOM     20  C   UNL     1     -30.125 -35.918  15.367  1.00  0.00     0.000 C 
BRANCH  20  21
ATOM     21  C   UNL     1     -30.214 -35.279  13.976  1.00  0.00     0.000 C 
BRANCH  21  22
ATOM     22  C   UNL     1     -31.100 -36.108  13.039  1.00  0.00    -0.000 C 
BRANCH  22  23
ATOM     23  C   UNL     1     -31.972 -35.200  12.159  1.00  0.00    -0.000 C 
BRANCH  23  24
ATOM     24  C   UNL     1     -33.479 -35.495  12.313  1.00  0.00    -0.000 C 
BRANCH  24  25
ATOM     25  C   UNL     1     -34.145 -34.740  13.475  1.00  0.00    -0.000 C 
BRANCH  25  26
ATOM     26  C   UNL     1     -34.595 -35.667  14.616  1.00  0.00    -0.000 C 
BRANCH  26  27
ATOM     27  C   UNL     1     -33.755 -35.482  15.890  1.00  0.00    -0.000 C 
BRANCH  27  28
ATOM     28  C   UNL     1     -33.158 -34.068  16.005  1.00  0.00    -0.000 C 
BRANCH  28  29
ATOM     29  C   UNL     1     -33.719 -33.293  17.208  1.00  0.00    -0.003 C 
ATOM     30  C   UNL     1     -32.633 -32.888  18.207  1.00  0.00     0.004 C 
ENDBRANCH  28  29
ENDBRANCH  27  28
ENDBRANCH  26  27
ENDBRANCH  25  26
ENDBRANCH  24  25
ENDBRANCH  23  24
ENDBRANCH  22  23
ENDBRANCH  21  22
ENDBRANCH  20  21
ENDBRANCH  19  20
ENDBRANCH  18  19
ENDBRANCH  17  18
ENDBRANCH   1  17
TORSDOF 26
ENDMDL
MODEL 6
REMARK VINA RESULT:    -1.138     19.220     22.453
REMARK INTER + INTRA:          -8.818
REMARK INTER:                  -2.969
REMARK INTRA:                  -5.849
REMARK UNBOUND:                -5.952
REMARK SMILES CCCCCCCCCCCCCCCCCCCCCCCCCCCC(=O)[O-]
REMARK SMILES IDX 15 1 16 2 17 3 18 4 19 5 20 6 21 7 22 8 23 9 24 10 25 11
REMARK SMILES IDX 26 12 27 13 28 14 29 15 30 16 14 17 13 18 12 19 11 20 10 21
REMARK SMILES IDX 9 22 8 23 7 24 6 25 5 26 4 27 3 28 2 29 1 30
REMARK H PARENT
REMARK Flexibility Score: inf
ROOT
ATOM      1  C   UNL     1     -30.340 -30.290  14.805  1.00  0.00     0.000 C 
ENDROOT
BRANCH   1   2
ATOM      2  C   UNL     1     -30.532 -31.479  13.846  1.00  0.00     0.000 C 
BRANCH   2   3
ATOM      3  C   UNL     1     -29.630 -31.400  12.605  1.00  0.00     0.000 C 
BRANCH   3   4
ATOM      4  C   UNL     1     -28.655 -32.587  12.506  1.00  0.00     0.000 C 
BRANCH   4   5
ATOM      5  C   UNL     1     -29.380 -33.920  12.250  1.00  0.00     0.000 C 
BRANCH   5   6
ATOM      6  C   UNL     1     -28.764 -35.078  13.056  1.00  0.00     0.000 C 
BRANCH   6   7
ATOM      7  C   UNL     1     -29.811 -35.825  13.909  1.00  0.00     0.000 C 
BRANCH   7   8
ATOM      8  C   UNL     1     -29.670 -35.571  15.423  1.00  0.00     0.000 C 
BRANCH   8   9
ATOM      9  C   UNL     1     -29.997 -34.134  15.874  1.00  0.00     0.000 C 
BRANCH   9  10
ATOM     10  C   UNL     1     -28.850 -33.421  16.613  1.00  0.00     0.000 C 
BRANCH  10  11
ATOM     11  C   UNL     1     -29.349 -32.617  17.826  1.00  0.00     0.000 C 
BRANCH  11  12
ATOM     12  C   UNL     1     -30.877 -32.464  17.839  1.00  0.00     0.006 C 
BRANCH  12  13
ATOM     13  C   UNL     1     -31.342 -31.358  18.795  1.00  0.00     0.053 C 
BRANCH  13  14
ATOM     14  C   UNL     1     -32.083 -31.947  19.952  1.00  0.00     0.041 C 
ATOM     15  O   UNL     1     -31.478 -32.660  20.796  1.00  0.00    -0.550 OA
ATOM     16  O   UNL     1     -33.452 -31.744  20.079  1.00  0.00    -0.550 OA
ENDBRANCH  13  14
ENDBRANCH  12  13
ENDBRANCH  11  12
ENDBRANCH  10  11
ENDBRANCH   9  10
ENDBRANCH   8   9
ENDBRANCH   7   8
ENDBRANCH   6   7
ENDBRANCH   5   6
ENDBRANCH   4   5
ENDBRANCH   3   4
ENDBRANCH   2   3
ENDBRANCH   1   2
BRANCH   1  17
ATOM     17  C   UNL     1     -31.671 -29.758  15.373  1.00  0.00     0.000 C 
BRANCH  17  18
ATOM     18  C   UNL     1     -32.883 -30.696  15.190  1.00  0.00     0.000 C 
BRANCH  18  19
ATOM     19  C   UNL     1     -33.837 -30.307  14.046  1.00  0.00     0.000 C 
BRANCH  19  20
ATOM     20  C   UNL     1     -35.004 -31.291  13.888  1.00  0.00     0.000 C 
BRANCH  20  21
ATOM     21  C   UNL     1     -35.009 -31.907  12.484  1.00  0.00     0.000 C 
BRANCH  21  22
ATOM     22  C   UNL     1     -33.587 -32.235  12.015  1.00  0.00    -0.000 C 
BRANCH  22  23
ATOM     23  C   UNL     1     -33.326 -33.749  12.065  1.00  0.00    -0.000 C 
BRANCH  23  24
ATOM     24  C   UNL     1     -32.806 -34.215  13.442  1.00  0.00    -0.000 C 
BRANCH  24  25
ATOM     25  C   UNL     1     -33.852 -34.967  14.279  1.00  0.00    -0.000 C 
BRANCH  25  26
ATOM     26  C   UNL     1     -34.011 -34.397  15.698  1.00  0.00    -0.000 C 
BRANCH  26  27
ATOM     27  C   UNL     1     -33.551 -35.383  16.783  1.00  0.00    -0.000 C 
BRANCH  27  28
ATOM     28  C   UNL     1     -33.627 -34.784  18.199  1.00  0.00    -0.000 C 
BRANCH  28  29
ATOM     29  C   UNL     1     -32.835 -35.607  19.227  1.00  0.00    -0.003 C 
ATOM     30  C   UNL     1     -31.378 -35.822  18.816  1.00  0.00     0.004 C 
ENDBRANCH  28  29
ENDBRANCH  27  28
ENDBRANCH  26  27
ENDBRANCH  25  26
ENDBRANCH  24  25
ENDBRANCH  23  24
ENDBRANCH  22  23
ENDBRANCH  21  22
ENDBRANCH  20  21
ENDBRANCH  19  20
ENDBRANCH  18  19
ENDBRANCH  17  18
ENDBRANCH   1  17
TORSDOF 26
ENDMDL
MODEL 7
REMARK VINA RESULT:    -1.105      2.561      6.724
REMARK INTER + INTRA:          -8.737
REMARK INTER:                  -3.102
REMARK INTRA:                  -5.635
REMARK UNBOUND:                -5.952
REMARK SMILES CCCCCCCCCCCCCCCCCCCCCCCCCCCC(=O)[O-]
REMARK SMILES IDX 15 1 16 2 17 3 18 4 19 5 20 6 21 7 22 8 23 9 24 10 25 11
REMARK SMILES IDX 26 12 27 13 28 14 29 15 30 16 14 17 13 18 12 19 11 20 10 21
REMARK SMILES IDX 9 22 8 23 7 24 6 25 5 26 4 27 3 28 2 29 1 30
REMARK H PARENT
REMARK Flexibility Score: inf
ROOT
ATOM      1  C   UNL     1     -20.265 -23.795  28.567  1.00  0.00     0.000 C 
ENDROOT
BRANCH   1   2
ATOM      2  C   UNL     1     -20.442 -24.626  29.851  1.00  0.00     0.000 C 
BRANCH   2   3
ATOM      3  C   UNL     1     -19.583 -25.900  29.863  1.00  0.00     0.000 C 
BRANCH   3   4
ATOM      4  C   UNL     1     -18.528 -25.891  30.983  1.00  0.00     0.000 C 
BRANCH   4   5
ATOM      5  C   UNL     1     -17.307 -26.764  30.646  1.00  0.00     0.000 C 
BRANCH   5   6
ATOM      6  C   UNL     1     -16.060 -25.918  30.330  1.00  0.00     0.000 C 
BRANCH   6   7
ATOM      7  C   UNL     1     -15.722 -24.921  31.459  1.00  0.00     0.000 C 
BRANCH   7   8
ATOM      8  C   UNL     1     -14.987 -23.658  30.966  1.00  0.00     0.000 C 
BRANCH   8   9
ATOM      9  C   UNL     1     -15.788 -22.348  31.097  1.00  0.00     0.000 C 
BRANCH   9  10
ATOM     10  C   UNL     1     -17.193 -22.519  31.706  1.00  0.00     0.000 C 
BRANCH  10  11
ATOM     11  C   UNL     1     -18.147 -21.383  31.297  1.00  0.00     0.000 C 
BRANCH  11  12
ATOM     12  C   UNL     1     -19.612 -21.699  31.631  1.00  0.00     0.006 C 
BRANCH  12  13
ATOM     13  C   UNL     1     -20.588 -20.758  30.913  1.00  0.00     0.053 C 
BRANCH  13  14
ATOM     14  C   UNL     1     -21.963 -21.345  30.898  1.00  0.00     0.041 C 
ATOM     15  O   UNL     1     -22.626 -21.379  29.827  1.00  0.00    -0.550 OA
ATOM     16  O   UNL     1     -22.530 -21.819  32.074  1.00  0.00    -0.550 OA
ENDBRANCH  13  14
ENDBRANCH  12  13
ENDBRANCH  11  12
ENDBRANCH  10  11
ENDBRANCH   9  10
ENDBRANCH   8   9
ENDBRANCH   7   8
ENDBRANCH   6   7
ENDBRANCH   5   6
ENDBRANCH   4   5
ENDBRANCH   3   4
ENDBRANCH   2   3
ENDBRANCH   1   2
BRANCH   1  17
ATOM     17  C   UNL     1     -18.999 -24.177  27.775  1.00  0.00     0.000 C 
BRANCH  17  18
ATOM     18  C   UNL     1     -17.768 -23.284  28.037  1.00  0.00     0.000 C 
BRANCH  18  19
ATOM     19  C   UNL     1     -16.442 -23.826  27.474  1.00  0.00     0.000 C 
BRANCH  19  20
ATOM     20  C   UNL     1     -15.366 -22.740  27.343  1.00  0.00     0.000 C 
BRANCH  20  21
ATOM     21  C   UNL     1     -15.965 -21.349  27.582  1.00  0.00     0.000 C 
BRANCH  21  22
ATOM     22  C   UNL     1     -14.903 -20.253  27.432  1.00  0.00    -0.000 C 
BRANCH  22  23
ATOM     23  C   UNL     1     -14.965 -19.614  26.036  1.00  0.00    -0.000 C 
BRANCH  23  24
ATOM     24  C   UNL     1     -15.443 -18.147  26.076  1.00  0.00    -0.000 C 
BRANCH  24  25
ATOM     25  C   UNL     1     -16.650 -17.861  25.169  1.00  0.00    -0.000 C 
BRANCH  25  26
ATOM     26  C   UNL     1     -17.936 -18.560  25.641  1.00  0.00    -0.000 C 
BRANCH  26  27
ATOM     27  C   UNL     1     -18.408 -19.646  24.662  1.00  0.00    -0.000 C 
BRANCH  27  28
ATOM     28  C   UNL     1     -18.854 -20.934  25.376  1.00  0.00    -0.000 C 
BRANCH  28  29
ATOM     29  C   UNL     1     -18.670 -22.184  24.500  1.00  0.00    -0.003 C 
ATOM     30  C   UNL     1     -17.207 -22.435  24.131  1.00  0.00     0.004 C 
ENDBRANCH  28  29
ENDBRANCH  27  28
ENDBRANCH  26  27
ENDBRANCH  25  26
ENDBRANCH  24  25
ENDBRANCH  23  24
ENDBRANCH  22  23
ENDBRANCH  21  22
ENDBRANCH  20  21
ENDBRANCH  19  20
ENDBRANCH  18  19
ENDBRANCH  17  18
ENDBRANCH   1  17
TORSDOF 26
ENDMDL
MODEL 8
REMARK VINA RESULT:     0.145      2.727      5.630
REMARK INTER + INTRA:          -5.585
REMARK INTER:                   0.690
REMARK INTRA:                  -6.275
REMARK UNBOUND:                -5.952
REMARK SMILES CCCCCCCCCCCCCCCCCCCCCCCCCCCC(=O)[O-]
REMARK SMILES IDX 15 1 16 2 17 3 18 4 19 5 20 6 21 7 22 8 23 9 24 10 25 11
REMARK SMILES IDX 26 12 27 13 28 14 29 15 30 16 14 17 13 18 12 19 11 20 10 21
REMARK SMILES IDX 9 22 8 23 7 24 6 25 5 26 4 27 3 28 2 29 1 30
REMARK H PARENT
REMARK Flexibility Score: inf
ROOT
ATOM      1  C   UNL     1     -16.500 -22.692  27.621  1.00  0.00     0.000 C 
ENDROOT
BRANCH   1   2
ATOM      2  C   UNL     1     -16.291 -21.438  28.491  1.00  0.00     0.000 C 
BRANCH   2   3
ATOM      3  C   UNL     1     -15.271 -21.654  29.619  1.00  0.00     0.000 C 
BRANCH   3   4
ATOM      4  C   UNL     1     -14.875 -23.132  29.783  1.00  0.00     0.000 C 
BRANCH   4   5
ATOM      5  C   UNL     1     -14.938 -23.596  31.248  1.00  0.00     0.000 C 
BRANCH   5   6
ATOM      6  C   UNL     1     -16.332 -23.379  31.865  1.00  0.00     0.000 C 
BRANCH   6   7
ATOM      7  C   UNL     1     -17.381 -24.367  31.313  1.00  0.00     0.000 C 
BRANCH   7   8
ATOM      8  C   UNL     1     -18.773 -23.736  31.102  1.00  0.00     0.000 C 
BRANCH   8   9
ATOM      9  C   UNL     1     -18.787 -22.196  31.056  1.00  0.00     0.000 C 
BRANCH   9  10
ATOM     10  C   UNL     1     -20.032 -21.590  30.382  1.00  0.00     0.000 C 
BRANCH  10  11
ATOM     11  C   UNL     1     -20.940 -22.666  29.762  1.00  0.00     0.000 C 
BRANCH  11  12
ATOM     12  C   UNL     1     -21.524 -22.232  28.409  1.00  0.00     0.006 C 
BRANCH  12  13
ATOM     13  C   UNL     1     -20.944 -20.897  27.927  1.00  0.00     0.053 C 
BRANCH  13  14
ATOM     14  C   UNL     1     -20.785 -20.904  26.440  1.00  0.00     0.041 C 
ATOM     15  O   UNL     1     -21.286 -21.834  25.754  1.00  0.00    -0.550 OA
ATOM     16  O   UNL     1     -20.048 -19.907  25.813  1.00  0.00    -0.550 OA
ENDBRANCH  13  14
ENDBRANCH  12  13
ENDBRANCH  11  12
ENDBRANCH  10  11
ENDBRANCH   9  10
ENDBRANCH   8   9
ENDBRANCH   7   8
ENDBRANCH   6   7
ENDBRANCH   5   6
ENDBRANCH   4   5
ENDBRANCH   3   4
ENDBRANCH   2   3
ENDBRANCH   1   2
BRANCH   1  17
ATOM     17  C   UNL     1     -17.985 -23.069  27.460  1.00  0.00     0.000 C 
BRANCH  17  18
ATOM     18  C   UNL     1     -18.289 -24.580  27.532  1.00  0.00     0.000 C 
BRANCH  18  19
ATOM     19  C   UNL     1     -17.057 -25.481  27.730  1.00  0.00     0.000 C 
BRANCH  19  20
ATOM     20  C   UNL     1     -17.352 -26.702  28.612  1.00  0.00     0.000 C 
BRANCH  20  21
ATOM     21  C   UNL     1     -17.333 -27.991  27.781  1.00  0.00     0.000 C 
BRANCH  21  22
ATOM     22  C   UNL     1     -18.686 -28.234  27.102  1.00  0.00    -0.000 C 
BRANCH  22  23
ATOM     23  C   UNL     1     -19.666 -28.929  28.060  1.00  0.00    -0.000 C 
BRANCH  23  24
ATOM     24  C   UNL     1     -21.098 -28.364  27.954  1.00  0.00    -0.000 C 
BRANCH  24  25
ATOM     25  C   UNL     1     -21.169 -26.831  28.027  1.00  0.00    -0.000 C 
BRANCH  25  26
ATOM     26  C   UNL     1     -20.957 -26.286  29.449  1.00  0.00    -0.000 C 
BRANCH  26  27
ATOM     27  C   UNL     1     -21.837 -26.997  30.489  1.00  0.00    -0.000 C 
BRANCH  27  28
ATOM     28  C   UNL     1     -21.012 -27.749  31.548  1.00  0.00    -0.000 C 
BRANCH  28  29
ATOM     29  C   UNL     1     -19.527 -27.354  31.524  1.00  0.00    -0.003 C 
ATOM     30  C   UNL     1     -18.593 -28.559  31.639  1.00  0.00     0.004 C 
ENDBRANCH  28  29
ENDBRANCH  27  28
ENDBRANCH  26  27
ENDBRANCH  25  26
ENDBRANCH  24  25
ENDBRANCH  23  24
ENDBRANCH  22  23
ENDBRANCH  21  22
ENDBRANCH  20  21
ENDBRANCH  19  20
ENDBRANCH  18  19
ENDBRANCH  17  18
ENDBRANCH   1  17
TORSDOF 26
ENDMDL
