MODEL 1
REMARK VINA RESULT:     1.523      0.000      0.000
REMARK INTER + INTRA:           1.430
REMARK INTER:                   1.656
REMARK INTRA:                  -0.226
REMARK UNBOUND:                -0.226
REMARK SMILES CC1(C)CC[C@]2(C(=O)[O-])CC[C@@]3(C)C(=CC[C@H]4[C@@]5(C)CC[C@H](O)C(C)(C)[C@H]5CC[C@@]43C)[C@@H]2C1
REMARK SMILES IDX 6 1 5 2 10 3 32 4 4 5 11 6 14 7 33 8 2 9 12 10 15 11 1 12
REMARK SMILES IDX 3 13 13 14 30 15 16 16 17 17 29 18 31 19 18 20 28 21 27 22
REMARK SMILES IDX 20 23 19 24 24 25 21 26 22 27 25 28 26 29 7 30 8 31 9 32
REMARK SMILES IDX 23 33
REMARK H PARENT 23 34
REMARK Flexibility Score: inf
ROOT
ATOM      1  C   UNL     1      -4.257  -9.179   7.986  1.00  0.00     0.017 C 
ATOM      2  C   UNL     1      -3.078 -10.079   8.502  1.00  0.00     0.014 C 
ATOM      3  C   UNL     1      -5.444 -10.124   7.586  1.00  0.00     0.014 C 
ATOM      4  C   UNL     1      -3.741  -8.251   6.796  1.00  0.00     0.028 C 
ATOM      5  C   UNL     1      -1.738  -9.334   8.513  1.00  0.00     0.007 C 
ATOM      6  C   UNL     1      -5.789 -10.120   6.091  1.00  0.00     0.013 C 
ATOM      7  C   UNL     1      -4.783  -7.870   5.730  1.00  0.00    -0.064 C 
ATOM      8  C   UNL     1      -2.487  -8.849   6.101  1.00  0.00     0.015 C 
ATOM      9  C   UNL     1      -1.271  -8.975   7.071  1.00  0.00    -0.035 C 
ATOM     10  C   UNL     1      -6.062  -8.691   5.524  1.00  0.00    -0.006 C 
ATOM     11  C   UNL     1      -4.482  -6.827   4.921  1.00  0.00    -0.027 C 
ATOM     12  C   UNL     1      -0.485  -7.643   7.113  1.00  0.00     0.011 C 
ATOM     13  C   UNL     1      -0.321 -10.069   6.536  1.00  0.00     0.011 C 
ATOM     14  C   UNL     1      -7.193  -8.048   6.399  1.00  0.00     0.017 C 
ATOM     15  C   UNL     1      -6.446  -8.732   3.955  1.00  0.00    -0.020 C 
ATOM     16  C   UNL     1      -5.105  -6.589   3.569  1.00  0.00     0.032 C 
ATOM     17  C   UNL     1      -6.493  -7.252   3.393  1.00  0.00     0.006 C 
ATOM     18  C   UNL     1      -7.840  -9.364   3.743  1.00  0.00     0.008 C 
ATOM     19  C   UNL     1      -5.388  -9.605   3.206  1.00  0.00     0.012 C 
ATOM     20  C   UNL     1      -7.211  -6.959   1.981  1.00  0.00    -0.025 C 
ATOM     21  C   UNL     1      -8.288  -9.322   2.284  1.00  0.00     0.005 C 
ATOM     22  C   UNL     1      -8.505  -7.876   1.762  1.00  0.00     0.003 C 
ATOM     23  C   UNL     1      -6.206  -7.085   0.790  1.00  0.00     0.010 C 
ATOM     24  C   UNL     1      -7.678  -5.464   2.036  1.00  0.00     0.012 C 
ATOM     25  C   UNL     1      -9.114  -7.865   0.279  1.00  0.00    -0.006 C 
ATOM     26  C   UNL     1      -6.841  -7.007  -0.601  1.00  0.00     0.033 C 
ATOM     27  C   UNL     1      -7.970  -8.036  -0.768  1.00  0.00     0.120 C 
ATOM     28  C   UNL     1      -9.942  -6.566   0.017  1.00  0.00     0.014 C 
ATOM     29  C   UNL     1     -10.125  -9.032   0.065  1.00  0.00     0.014 C 
ENDROOT
BRANCH   1  30
ATOM     30  C   UNL     1      -4.734  -8.316   9.158  1.00  0.00     0.048 C 
ATOM     31  O   UNL     1      -4.314  -7.138   9.323  1.00  0.00    -0.550 OA
ATOM     32  O   UNL     1      -5.697  -8.801  10.035  1.00  0.00    -0.550 OA
ENDBRANCH   1  30
BRANCH  27  33
ATOM     33  O   UNL     1      -8.461  -8.023  -2.088  1.00  0.00    -0.393 OA
ATOM     34  H   UNL     1      -8.566  -7.077  -2.372  1.00  0.00     0.210 HD
ENDBRANCH  27  33
TORSDOF 2
ENDMDL
