MODEL 1
REMARK VINA RESULT:    11.220      0.000      0.000
REMARK INTER + INTRA:          23.081
REMARK INTER:                  24.338
REMARK INTRA:                  -1.256
REMARK UNBOUND:                -1.256
REMARK SMILES CCCCCCCCCCCCCCCCCCCCCC(=O)[O-]
REMARK SMILES IDX 12 1 11 2 10 3 9 4 8 5 7 6 6 7 5 8 4 9 3 10 2 11 1 12 13 13
REMARK SMILES IDX 14 14 15 15 16 16 17 17 18 18 19 19 20 20 21 21 22 22 23 23
REMARK SMILES IDX 24 24
REMARK H PARENT
REMARK Flexibility Score: inf
ROOT
ATOM      1  C   UNL     1     -33.629  12.752  19.986  1.00  0.00     0.000 C 
ENDROOT
BRANCH   1   2
ATOM      2  C   UNL     1     -33.946  11.841  21.182  1.00  0.00     0.000 C 
BRANCH   2   3
ATOM      3  C   UNL     1     -33.582  10.370  20.916  1.00  0.00     0.000 C 
BRANCH   3   4
ATOM      4  C   UNL     1     -34.418   9.388  21.757  1.00  0.00    -0.000 C 
BRANCH   4   5
ATOM      5  C   UNL     1     -33.643   8.176  22.313  1.00  0.00    -0.000 C 
BRANCH   5   6
ATOM      6  C   UNL     1     -34.520   7.011  22.819  1.00  0.00    -0.000 C 
BRANCH   6   7
ATOM      7  C   UNL     1     -35.063   7.181  24.249  1.00  0.00    -0.000 C 
BRANCH   7   8
ATOM      8  C   UNL     1     -34.023   7.667  25.278  1.00  0.00    -0.000 C 
BRANCH   8   9
ATOM      9  C   UNL     1     -34.500   8.875  26.117  1.00  0.00    -0.000 C 
BRANCH   9  10
ATOM     10  C   UNL     1     -33.350   9.683  26.747  1.00  0.00    -0.000 C 
BRANCH  10  11
ATOM     11  C   UNL     1     -33.044  11.004  26.017  1.00  0.00    -0.003 C 
ATOM     12  C   UNL     1     -34.186  11.455  25.106  1.00  0.00     0.004 C 
ENDBRANCH  10  11
ENDBRANCH   9  10
ENDBRANCH   8   9
ENDBRANCH   7   8
ENDBRANCH   6   7
ENDBRANCH   5   6
ENDBRANCH   4   5
ENDBRANCH   3   4
ENDBRANCH   2   3
ENDBRANCH   1   2
BRANCH   1  13
ATOM     13  C   UNL     1     -32.450  12.234  19.140  1.00  0.00     0.000 C 
BRANCH  13  14
ATOM     14  C   UNL     1     -32.320  12.984  17.798  1.00  0.00     0.000 C 
BRANCH  14  15
ATOM     15  C   UNL     1     -33.574  12.880  16.913  1.00  0.00     0.000 C 
BRANCH  15  16
ATOM     16  C   UNL     1     -33.931  14.205  16.226  1.00  0.00     0.000 C 
BRANCH  16  17
ATOM     17  C   UNL     1     -34.519  15.206  17.233  1.00  0.00     0.000 C 
BRANCH  17  18
ATOM     18  C   UNL     1     -34.830  16.569  16.594  1.00  0.00     0.000 C 
BRANCH  18  19
ATOM     19  C   UNL     1     -35.227  17.628  17.639  1.00  0.00     0.000 C 
BRANCH  19  20
ATOM     20  C   UNL     1     -36.746  17.703  17.858  1.00  0.00     0.006 C 
BRANCH  20  21
ATOM     21  C   UNL     1     -37.476  16.429  17.411  1.00  0.00     0.053 C 
BRANCH  21  22
ATOM     22  C   UNL     1     -38.763  16.276  18.158  1.00  0.00     0.041 C 
ATOM     23  O   UNL     1     -38.792  15.649  19.250  1.00  0.00    -0.550 OA
ATOM     24  O   UNL     1     -39.924  16.863  17.671  1.00  0.00    -0.550 OA
ENDBRANCH  21  22
ENDBRANCH  20  21
ENDBRANCH  19  20
ENDBRANCH  18  19
ENDBRANCH  17  18
ENDBRANCH  16  17
ENDBRANCH  15  16
ENDBRANCH  14  15
ENDBRANCH  13  14
ENDBRANCH   1  13
TORSDOF 20
ENDMDL
MODEL 2
REMARK VINA RESULT:    11.242      0.672      2.561
REMARK INTER + INTRA:          23.130
REMARK INTER:                  24.416
REMARK INTRA:                  -1.285
REMARK UNBOUND:                -1.256
REMARK SMILES CCCCCCCCCCCCCCCCCCCCCC(=O)[O-]
REMARK SMILES IDX 12 1 11 2 10 3 9 4 8 5 7 6 6 7 5 8 4 9 3 10 2 11 1 12 13 13
REMARK SMILES IDX 14 14 15 15 16 16 17 17 18 18 19 19 20 20 21 21 22 22 23 23
REMARK SMILES IDX 24 24
REMARK H PARENT
REMARK Flexibility Score: inf
ROOT
ATOM      1  C   UNL     1     -33.794  11.337  20.766  1.00  0.00     0.000 C 
ENDROOT
BRANCH   1   2
ATOM      2  C   UNL     1     -33.978  12.763  21.308  1.00  0.00     0.000 C 
BRANCH   2   3
ATOM      3  C   UNL     1     -34.400  12.782  22.787  1.00  0.00     0.000 C 
BRANCH   3   4
ATOM      4  C   UNL     1     -33.811  11.607  23.590  1.00  0.00    -0.000 C 
BRANCH   4   5
ATOM      5  C   UNL     1     -34.111  11.630  25.103  1.00  0.00    -0.000 C 
BRANCH   5   6
ATOM      6  C   UNL     1     -33.038  10.975  25.996  1.00  0.00    -0.000 C 
BRANCH   6   7
ATOM      7  C   UNL     1     -33.510   9.732  26.772  1.00  0.00    -0.000 C 
BRANCH   7   8
ATOM      8  C   UNL     1     -34.608   8.913  26.067  1.00  0.00    -0.000 C 
BRANCH   8   9
ATOM      9  C   UNL     1     -34.056   7.766  25.189  1.00  0.00    -0.000 C 
BRANCH   9  10
ATOM     10  C   UNL     1     -35.109   7.143  24.253  1.00  0.00    -0.000 C 
BRANCH  10  11
ATOM     11  C   UNL     1     -34.642   7.008  22.791  1.00  0.00    -0.003 C 
ATOM     12  C   UNL     1     -33.822   8.209  22.319  1.00  0.00     0.004 C 
ENDBRANCH  10  11
ENDBRANCH   9  10
ENDBRANCH   8   9
ENDBRANCH   7   8
ENDBRANCH   6   7
ENDBRANCH   5   6
ENDBRANCH   4   5
ENDBRANCH   3   4
ENDBRANCH   2   3
ENDBRANCH   1   2
BRANCH   1  13
ATOM     13  C   UNL     1     -33.046  11.305  19.420  1.00  0.00     0.000 C 
BRANCH  13  14
ATOM     14  C   UNL     1     -32.956  12.701  18.769  1.00  0.00     0.000 C 
BRANCH  14  15
ATOM     15  C   UNL     1     -33.228  12.691  17.255  1.00  0.00     0.000 C 
BRANCH  15  16
ATOM     16  C   UNL     1     -33.318  14.101  16.656  1.00  0.00     0.000 C 
BRANCH  16  17
ATOM     17  C   UNL     1     -34.372  14.944  17.390  1.00  0.00     0.000 C 
BRANCH  17  18
ATOM     18  C   UNL     1     -34.818  16.169  16.575  1.00  0.00     0.000 C 
BRANCH  18  19
ATOM     19  C   UNL     1     -35.112  17.389  17.464  1.00  0.00     0.000 C 
BRANCH  19  20
ATOM     20  C   UNL     1     -36.600  17.513  17.827  1.00  0.00     0.006 C 
BRANCH  20  21
ATOM     21  C   UNL     1     -37.412  16.269  17.443  1.00  0.00     0.053 C 
BRANCH  21  22
ATOM     22  C   UNL     1     -38.729  16.266  18.151  1.00  0.00     0.041 C 
ATOM     23  O   UNL     1     -38.858  15.662  19.249  1.00  0.00    -0.550 OA
ATOM     24  O   UNL     1     -39.806  16.968  17.623  1.00  0.00    -0.550 OA
ENDBRANCH  21  22
ENDBRANCH  20  21
ENDBRANCH  19  20
ENDBRANCH  18  19
ENDBRANCH  17  18
ENDBRANCH  16  17
ENDBRANCH  15  16
ENDBRANCH  14  15
ENDBRANCH  13  14
ENDBRANCH   1  13
TORSDOF 20
ENDMDL
MODEL 3
REMARK VINA RESULT:    11.335      3.024      9.970
REMARK INTER + INTRA:          23.332
REMARK INTER:                  24.569
REMARK INTRA:                  -1.238
REMARK UNBOUND:                -1.256
REMARK SMILES CCCCCCCCCCCCCCCCCCCCCC(=O)[O-]
REMARK SMILES IDX 12 1 11 2 10 3 9 4 8 5 7 6 6 7 5 8 4 9 3 10 2 11 1 12 13 13
REMARK SMILES IDX 14 14 15 15 16 16 17 17 18 18 19 19 20 20 21 21 22 22 23 23
REMARK SMILES IDX 24 24
REMARK H PARENT
REMARK Flexibility Score: inf
ROOT
ATOM      1  C   UNL     1     -32.885  11.565  19.374  1.00  0.00     0.000 C 
ENDROOT
BRANCH   1   2
ATOM      2  C   UNL     1     -32.850  12.994  18.809  1.00  0.00     0.000 C 
BRANCH   2   3
ATOM      3  C   UNL     1     -32.719  13.018  17.277  1.00  0.00     0.000 C 
BRANCH   3   4
ATOM      4  C   UNL     1     -33.862  13.792  16.593  1.00  0.00    -0.000 C 
BRANCH   4   5
ATOM      5  C   UNL     1     -34.492  14.917  17.439  1.00  0.00    -0.000 C 
BRANCH   5   6
ATOM      6  C   UNL     1     -34.799  16.221  16.675  1.00  0.00    -0.000 C 
BRANCH   6   7
ATOM      7  C   UNL     1     -35.078  17.445  17.566  1.00  0.00    -0.000 C 
BRANCH   7   8
ATOM      8  C   UNL     1     -36.572  17.760  17.775  1.00  0.00    -0.000 C 
BRANCH   8   9
ATOM      9  C   UNL     1     -37.512  16.601  17.367  1.00  0.00    -0.000 C 
BRANCH   9  10
ATOM     10  C   UNL     1     -38.444  16.134  18.501  1.00  0.00    -0.000 C 
BRANCH  10  11
ATOM     11  C   UNL     1     -39.929  16.466  18.261  1.00  0.00    -0.003 C 
ATOM     12  C   UNL     1     -40.154  17.295  16.997  1.00  0.00     0.004 C 
ENDBRANCH  10  11
ENDBRANCH   9  10
ENDBRANCH   8   9
ENDBRANCH   7   8
ENDBRANCH   6   7
ENDBRANCH   5   6
ENDBRANCH   4   5
ENDBRANCH   3   4
ENDBRANCH   2   3
ENDBRANCH   1   2
BRANCH   1  13
ATOM     13  C   UNL     1     -33.854  11.419  20.563  1.00  0.00     0.000 C 
BRANCH  13  14
ATOM     14  C   UNL     1     -34.239   9.948  20.824  1.00  0.00     0.000 C 
BRANCH  14  15
ATOM     15  C   UNL     1     -33.694   9.398  22.154  1.00  0.00     0.000 C 
BRANCH  15  16
ATOM     16  C   UNL     1     -33.528   7.872  22.144  1.00  0.00     0.000 C 
BRANCH  16  17
ATOM     17  C   UNL     1     -34.824   7.175  22.585  1.00  0.00     0.000 C 
BRANCH  17  18
ATOM     18  C   UNL     1     -35.158   7.436  24.063  1.00  0.00     0.000 C 
BRANCH  18  19
ATOM     19  C   UNL     1     -34.098   6.853  25.015  1.00  0.00     0.000 C 
BRANCH  19  20
ATOM     20  C   UNL     1     -33.443   7.926  25.899  1.00  0.00     0.006 C 
BRANCH  20  21
ATOM     21  C   UNL     1     -34.394   9.082  26.235  1.00  0.00     0.053 C 
BRANCH  21  22
ATOM     22  C   UNL     1     -33.655  10.383  26.233  1.00  0.00     0.041 C 
ATOM     23  O   UNL     1     -34.027  11.323  25.482  1.00  0.00    -0.550 OA
ATOM     24  O   UNL     1     -32.581  10.574  27.093  1.00  0.00    -0.550 OA
ENDBRANCH  21  22
ENDBRANCH  20  21
ENDBRANCH  19  20
ENDBRANCH  18  19
ENDBRANCH  17  18
ENDBRANCH  16  17
ENDBRANCH  15  16
ENDBRANCH  14  15
ENDBRANCH  13  14
ENDBRANCH   1  13
TORSDOF 20
ENDMDL
MODEL 4
REMARK VINA RESULT:    11.938      3.378      9.665
REMARK INTER + INTRA:          24.640
REMARK INTER:                  25.553
REMARK INTRA:                  -0.913
REMARK UNBOUND:                -1.256
REMARK SMILES CCCCCCCCCCCCCCCCCCCCCC(=O)[O-]
REMARK SMILES IDX 12 1 11 2 10 3 9 4 8 5 7 6 6 7 5 8 4 9 3 10 2 11 1 12 13 13
REMARK SMILES IDX 14 14 15 15 16 16 17 17 18 18 19 19 20 20 21 21 22 22 23 23
REMARK SMILES IDX 24 24
REMARK H PARENT
REMARK Flexibility Score: inf
ROOT
ATOM      1  C   UNL     1     -33.015  12.645  19.254  1.00  0.00     0.000 C 
ENDROOT
BRANCH   1   2
ATOM      2  C   UNL     1     -32.023  12.544  18.085  1.00  0.00     0.000 C 
BRANCH   2   3
ATOM      3  C   UNL     1     -32.459  13.378  16.868  1.00  0.00     0.000 C 
BRANCH   3   4
ATOM      4  C   UNL     1     -33.965  13.699  16.874  1.00  0.00    -0.000 C 
BRANCH   4   5
ATOM      5  C   UNL     1     -34.348  15.035  17.541  1.00  0.00    -0.000 C 
BRANCH   5   6
ATOM      6  C   UNL     1     -34.817  16.142  16.575  1.00  0.00    -0.000 C 
BRANCH   6   7
ATOM      7  C   UNL     1     -35.150  17.489  17.242  1.00  0.00    -0.000 C 
BRANCH   7   8
ATOM      8  C   UNL     1     -36.556  17.564  17.868  1.00  0.00    -0.000 C 
BRANCH   8   9
ATOM      9  C   UNL     1     -37.498  16.425  17.413  1.00  0.00    -0.000 C 
BRANCH   9  10
ATOM     10  C   UNL     1     -38.514  15.996  18.488  1.00  0.00    -0.000 C 
BRANCH  10  11
ATOM     11  C   UNL     1     -39.947  16.494  18.226  1.00  0.00    -0.003 C 
ATOM     12  C   UNL     1     -40.051  17.364  16.973  1.00  0.00     0.004 C 
ENDBRANCH  10  11
ENDBRANCH   9  10
ENDBRANCH   8   9
ENDBRANCH   7   8
ENDBRANCH   6   7
ENDBRANCH   5   6
ENDBRANCH   4   5
ENDBRANCH   3   4
ENDBRANCH   2   3
ENDBRANCH   1   2
BRANCH   1  13
ATOM     13  C   UNL     1     -33.524  11.269  19.723  1.00  0.00     0.000 C 
BRANCH  13  14
ATOM     14  C   UNL     1     -33.979  11.287  21.197  1.00  0.00     0.000 C 
BRANCH  14  15
ATOM     15  C   UNL     1     -34.038  12.700  21.804  1.00  0.00     0.000 C 
BRANCH  15  16
ATOM     16  C   UNL     1     -34.371  12.692  23.302  1.00  0.00     0.000 C 
BRANCH  16  17
ATOM     17  C   UNL     1     -33.959  11.361  23.950  1.00  0.00     0.000 C 
BRANCH  17  18
ATOM     18  C   UNL     1     -34.161  11.362  25.475  1.00  0.00     0.000 C 
BRANCH  18  19
ATOM     19  C   UNL     1     -33.539  10.125  26.147  1.00  0.00     0.000 C 
BRANCH  19  20
ATOM     20  C   UNL     1     -34.457   8.894  26.086  1.00  0.00     0.006 C 
BRANCH  20  21
ATOM     21  C   UNL     1     -33.806   7.701  25.373  1.00  0.00     0.053 C 
BRANCH  21  22
ATOM     22  C   UNL     1     -34.673   7.227  24.250  1.00  0.00     0.041 C 
ATOM     23  O   UNL     1     -35.822   6.768  24.486  1.00  0.00    -0.550 OA
ATOM     24  O   UNL     1     -34.231   7.333  22.937  1.00  0.00    -0.550 OA
ENDBRANCH  21  22
ENDBRANCH  20  21
ENDBRANCH  19  20
ENDBRANCH  18  19
ENDBRANCH  17  18
ENDBRANCH  16  17
ENDBRANCH  15  16
ENDBRANCH  14  15
ENDBRANCH  13  14
ENDBRANCH   1  13
TORSDOF 20
ENDMDL
MODEL 5
REMARK VINA RESULT:    11.949      3.201      9.670
REMARK INTER + INTRA:          24.663
REMARK INTER:                  25.730
REMARK INTRA:                  -1.068
REMARK UNBOUND:                -1.256
REMARK SMILES CCCCCCCCCCCCCCCCCCCCCC(=O)[O-]
REMARK SMILES IDX 12 1 11 2 10 3 9 4 8 5 7 6 6 7 5 8 4 9 3 10 2 11 1 12 13 13
REMARK SMILES IDX 14 14 15 15 16 16 17 17 18 18 19 19 20 20 21 21 22 22 23 23
REMARK SMILES IDX 24 24
REMARK H PARENT
REMARK Flexibility Score: inf
ROOT
ATOM      1  C   UNL     1     -34.000  11.216  20.804  1.00  0.00     0.000 C 
ENDROOT
BRANCH   1   2
ATOM      2  C   UNL     1     -33.253  11.290  19.462  1.00  0.00     0.000 C 
BRANCH   2   3
ATOM      3  C   UNL     1     -32.841  12.726  19.096  1.00  0.00     0.000 C 
BRANCH   3   4
ATOM      4  C   UNL     1     -32.510  12.888  17.600  1.00  0.00    -0.000 C 
BRANCH   4   5
ATOM      5  C   UNL     1     -33.596  13.591  16.761  1.00  0.00    -0.000 C 
BRANCH   5   6
ATOM      6  C   UNL     1     -34.208  14.853  17.402  1.00  0.00    -0.000 C 
BRANCH   6   7
ATOM      7  C   UNL     1     -34.905  15.809  16.416  1.00  0.00    -0.000 C 
BRANCH   7   8
ATOM      8  C   UNL     1     -35.131  17.235  16.956  1.00  0.00    -0.000 C 
BRANCH   8   9
ATOM      9  C   UNL     1     -36.365  17.357  17.881  1.00  0.00    -0.000 C 
BRANCH   9  10
ATOM     10  C   UNL     1     -37.315  16.147  17.805  1.00  0.00    -0.000 C 
BRANCH  10  11
ATOM     11  C   UNL     1     -38.789  16.494  18.086  1.00  0.00    -0.003 C 
ATOM     12  C   UNL     1     -39.418  15.592  19.148  1.00  0.00     0.004 C 
ENDBRANCH  10  11
ENDBRANCH   9  10
ENDBRANCH   8   9
ENDBRANCH   7   8
ENDBRANCH   6   7
ENDBRANCH   5   6
ENDBRANCH   4   5
ENDBRANCH   3   4
ENDBRANCH   2   3
ENDBRANCH   1   2
BRANCH   1  13
ATOM     13  C   UNL     1     -33.935  12.536  21.594  1.00  0.00     0.000 C 
BRANCH  13  14
ATOM     14  C   UNL     1     -34.529  12.398  23.011  1.00  0.00     0.000 C 
BRANCH  14  15
ATOM     15  C   UNL     1     -33.636  11.598  23.976  1.00  0.00     0.000 C 
BRANCH  15  16
ATOM     16  C   UNL     1     -34.199  11.543  25.402  1.00  0.00     0.000 C 
BRANCH  16  17
ATOM     17  C   UNL     1     -33.129  11.070  26.398  1.00  0.00     0.000 C 
BRANCH  17  18
ATOM     18  C   UNL     1     -33.277   9.583  26.759  1.00  0.00     0.000 C 
BRANCH  18  19
ATOM     19  C   UNL     1     -34.421   8.904  25.985  1.00  0.00     0.000 C 
BRANCH  19  20
ATOM     20  C   UNL     1     -33.951   7.675  25.191  1.00  0.00     0.006 C 
BRANCH  20  21
ATOM     21  C   UNL     1     -35.057   7.078  24.311  1.00  0.00     0.053 C 
BRANCH  21  22
ATOM     22  C   UNL     1     -34.662   7.130  22.869  1.00  0.00     0.041 C 
ATOM     23  O   UNL     1     -35.205   6.358  22.034  1.00  0.00    -0.550 OA
ATOM     24  O   UNL     1     -33.725   8.061  22.437  1.00  0.00    -0.550 OA
ENDBRANCH  21  22
ENDBRANCH  20  21
ENDBRANCH  19  20
ENDBRANCH  18  19
ENDBRANCH  17  18
ENDBRANCH  16  17
ENDBRANCH  15  16
ENDBRANCH  14  15
ENDBRANCH  13  14
ENDBRANCH   1  13
TORSDOF 20
ENDMDL
MODEL 6
REMARK VINA RESULT:    12.271      1.105      2.143
REMARK INTER + INTRA:          25.361
REMARK INTER:                  26.223
REMARK INTRA:                  -0.862
REMARK UNBOUND:                -1.256
REMARK SMILES CCCCCCCCCCCCCCCCCCCCCC(=O)[O-]
REMARK SMILES IDX 12 1 11 2 10 3 9 4 8 5 7 6 6 7 5 8 4 9 3 10 2 11 1 12 13 13
REMARK SMILES IDX 14 14 15 15 16 16 17 17 18 18 19 19 20 20 21 21 22 22 23 23
REMARK SMILES IDX 24 24
REMARK H PARENT
REMARK Flexibility Score: inf
ROOT
ATOM      1  C   UNL     1     -32.783  12.093  18.716  1.00  0.00     0.000 C 
ENDROOT
BRANCH   1   2
ATOM      2  C   UNL     1     -33.082  12.753  20.072  1.00  0.00     0.000 C 
BRANCH   2   3
ATOM      3  C   UNL     1     -34.069  11.935  20.921  1.00  0.00     0.000 C 
BRANCH   3   4
ATOM      4  C   UNL     1     -33.928  10.417  20.703  1.00  0.00    -0.000 C 
BRANCH   4   5
ATOM      5  C   UNL     1     -34.300   9.542  21.917  1.00  0.00    -0.000 C 
BRANCH   5   6
ATOM      6  C   UNL     1     -33.460   8.260  22.086  1.00  0.00    -0.000 C 
BRANCH   6   7
ATOM      7  C   UNL     1     -34.264   7.002  22.464  1.00  0.00    -0.000 C 
BRANCH   7   8
ATOM      8  C   UNL     1     -35.106   7.139  23.747  1.00  0.00    -0.000 C 
BRANCH   8   9
ATOM      9  C   UNL     1     -34.289   7.599  24.977  1.00  0.00    -0.000 C 
BRANCH   9  10
ATOM     10  C   UNL     1     -34.748   8.951  25.553  1.00  0.00    -0.000 C 
BRANCH  10  11
ATOM     11  C   UNL     1     -34.079   9.318  26.890  1.00  0.00    -0.003 C 
ATOM     12  C   UNL     1     -32.867  10.233  26.714  1.00  0.00     0.004 C 
ENDBRANCH  10  11
ENDBRANCH   9  10
ENDBRANCH   8   9
ENDBRANCH   7   8
ENDBRANCH   6   7
ENDBRANCH   5   6
ENDBRANCH   4   5
ENDBRANCH   3   4
ENDBRANCH   2   3
ENDBRANCH   1   2
BRANCH   1  13
ATOM     13  C   UNL     1     -32.551  13.120  17.593  1.00  0.00     0.000 C 
BRANCH  13  14
ATOM     14  C   UNL     1     -33.876  13.660  17.014  1.00  0.00     0.000 C 
BRANCH  14  15
ATOM     15  C   UNL     1     -34.371  14.942  17.705  1.00  0.00     0.000 C 
BRANCH  15  16
ATOM     16  C   UNL     1     -34.958  15.962  16.720  1.00  0.00     0.000 C 
BRANCH  16  17
ATOM     17  C   UNL     1     -35.157  17.328  17.396  1.00  0.00     0.000 C 
BRANCH  17  18
ATOM     18  C   UNL     1     -36.591  17.524  17.914  1.00  0.00     0.000 C 
BRANCH  18  19
ATOM     19  C   UNL     1     -37.572  16.494  17.326  1.00  0.00     0.000 C 
BRANCH  19  20
ATOM     20  C   UNL     1     -38.514  15.901  18.386  1.00  0.00     0.006 C 
BRANCH  20  21
ATOM     21  C   UNL     1     -39.863  16.629  18.456  1.00  0.00     0.053 C 
BRANCH  21  22
ATOM     22  C   UNL     1     -40.256  17.131  17.103  1.00  0.00     0.041 C 
ATOM     23  O   UNL     1     -40.992  16.434  16.356  1.00  0.00    -0.550 OA
ATOM     24  O   UNL     1     -39.846  18.391  16.682  1.00  0.00    -0.550 OA
ENDBRANCH  21  22
ENDBRANCH  20  21
ENDBRANCH  19  20
ENDBRANCH  18  19
ENDBRANCH  17  18
ENDBRANCH  16  17
ENDBRANCH  15  16
ENDBRANCH  14  15
ENDBRANCH  13  14
ENDBRANCH   1  13
TORSDOF 20
ENDMDL
