MODEL 1
REMARK VINA RESULT:    -5.620      0.000      0.000
REMARK INTER + INTRA:          -9.499
REMARK INTER:                  -8.906
REMARK INTRA:                  -0.593
REMARK UNBOUND:                -0.593
REMARK SMILES CCCCCCCCCCCC(=O)[O-]
REMARK SMILES IDX 7 1 8 2 9 3 10 4 11 5 12 6 13 7 14 8 6 9 5 10 4 11 3 12 2 13
REMARK SMILES IDX 1 14
REMARK H PARENT
REMARK Flexibility Score: inf
ROOT
ATOM      1  C   UNL     1      88.085 326.384 194.010  1.00  0.00     0.000 C 
ENDROOT
BRANCH   1   2
ATOM      2  C   UNL     1      86.731 326.738 194.655  1.00  0.00     0.000 C 
BRANCH   2   3
ATOM      3  C   UNL     1      86.663 326.538 196.183  1.00  0.00     0.000 C 
BRANCH   3   4
ATOM      4  C   UNL     1      87.882 325.827 196.799  1.00  0.00     0.006 C 
BRANCH   4   5
ATOM      5  C   UNL     1      88.698 326.738 197.724  1.00  0.00     0.053 C 
BRANCH   5   6
ATOM      6  C   UNL     1      89.050 326.020 198.988  1.00  0.00     0.041 C 
ATOM      7  O   UNL     1      89.582 326.643 199.944  1.00  0.00    -0.550 OA
ATOM      8  O   UNL     1      88.836 324.651 199.092  1.00  0.00    -0.550 OA
ENDBRANCH   5   6
ENDBRANCH   4   5
ENDBRANCH   3   4
ENDBRANCH   2   3
ENDBRANCH   1   2
BRANCH   1   9
ATOM      9  C   UNL     1      88.089 325.088 193.174  1.00  0.00     0.000 C 
BRANCH   9  10
ATOM     10  C   UNL     1      86.694 324.541 192.821  1.00  0.00    -0.000 C 
BRANCH  10  11
ATOM     11  C   UNL     1      86.716 323.586 191.616  1.00  0.00    -0.000 C 
BRANCH  11  12
ATOM     12  C   UNL     1      88.124 323.418 191.021  1.00  0.00    -0.000 C 
BRANCH  12  13
ATOM     13  C   UNL     1      88.099 323.195 189.503  1.00  0.00    -0.003 C 
ATOM     14  C   UNL     1      89.457 323.503 188.879  1.00  0.00     0.004 C 
ENDBRANCH  12  13
ENDBRANCH  11  12
ENDBRANCH  10  11
ENDBRANCH   9  10
ENDBRANCH   1   9
TORSDOF 10
ENDMDL
MODEL 2
REMARK VINA RESULT:    -5.531     20.447     21.250
REMARK INTER + INTRA:          -9.358
REMARK INTER:                  -8.914
REMARK INTRA:                  -0.444
REMARK UNBOUND:                -0.593
REMARK SMILES CCCCCCCCCCCC(=O)[O-]
REMARK SMILES IDX 7 1 8 2 9 3 10 4 11 5 12 6 13 7 14 8 6 9 5 10 4 11 3 12 2 13
REMARK SMILES IDX 1 14
REMARK H PARENT
REMARK Flexibility Score: inf
ROOT
ATOM      1  C   UNL     1     104.550 312.186 195.782  1.00  0.00     0.000 C 
ENDROOT
BRANCH   1   2
ATOM      2  C   UNL     1     104.033 311.480 197.050  1.00  0.00     0.000 C 
BRANCH   2   3
ATOM      3  C   UNL     1     103.739 312.412 198.243  1.00  0.00     0.000 C 
BRANCH   3   4
ATOM      4  C   UNL     1     103.179 311.709 199.493  1.00  0.00     0.006 C 
BRANCH   4   5
ATOM      5  C   UNL     1     104.158 311.725 200.673  1.00  0.00     0.053 C 
BRANCH   5   6
ATOM      6  C   UNL     1     103.509 311.161 201.898  1.00  0.00     0.041 C 
ATOM      7  O   UNL     1     104.200 310.902 202.918  1.00  0.00    -0.550 OA
ATOM      8  O   UNL     1     102.150 310.874 201.895  1.00  0.00    -0.550 OA
ENDBRANCH   5   6
ENDBRANCH   4   5
ENDBRANCH   3   4
ENDBRANCH   2   3
ENDBRANCH   1   2
BRANCH   1   9
ATOM      9  C   UNL     1     105.768 311.516 195.113  1.00  0.00     0.000 C 
BRANCH   9  10
ATOM     10  C   UNL     1     105.679 311.395 193.581  1.00  0.00    -0.000 C 
BRANCH  10  11
ATOM     11  C   UNL     1     104.291 311.769 193.034  1.00  0.00    -0.000 C 
BRANCH  11  12
ATOM     12  C   UNL     1     104.316 313.051 192.185  1.00  0.00    -0.000 C 
BRANCH  12  13
ATOM     13  C   UNL     1     105.743 313.511 191.857  1.00  0.00    -0.003 C 
ATOM     14  C   UNL     1     105.742 314.544 190.734  1.00  0.00     0.004 C 
ENDBRANCH  12  13
ENDBRANCH  11  12
ENDBRANCH  10  11
ENDBRANCH   9  10
ENDBRANCH   1   9
TORSDOF 10
ENDMDL
MODEL 3
REMARK VINA RESULT:    -5.486     19.331     21.246
REMARK INTER + INTRA:          -9.287
REMARK INTER:                  -8.205
REMARK INTRA:                  -1.082
REMARK UNBOUND:                -0.593
REMARK SMILES CCCCCCCCCCCC(=O)[O-]
REMARK SMILES IDX 7 1 8 2 9 3 10 4 11 5 12 6 13 7 14 8 6 9 5 10 4 11 3 12 2 13
REMARK SMILES IDX 1 14
REMARK H PARENT
REMARK Flexibility Score: inf
ROOT
ATOM      1  C   UNL     1     104.306 311.585 192.971  1.00  0.00     0.000 C 
ENDROOT
BRANCH   1   2
ATOM      2  C   UNL     1     104.083 312.924 192.242  1.00  0.00     0.000 C 
BRANCH   2   3
ATOM      3  C   UNL     1     105.361 313.593 191.697  1.00  0.00     0.000 C 
BRANCH   3   4
ATOM      4  C   UNL     1     105.146 314.512 190.482  1.00  0.00     0.006 C 
BRANCH   4   5
ATOM      5  C   UNL     1     103.664 314.794 190.204  1.00  0.00     0.053 C 
BRANCH   5   6
ATOM      6  C   UNL     1     103.409 314.843 188.730  1.00  0.00     0.041 C 
ATOM      7  O   UNL     1     102.450 314.198 188.232  1.00  0.00    -0.550 OA
ATOM      8  O   UNL     1     104.262 315.561 187.901  1.00  0.00    -0.550 OA
ENDBRANCH   5   6
ENDBRANCH   4   5
ENDBRANCH   3   4
ENDBRANCH   2   3
ENDBRANCH   1   2
BRANCH   1   9
ATOM      9  C   UNL     1     105.693 311.423 193.626  1.00  0.00     0.000 C 
BRANCH   9  10
ATOM     10  C   UNL     1     105.719 311.645 195.149  1.00  0.00    -0.000 C 
BRANCH  10  11
ATOM     11  C   UNL     1     104.312 311.769 195.757  1.00  0.00    -0.000 C 
BRANCH  11  12
ATOM     12  C   UNL     1     104.121 313.076 196.543  1.00  0.00    -0.000 C 
BRANCH  12  13
ATOM     13  C   UNL     1     103.341 314.133 195.749  1.00  0.00    -0.003 C 
ATOM     14  C   UNL     1     104.284 315.160 195.127  1.00  0.00     0.004 C 
ENDBRANCH  12  13
ENDBRANCH  11  12
ENDBRANCH  10  11
ENDBRANCH   9  10
ENDBRANCH   1   9
TORSDOF 10
ENDMDL
MODEL 4
REMARK VINA RESULT:    -5.436      4.446      7.430
REMARK INTER + INTRA:          -9.207
REMARK INTER:                  -8.473
REMARK INTRA:                  -0.734
REMARK UNBOUND:                -0.593
REMARK SMILES CCCCCCCCCCCC(=O)[O-]
REMARK SMILES IDX 7 1 8 2 9 3 10 4 11 5 12 6 13 7 14 8 6 9 5 10 4 11 3 12 2 13
REMARK SMILES IDX 1 14
REMARK H PARENT
REMARK Flexibility Score: inf
ROOT
ATOM      1  C   UNL     1      86.750 323.785 193.743  1.00  0.00     0.000 C 
ENDROOT
BRANCH   1   2
ATOM      2  C   UNL     1      88.110 323.741 193.020  1.00  0.00     0.000 C 
BRANCH   2   3
ATOM      3  C   UNL     1      88.119 324.366 191.609  1.00  0.00     0.000 C 
BRANCH   3   4
ATOM      4  C   UNL     1      88.056 323.354 190.451  1.00  0.00     0.006 C 
BRANCH   4   5
ATOM      5  C   UNL     1      88.961 323.738 189.274  1.00  0.00     0.053 C 
BRANCH   5   6
ATOM      6  C   UNL     1      89.821 322.580 188.877  1.00  0.00     0.041 C 
ATOM      7  O   UNL     1      91.000 322.773 188.482  1.00  0.00    -0.550 OA
ATOM      8  O   UNL     1      89.303 321.291 188.895  1.00  0.00    -0.550 OA
ENDBRANCH   5   6
ENDBRANCH   4   5
ENDBRANCH   3   4
ENDBRANCH   2   3
ENDBRANCH   1   2
BRANCH   1   9
ATOM      9  C   UNL     1      85.992 325.123 193.628  1.00  0.00     0.000 C 
BRANCH   9  10
ATOM     10  C   UNL     1      86.267 326.122 194.766  1.00  0.00    -0.000 C 
BRANCH  10  11
ATOM     11  C   UNL     1      87.580 326.899 194.573  1.00  0.00    -0.000 C 
BRANCH  11  12
ATOM     12  C   UNL     1      88.685 326.439 195.537  1.00  0.00    -0.000 C 
BRANCH  12  13
ATOM     13  C   UNL     1      88.126 325.924 196.871  1.00  0.00    -0.003 C 
ATOM     14  C   UNL     1      88.783 326.633 198.052  1.00  0.00     0.004 C 
ENDBRANCH  12  13
ENDBRANCH  11  12
ENDBRANCH  10  11
ENDBRANCH   9  10
ENDBRANCH   1   9
TORSDOF 10
ENDMDL
MODEL 5
REMARK VINA RESULT:    -5.434     19.687     20.668
REMARK INTER + INTRA:          -9.204
REMARK INTER:                  -8.752
REMARK INTRA:                  -0.452
REMARK UNBOUND:                -0.593
REMARK SMILES CCCCCCCCCCCC(=O)[O-]
REMARK SMILES IDX 7 1 8 2 9 3 10 4 11 5 12 6 13 7 14 8 6 9 5 10 4 11 3 12 2 13
REMARK SMILES IDX 1 14
REMARK H PARENT
REMARK Flexibility Score: inf
ROOT
ATOM      1  C   UNL     1     103.520 311.520 194.881  1.00  0.00     0.000 C 
ENDROOT
BRANCH   1   2
ATOM      2  C   UNL     1     104.381 311.860 196.113  1.00  0.00     0.000 C 
BRANCH   2   3
ATOM      3  C   UNL     1     103.906 311.229 197.437  1.00  0.00     0.000 C 
BRANCH   3   4
ATOM      4  C   UNL     1     103.570 312.235 198.553  1.00  0.00     0.006 C 
BRANCH   4   5
ATOM      5  C   UNL     1     103.528 311.589 199.943  1.00  0.00     0.053 C 
BRANCH   5   6
ATOM      6  C   UNL     1     102.156 311.705 200.531  1.00  0.00     0.041 C 
ATOM      7  O   UNL     1     101.412 312.669 200.215  1.00  0.00    -0.550 OA
ATOM      8  O   UNL     1     101.721 310.775 201.467  1.00  0.00    -0.550 OA
ENDBRANCH   5   6
ENDBRANCH   4   5
ENDBRANCH   3   4
ENDBRANCH   2   3
ENDBRANCH   1   2
BRANCH   1   9
ATOM      9  C   UNL     1     104.314 311.232 193.590  1.00  0.00     0.000 C 
BRANCH   9  10
ATOM     10  C   UNL     1     105.644 311.997 193.465  1.00  0.00    -0.000 C 
BRANCH  10  11
ATOM     11  C   UNL     1     105.550 313.203 192.516  1.00  0.00    -0.000 C 
BRANCH  11  12
ATOM     12  C   UNL     1     104.241 313.221 191.711  1.00  0.00    -0.000 C 
BRANCH  12  13
ATOM     13  C   UNL     1     104.264 314.249 190.571  1.00  0.00    -0.003 C 
ATOM     14  C   UNL     1     105.691 314.690 190.258  1.00  0.00     0.004 C 
ENDBRANCH  12  13
ENDBRANCH  11  12
ENDBRANCH  10  11
ENDBRANCH   9  10
ENDBRANCH   1   9
TORSDOF 10
ENDMDL
MODEL 6
REMARK VINA RESULT:    -5.430     18.347     20.143
REMARK INTER + INTRA:          -9.197
REMARK INTER:                  -8.455
REMARK INTRA:                  -0.743
REMARK UNBOUND:                -0.593
REMARK SMILES CCCCCCCCCCCC(=O)[O-]
REMARK SMILES IDX 7 1 8 2 9 3 10 4 11 5 12 6 13 7 14 8 6 9 5 10 4 11 3 12 2 13
REMARK SMILES IDX 1 14
REMARK H PARENT
REMARK Flexibility Score: inf
ROOT
ATOM      1  C   UNL     1     105.744 313.071 192.351  1.00  0.00     0.000 C 
ENDROOT
BRANCH   1   2
ATOM      2  C   UNL     1     105.652 311.873 193.317  1.00  0.00     0.000 C 
BRANCH   2   3
ATOM      3  C   UNL     1     104.237 311.284 193.493  1.00  0.00     0.000 C 
BRANCH   3   4
ATOM      4  C   UNL     1     103.617 311.490 194.886  1.00  0.00     0.006 C 
BRANCH   4   5
ATOM      5  C   UNL     1     104.579 312.162 195.873  1.00  0.00     0.053 C 
BRANCH   5   6
ATOM      6  C   UNL     1     104.032 313.481 196.321  1.00  0.00     0.041 C 
ATOM      7  O   UNL     1     103.518 314.269 195.485  1.00  0.00    -0.550 OA
ATOM      8  O   UNL     1     104.136 313.861 197.653  1.00  0.00    -0.550 OA
ENDBRANCH   5   6
ENDBRANCH   4   5
ENDBRANCH   3   4
ENDBRANCH   2   3
ENDBRANCH   1   2
BRANCH   1   9
ATOM      9  C   UNL     1     104.411 313.800 192.087  1.00  0.00     0.000 C 
BRANCH   9  10
ATOM     10  C   UNL     1     103.936 313.769 190.622  1.00  0.00    -0.000 C 
BRANCH  10  11
ATOM     11  C   UNL     1     104.525 314.914 189.781  1.00  0.00    -0.000 C 
BRANCH  11  12
ATOM     12  C   UNL     1     103.758 315.137 188.468  1.00  0.00    -0.000 C 
BRANCH  12  13
ATOM     13  C   UNL     1     102.475 314.298 188.386  1.00  0.00    -0.003 C 
ATOM     14  C   UNL     1     101.271 315.168 188.036  1.00  0.00     0.004 C 
ENDBRANCH  12  13
ENDBRANCH  11  12
ENDBRANCH  10  11
ENDBRANCH   9  10
ENDBRANCH   1   9
TORSDOF 10
ENDMDL
MODEL 7
REMARK VINA RESULT:    -5.407      2.059      3.123
REMARK INTER + INTRA:          -9.161
REMARK INTER:                  -8.294
REMARK INTRA:                  -0.867
REMARK UNBOUND:                -0.593
REMARK SMILES CCCCCCCCCCCC(=O)[O-]
REMARK SMILES IDX 7 1 8 2 9 3 10 4 11 5 12 6 13 7 14 8 6 9 5 10 4 11 3 12 2 13
REMARK SMILES IDX 1 14
REMARK H PARENT
REMARK Flexibility Score: inf
ROOT
ATOM      1  C   UNL     1      88.906 326.540 195.827  1.00  0.00     0.000 C 
ENDROOT
BRANCH   1   2
ATOM      2  C   UNL     1      88.076 325.861 196.934  1.00  0.00     0.000 C 
BRANCH   2   3
ATOM      3  C   UNL     1      88.876 325.430 198.180  1.00  0.00     0.000 C 
BRANCH   3   4
ATOM      4  C   UNL     1      89.180 326.562 199.179  1.00  0.00     0.006 C 
BRANCH   4   5
ATOM      5  C   UNL     1      89.926 326.070 200.426  1.00  0.00     0.053 C 
BRANCH   5   6
ATOM      6  C   UNL     1      88.989 325.968 201.589  1.00  0.00     0.041 C 
ATOM      7  O   UNL     1      88.167 325.018 201.657  1.00  0.00    -0.550 OA
ATOM      8  O   UNL     1      88.991 326.951 202.570  1.00  0.00    -0.550 OA
ENDBRANCH   5   6
ENDBRANCH   4   5
ENDBRANCH   3   4
ENDBRANCH   2   3
ENDBRANCH   1   2
BRANCH   1   9
ATOM      9  C   UNL     1      88.138 326.834 194.523  1.00  0.00     0.000 C 
BRANCH   9  10
ATOM     10  C   UNL     1      86.686 326.322 194.498  1.00  0.00    -0.000 C 
BRANCH  10  11
ATOM     11  C   UNL     1      86.492 325.127 193.550  1.00  0.00    -0.000 C 
BRANCH  11  12
ATOM     12  C   UNL     1      87.762 324.797 192.749  1.00  0.00    -0.000 C 
BRANCH  12  13
ATOM     13  C   UNL     1      88.231 323.350 192.960  1.00  0.00    -0.003 C 
ATOM     14  C   UNL     1      88.572 323.092 194.425  1.00  0.00     0.004 C 
ENDBRANCH  12  13
ENDBRANCH  11  12
ENDBRANCH  10  11
ENDBRANCH   9  10
ENDBRANCH   1   9
TORSDOF 10
ENDMDL
MODEL 8
REMARK VINA RESULT:    -5.381     18.341     20.735
REMARK INTER + INTRA:          -9.119
REMARK INTER:                  -8.505
REMARK INTRA:                  -0.614
REMARK UNBOUND:                -0.593
REMARK SMILES CCCCCCCCCCCC(=O)[O-]
REMARK SMILES IDX 7 1 8 2 9 3 10 4 11 5 12 6 13 7 14 8 6 9 5 10 4 11 3 12 2 13
REMARK SMILES IDX 1 14
REMARK H PARENT
REMARK Flexibility Score: inf
ROOT
ATOM      1  C   UNL     1     104.221 313.648 192.096  1.00  0.00     0.000 C 
ENDROOT
BRANCH   1   2
ATOM      2  C   UNL     1     103.851 313.648 190.600  1.00  0.00     0.000 C 
BRANCH   2   3
ATOM      3  C   UNL     1     104.328 314.884 189.809  1.00  0.00     0.000 C 
BRANCH   3   4
ATOM      4  C   UNL     1     103.708 315.038 188.409  1.00  0.00     0.006 C 
BRANCH   4   5
ATOM      5  C   UNL     1     102.351 314.336 188.278  1.00  0.00     0.053 C 
BRANCH   5   6
ATOM      6  C   UNL     1     101.252 315.344 188.146  1.00  0.00     0.041 C 
ATOM      7  O   UNL     1     101.517 316.574 188.165  1.00  0.00    -0.550 OA
ATOM      8  O   UNL     1      99.931 314.924 188.053  1.00  0.00    -0.550 OA
ENDBRANCH   5   6
ENDBRANCH   4   5
ENDBRANCH   3   4
ENDBRANCH   2   3
ENDBRANCH   1   2
BRANCH   1   9
ATOM      9  C   UNL     1     105.647 313.153 192.415  1.00  0.00     0.000 C 
BRANCH   9  10
ATOM     10  C   UNL     1     105.714 311.926 193.342  1.00  0.00    -0.000 C 
BRANCH  10  11
ATOM     11  C   UNL     1     104.380 311.165 193.418  1.00  0.00    -0.000 C 
BRANCH  11  12
ATOM     12  C   UNL     1     103.609 311.454 194.717  1.00  0.00    -0.000 C 
BRANCH  12  13
ATOM     13  C   UNL     1     104.531 311.883 195.866  1.00  0.00    -0.003 C 
ATOM     14  C   UNL     1     104.070 313.204 196.477  1.00  0.00     0.004 C 
ENDBRANCH  12  13
ENDBRANCH  11  12
ENDBRANCH  10  11
ENDBRANCH   9  10
ENDBRANCH   1   9
TORSDOF 10
ENDMDL
MODEL 9
REMARK VINA RESULT:    -5.380      4.356      7.456
REMARK INTER + INTRA:          -9.119
REMARK INTER:                  -8.288
REMARK INTRA:                  -0.831
REMARK UNBOUND:                -0.593
REMARK SMILES CCCCCCCCCCCC(=O)[O-]
REMARK SMILES IDX 7 1 8 2 9 3 10 4 11 5 12 6 13 7 14 8 6 9 5 10 4 11 3 12 2 13
REMARK SMILES IDX 1 14
REMARK H PARENT
REMARK Flexibility Score: inf
ROOT
ATOM      1  C   UNL     1      88.104 325.032 193.096  1.00  0.00     0.000 C 
ENDROOT
BRANCH   1   2
ATOM      2  C   UNL     1      86.844 324.241 192.695  1.00  0.00     0.000 C 
BRANCH   2   3
ATOM      3  C   UNL     1      86.931 323.520 191.334  1.00  0.00     0.000 C 
BRANCH   3   4
ATOM      4  C   UNL     1      88.350 323.413 190.745  1.00  0.00     0.006 C 
BRANCH   4   5
ATOM      5  C   UNL     1      88.349 323.179 189.230  1.00  0.00     0.053 C 
BRANCH   5   6
ATOM      6  C   UNL     1      87.642 321.903 188.899  1.00  0.00     0.041 C 
ATOM      7  O   UNL     1      86.608 321.920 188.181  1.00  0.00    -0.550 OA
ATOM      8  O   UNL     1      88.096 320.700 189.425  1.00  0.00    -0.550 OA
ENDBRANCH   5   6
ENDBRANCH   4   5
ENDBRANCH   3   4
ENDBRANCH   2   3
ENDBRANCH   1   2
BRANCH   1   9
ATOM      9  C   UNL     1      87.836 326.319 193.904  1.00  0.00     0.000 C 
BRANCH   9  10
ATOM     10  C   UNL     1      86.574 326.278 194.785  1.00  0.00    -0.000 C 
BRANCH  10  11
ATOM     11  C   UNL     1      86.884 326.467 196.279  1.00  0.00    -0.000 C 
BRANCH  11  12
ATOM     12  C   UNL     1      88.386 326.357 196.589  1.00  0.00    -0.000 C 
BRANCH  12  13
ATOM     13  C   UNL     1      88.723 325.121 197.433  1.00  0.00    -0.003 C 
ATOM     14  C   UNL     1      88.839 323.874 196.561  1.00  0.00     0.004 C 
ENDBRANCH  12  13
ENDBRANCH  11  12
ENDBRANCH  10  11
ENDBRANCH   9  10
ENDBRANCH   1   9
TORSDOF 10
ENDMDL
