MODEL 1
REMARK VINA RESULT:    -4.617      0.000      0.000
REMARK INTER + INTRA:         -14.209
REMARK INTER:                 -12.173
REMARK INTRA:                  -2.036
REMARK UNBOUND:                -2.036
REMARK SMILES CCCCCCCCCCCCCCCCCCCCCCCCCCCCCC(=O)[O-]
REMARK SMILES IDX 16 1 17 2 18 3 19 4 20 5 21 6 22 7 23 8 24 9 25 10 26 11
REMARK SMILES IDX 27 12 28 13 29 14 30 15 31 16 32 17 15 18 14 19 13 20 12 21
REMARK SMILES IDX 11 22 10 23 9 24 8 25 7 26 6 27 5 28 4 29 3 30 2 31 1 32
REMARK H PARENT
REMARK Flexibility Score: inf
ROOT
ATOM      1  C   UNL     1     -51.846  13.605 -29.669  1.00  0.00     0.000 C 
ENDROOT
BRANCH   1   2
ATOM      2  C   UNL     1     -52.434  12.180 -29.681  1.00  0.00     0.000 C 
BRANCH   2   3
ATOM      3  C   UNL     1     -53.294  11.909 -30.925  1.00  0.00     0.000 C 
BRANCH   3   4
ATOM      4  C   UNL     1     -52.498  11.132 -31.980  1.00  0.00     0.000 C 
BRANCH   4   5
ATOM      5  C   UNL     1     -52.360   9.652 -31.589  1.00  0.00     0.000 C 
BRANCH   5   6
ATOM      6  C   UNL     1     -53.718   8.964 -31.352  1.00  0.00     0.000 C 
BRANCH   6   7
ATOM      7  C   UNL     1     -53.801   7.504 -31.835  1.00  0.00     0.000 C 
BRANCH   7   8
ATOM      8  C   UNL     1     -54.088   7.388 -33.343  1.00  0.00     0.000 C 
BRANCH   8   9
ATOM      9  C   UNL     1     -52.835   7.036 -34.161  1.00  0.00     0.000 C 
BRANCH   9  10
ATOM     10  C   UNL     1     -51.814   6.215 -33.353  1.00  0.00     0.000 C 
BRANCH  10  11
ATOM     11  C   UNL     1     -50.445   6.914 -33.247  1.00  0.00     0.000 C 
BRANCH  11  12
ATOM     12  C   UNL     1     -49.977   7.071 -31.788  1.00  0.00     0.000 C 
BRANCH  12  13
ATOM     13  C   UNL     1     -48.442   7.139 -31.655  1.00  0.00     0.006 C 
BRANCH  13  14
ATOM     14  C   UNL     1     -47.938   7.431 -30.234  1.00  0.00     0.053 C 
BRANCH  14  15
ATOM     15  C   UNL     1     -47.985   8.892 -29.906  1.00  0.00     0.041 C 
ATOM     16  O   UNL     1     -49.044   9.550 -30.094  1.00  0.00    -0.550 OA
ATOM     17  O   UNL     1     -46.844   9.540 -29.446  1.00  0.00    -0.550 OA
ENDBRANCH  14  15
ENDBRANCH  13  14
ENDBRANCH  12  13
ENDBRANCH  11  12
ENDBRANCH  10  11
ENDBRANCH   9  10
ENDBRANCH   8   9
ENDBRANCH   7   8
ENDBRANCH   6   7
ENDBRANCH   5   6
ENDBRANCH   4   5
ENDBRANCH   3   4
ENDBRANCH   2   3
ENDBRANCH   1   2
BRANCH   1  18
ATOM     18  C   UNL     1     -50.468  13.718 -30.342  1.00  0.00     0.000 C 
BRANCH  18  19
ATOM     19  C   UNL     1     -50.366  14.917 -31.299  1.00  0.00     0.000 C 
BRANCH  19  20
ATOM     20  C   UNL     1     -51.726  15.591 -31.555  1.00  0.00     0.000 C 
BRANCH  20  21
ATOM     21  C   UNL     1     -51.851  16.954 -30.857  1.00  0.00     0.000 C 
BRANCH  21  22
ATOM     22  C   UNL     1     -53.279  17.183 -30.343  1.00  0.00     0.000 C 
BRANCH  22  23
ATOM     23  C   UNL     1     -53.625  18.678 -30.338  1.00  0.00     0.000 C 
BRANCH  23  24
ATOM     24  C   UNL     1     -54.101  19.139 -31.724  1.00  0.00    -0.000 C 
BRANCH  24  25
ATOM     25  C   UNL     1     -53.272  20.311 -32.277  1.00  0.00    -0.000 C 
BRANCH  25  26
ATOM     26  C   UNL     1     -54.125  21.314 -33.075  1.00  0.00    -0.000 C 
BRANCH  26  27
ATOM     27  C   UNL     1     -53.903  21.211 -34.597  1.00  0.00    -0.000 C 
BRANCH  27  28
ATOM     28  C   UNL     1     -53.714  22.559 -35.316  1.00  0.00    -0.000 C 
BRANCH  28  29
ATOM     29  C   UNL     1     -53.640  22.410 -36.847  1.00  0.00    -0.000 C 
BRANCH  29  30
ATOM     30  C   UNL     1     -53.510  23.762 -37.566  1.00  0.00    -0.000 C 
BRANCH  30  31
ATOM     31  C   UNL     1     -52.057  24.099 -37.931  1.00  0.00    -0.003 C 
ATOM     32  C   UNL     1     -51.507  23.120 -38.965  1.00  0.00     0.004 C 
ENDBRANCH  30  31
ENDBRANCH  29  30
ENDBRANCH  28  29
ENDBRANCH  27  28
ENDBRANCH  26  27
ENDBRANCH  25  26
ENDBRANCH  24  25
ENDBRANCH  23  24
ENDBRANCH  22  23
ENDBRANCH  21  22
ENDBRANCH  20  21
ENDBRANCH  19  20
ENDBRANCH  18  19
ENDBRANCH   1  18
TORSDOF 28
ENDMDL
MODEL 2
REMARK VINA RESULT:    -4.508      3.944     11.332
REMARK INTER + INTRA:         -13.922
REMARK INTER:                 -11.988
REMARK INTRA:                  -1.934
REMARK UNBOUND:                -2.036
REMARK SMILES CCCCCCCCCCCCCCCCCCCCCCCCCCCCCC(=O)[O-]
REMARK SMILES IDX 16 1 17 2 18 3 19 4 20 5 21 6 22 7 23 8 24 9 25 10 26 11
REMARK SMILES IDX 27 12 28 13 29 14 30 15 31 16 32 17 15 18 14 19 13 20 12 21
REMARK SMILES IDX 11 22 10 23 9 24 8 25 7 26 6 27 5 28 4 29 3 30 2 31 1 32
REMARK H PARENT
REMARK Flexibility Score: inf
ROOT
ATOM      1  C   UNL     1     -52.585  10.068 -30.494  1.00  0.00     0.000 C 
ENDROOT
BRANCH   1   2
ATOM      2  C   UNL     1     -53.983  10.374 -29.918  1.00  0.00     0.000 C 
BRANCH   2   3
ATOM      3  C   UNL     1     -54.099  11.810 -29.386  1.00  0.00     0.000 C 
BRANCH   3   4
ATOM      4  C   UNL     1     -53.798  12.827 -30.493  1.00  0.00     0.000 C 
BRANCH   4   5
ATOM      5  C   UNL     1     -52.385  13.410 -30.340  1.00  0.00     0.000 C 
BRANCH   5   6
ATOM      6  C   UNL     1     -52.267  14.402 -29.168  1.00  0.00     0.000 C 
BRANCH   6   7
ATOM      7  C   UNL     1     -53.427  14.355 -28.155  1.00  0.00     0.000 C 
BRANCH   7   8
ATOM      8  C   UNL     1     -54.020  15.744 -27.860  1.00  0.00     0.000 C 
BRANCH   8   9
ATOM      9  C   UNL     1     -53.018  16.686 -27.176  1.00  0.00     0.000 C 
BRANCH   9  10
ATOM     10  C   UNL     1     -53.124  18.133 -27.688  1.00  0.00     0.000 C 
BRANCH  10  11
ATOM     11  C   UNL     1     -54.124  18.278 -28.850  1.00  0.00     0.000 C 
BRANCH  11  12
ATOM     12  C   UNL     1     -53.600  19.203 -29.965  1.00  0.00     0.000 C 
BRANCH  12  13
ATOM     13  C   UNL     1     -53.765  18.597 -31.373  1.00  0.00     0.006 C 
BRANCH  13  14
ATOM     14  C   UNL     1     -53.426  17.101 -31.467  1.00  0.00     0.053 C 
BRANCH  14  15
ATOM     15  C   UNL     1     -51.948  16.857 -31.496  1.00  0.00     0.041 C 
ATOM     16  O   UNL     1     -51.212  17.321 -30.585  1.00  0.00    -0.550 OA
ATOM     17  O   UNL     1     -51.378  16.167 -32.560  1.00  0.00    -0.550 OA
ENDBRANCH  14  15
ENDBRANCH  13  14
ENDBRANCH  12  13
ENDBRANCH  11  12
ENDBRANCH  10  11
ENDBRANCH   9  10
ENDBRANCH   8   9
ENDBRANCH   7   8
ENDBRANCH   6   7
ENDBRANCH   5   6
ENDBRANCH   4   5
ENDBRANCH   3   4
ENDBRANCH   2   3
ENDBRANCH   1   2
BRANCH   1  18
ATOM     18  C   UNL     1     -52.065   8.662 -30.157  1.00  0.00     0.000 C 
BRANCH  18  19
ATOM     19  C   UNL     1     -52.745   7.558 -30.984  1.00  0.00     0.000 C 
BRANCH  19  20
ATOM     20  C   UNL     1     -52.932   7.950 -32.460  1.00  0.00     0.000 C 
BRANCH  20  21
ATOM     21  C   UNL     1     -51.974   7.201 -33.398  1.00  0.00     0.000 C 
BRANCH  21  22
ATOM     22  C   UNL     1     -50.514   7.387 -32.960  1.00  0.00     0.000 C 
BRANCH  22  23
ATOM     23  C   UNL     1     -50.056   6.218 -32.077  1.00  0.00     0.000 C 
BRANCH  23  24
ATOM     24  C   UNL     1     -48.708   6.527 -31.409  1.00  0.00    -0.000 C 
BRANCH  24  25
ATOM     25  C   UNL     1     -48.764   6.411 -29.876  1.00  0.00    -0.000 C 
BRANCH  25  26
ATOM     26  C   UNL     1     -47.371   6.251 -29.243  1.00  0.00    -0.000 C 
BRANCH  26  27
ATOM     27  C   UNL     1     -46.668   7.599 -28.990  1.00  0.00    -0.000 C 
BRANCH  27  28
ATOM     28  C   UNL     1     -47.117   8.747 -29.912  1.00  0.00    -0.000 C 
BRANCH  28  29
ATOM     29  C   UNL     1     -47.686   9.947 -29.133  1.00  0.00    -0.000 C 
BRANCH  29  30
ATOM     30  C   UNL     1     -49.109  10.320 -29.577  1.00  0.00    -0.000 C 
BRANCH  30  31
ATOM     31  C   UNL     1     -49.593  11.641 -28.963  1.00  0.00    -0.003 C 
ATOM     32  C   UNL     1     -48.783  12.822 -29.490  1.00  0.00     0.004 C 
ENDBRANCH  30  31
ENDBRANCH  29  30
ENDBRANCH  28  29
ENDBRANCH  27  28
ENDBRANCH  26  27
ENDBRANCH  25  26
ENDBRANCH  24  25
ENDBRANCH  23  24
ENDBRANCH  22  23
ENDBRANCH  21  22
ENDBRANCH  20  21
ENDBRANCH  19  20
ENDBRANCH  18  19
ENDBRANCH   1  18
TORSDOF 28
ENDMDL
MODEL 3
REMARK VINA RESULT:    -4.220      3.759     11.198
REMARK INTER + INTRA:         -13.164
REMARK INTER:                 -10.427
REMARK INTRA:                  -2.738
REMARK UNBOUND:                -2.036
REMARK SMILES CCCCCCCCCCCCCCCCCCCCCCCCCCCCCC(=O)[O-]
REMARK SMILES IDX 16 1 17 2 18 3 19 4 20 5 21 6 22 7 23 8 24 9 25 10 26 11
REMARK SMILES IDX 27 12 28 13 29 14 30 15 31 16 32 17 15 18 14 19 13 20 12 21
REMARK SMILES IDX 11 22 10 23 9 24 8 25 7 26 6 27 5 28 4 29 3 30 2 31 1 32
REMARK H PARENT
REMARK Flexibility Score: inf
ROOT
ATOM      1  C   UNL     1     -51.970  12.019 -31.358  1.00  0.00     0.000 C 
ENDROOT
BRANCH   1   2
ATOM      2  C   UNL     1     -52.595  13.199 -32.129  1.00  0.00     0.000 C 
BRANCH   2   3
ATOM      3  C   UNL     1     -53.425  14.121 -31.222  1.00  0.00     0.000 C 
BRANCH   3   4
ATOM      4  C   UNL     1     -53.403  15.562 -31.745  1.00  0.00     0.000 C 
BRANCH   4   5
ATOM      5  C   UNL     1     -51.972  16.005 -32.085  1.00  0.00     0.000 C 
BRANCH   5   6
ATOM      6  C   UNL     1     -51.141  16.363 -30.838  1.00  0.00     0.000 C 
BRANCH   6   7
ATOM      7  C   UNL     1     -51.256  17.828 -30.377  1.00  0.00     0.000 C 
BRANCH   7   8
ATOM      8  C   UNL     1     -52.225  18.653 -31.243  1.00  0.00     0.000 C 
BRANCH   8   9
ATOM      9  C   UNL     1     -53.321  19.344 -30.416  1.00  0.00     0.000 C 
BRANCH   9  10
ATOM     10  C   UNL     1     -54.125  18.351 -29.557  1.00  0.00     0.000 C 
BRANCH  10  11
ATOM     11  C   UNL     1     -53.821  18.489 -28.053  1.00  0.00     0.000 C 
BRANCH  11  12
ATOM     12  C   UNL     1     -52.544  17.732 -27.640  1.00  0.00     0.000 C 
BRANCH  12  13
ATOM     13  C   UNL     1     -52.843  16.378 -26.965  1.00  0.00     0.006 C 
BRANCH  13  14
ATOM     14  C   UNL     1     -53.564  15.363 -27.866  1.00  0.00     0.053 C 
BRANCH  14  15
ATOM     15  C   UNL     1     -52.720  14.158 -28.148  1.00  0.00     0.041 C 
ATOM     16  O   UNL     1     -51.498  14.292 -28.426  1.00  0.00    -0.550 OA
ATOM     17  O   UNL     1     -53.295  12.892 -28.160  1.00  0.00    -0.550 OA
ENDBRANCH  14  15
ENDBRANCH  13  14
ENDBRANCH  12  13
ENDBRANCH  11  12
ENDBRANCH  10  11
ENDBRANCH   9  10
ENDBRANCH   8   9
ENDBRANCH   7   8
ENDBRANCH   6   7
ENDBRANCH   5   6
ENDBRANCH   4   5
ENDBRANCH   3   4
ENDBRANCH   2   3
ENDBRANCH   1   2
BRANCH   1  18
ATOM     18  C   UNL     1     -52.963  10.897 -31.019  1.00  0.00     0.000 C 
BRANCH  18  19
ATOM     19  C   UNL     1     -52.272   9.610 -30.538  1.00  0.00     0.000 C 
BRANCH  19  20
ATOM     20  C   UNL     1     -53.081   8.342 -30.866  1.00  0.00     0.000 C 
BRANCH  20  21
ATOM     21  C   UNL     1     -54.076   8.557 -32.016  1.00  0.00     0.000 C 
BRANCH  21  22
ATOM     22  C   UNL     1     -53.635   7.800 -33.277  1.00  0.00     0.000 C 
BRANCH  22  23
ATOM     23  C   UNL     1     -53.308   6.337 -32.948  1.00  0.00     0.000 C 
BRANCH  23  24
ATOM     24  C   UNL     1     -51.927   5.944 -33.494  1.00  0.00    -0.000 C 
BRANCH  24  25
ATOM     25  C   UNL     1     -50.775   6.426 -32.595  1.00  0.00    -0.000 C 
BRANCH  25  26
ATOM     26  C   UNL     1     -49.761   7.302 -33.351  1.00  0.00    -0.000 C 
BRANCH  26  27
ATOM     27  C   UNL     1     -49.517   8.663 -32.671  1.00  0.00    -0.000 C 
BRANCH  27  28
ATOM     28  C   UNL     1     -48.123   8.834 -32.043  1.00  0.00    -0.000 C 
BRANCH  28  29
ATOM     29  C   UNL     1     -47.825   7.780 -30.960  1.00  0.00    -0.000 C 
BRANCH  29  30
ATOM     30  C   UNL     1     -48.151   8.280 -29.544  1.00  0.00    -0.000 C 
BRANCH  30  31
ATOM     31  C   UNL     1     -47.655   9.711 -29.293  1.00  0.00    -0.003 C 
ATOM     32  C   UNL     1     -48.817  10.700 -29.262  1.00  0.00     0.004 C 
ENDBRANCH  30  31
ENDBRANCH  29  30
ENDBRANCH  28  29
ENDBRANCH  27  28
ENDBRANCH  26  27
ENDBRANCH  25  26
ENDBRANCH  24  25
ENDBRANCH  23  24
ENDBRANCH  22  23
ENDBRANCH  21  22
ENDBRANCH  20  21
ENDBRANCH  19  20
ENDBRANCH  18  19
ENDBRANCH   1  18
TORSDOF 28
ENDMDL
MODEL 4
REMARK VINA RESULT:    -3.940      4.176     11.181
REMARK INTER + INTRA:         -12.425
REMARK INTER:                 -10.256
REMARK INTRA:                  -2.169
REMARK UNBOUND:                -2.036
REMARK SMILES CCCCCCCCCCCCCCCCCCCCCCCCCCCCCC(=O)[O-]
REMARK SMILES IDX 16 1 17 2 18 3 19 4 20 5 21 6 22 7 23 8 24 9 25 10 26 11
REMARK SMILES IDX 27 12 28 13 29 14 30 15 31 16 32 17 15 18 14 19 13 20 12 21
REMARK SMILES IDX 11 22 10 23 9 24 8 25 7 26 6 27 5 28 4 29 3 30 2 31 1 32
REMARK H PARENT
REMARK Flexibility Score: inf
ROOT
ATOM      1  C   UNL     1     -52.379  13.467 -28.897  1.00  0.00     0.000 C 
ENDROOT
BRANCH   1   2
ATOM      2  C   UNL     1     -51.540  12.243 -28.477  1.00  0.00     0.000 C 
BRANCH   2   3
ATOM      3  C   UNL     1     -50.088  12.327 -28.971  1.00  0.00     0.000 C 
BRANCH   3   4
ATOM      4  C   UNL     1     -49.731  13.763 -29.371  1.00  0.00     0.000 C 
BRANCH   4   5
ATOM      5  C   UNL     1     -49.746  13.931 -30.898  1.00  0.00     0.000 C 
BRANCH   5   6
ATOM      6  C   UNL     1     -50.390  15.255 -31.351  1.00  0.00     0.000 C 
BRANCH   6   7
ATOM      7  C   UNL     1     -50.361  16.385 -30.305  1.00  0.00     0.000 C 
BRANCH   7   8
ATOM      8  C   UNL     1     -51.386  17.496 -30.595  1.00  0.00     0.000 C 
BRANCH   8   9
ATOM      9  C   UNL     1     -52.194  17.239 -31.878  1.00  0.00     0.000 C 
BRANCH   9  10
ATOM     10  C   UNL     1     -53.638  16.794 -31.586  1.00  0.00     0.000 C 
BRANCH  10  11
ATOM     11  C   UNL     1     -54.125  17.239 -30.194  1.00  0.00     0.000 C 
BRANCH  11  12
ATOM     12  C   UNL     1     -53.751  18.701 -29.881  1.00  0.00     0.000 C 
BRANCH  12  13
ATOM     13  C   UNL     1     -53.550  18.958 -28.374  1.00  0.00     0.006 C 
BRANCH  13  14
ATOM     14  C   UNL     1     -53.897  17.763 -27.473  1.00  0.00     0.053 C 
BRANCH  14  15
ATOM     15  C   UNL     1     -52.675  17.115 -26.897  1.00  0.00     0.041 C 
ATOM     16  O   UNL     1     -52.511  15.870 -26.998  1.00  0.00    -0.550 OA
ATOM     17  O   UNL     1     -51.746  17.879 -26.200  1.00  0.00    -0.550 OA
ENDBRANCH  14  15
ENDBRANCH  13  14
ENDBRANCH  12  13
ENDBRANCH  11  12
ENDBRANCH  10  11
ENDBRANCH   9  10
ENDBRANCH   8   9
ENDBRANCH   7   8
ENDBRANCH   6   7
ENDBRANCH   5   6
ENDBRANCH   4   5
ENDBRANCH   3   4
ENDBRANCH   2   3
ENDBRANCH   1   2
BRANCH   1  18
ATOM     18  C   UNL     1     -53.763  13.111 -29.462  1.00  0.00     0.000 C 
BRANCH  18  19
ATOM     19  C   UNL     1     -53.806  13.131 -30.999  1.00  0.00     0.000 C 
BRANCH  19  20
ATOM     20  C   UNL     1     -53.498  11.756 -31.620  1.00  0.00     0.000 C 
BRANCH  20  21
ATOM     21  C   UNL     1     -53.533  10.620 -30.587  1.00  0.00     0.000 C 
BRANCH  21  22
ATOM     22  C   UNL     1     -52.636   9.452 -31.019  1.00  0.00     0.000 C 
BRANCH  22  23
ATOM     23  C   UNL     1     -53.421   8.447 -31.874  1.00  0.00     0.000 C 
BRANCH  23  24
ATOM     24  C   UNL     1     -52.811   7.041 -31.771  1.00  0.00    -0.000 C 
BRANCH  24  25
ATOM     25  C   UNL     1     -52.796   6.301 -33.120  1.00  0.00    -0.000 C 
BRANCH  25  26
ATOM     26  C   UNL     1     -51.428   6.378 -33.821  1.00  0.00    -0.000 C 
BRANCH  26  27
ATOM     27  C   UNL     1     -50.470   7.389 -33.160  1.00  0.00    -0.000 C 
BRANCH  27  28
ATOM     28  C   UNL     1     -48.992   6.962 -33.139  1.00  0.00    -0.000 C 
BRANCH  28  29
ATOM     29  C   UNL     1     -48.466   6.712 -31.714  1.00  0.00    -0.000 C 
BRANCH  29  30
ATOM     30  C   UNL     1     -48.578   7.955 -30.816  1.00  0.00    -0.000 C 
BRANCH  30  31
ATOM     31  C   UNL     1     -47.523   7.975 -29.701  1.00  0.00    -0.003 C 
ATOM     32  C   UNL     1     -46.795   9.315 -29.656  1.00  0.00     0.004 C 
ENDBRANCH  30  31
ENDBRANCH  29  30
ENDBRANCH  28  29
ENDBRANCH  27  28
ENDBRANCH  26  27
ENDBRANCH  25  26
ENDBRANCH  24  25
ENDBRANCH  23  24
ENDBRANCH  22  23
ENDBRANCH  21  22
ENDBRANCH  20  21
ENDBRANCH  19  20
ENDBRANCH  18  19
ENDBRANCH   1  18
TORSDOF 28
ENDMDL
MODEL 5
REMARK VINA RESULT:    -3.822      4.512     11.325
REMARK INTER + INTRA:         -12.114
REMARK INTER:                  -8.739
REMARK INTRA:                  -3.375
REMARK UNBOUND:                -2.036
REMARK SMILES CCCCCCCCCCCCCCCCCCCCCCCCCCCCCC(=O)[O-]
REMARK SMILES IDX 16 1 17 2 18 3 19 4 20 5 21 6 22 7 23 8 24 9 25 10 26 11
REMARK SMILES IDX 27 12 28 13 29 14 30 15 31 16 32 17 15 18 14 19 13 20 12 21
REMARK SMILES IDX 11 22 10 23 9 24 8 25 7 26 6 27 5 28 4 29 3 30 2 31 1 32
REMARK H PARENT
REMARK Flexibility Score: inf
ROOT
ATOM      1  C   UNL     1     -50.161  14.433 -30.399  1.00  0.00     0.000 C 
ENDROOT
BRANCH   1   2
ATOM      2  C   UNL     1     -50.466  15.901 -30.761  1.00  0.00     0.000 C 
BRANCH   2   3
ATOM      3  C   UNL     1     -51.474  16.025 -31.914  1.00  0.00     0.000 C 
BRANCH   3   4
ATOM      4  C   UNL     1     -52.709  16.820 -31.475  1.00  0.00     0.000 C 
BRANCH   4   5
ATOM      5  C   UNL     1     -53.774  15.894 -30.865  1.00  0.00     0.000 C 
BRANCH   5   6
ATOM      6  C   UNL     1     -53.935  16.083 -29.345  1.00  0.00     0.000 C 
BRANCH   6   7
ATOM      7  C   UNL     1     -53.860  17.542 -28.858  1.00  0.00     0.000 C 
BRANCH   7   8
ATOM      8  C   UNL     1     -52.490  17.902 -28.256  1.00  0.00     0.000 C 
BRANCH   8   9
ATOM      9  C   UNL     1     -52.030  16.902 -27.183  1.00  0.00     0.000 C 
BRANCH   9  10
ATOM     10  C   UNL     1     -51.874  17.554 -25.798  1.00  0.00     0.000 C 
BRANCH  10  11
ATOM     11  C   UNL     1     -50.445  18.072 -25.545  1.00  0.00     0.000 C 
BRANCH  11  12
ATOM     12  C   UNL     1     -49.759  17.355 -24.367  1.00  0.00     0.000 C 
BRANCH  12  13
ATOM     13  C   UNL     1     -48.232  17.238 -24.544  1.00  0.00     0.006 C 
BRANCH  13  14
ATOM     14  C   UNL     1     -47.507  16.545 -23.380  1.00  0.00     0.053 C 
BRANCH  14  15
ATOM     15  C   UNL     1     -46.053  16.329 -23.667  1.00  0.00     0.041 C 
ATOM     16  O   UNL     1     -45.489  15.260 -23.310  1.00  0.00    -0.550 OA
ATOM     17  O   UNL     1     -45.308  17.331 -24.279  1.00  0.00    -0.550 OA
ENDBRANCH  14  15
ENDBRANCH  13  14
ENDBRANCH  12  13
ENDBRANCH  11  12
ENDBRANCH  10  11
ENDBRANCH   9  10
ENDBRANCH   8   9
ENDBRANCH   7   8
ENDBRANCH   6   7
ENDBRANCH   5   6
ENDBRANCH   4   5
ENDBRANCH   3   4
ENDBRANCH   2   3
ENDBRANCH   1   2
BRANCH   1  18
ATOM     18  C   UNL     1     -50.917  13.925 -29.161  1.00  0.00     0.000 C 
BRANCH  18  19
ATOM     19  C   UNL     1     -51.647  12.594 -29.409  1.00  0.00     0.000 C 
BRANCH  19  20
ATOM     20  C   UNL     1     -52.197  12.476 -30.841  1.00  0.00     0.000 C 
BRANCH  20  21
ATOM     21  C   UNL     1     -51.950  11.091 -31.457  1.00  0.00     0.000 C 
BRANCH  21  22
ATOM     22  C   UNL     1     -51.451  10.097 -30.399  1.00  0.00     0.000 C 
BRANCH  22  23
ATOM     23  C   UNL     1     -51.690   8.650 -30.853  1.00  0.00     0.000 C 
BRANCH  23  24
ATOM     24  C   UNL     1     -52.881   8.565 -31.820  1.00  0.00    -0.000 C 
BRANCH  24  25
ATOM     25  C   UNL     1     -52.997   7.190 -32.500  1.00  0.00    -0.000 C 
BRANCH  25  26
ATOM     26  C   UNL     1     -52.077   7.058 -33.727  1.00  0.00    -0.000 C 
BRANCH  26  27
ATOM     27  C   UNL     1     -50.972   6.001 -33.538  1.00  0.00    -0.000 C 
BRANCH  27  28
ATOM     28  C   UNL     1     -49.534   6.543 -33.618  1.00  0.00    -0.000 C 
BRANCH  28  29
ATOM     29  C   UNL     1     -48.982   6.968 -32.245  1.00  0.00    -0.000 C 
BRANCH  29  30
ATOM     30  C   UNL     1     -48.321   8.355 -32.277  1.00  0.00    -0.000 C 
BRANCH  30  31
ATOM     31  C   UNL     1     -47.691   8.741 -30.931  1.00  0.00    -0.003 C 
ATOM     32  C   UNL     1     -47.473   7.512 -30.053  1.00  0.00     0.004 C 
ENDBRANCH  30  31
ENDBRANCH  29  30
ENDBRANCH  28  29
ENDBRANCH  27  28
ENDBRANCH  26  27
ENDBRANCH  25  26
ENDBRANCH  24  25
ENDBRANCH  23  24
ENDBRANCH  22  23
ENDBRANCH  21  22
ENDBRANCH  20  21
ENDBRANCH  19  20
ENDBRANCH  18  19
ENDBRANCH   1  18
TORSDOF 28
ENDMDL
MODEL 6
REMARK VINA RESULT:    -3.596      1.233      2.046
REMARK INTER + INTRA:         -11.517
REMARK INTER:                 -10.417
REMARK INTRA:                  -1.100
REMARK UNBOUND:                -2.036
REMARK SMILES CCCCCCCCCCCCCCCCCCCCCCCCCCCCCC(=O)[O-]
REMARK SMILES IDX 16 1 17 2 18 3 19 4 20 5 21 6 22 7 23 8 24 9 25 10 26 11
REMARK SMILES IDX 27 12 28 13 29 14 30 15 31 16 32 17 15 18 14 19 13 20 12 21
REMARK SMILES IDX 11 22 10 23 9 24 8 25 7 26 6 27 5 28 4 29 3 30 2 31 1 32
REMARK H PARENT
REMARK Flexibility Score: inf
ROOT
ATOM      1  C   UNL     1     -50.235  14.732 -31.326  1.00  0.00     0.000 C 
ENDROOT
BRANCH   1   2
ATOM      2  C   UNL     1     -49.253  14.189 -30.268  1.00  0.00     0.000 C 
BRANCH   2   3
ATOM      3  C   UNL     1     -49.696  12.834 -29.694  1.00  0.00     0.000 C 
BRANCH   3   4
ATOM      4  C   UNL     1     -51.125  12.497 -30.134  1.00  0.00     0.000 C 
BRANCH   4   5
ATOM      5  C   UNL     1     -51.123  11.513 -31.314  1.00  0.00     0.000 C 
BRANCH   5   6
ATOM      6  C   UNL     1     -51.374  10.057 -30.883  1.00  0.00     0.000 C 
BRANCH   6   7
ATOM      7  C   UNL     1     -52.091   9.182 -31.928  1.00  0.00     0.000 C 
BRANCH   7   8
ATOM      8  C   UNL     1     -51.115   8.408 -32.832  1.00  0.00     0.000 C 
BRANCH   8   9
ATOM      9  C   UNL     1     -51.633   7.010 -33.207  1.00  0.00     0.000 C 
BRANCH   9  10
ATOM     10  C   UNL     1     -50.849   5.884 -32.510  1.00  0.00     0.000 C 
BRANCH  10  11
ATOM     11  C   UNL     1     -49.406   6.296 -32.160  1.00  0.00     0.000 C 
BRANCH  11  12
ATOM     12  C   UNL     1     -49.031   5.947 -30.707  1.00  0.00     0.000 C 
BRANCH  12  13
ATOM     13  C   UNL     1     -47.578   6.327 -30.356  1.00  0.00     0.006 C 
BRANCH  13  14
ATOM     14  C   UNL     1     -47.437   7.230 -29.121  1.00  0.00     0.053 C 
BRANCH  14  15
ATOM     15  C   UNL     1     -47.427   8.684 -29.481  1.00  0.00     0.041 C 
ATOM     16  O   UNL     1     -46.333   9.285 -29.658  1.00  0.00    -0.550 OA
ATOM     17  O   UNL     1     -48.622   9.389 -29.566  1.00  0.00    -0.550 OA
ENDBRANCH  14  15
ENDBRANCH  13  14
ENDBRANCH  12  13
ENDBRANCH  11  12
ENDBRANCH  10  11
ENDBRANCH   9  10
ENDBRANCH   8   9
ENDBRANCH   7   8
ENDBRANCH   6   7
ENDBRANCH   5   6
ENDBRANCH   4   5
ENDBRANCH   3   4
ENDBRANCH   2   3
ENDBRANCH   1   2
BRANCH   1  18
ATOM     18  C   UNL     1     -51.117  15.887 -30.825  1.00  0.00     0.000 C 
BRANCH  18  19
ATOM     19  C   UNL     1     -51.352  15.846 -29.306  1.00  0.00     0.000 C 
BRANCH  19  20
ATOM     20  C   UNL     1     -52.836  15.663 -28.939  1.00  0.00     0.000 C 
BRANCH  20  21
ATOM     21  C   UNL     1     -53.627  16.978 -29.000  1.00  0.00     0.000 C 
BRANCH  21  22
ATOM     22  C   UNL     1     -53.952  17.360 -30.451  1.00  0.00     0.000 C 
BRANCH  22  23
ATOM     23  C   UNL     1     -54.042  18.884 -30.607  1.00  0.00     0.000 C 
BRANCH  23  24
ATOM     24  C   UNL     1     -53.516  19.330 -31.980  1.00  0.00    -0.000 C 
BRANCH  24  25
ATOM     25  C   UNL     1     -53.443  20.861 -32.118  1.00  0.00    -0.000 C 
BRANCH  25  26
ATOM     26  C   UNL     1     -54.125  21.372 -33.399  1.00  0.00    -0.000 C 
BRANCH  26  27
ATOM     27  C   UNL     1     -53.371  20.971 -34.682  1.00  0.00    -0.000 C 
BRANCH  27  28
ATOM     28  C   UNL     1     -53.230  22.090 -35.728  1.00  0.00    -0.000 C 
BRANCH  28  29
ATOM     29  C   UNL     1     -53.478  21.595 -37.165  1.00  0.00    -0.000 C 
BRANCH  29  30
ATOM     30  C   UNL     1     -53.371  22.722 -38.205  1.00  0.00    -0.000 C 
BRANCH  30  31
ATOM     31  C   UNL     1     -52.243  23.714 -37.887  1.00  0.00    -0.003 C 
ATOM     32  C   UNL     1     -52.578  25.112 -38.399  1.00  0.00     0.004 C 
ENDBRANCH  30  31
ENDBRANCH  29  30
ENDBRANCH  28  29
ENDBRANCH  27  28
ENDBRANCH  26  27
ENDBRANCH  25  26
ENDBRANCH  24  25
ENDBRANCH  23  24
ENDBRANCH  22  23
ENDBRANCH  21  22
ENDBRANCH  20  21
ENDBRANCH  19  20
ENDBRANCH  18  19
ENDBRANCH   1  18
TORSDOF 28
ENDMDL
MODEL 7
REMARK VINA RESULT:    -3.365      3.808      6.989
REMARK INTER + INTRA:         -10.908
REMARK INTER:                  -7.915
REMARK INTRA:                  -2.993
REMARK UNBOUND:                -2.036
REMARK SMILES CCCCCCCCCCCCCCCCCCCCCCCCCCCCCC(=O)[O-]
REMARK SMILES IDX 16 1 17 2 18 3 19 4 20 5 21 6 22 7 23 8 24 9 25 10 26 11
REMARK SMILES IDX 27 12 28 13 29 14 30 15 31 16 32 17 15 18 14 19 13 20 12 21
REMARK SMILES IDX 11 22 10 23 9 24 8 25 7 26 6 27 5 28 4 29 3 30 2 31 1 32
REMARK H PARENT
REMARK Flexibility Score: inf
ROOT
ATOM      1  C   UNL     1     -52.409  14.123 -29.733  1.00  0.00     0.000 C 
ENDROOT
BRANCH   1   2
ATOM      2  C   UNL     1     -52.489  12.591 -29.583  1.00  0.00     0.000 C 
BRANCH   2   3
ATOM      3  C   UNL     1     -53.157  11.915 -30.790  1.00  0.00     0.000 C 
BRANCH   3   4
ATOM      4  C   UNL     1     -52.131  11.120 -31.606  1.00  0.00     0.000 C 
BRANCH   4   5
ATOM      5  C   UNL     1     -51.712   9.838 -30.870  1.00  0.00     0.000 C 
BRANCH   5   6
ATOM      6  C   UNL     1     -52.857   8.816 -30.745  1.00  0.00     0.000 C 
BRANCH   6   7
ATOM      7  C   UNL     1     -52.416   7.340 -30.740  1.00  0.00     0.000 C 
BRANCH   7   8
ATOM      8  C   UNL     1     -52.312   6.741 -32.154  1.00  0.00     0.000 C 
BRANCH   8   9
ATOM      9  C   UNL     1     -50.893   6.834 -32.736  1.00  0.00     0.000 C 
BRANCH   9  10
ATOM     10  C   UNL     1     -49.808   6.867 -31.645  1.00  0.00     0.000 C 
BRANCH  10  11
ATOM     11  C   UNL     1     -48.468   7.425 -32.160  1.00  0.00     0.000 C 
BRANCH  11  12
ATOM     12  C   UNL     1     -48.107   8.776 -31.513  1.00  0.00     0.000 C 
BRANCH  12  13
ATOM     13  C   UNL     1     -48.437   8.825 -30.007  1.00  0.00     0.006 C 
BRANCH  13  14
ATOM     14  C   UNL     1     -47.712   9.936 -29.232  1.00  0.00     0.053 C 
BRANCH  14  15
ATOM     15  C   UNL     1     -48.606  11.104 -28.948  1.00  0.00     0.041 C 
ATOM     16  O   UNL     1     -49.035  11.819 -29.893  1.00  0.00    -0.550 OA
ATOM     17  O   UNL     1     -48.920  11.436 -27.634  1.00  0.00    -0.550 OA
ENDBRANCH  14  15
ENDBRANCH  13  14
ENDBRANCH  12  13
ENDBRANCH  11  12
ENDBRANCH  10  11
ENDBRANCH   9  10
ENDBRANCH   8   9
ENDBRANCH   7   8
ENDBRANCH   6   7
ENDBRANCH   5   6
ENDBRANCH   4   5
ENDBRANCH   3   4
ENDBRANCH   2   3
ENDBRANCH   1   2
BRANCH   1  18
ATOM     18  C   UNL     1     -50.978  14.681 -29.697  1.00  0.00     0.000 C 
BRANCH  18  19
ATOM     19  C   UNL     1     -50.673  15.627 -30.871  1.00  0.00     0.000 C 
BRANCH  19  20
ATOM     20  C   UNL     1     -51.919  16.388 -31.359  1.00  0.00     0.000 C 
BRANCH  20  21
ATOM     21  C   UNL     1     -52.016  17.803 -30.770  1.00  0.00     0.000 C 
BRANCH  21  22
ATOM     22  C   UNL     1     -53.474  18.181 -30.476  1.00  0.00     0.000 C 
BRANCH  22  23
ATOM     23  C   UNL     1     -53.902  17.672 -29.093  1.00  0.00     0.000 C 
BRANCH  23  24
ATOM     24  C   UNL     1     -52.995  18.241 -27.991  1.00  0.00    -0.000 C 
BRANCH  24  25
ATOM     25  C   UNL     1     -52.215  17.148 -27.241  1.00  0.00    -0.000 C 
BRANCH  25  26
ATOM     26  C   UNL     1     -51.812  17.578 -25.819  1.00  0.00    -0.000 C 
BRANCH  26  27
ATOM     27  C   UNL     1     -50.303  17.857 -25.682  1.00  0.00    -0.000 C 
BRANCH  27  28
ATOM     28  C   UNL     1     -49.702  17.511 -24.309  1.00  0.00    -0.000 C 
BRANCH  28  29
ATOM     29  C   UNL     1     -48.166  17.416 -24.339  1.00  0.00    -0.000 C 
BRANCH  29  30
ATOM     30  C   UNL     1     -47.624  16.307 -23.423  1.00  0.00    -0.000 C 
BRANCH  30  31
ATOM     31  C   UNL     1     -46.103  16.134 -23.540  1.00  0.00    -0.003 C 
ATOM     32  C   UNL     1     -45.474  17.296 -24.306  1.00  0.00     0.004 C 
ENDBRANCH  30  31
ENDBRANCH  29  30
ENDBRANCH  28  29
ENDBRANCH  27  28
ENDBRANCH  26  27
ENDBRANCH  25  26
ENDBRANCH  24  25
ENDBRANCH  23  24
ENDBRANCH  22  23
ENDBRANCH  21  22
ENDBRANCH  20  21
ENDBRANCH  19  20
ENDBRANCH  18  19
ENDBRANCH   1  18
TORSDOF 28
ENDMDL
MODEL 8
REMARK VINA RESULT:    -3.218      3.943     11.212
REMARK INTER + INTRA:         -10.522
REMARK INTER:                  -7.780
REMARK INTRA:                  -2.742
REMARK UNBOUND:                -2.036
REMARK SMILES CCCCCCCCCCCCCCCCCCCCCCCCCCCCCC(=O)[O-]
REMARK SMILES IDX 16 1 17 2 18 3 19 4 20 5 21 6 22 7 23 8 24 9 25 10 26 11
REMARK SMILES IDX 27 12 28 13 29 14 30 15 31 16 32 17 15 18 14 19 13 20 12 21
REMARK SMILES IDX 11 22 10 23 9 24 8 25 7 26 6 27 5 28 4 29 3 30 2 31 1 32
REMARK H PARENT
REMARK Flexibility Score: inf
ROOT
ATOM      1  C   UNL     1     -53.838  11.788 -28.926  1.00  0.00     0.000 C 
ENDROOT
BRANCH   1   2
ATOM      2  C   UNL     1     -52.402  12.349 -28.952  1.00  0.00     0.000 C 
BRANCH   2   3
ATOM      3  C   UNL     1     -52.367  13.882 -28.850  1.00  0.00     0.000 C 
BRANCH   3   4
ATOM      4  C   UNL     1     -52.914  14.526 -30.129  1.00  0.00     0.000 C 
BRANCH   4   5
ATOM      5  C   UNL     1     -52.016  14.209 -31.335  1.00  0.00     0.000 C 
BRANCH   5   6
ATOM      6  C   UNL     1     -51.082  15.374 -31.711  1.00  0.00     0.000 C 
BRANCH   6   7
ATOM      7  C   UNL     1     -50.719  16.319 -30.551  1.00  0.00     0.000 C 
BRANCH   7   8
ATOM      8  C   UNL     1     -51.433  17.679 -30.642  1.00  0.00     0.000 C 
BRANCH   8   9
ATOM      9  C   UNL     1     -52.277  17.824 -31.918  1.00  0.00     0.000 C 
BRANCH   9  10
ATOM     10  C   UNL     1     -53.762  18.091 -31.617  1.00  0.00     0.000 C 
BRANCH  10  11
ATOM     11  C   UNL     1     -54.125  17.822 -30.144  1.00  0.00     0.000 C 
BRANCH  11  12
ATOM     12  C   UNL     1     -53.609  18.925 -29.201  1.00  0.00     0.000 C 
BRANCH  12  13
ATOM     13  C   UNL     1     -53.979  18.673 -27.725  1.00  0.00     0.006 C 
BRANCH  13  14
ATOM     14  C   UNL     1     -53.790  17.221 -27.260  1.00  0.00     0.053 C 
BRANCH  14  15
ATOM     15  C   UNL     1     -52.389  16.951 -26.804  1.00  0.00     0.041 C 
ATOM     16  O   UNL     1     -51.680  16.101 -27.406  1.00  0.00    -0.550 OA
ATOM     17  O   UNL     1     -51.886  17.597 -25.680  1.00  0.00    -0.550 OA
ENDBRANCH  14  15
ENDBRANCH  13  14
ENDBRANCH  12  13
ENDBRANCH  11  12
ENDBRANCH  10  11
ENDBRANCH   9  10
ENDBRANCH   8   9
ENDBRANCH   7   8
ENDBRANCH   6   7
ENDBRANCH   5   6
ENDBRANCH   4   5
ENDBRANCH   3   4
ENDBRANCH   2   3
ENDBRANCH   1   2
BRANCH   1  18
ATOM     18  C   UNL     1     -54.015  10.489 -29.728  1.00  0.00     0.000 C 
BRANCH  18  19
ATOM     19  C   UNL     1     -53.668  10.652 -31.217  1.00  0.00     0.000 C 
BRANCH  19  20
ATOM     20  C   UNL     1     -53.079   9.370 -31.834  1.00  0.00     0.000 C 
BRANCH  20  21
ATOM     21  C   UNL     1     -53.437   8.110 -31.033  1.00  0.00     0.000 C 
BRANCH  21  22
ATOM     22  C   UNL     1     -52.553   6.924 -31.443  1.00  0.00     0.000 C 
BRANCH  22  23
ATOM     23  C   UNL     1     -52.228   6.978 -32.942  1.00  0.00     0.000 C 
BRANCH  23  24
ATOM     24  C   UNL     1     -51.232   5.875 -33.331  1.00  0.00    -0.000 C 
BRANCH  24  25
ATOM     25  C   UNL     1     -50.018   6.418 -34.104  1.00  0.00    -0.000 C 
BRANCH  25  26
ATOM     26  C   UNL     1     -48.697   6.235 -33.335  1.00  0.00    -0.000 C 
BRANCH  26  27
ATOM     27  C   UNL     1     -48.848   6.472 -31.820  1.00  0.00    -0.000 C 
BRANCH  27  28
ATOM     28  C   UNL     1     -48.377   7.852 -31.330  1.00  0.00    -0.000 C 
BRANCH  28  29
ATOM     29  C   UNL     1     -48.870   9.002 -32.228  1.00  0.00    -0.000 C 
BRANCH  29  30
ATOM     30  C   UNL     1     -49.715  10.031 -31.460  1.00  0.00    -0.000 C 
BRANCH  30  31
ATOM     31  C   UNL     1     -49.599   9.873 -29.937  1.00  0.00    -0.003 C 
ATOM     32  C   UNL     1     -49.215  11.192 -29.274  1.00  0.00     0.004 C 
ENDBRANCH  30  31
ENDBRANCH  29  30
ENDBRANCH  28  29
ENDBRANCH  27  28
ENDBRANCH  26  27
ENDBRANCH  25  26
ENDBRANCH  24  25
ENDBRANCH  23  24
ENDBRANCH  22  23
ENDBRANCH  21  22
ENDBRANCH  20  21
ENDBRANCH  19  20
ENDBRANCH  18  19
ENDBRANCH   1  18
TORSDOF 28
ENDMDL
