MODEL 1
REMARK VINA RESULT:    -1.715      0.000      0.000
REMARK INTER + INTRA:          -5.019
REMARK INTER:                  -2.918
REMARK INTRA:                  -2.101
REMARK UNBOUND:                -2.101
REMARK SMILES CCCCCCCCCCCCCC(=O)[O-]
REMARK SMILES IDX 8 1 9 2 10 3 11 4 12 5 13 6 14 7 15 8 16 9 7 10 6 11 5 12
REMARK SMILES IDX 4 13 3 14 2 15 1 16
REMARK H PARENT
REMARK Flexibility Score: inf
ROOT
ATOM      1  C   UNL     1     -16.561 -25.308  29.659  1.00  0.00     0.000 C 
ENDROOT
BRANCH   1   2
ATOM      2  C   UNL     1     -18.084 -25.107  29.567  1.00  0.00     0.000 C 
BRANCH   2   3
ATOM      3  C   UNL     1     -18.826 -25.581  30.830  1.00  0.00     0.000 C 
BRANCH   3   4
ATOM      4  C   UNL     1     -19.702 -24.517  31.520  1.00  0.00     0.000 C 
BRANCH   4   5
ATOM      5  C   UNL     1     -19.763 -23.150  30.810  1.00  0.00     0.006 C 
BRANCH   5   6
ATOM      6  C   UNL     1     -19.960 -21.957  31.765  1.00  0.00     0.053 C 
BRANCH   6   7
ATOM      7  C   UNL     1     -20.529 -20.754  31.077  1.00  0.00     0.041 C 
ATOM      8  O   UNL     1     -20.517 -19.632  31.648  1.00  0.00    -0.550 OA
ATOM      9  O   UNL     1     -21.040 -20.863  29.790  1.00  0.00    -0.550 OA
ENDBRANCH   6   7
ENDBRANCH   5   6
ENDBRANCH   4   5
ENDBRANCH   3   4
ENDBRANCH   2   3
ENDBRANCH   1   2
BRANCH   1  10
ATOM     10  C   UNL     1     -16.047 -25.261  31.106  1.00  0.00     0.000 C 
BRANCH  10  11
ATOM     11  C   UNL     1     -15.264 -23.976  31.417  1.00  0.00    -0.000 C 
BRANCH  11  12
ATOM     12  C   UNL     1     -16.196 -22.882  31.953  1.00  0.00    -0.000 C 
BRANCH  12  13
ATOM     13  C   UNL     1     -16.358 -21.747  30.930  1.00  0.00    -0.000 C 
BRANCH  13  14
ATOM     14  C   UNL     1     -15.321 -21.816  29.798  1.00  0.00    -0.000 C 
BRANCH  14  15
ATOM     15  C   UNL     1     -15.919 -21.464  28.427  1.00  0.00    -0.003 C 
ATOM     16  C   UNL     1     -17.429 -21.680  28.416  1.00  0.00     0.004 C 
ENDBRANCH  14  15
ENDBRANCH  13  14
ENDBRANCH  12  13
ENDBRANCH  11  12
ENDBRANCH  10  11
ENDBRANCH   1  10
TORSDOF 12
ENDMDL
MODEL 2
REMARK VINA RESULT:    -1.588     23.034     25.013
REMARK INTER + INTRA:          -4.803
REMARK INTER:                  -3.209
REMARK INTRA:                  -1.595
REMARK UNBOUND:                -2.101
REMARK SMILES CCCCCCCCCCCCCC(=O)[O-]
REMARK SMILES IDX 8 1 9 2 10 3 11 4 12 5 13 6 14 7 15 8 16 9 7 10 6 11 5 12
REMARK SMILES IDX 4 13 3 14 2 15 1 16
REMARK H PARENT
REMARK Flexibility Score: inf
ROOT
ATOM      1  C   UNL     1     -33.848 -32.859  14.278  1.00  0.00     0.000 C 
ENDROOT
BRANCH   1   2
ATOM      2  C   UNL     1     -34.166 -33.279  12.832  1.00  0.00     0.000 C 
BRANCH   2   3
ATOM      3  C   UNL     1     -32.951 -33.884  12.105  1.00  0.00     0.000 C 
BRANCH   3   4
ATOM      4  C   UNL     1     -32.783 -35.408  12.256  1.00  0.00     0.000 C 
BRANCH   4   5
ATOM      5  C   UNL     1     -31.392 -35.876  12.728  1.00  0.00     0.006 C 
BRANCH   5   6
ATOM      6  C   UNL     1     -30.286 -34.817  12.562  1.00  0.00     0.053 C 
BRANCH   6   7
ATOM      7  C   UNL     1     -29.724 -34.357  13.873  1.00  0.00     0.041 C 
ATOM      8  O   UNL     1     -30.473 -33.812  14.727  1.00  0.00    -0.550 OA
ATOM      9  O   UNL     1     -28.383 -34.564  14.168  1.00  0.00    -0.550 OA
ENDBRANCH   6   7
ENDBRANCH   5   6
ENDBRANCH   4   5
ENDBRANCH   3   4
ENDBRANCH   2   3
ENDBRANCH   1   2
BRANCH   1  10
ATOM     10  C   UNL     1     -34.833 -33.457  15.295  1.00  0.00     0.000 C 
BRANCH  10  11
ATOM     11  C   UNL     1     -35.125 -34.943  15.036  1.00  0.00    -0.000 C 
BRANCH  11  12
ATOM     12  C   UNL     1     -34.547 -35.819  16.155  1.00  0.00    -0.000 C 
BRANCH  12  13
ATOM     13  C   UNL     1     -33.053 -36.091  15.924  1.00  0.00    -0.000 C 
BRANCH  13  14
ATOM     14  C   UNL     1     -32.184 -35.688  17.126  1.00  0.00    -0.000 C 
BRANCH  14  15
ATOM     15  C   UNL     1     -33.012 -35.432  18.394  1.00  0.00    -0.003 C 
ATOM     16  C   UNL     1     -32.164 -35.618  19.649  1.00  0.00     0.004 C 
ENDBRANCH  14  15
ENDBRANCH  13  14
ENDBRANCH  12  13
ENDBRANCH  11  12
ENDBRANCH  10  11
ENDBRANCH   1  10
TORSDOF 12
ENDMDL
MODEL 3
REMARK VINA RESULT:    -1.566     22.920     24.750
REMARK INTER + INTRA:          -4.766
REMARK INTER:                  -2.775
REMARK INTRA:                  -1.991
REMARK UNBOUND:                -2.101
REMARK SMILES CCCCCCCCCCCCCC(=O)[O-]
REMARK SMILES IDX 8 1 9 2 10 3 11 4 12 5 13 6 14 7 15 8 16 9 7 10 6 11 5 12
REMARK SMILES IDX 4 13 3 14 2 15 1 16
REMARK H PARENT
REMARK Flexibility Score: inf
ROOT
ATOM      1  C   UNL     1     -34.300 -35.769  14.914  1.00  0.00     0.000 C 
ENDROOT
BRANCH   1   2
ATOM      2  C   UNL     1     -33.692 -34.731  15.872  1.00  0.00     0.000 C 
BRANCH   2   3
ATOM      3  C   UNL     1     -32.582 -35.316  16.763  1.00  0.00     0.000 C 
BRANCH   3   4
ATOM      4  C   UNL     1     -31.412 -35.979  16.010  1.00  0.00     0.000 C 
BRANCH   4   5
ATOM      5  C   UNL     1     -30.454 -35.009  15.292  1.00  0.00     0.006 C 
BRANCH   5   6
ATOM      6  C   UNL     1     -29.435 -35.704  14.369  1.00  0.00     0.053 C 
BRANCH   6   7
ATOM      7  C   UNL     1     -28.225 -34.860  14.105  1.00  0.00     0.041 C 
ATOM      8  O   UNL     1     -27.629 -34.290  15.058  1.00  0.00    -0.550 OA
ATOM      9  O   UNL     1     -27.732 -34.731  12.813  1.00  0.00    -0.550 OA
ENDBRANCH   6   7
ENDBRANCH   5   6
ENDBRANCH   4   5
ENDBRANCH   3   4
ENDBRANCH   2   3
ENDBRANCH   1   2
BRANCH   1  10
ATOM     10  C   UNL     1     -34.237 -35.323  13.444  1.00  0.00     0.000 C 
BRANCH  10  11
ATOM     11  C   UNL     1     -33.146 -36.056  12.648  1.00  0.00    -0.000 C 
BRANCH  11  12
ATOM     12  C   UNL     1     -32.188 -35.059  11.985  1.00  0.00    -0.000 C 
BRANCH  12  13
ATOM     13  C   UNL     1     -32.654 -33.613  12.212  1.00  0.00    -0.000 C 
BRANCH  13  14
ATOM     14  C   UNL     1     -31.575 -32.737  12.868  1.00  0.00    -0.000 C 
BRANCH  14  15
ATOM     15  C   UNL     1     -32.156 -31.475  13.523  1.00  0.00    -0.003 C 
ATOM     16  C   UNL     1     -33.662 -31.607  13.726  1.00  0.00     0.004 C 
ENDBRANCH  14  15
ENDBRANCH  13  14
ENDBRANCH  12  13
ENDBRANCH  11  12
ENDBRANCH  10  11
ENDBRANCH   1  10
TORSDOF 12
ENDMDL
MODEL 4
REMARK VINA RESULT:    -1.470     22.426     24.180
REMARK INTER + INTRA:          -4.602
REMARK INTER:                  -2.700
REMARK INTRA:                  -1.902
REMARK UNBOUND:                -2.101
REMARK SMILES CCCCCCCCCCCCCC(=O)[O-]
REMARK SMILES IDX 8 1 9 2 10 3 11 4 12 5 13 6 14 7 15 8 16 9 7 10 6 11 5 12
REMARK SMILES IDX 4 13 3 14 2 15 1 16
REMARK H PARENT
REMARK Flexibility Score: inf
ROOT
ATOM      1  C   UNL     1     -31.830 -33.298  13.422  1.00  0.00     0.000 C 
ENDROOT
BRANCH   1   2
ATOM      2  C   UNL     1     -33.259 -33.374  12.858  1.00  0.00     0.000 C 
BRANCH   2   3
ATOM      3  C   UNL     1     -34.253 -34.031  13.832  1.00  0.00     0.000 C 
BRANCH   3   4
ATOM      4  C   UNL     1     -34.088 -35.551  14.019  1.00  0.00     0.000 C 
BRANCH   4   5
ATOM      5  C   UNL     1     -33.851 -36.017  15.470  1.00  0.00     0.006 C 
BRANCH   5   6
ATOM      6  C   UNL     1     -33.284 -34.921  16.393  1.00  0.00     0.053 C 
BRANCH   6   7
ATOM      7  C   UNL     1     -33.165 -35.372  17.818  1.00  0.00     0.041 C 
ATOM      8  O   UNL     1     -32.055 -35.759  18.269  1.00  0.00    -0.550 OA
ATOM      9  O   UNL     1     -34.270 -35.330  18.658  1.00  0.00    -0.550 OA
ENDBRANCH   6   7
ENDBRANCH   5   6
ENDBRANCH   4   5
ENDBRANCH   3   4
ENDBRANCH   2   3
ENDBRANCH   1   2
BRANCH   1  10
ATOM     10  C   UNL     1     -30.806 -34.024  12.534  1.00  0.00     0.000 C 
BRANCH  10  11
ATOM     11  C   UNL     1     -30.824 -35.547  12.731  1.00  0.00    -0.000 C 
BRANCH  11  12
ATOM     12  C   UNL     1     -29.623 -36.007  13.567  1.00  0.00    -0.000 C 
BRANCH  12  13
ATOM     13  C   UNL     1     -29.998 -36.123  15.052  1.00  0.00    -0.000 C 
BRANCH  13  14
ATOM     14  C   UNL     1     -29.078 -35.292  15.962  1.00  0.00    -0.000 C 
BRANCH  14  15
ATOM     15  C   UNL     1     -29.719 -33.966  16.396  1.00  0.00    -0.003 C 
ATOM     16  C   UNL     1     -29.016 -32.778  15.746  1.00  0.00     0.004 C 
ENDBRANCH  14  15
ENDBRANCH  13  14
ENDBRANCH  12  13
ENDBRANCH  11  12
ENDBRANCH  10  11
ENDBRANCH   1  10
TORSDOF 12
ENDMDL
MODEL 5
REMARK VINA RESULT:    -1.469     22.630     24.384
REMARK INTER + INTRA:          -4.600
REMARK INTER:                  -3.062
REMARK INTRA:                  -1.539
REMARK UNBOUND:                -2.101
REMARK SMILES CCCCCCCCCCCCCC(=O)[O-]
REMARK SMILES IDX 8 1 9 2 10 3 11 4 12 5 13 6 14 7 15 8 16 9 7 10 6 11 5 12
REMARK SMILES IDX 4 13 3 14 2 15 1 16
REMARK H PARENT
REMARK Flexibility Score: inf
ROOT
ATOM      1  C   UNL     1     -34.207 -34.681  13.814  1.00  0.00     0.000 C 
ENDROOT
BRANCH   1   2
ATOM      2  C   UNL     1     -34.811 -35.841  14.624  1.00  0.00     0.000 C 
BRANCH   2   3
ATOM      3  C   UNL     1     -34.050 -36.114  15.934  1.00  0.00     0.000 C 
BRANCH   3   4
ATOM      4  C   UNL     1     -32.707 -35.375  16.085  1.00  0.00     0.000 C 
BRANCH   4   5
ATOM      5  C   UNL     1     -32.628 -34.380  17.260  1.00  0.00     0.006 C 
BRANCH   5   6
ATOM      6  C   UNL     1     -31.219 -34.239  17.867  1.00  0.00     0.053 C 
BRANCH   6   7
ATOM      7  C   UNL     1     -30.768 -35.481  18.574  1.00  0.00     0.041 C 
ATOM      8  O   UNL     1     -29.771 -36.125  18.151  1.00  0.00    -0.550 OA
ATOM      9  O   UNL     1     -31.424 -35.909  19.720  1.00  0.00    -0.550 OA
ENDBRANCH   6   7
ENDBRANCH   5   6
ENDBRANCH   4   5
ENDBRANCH   3   4
ENDBRANCH   2   3
ENDBRANCH   1   2
BRANCH   1  10
ATOM     10  C   UNL     1     -33.964 -35.054  12.343  1.00  0.00     0.000 C 
BRANCH  10  11
ATOM     11  C   UNL     1     -32.494 -34.891  11.924  1.00  0.00    -0.000 C 
BRANCH  11  12
ATOM     12  C   UNL     1     -31.595 -35.873  12.684  1.00  0.00    -0.000 C 
BRANCH  12  13
ATOM     13  C   UNL     1     -30.215 -35.256  12.958  1.00  0.00    -0.000 C 
BRANCH  13  14
ATOM     14  C   UNL     1     -30.008 -33.919  12.230  1.00  0.00    -0.000 C 
BRANCH  14  15
ATOM     15  C   UNL     1     -29.695 -32.764  13.193  1.00  0.00    -0.003 C 
ATOM     16  C   UNL     1     -30.659 -32.760  14.375  1.00  0.00     0.004 C 
ENDBRANCH  14  15
ENDBRANCH  13  14
ENDBRANCH  12  13
ENDBRANCH  11  12
ENDBRANCH  10  11
ENDBRANCH   1  10
TORSDOF 12
ENDMDL
MODEL 6
REMARK VINA RESULT:    -1.459      2.245      3.693
REMARK INTER + INTRA:          -4.585
REMARK INTER:                  -2.386
REMARK INTRA:                  -2.199
REMARK UNBOUND:                -2.101
REMARK SMILES CCCCCCCCCCCCCC(=O)[O-]
REMARK SMILES IDX 8 1 9 2 10 3 11 4 12 5 13 6 14 7 15 8 16 9 7 10 6 11 5 12
REMARK SMILES IDX 4 13 3 14 2 15 1 16
REMARK H PARENT
REMARK Flexibility Score: inf
ROOT
ATOM      1  C   UNL     1     -19.066 -21.881  31.566  1.00  0.00     0.000 C 
ENDROOT
BRANCH   1   2
ATOM      2  C   UNL     1     -19.791 -21.857  30.209  1.00  0.00     0.000 C 
BRANCH   2   3
ATOM      3  C   UNL     1     -18.955 -22.474  29.074  1.00  0.00     0.000 C 
BRANCH   3   4
ATOM      4  C   UNL     1     -19.259 -23.952  28.758  1.00  0.00     0.000 C 
BRANCH   4   5
ATOM      5  C   UNL     1     -18.373 -24.979  29.489  1.00  0.00     0.006 C 
BRANCH   5   6
ATOM      6  C   UNL     1     -18.923 -25.416  30.860  1.00  0.00     0.053 C 
BRANCH   6   7
ATOM      7  C   UNL     1     -20.401 -25.659  30.838  1.00  0.00     0.041 C 
ATOM      8  O   UNL     1     -21.180 -24.886  31.457  1.00  0.00    -0.550 OA
ATOM      9  O   UNL     1     -20.924 -26.716  30.105  1.00  0.00    -0.550 OA
ENDBRANCH   6   7
ENDBRANCH   5   6
ENDBRANCH   4   5
ENDBRANCH   3   4
ENDBRANCH   2   3
ENDBRANCH   1   2
BRANCH   1  10
ATOM     10  C   UNL     1     -18.133 -20.675  31.757  1.00  0.00     0.000 C 
BRANCH  10  11
ATOM     11  C   UNL     1     -16.660 -21.083  31.919  1.00  0.00    -0.000 C 
BRANCH  11  12
ATOM     12  C   UNL     1     -16.518 -22.609  31.978  1.00  0.00    -0.000 C 
BRANCH  12  13
ATOM     13  C   UNL     1     -15.533 -23.111  30.911  1.00  0.00    -0.000 C 
BRANCH  13  14
ATOM     14  C   UNL     1     -15.342 -22.109  29.762  1.00  0.00    -0.000 C 
BRANCH  14  15
ATOM     15  C   UNL     1     -15.335 -22.786  28.383  1.00  0.00    -0.003 C 
ATOM     16  C   UNL     1     -14.884 -24.239  28.489  1.00  0.00     0.004 C 
ENDBRANCH  14  15
ENDBRANCH  13  14
ENDBRANCH  12  13
ENDBRANCH  11  12
ENDBRANCH  10  11
ENDBRANCH   1  10
TORSDOF 12
ENDMDL
MODEL 7
REMARK VINA RESULT:    -1.438      2.340      4.526
REMARK INTER + INTRA:          -4.549
REMARK INTER:                  -2.108
REMARK INTRA:                  -2.441
REMARK UNBOUND:                -2.101
REMARK SMILES CCCCCCCCCCCCCC(=O)[O-]
REMARK SMILES IDX 8 1 9 2 10 3 11 4 12 5 13 6 14 7 15 8 16 9 7 10 6 11 5 12
REMARK SMILES IDX 4 13 3 14 2 15 1 16
REMARK H PARENT
REMARK Flexibility Score: inf
ROOT
ATOM      1  C   UNL     1     -17.249 -26.440  27.706  1.00  0.00     0.000 C 
ENDROOT
BRANCH   1   2
ATOM      2  C   UNL     1     -16.144 -26.013  28.689  1.00  0.00     0.000 C 
BRANCH   2   3
ATOM      3  C   UNL     1     -16.240 -26.732  30.046  1.00  0.00     0.000 C 
BRANCH   3   4
ATOM      4  C   UNL     1     -16.027 -25.839  31.284  1.00  0.00     0.000 C 
BRANCH   4   5
ATOM      5  C   UNL     1     -15.667 -24.371  30.985  1.00  0.00     0.006 C 
BRANCH   5   6
ATOM      6  C   UNL     1     -16.322 -23.358  31.943  1.00  0.00     0.053 C 
BRANCH   6   7
ATOM      7  C   UNL     1     -16.358 -21.970  31.380  1.00  0.00     0.041 C 
ATOM      8  O   UNL     1     -15.855 -21.731  30.250  1.00  0.00    -0.550 OA
ATOM      9  O   UNL     1     -16.977 -20.946  32.085  1.00  0.00    -0.550 OA
ENDBRANCH   6   7
ENDBRANCH   5   6
ENDBRANCH   4   5
ENDBRANCH   3   4
ENDBRANCH   2   3
ENDBRANCH   1   2
BRANCH   1  10
ATOM     10  C   UNL     1     -18.380 -25.404  27.606  1.00  0.00     0.000 C 
BRANCH  10  11
ATOM     11  C   UNL     1     -17.941 -24.001  28.053  1.00  0.00    -0.000 C 
BRANCH  11  12
ATOM     12  C   UNL     1     -18.873 -23.457  29.143  1.00  0.00    -0.000 C 
BRANCH  12  13
ATOM     13  C   UNL     1     -19.799 -24.560  29.676  1.00  0.00    -0.000 C 
BRANCH  13  14
ATOM     14  C   UNL     1     -19.649 -24.781  31.190  1.00  0.00    -0.000 C 
BRANCH  14  15
ATOM     15  C   UNL     1     -19.785 -26.258  31.588  1.00  0.00    -0.003 C 
ATOM     16  C   UNL     1     -19.990 -27.140  30.360  1.00  0.00     0.004 C 
ENDBRANCH  14  15
ENDBRANCH  13  14
ENDBRANCH  12  13
ENDBRANCH  11  12
ENDBRANCH  10  11
ENDBRANCH   1  10
TORSDOF 12
ENDMDL
MODEL 8
REMARK VINA RESULT:    -1.421     22.421     24.271
REMARK INTER + INTRA:          -4.519
REMARK INTER:                  -2.680
REMARK INTRA:                  -1.839
REMARK UNBOUND:                -2.101
REMARK SMILES CCCCCCCCCCCCCC(=O)[O-]
REMARK SMILES IDX 8 1 9 2 10 3 11 4 12 5 13 6 14 7 15 8 16 9 7 10 6 11 5 12
REMARK SMILES IDX 4 13 3 14 2 15 1 16
REMARK H PARENT
REMARK Flexibility Score: inf
ROOT
ATOM      1  C   UNL     1     -30.091 -34.608  13.678  1.00  0.00     0.000 C 
ENDROOT
BRANCH   1   2
ATOM      2  C   UNL     1     -30.155 -34.582  15.215  1.00  0.00     0.000 C 
BRANCH   2   3
ATOM      3  C   UNL     1     -31.389 -33.832  15.750  1.00  0.00     0.000 C 
BRANCH   3   4
ATOM      4  C   UNL     1     -31.721 -34.080  17.234  1.00  0.00     0.000 C 
BRANCH   4   5
ATOM      5  C   UNL     1     -32.483 -35.386  17.531  1.00  0.00     0.006 C 
BRANCH   5   6
ATOM      6  C   UNL     1     -33.279 -35.360  18.850  1.00  0.00     0.053 C 
BRANCH   6   7
ATOM      7  C   UNL     1     -32.395 -35.245  20.055  1.00  0.00     0.041 C 
ATOM      8  O   UNL     1     -31.525 -36.125  20.290  1.00  0.00    -0.550 OA
ATOM      9  O   UNL     1     -32.506 -34.147  20.899  1.00  0.00    -0.550 OA
ENDBRANCH   6   7
ENDBRANCH   5   6
ENDBRANCH   4   5
ENDBRANCH   3   4
ENDBRANCH   2   3
ENDBRANCH   1   2
BRANCH   1  10
ATOM     10  C   UNL     1     -31.442 -34.271  13.026  1.00  0.00     0.000 C 
BRANCH  10  11
ATOM     11  C   UNL     1     -32.027 -35.449  12.231  1.00  0.00    -0.000 C 
BRANCH  11  12
ATOM     12  C   UNL     1     -33.510 -35.652  12.563  1.00  0.00    -0.000 C 
BRANCH  12  13
ATOM     13  C   UNL     1     -33.689 -36.125  14.014  1.00  0.00    -0.000 C 
BRANCH  13  14
ATOM     14  C   UNL     1     -34.848 -35.413  14.730  1.00  0.00    -0.000 C 
BRANCH  14  15
ATOM     15  C   UNL     1     -35.003 -33.949  14.294  1.00  0.00    -0.003 C 
ATOM     16  C   UNL     1     -34.920 -33.008  15.492  1.00  0.00     0.004 C 
ENDBRANCH  14  15
ENDBRANCH  13  14
ENDBRANCH  12  13
ENDBRANCH  11  12
ENDBRANCH  10  11
ENDBRANCH   1  10
TORSDOF 12
ENDMDL
