MODEL 1
REMARK VINA RESULT:    -2.987      0.000      0.000
REMARK INTER + INTRA:          -8.883
REMARK INTER:                  -5.781
REMARK INTRA:                  -3.102
REMARK UNBOUND:                -3.102
REMARK SMILES CCCCCCCCCCCCCCCCCC(=O)[O-]
REMARK SMILES IDX 10 1 11 2 12 3 13 4 14 5 15 6 16 7 17 8 18 9 19 10 20 11
REMARK SMILES IDX 9 12 8 13 7 14 6 15 5 16 4 17 3 18 2 19 1 20
REMARK H PARENT
REMARK Flexibility Score: inf
ROOT
ATOM      1  C   UNL     1      10.625  39.840 151.882  1.00  0.00     0.000 C 
ENDROOT
BRANCH   1   2
ATOM      2  C   UNL     1       9.336  40.613 151.546  1.00  0.00     0.000 C 
BRANCH   2   3
ATOM      3  C   UNL     1       8.340  40.755 152.713  1.00  0.00     0.000 C 
BRANCH   3   4
ATOM      4  C   UNL     1       7.587  42.093 152.698  1.00  0.00     0.000 C 
BRANCH   4   5
ATOM      5  C   UNL     1       8.388  43.164 151.943  1.00  0.00     0.000 C 
BRANCH   5   6
ATOM      6  C   UNL     1       8.313  44.549 152.609  1.00  0.00     0.000 C 
BRANCH   6   7
ATOM      7  C   UNL     1       9.441  45.525 152.215  1.00  0.00     0.006 C 
BRANCH   7   8
ATOM      8  C   UNL     1       9.117  47.006 152.464  1.00  0.00     0.053 C 
BRANCH   8   9
ATOM      9  C   UNL     1       9.856  47.551 153.647  1.00  0.00     0.041 C 
ATOM     10  O   UNL     1      10.387  46.770 154.479  1.00  0.00    -0.550 OA
ATOM     11  O   UNL     1       9.934  48.924 153.846  1.00  0.00    -0.550 OA
ENDBRANCH   8   9
ENDBRANCH   7   8
ENDBRANCH   6   7
ENDBRANCH   5   6
ENDBRANCH   4   5
ENDBRANCH   3   4
ENDBRANCH   2   3
ENDBRANCH   1   2
BRANCH   1  12
ATOM     12  C   UNL     1      11.923  40.666 151.791  1.00  0.00     0.000 C 
BRANCH  12  13
ATOM     13  C   UNL     1      11.737  42.045 151.122  1.00  0.00    -0.000 C 
BRANCH  13  14
ATOM     14  C   UNL     1      12.173  43.202 152.033  1.00  0.00    -0.000 C 
BRANCH  14  15
ATOM     15  C   UNL     1      12.382  42.721 153.475  1.00  0.00    -0.000 C 
BRANCH  15  16
ATOM     16  C   UNL     1      11.290  43.275 154.402  1.00  0.00    -0.000 C 
BRANCH  16  17
ATOM     17  C   UNL     1      10.484  42.166 155.098  1.00  0.00    -0.000 C 
BRANCH  17  18
ATOM     18  C   UNL     1       9.744  42.670 156.349  1.00  0.00    -0.000 C 
BRANCH  18  19
ATOM     19  C   UNL     1       8.912  43.933 156.070  1.00  0.00    -0.003 C 
ATOM     20  C   UNL     1       7.414  43.716 156.279  1.00  0.00     0.004 C 
ENDBRANCH  18  19
ENDBRANCH  17  18
ENDBRANCH  16  17
ENDBRANCH  15  16
ENDBRANCH  14  15
ENDBRANCH  13  14
ENDBRANCH  12  13
ENDBRANCH   1  12
TORSDOF 16
ENDMDL
MODEL 2
REMARK VINA RESULT:    -2.835      3.440      5.264
REMARK INTER + INTRA:          -8.589
REMARK INTER:                  -5.418
REMARK INTRA:                  -3.171
REMARK UNBOUND:                -3.102
REMARK SMILES CCCCCCCCCCCCCCCCCC(=O)[O-]
REMARK SMILES IDX 10 1 11 2 12 3 13 4 14 5 15 6 16 7 17 8 18 9 19 10 20 11
REMARK SMILES IDX 9 12 8 13 7 14 6 15 5 16 4 17 3 18 2 19 1 20
REMARK H PARENT
REMARK Flexibility Score: inf
ROOT
ATOM      1  C   UNL     1       9.527  45.552 151.350  1.00  0.00     0.000 C 
ENDROOT
BRANCH   1   2
ATOM      2  C   UNL     1       8.492  44.494 150.924  1.00  0.00     0.000 C 
BRANCH   2   3
ATOM      3  C   UNL     1       8.168  43.433 151.992  1.00  0.00     0.000 C 
BRANCH   3   4
ATOM      4  C   UNL     1       8.491  42.003 151.534  1.00  0.00     0.000 C 
BRANCH   4   5
ATOM      5  C   UNL     1       8.505  41.036 152.727  1.00  0.00     0.000 C 
BRANCH   5   6
ATOM      6  C   UNL     1       9.676  40.039 152.678  1.00  0.00     0.000 C 
BRANCH   6   7
ATOM      7  C   UNL     1      10.208  39.725 151.264  1.00  0.00     0.006 C 
BRANCH   7   8
ATOM      8  C   UNL     1      11.717  39.444 151.199  1.00  0.00     0.053 C 
BRANCH   8   9
ATOM      9  C   UNL     1      12.136  38.940 149.852  1.00  0.00     0.041 C 
ATOM     10  O   UNL     1      13.080  38.114 149.748  1.00  0.00    -0.550 OA
ATOM     11  O   UNL     1      11.500  39.406 148.707  1.00  0.00    -0.550 OA
ENDBRANCH   8   9
ENDBRANCH   7   8
ENDBRANCH   6   7
ENDBRANCH   5   6
ENDBRANCH   4   5
ENDBRANCH   3   4
ENDBRANCH   2   3
ENDBRANCH   1   2
BRANCH   1  12
ATOM     12  C   UNL     1      10.928  45.381 150.733  1.00  0.00     0.000 C 
BRANCH  12  13
ATOM     13  C   UNL     1      11.094  44.079 149.920  1.00  0.00    -0.000 C 
BRANCH  13  14
ATOM     14  C   UNL     1      11.958  43.038 150.649  1.00  0.00    -0.000 C 
BRANCH  14  15
ATOM     15  C   UNL     1      12.542  43.615 151.945  1.00  0.00    -0.000 C 
BRANCH  15  16
ATOM     16  C   UNL     1      12.173  42.738 153.151  1.00  0.00    -0.000 C 
BRANCH  16  17
ATOM     17  C   UNL     1      11.172  43.420 154.097  1.00  0.00    -0.000 C 
BRANCH  17  18
ATOM     18  C   UNL     1      10.680  42.482 155.213  1.00  0.00    -0.000 C 
BRANCH  18  19
ATOM     19  C   UNL     1       9.440  43.029 155.937  1.00  0.00    -0.003 C 
ATOM     20  C   UNL     1       9.027  44.415 155.445  1.00  0.00     0.004 C 
ENDBRANCH  18  19
ENDBRANCH  17  18
ENDBRANCH  16  17
ENDBRANCH  15  16
ENDBRANCH  14  15
ENDBRANCH  13  14
ENDBRANCH  12  13
ENDBRANCH   1  12
TORSDOF 16
ENDMDL
MODEL 3
REMARK VINA RESULT:    -2.811      1.708      4.019
REMARK INTER + INTRA:          -8.542
REMARK INTER:                  -5.891
REMARK INTRA:                  -2.651
REMARK UNBOUND:                -3.102
REMARK SMILES CCCCCCCCCCCCCCCCCC(=O)[O-]
REMARK SMILES IDX 10 1 11 2 12 3 13 4 14 5 15 6 16 7 17 8 18 9 19 10 20 11
REMARK SMILES IDX 9 12 8 13 7 14 6 15 5 16 4 17 3 18 2 19 1 20
REMARK H PARENT
REMARK Flexibility Score: inf
ROOT
ATOM      1  C   UNL     1      11.107  43.649 151.317  1.00  0.00     0.000 C 
ENDROOT
BRANCH   1   2
ATOM      2  C   UNL     1      12.383  43.509 152.168  1.00  0.00     0.000 C 
BRANCH   2   3
ATOM      3  C   UNL     1      12.178  42.851 153.545  1.00  0.00     0.000 C 
BRANCH   3   4
ATOM      4  C   UNL     1      10.972  43.420 154.307  1.00  0.00     0.000 C 
BRANCH   4   5
ATOM      5  C   UNL     1      10.548  42.476 155.443  1.00  0.00     0.000 C 
BRANCH   5   6
ATOM      6  C   UNL     1       9.292  42.961 156.188  1.00  0.00     0.000 C 
BRANCH   6   7
ATOM      7  C   UNL     1       8.665  44.258 155.636  1.00  0.00     0.006 C 
BRANCH   7   8
ATOM      8  C   UNL     1       8.696  45.445 156.612  1.00  0.00     0.053 C 
BRANCH   8   9
ATOM      9  C   UNL     1       9.078  46.722 155.929  1.00  0.00     0.041 C 
ATOM     10  O   UNL     1       9.974  46.726 155.045  1.00  0.00    -0.550 OA
ATOM     11  O   UNL     1       8.462  47.914 156.290  1.00  0.00    -0.550 OA
ENDBRANCH   8   9
ENDBRANCH   7   8
ENDBRANCH   6   7
ENDBRANCH   5   6
ENDBRANCH   4   5
ENDBRANCH   3   4
ENDBRANCH   2   3
ENDBRANCH   1   2
BRANCH   1  12
ATOM     12  C   UNL     1      11.103  42.836 150.008  1.00  0.00     0.000 C 
BRANCH  12  13
ATOM     13  C   UNL     1      12.360  41.961 149.816  1.00  0.00    -0.000 C 
BRANCH  13  14
ATOM     14  C   UNL     1      12.026  40.464 149.733  1.00  0.00    -0.000 C 
BRANCH  14  15
ATOM     15  C   UNL     1      11.953  39.837 151.131  1.00  0.00    -0.000 C 
BRANCH  15  16
ATOM     16  C   UNL     1      10.511  39.437 151.478  1.00  0.00    -0.000 C 
BRANCH  16  17
ATOM     17  C   UNL     1       9.968  40.184 152.708  1.00  0.00    -0.000 C 
BRANCH  17  18
ATOM     18  C   UNL     1       8.649  40.919 152.416  1.00  0.00    -0.000 C 
BRANCH  18  19
ATOM     19  C   UNL     1       7.986  40.444 151.113  1.00  0.00    -0.003 C 
ATOM     20  C   UNL     1       7.672  41.591 150.154  1.00  0.00     0.004 C 
ENDBRANCH  18  19
ENDBRANCH  17  18
ENDBRANCH  16  17
ENDBRANCH  15  16
ENDBRANCH  14  15
ENDBRANCH  13  14
ENDBRANCH  12  13
ENDBRANCH   1  12
TORSDOF 16
ENDMDL
MODEL 4
REMARK VINA RESULT:    -2.801      1.516      3.982
REMARK INTER + INTRA:          -8.524
REMARK INTER:                  -5.540
REMARK INTRA:                  -2.984
REMARK UNBOUND:                -3.102
REMARK SMILES CCCCCCCCCCCCCCCCCC(=O)[O-]
REMARK SMILES IDX 10 1 11 2 12 3 13 4 14 5 15 6 16 7 17 8 18 9 19 10 20 11
REMARK SMILES IDX 9 12 8 13 7 14 6 15 5 16 4 17 3 18 2 19 1 20
REMARK H PARENT
REMARK Flexibility Score: inf
ROOT
ATOM      1  C   UNL     1      12.453  43.676 152.559  1.00  0.00     0.000 C 
ENDROOT
BRANCH   1   2
ATOM      2  C   UNL     1      11.960  42.714 151.463  1.00  0.00     0.000 C 
BRANCH   2   3
ATOM      3  C   UNL     1      10.824  43.263 150.579  1.00  0.00     0.000 C 
BRANCH   3   4
ATOM      4  C   UNL     1      10.359  44.664 151.002  1.00  0.00     0.000 C 
BRANCH   4   5
ATOM      5  C   UNL     1       8.923  44.623 151.544  1.00  0.00     0.000 C 
BRANCH   5   6
ATOM      6  C   UNL     1       8.637  45.734 152.569  1.00  0.00     0.000 C 
BRANCH   6   7
ATOM      7  C   UNL     1       9.793  46.730 152.794  1.00  0.00     0.006 C 
BRANCH   7   8
ATOM      8  C   UNL     1      10.155  46.964 154.268  1.00  0.00     0.053 C 
BRANCH   8   9
ATOM      9  C   UNL     1       9.769  48.336 154.729  1.00  0.00     0.041 C 
ATOM     10  O   UNL     1      10.567  49.300 154.593  1.00  0.00    -0.550 OA
ATOM     11  O   UNL     1       8.536  48.544 155.336  1.00  0.00    -0.550 OA
ENDBRANCH   8   9
ENDBRANCH   7   8
ENDBRANCH   6   7
ENDBRANCH   5   6
ENDBRANCH   4   5
ENDBRANCH   3   4
ENDBRANCH   2   3
ENDBRANCH   1   2
BRANCH   1  12
ATOM     12  C   UNL     1      12.223  43.191 154.004  1.00  0.00     0.000 C 
BRANCH  12  13
ATOM     13  C   UNL     1      10.759  43.320 154.477  1.00  0.00    -0.000 C 
BRANCH  13  14
ATOM     14  C   UNL     1      10.088  41.955 154.689  1.00  0.00    -0.000 C 
BRANCH  14  15
ATOM     15  C   UNL     1       8.721  41.897 153.995  1.00  0.00    -0.000 C 
BRANCH  15  16
ATOM     16  C   UNL     1       8.769  40.976 152.766  1.00  0.00    -0.000 C 
BRANCH  16  17
ATOM     17  C   UNL     1      10.044  40.118 152.718  1.00  0.00    -0.000 C 
BRANCH  17  18
ATOM     18  C   UNL     1      10.225  39.406 151.366  1.00  0.00    -0.000 C 
BRANCH  18  19
ATOM     19  C   UNL     1       9.207  39.874 150.314  1.00  0.00    -0.003 C 
ATOM     20  C   UNL     1       8.337  38.736 149.782  1.00  0.00     0.004 C 
ENDBRANCH  18  19
ENDBRANCH  17  18
ENDBRANCH  16  17
ENDBRANCH  15  16
ENDBRANCH  14  15
ENDBRANCH  13  14
ENDBRANCH  12  13
ENDBRANCH   1  12
TORSDOF 16
ENDMDL
MODEL 5
REMARK VINA RESULT:    -2.755      1.059      2.215
REMARK INTER + INTRA:          -8.434
REMARK INTER:                  -5.725
REMARK INTRA:                  -2.709
REMARK UNBOUND:                -3.102
REMARK SMILES CCCCCCCCCCCCCCCCCC(=O)[O-]
REMARK SMILES IDX 10 1 11 2 12 3 13 4 14 5 15 6 16 7 17 8 18 9 19 10 20 11
REMARK SMILES IDX 9 12 8 13 7 14 6 15 5 16 4 17 3 18 2 19 1 20
REMARK H PARENT
REMARK Flexibility Score: inf
ROOT
ATOM      1  C   UNL     1       8.376  40.658 152.380  1.00  0.00     0.000 C 
ENDROOT
BRANCH   1   2
ATOM      2  C   UNL     1       7.509  41.353 153.446  1.00  0.00     0.000 C 
BRANCH   2   3
ATOM      3  C   UNL     1       7.317  42.868 153.242  1.00  0.00     0.000 C 
BRANCH   3   4
ATOM      4  C   UNL     1       8.179  43.433 152.103  1.00  0.00     0.000 C 
BRANCH   4   5
ATOM      5  C   UNL     1       8.009  44.955 151.992  1.00  0.00     0.000 C 
BRANCH   5   6
ATOM      6  C   UNL     1       9.242  45.734 152.483  1.00  0.00     0.000 C 
BRANCH   6   7
ATOM      7  C   UNL     1       9.175  46.207 153.950  1.00  0.00     0.006 C 
BRANCH   7   8
ATOM      8  C   UNL     1      10.103  47.385 154.282  1.00  0.00     0.053 C 
BRANCH   8   9
ATOM      9  C   UNL     1       9.340  48.656 154.501  1.00  0.00     0.041 C 
ATOM     10  O   UNL     1       9.262  49.516 153.585  1.00  0.00    -0.550 OA
ATOM     11  O   UNL     1       8.738  48.902 155.729  1.00  0.00    -0.550 OA
ENDBRANCH   8   9
ENDBRANCH   7   8
ENDBRANCH   6   7
ENDBRANCH   5   6
ENDBRANCH   4   5
ENDBRANCH   3   4
ENDBRANCH   2   3
ENDBRANCH   1   2
BRANCH   1  12
ATOM     12  C   UNL     1       9.743  40.151 152.880  1.00  0.00     0.000 C 
BRANCH  12  13
ATOM     13  C   UNL     1      10.746  39.847 151.747  1.00  0.00    -0.000 C 
BRANCH  13  14
ATOM     14  C   UNL     1      11.965  40.780 151.776  1.00  0.00    -0.000 C 
BRANCH  14  15
ATOM     15  C   UNL     1      11.551  42.237 151.536  1.00  0.00    -0.000 C 
BRANCH  15  16
ATOM     16  C   UNL     1      12.322  43.186 152.466  1.00  0.00    -0.000 C 
BRANCH  16  17
ATOM     17  C   UNL     1      12.178  42.809 153.950  1.00  0.00    -0.000 C 
BRANCH  17  18
ATOM     18  C   UNL     1      10.838  43.270 154.549  1.00  0.00    -0.000 C 
BRANCH  18  19
ATOM     19  C   UNL     1      10.360  42.358 155.691  1.00  0.00    -0.003 C 
ATOM     20  C   UNL     1       9.257  42.994 156.536  1.00  0.00     0.004 C 
ENDBRANCH  18  19
ENDBRANCH  17  18
ENDBRANCH  16  17
ENDBRANCH  15  16
ENDBRANCH  14  15
ENDBRANCH  13  14
ENDBRANCH  12  13
ENDBRANCH   1  12
TORSDOF 16
ENDMDL
MODEL 6
REMARK VINA RESULT:    -2.753      1.797      3.208
REMARK INTER + INTRA:          -8.430
REMARK INTER:                  -5.335
REMARK INTRA:                  -3.096
REMARK UNBOUND:                -3.102
REMARK SMILES CCCCCCCCCCCCCCCCCC(=O)[O-]
REMARK SMILES IDX 10 1 11 2 12 3 13 4 14 5 15 6 16 7 17 8 18 9 19 10 20 11
REMARK SMILES IDX 9 12 8 13 7 14 6 15 5 16 4 17 3 18 2 19 1 20
REMARK H PARENT
REMARK Flexibility Score: inf
ROOT
ATOM      1  C   UNL     1      11.845  41.647 150.903  1.00  0.00     0.000 C 
ENDROOT
BRANCH   1   2
ATOM      2  C   UNL     1      11.960  40.219 151.468  1.00  0.00     0.000 C 
BRANCH   2   3
ATOM      3  C   UNL     1      10.660  39.394 151.419  1.00  0.00     0.000 C 
BRANCH   3   4
ATOM      4  C   UNL     1       9.408  40.261 151.221  1.00  0.00     0.000 C 
BRANCH   4   5
ATOM      5  C   UNL     1       8.719  40.542 152.564  1.00  0.00     0.000 C 
BRANCH   5   6
ATOM      6  C   UNL     1       8.079  41.940 152.629  1.00  0.00     0.000 C 
BRANCH   6   7
ATOM      7  C   UNL     1       8.275  42.808 151.369  1.00  0.00     0.006 C 
BRANCH   7   8
ATOM      8  C   UNL     1       8.627  44.276 151.656  1.00  0.00     0.053 C 
BRANCH   8   9
ATOM      9  C   UNL     1       7.413  45.153 151.662  1.00  0.00     0.041 C 
ATOM     10  O   UNL     1       7.224  45.970 152.601  1.00  0.00    -0.550 OA
ATOM     11  O   UNL     1       6.475  45.047 150.643  1.00  0.00    -0.550 OA
ENDBRANCH   8   9
ENDBRANCH   7   8
ENDBRANCH   6   7
ENDBRANCH   5   6
ENDBRANCH   4   5
ENDBRANCH   3   4
ENDBRANCH   2   3
ENDBRANCH   1   2
BRANCH   1  12
ATOM     12  C   UNL     1      12.028  42.775 151.937  1.00  0.00     0.000 C 
BRANCH  12  13
ATOM     13  C   UNL     1      11.959  42.292 153.402  1.00  0.00    -0.000 C 
BRANCH  13  14
ATOM     14  C   UNL     1      11.096  43.208 154.282  1.00  0.00    -0.000 C 
BRANCH  14  15
ATOM     15  C   UNL     1      10.530  42.444 155.486  1.00  0.00    -0.000 C 
BRANCH  15  16
ATOM     16  C   UNL     1       9.241  43.105 155.997  1.00  0.00    -0.000 C 
BRANCH  16  17
ATOM     17  C   UNL     1       8.927  44.428 155.279  1.00  0.00    -0.000 C 
BRANCH  17  18
ATOM     18  C   UNL     1       8.677  45.587 156.260  1.00  0.00    -0.000 C 
BRANCH  18  19
ATOM     19  C   UNL     1       9.432  46.866 155.862  1.00  0.00    -0.003 C 
ATOM     20  C   UNL     1      10.127  46.749 154.507  1.00  0.00     0.004 C 
ENDBRANCH  18  19
ENDBRANCH  17  18
ENDBRANCH  16  17
ENDBRANCH  15  16
ENDBRANCH  14  15
ENDBRANCH  13  14
ENDBRANCH  12  13
ENDBRANCH   1  12
TORSDOF 16
ENDMDL
MODEL 7
REMARK VINA RESULT:    -2.736      2.298      4.368
REMARK INTER + INTRA:          -8.398
REMARK INTER:                  -5.229
REMARK INTRA:                  -3.169
REMARK UNBOUND:                -3.102
REMARK SMILES CCCCCCCCCCCCCCCCCC(=O)[O-]
REMARK SMILES IDX 10 1 11 2 12 3 13 4 14 5 15 6 16 7 17 8 18 9 19 10 20 11
REMARK SMILES IDX 9 12 8 13 7 14 6 15 5 16 4 17 3 18 2 19 1 20
REMARK H PARENT
REMARK Flexibility Score: inf
ROOT
ATOM      1  C   UNL     1      10.348  43.156 150.619  1.00  0.00     0.000 C 
ENDROOT
BRANCH   1   2
ATOM      2  C   UNL     1      11.393  44.104 151.237  1.00  0.00     0.000 C 
BRANCH   2   3
ATOM      3  C   UNL     1      12.391  43.433 152.199  1.00  0.00     0.000 C 
BRANCH   3   4
ATOM      4  C   UNL     1      12.238  43.911 153.651  1.00  0.00     0.000 C 
BRANCH   4   5
ATOM      5  C   UNL     1      11.658  42.797 154.535  1.00  0.00     0.000 C 
BRANCH   5   6
ATOM      6  C   UNL     1      10.207  43.070 154.969  1.00  0.00     0.000 C 
BRANCH   6   7
ATOM      7  C   UNL     1       9.559  44.318 154.335  1.00  0.00     0.006 C 
BRANCH   7   8
ATOM      8  C   UNL     1       8.155  44.082 153.757  1.00  0.00     0.053 C 
BRANCH   8   9
ATOM      9  C   UNL     1       7.164  43.724 154.822  1.00  0.00     0.041 C 
ATOM     10  O   UNL     1       6.909  44.534 155.751  1.00  0.00    -0.550 OA
ATOM     11  O   UNL     1       6.541  42.482 154.802  1.00  0.00    -0.550 OA
ENDBRANCH   8   9
ENDBRANCH   7   8
ENDBRANCH   6   7
ENDBRANCH   5   6
ENDBRANCH   4   5
ENDBRANCH   3   4
ENDBRANCH   2   3
ENDBRANCH   1   2
BRANCH   1  12
ATOM     12  C   UNL     1      10.750  42.535 149.267  1.00  0.00     0.000 C 
BRANCH  12  13
ATOM     13  C   UNL     1      10.714  40.992 149.257  1.00  0.00    -0.000 C 
BRANCH  13  14
ATOM     14  C   UNL     1      12.052  40.371 149.683  1.00  0.00    -0.000 C 
BRANCH  14  15
ATOM     15  C   UNL     1      11.983  39.844 151.123  1.00  0.00    -0.000 C 
BRANCH  15  16
ATOM     16  C   UNL     1      10.534  39.523 151.520  1.00  0.00    -0.000 C 
BRANCH  16  17
ATOM     17  C   UNL     1      10.118  40.193 152.840  1.00  0.00    -0.000 C 
BRANCH  17  18
ATOM     18  C   UNL     1       8.596  40.379 152.954  1.00  0.00    -0.000 C 
BRANCH  18  19
ATOM     19  C   UNL     1       7.880  40.207 151.604  1.00  0.00    -0.003 C 
ATOM     20  C   UNL     1       7.141  41.468 151.159  1.00  0.00     0.004 C 
ENDBRANCH  18  19
ENDBRANCH  17  18
ENDBRANCH  16  17
ENDBRANCH  15  16
ENDBRANCH  14  15
ENDBRANCH  13  14
ENDBRANCH  12  13
ENDBRANCH   1  12
TORSDOF 16
ENDMDL
MODEL 8
REMARK VINA RESULT:    -2.729      3.531      6.324
REMARK INTER + INTRA:          -8.384
REMARK INTER:                  -5.709
REMARK INTRA:                  -2.675
REMARK UNBOUND:                -3.102
REMARK SMILES CCCCCCCCCCCCCCCCCC(=O)[O-]
REMARK SMILES IDX 10 1 11 2 12 3 13 4 14 5 15 6 16 7 17 8 18 9 19 10 20 11
REMARK SMILES IDX 9 12 8 13 7 14 6 15 5 16 4 17 3 18 2 19 1 20
REMARK H PARENT
REMARK Flexibility Score: inf
ROOT
ATOM      1  C   UNL     1       8.777  42.749 155.246  1.00  0.00     0.000 C 
ENDROOT
BRANCH   1   2
ATOM      2  C   UNL     1       9.957  42.115 154.488  1.00  0.00     0.000 C 
BRANCH   2   3
ATOM      3  C   UNL     1      11.279  42.902 154.565  1.00  0.00     0.000 C 
BRANCH   3   4
ATOM      4  C   UNL     1      12.035  42.936 153.229  1.00  0.00     0.000 C 
BRANCH   4   5
ATOM      5  C   UNL     1      11.952  41.576 152.520  1.00  0.00     0.000 C 
BRANCH   5   6
ATOM      6  C   UNL     1      12.030  41.694 150.987  1.00  0.00     0.000 C 
BRANCH   6   7
ATOM      7  C   UNL     1      11.241  40.621 150.208  1.00  0.00     0.006 C 
BRANCH   7   8
ATOM      8  C   UNL     1      10.511  39.600 151.094  1.00  0.00     0.053 C 
BRANCH   8   9
ATOM      9  C   UNL     1       9.969  38.453 150.297  1.00  0.00     0.041 C 
ATOM     10  O   UNL     1       8.754  38.428 149.966  1.00  0.00    -0.550 OA
ATOM     11  O   UNL     1      10.800  37.398 149.943  1.00  0.00    -0.550 OA
ENDBRANCH   8   9
ENDBRANCH   7   8
ENDBRANCH   6   7
ENDBRANCH   5   6
ENDBRANCH   4   5
ENDBRANCH   3   4
ENDBRANCH   2   3
ENDBRANCH   1   2
BRANCH   1  12
ATOM     12  C   UNL     1       9.093  43.201 156.686  1.00  0.00     0.000 C 
BRANCH  12  13
ATOM     13  C   UNL     1       8.629  44.639 157.002  1.00  0.00    -0.000 C 
BRANCH  13  14
ATOM     14  C   UNL     1       8.383  45.469 155.734  1.00  0.00    -0.000 C 
BRANCH  14  15
ATOM     15  C   UNL     1       9.355  46.653 155.652  1.00  0.00    -0.000 C 
BRANCH  15  16
ATOM     16  C   UNL     1      10.268  46.528 154.423  1.00  0.00    -0.000 C 
BRANCH  16  17
ATOM     17  C   UNL     1       9.500  46.661 153.097  1.00  0.00    -0.000 C 
BRANCH  17  18
ATOM     18  C   UNL     1       9.788  45.500 152.130  1.00  0.00    -0.000 C 
BRANCH  18  19
ATOM     19  C   UNL     1       8.607  44.522 152.016  1.00  0.00    -0.003 C 
ATOM     20  C   UNL     1       8.797  43.488 150.907  1.00  0.00     0.004 C 
ENDBRANCH  18  19
ENDBRANCH  17  18
ENDBRANCH  16  17
ENDBRANCH  15  16
ENDBRANCH  14  15
ENDBRANCH  13  14
ENDBRANCH  12  13
ENDBRANCH   1  12
TORSDOF 16
ENDMDL
MODEL 9
REMARK VINA RESULT:    -2.724      1.339      3.709
REMARK INTER + INTRA:          -8.375
REMARK INTER:                  -5.938
REMARK INTRA:                  -2.436
REMARK UNBOUND:                -3.102
REMARK SMILES CCCCCCCCCCCCCCCCCC(=O)[O-]
REMARK SMILES IDX 10 1 11 2 12 3 13 4 14 5 15 6 16 7 17 8 18 9 19 10 20 11
REMARK SMILES IDX 9 12 8 13 7 14 6 15 5 16 4 17 3 18 2 19 1 20
REMARK H PARENT
REMARK Flexibility Score: inf
ROOT
ATOM      1  C   UNL     1      11.421  42.747 151.579  1.00  0.00     0.000 C 
ENDROOT
BRANCH   1   2
ATOM      2  C   UNL     1      12.371  43.401 152.600  1.00  0.00     0.000 C 
BRANCH   2   3
ATOM      3  C   UNL     1      12.074  43.064 154.074  1.00  0.00     0.000 C 
BRANCH   3   4
ATOM      4  C   UNL     1      10.759  42.293 154.258  1.00  0.00     0.000 C 
BRANCH   4   5
ATOM      5  C   UNL     1      10.279  42.370 155.715  1.00  0.00     0.000 C 
BRANCH   5   6
ATOM      6  C   UNL     1       8.890  43.017 155.857  1.00  0.00     0.000 C 
BRANCH   6   7
ATOM      7  C   UNL     1       8.880  44.559 155.820  1.00  0.00     0.006 C 
BRANCH   7   8
ATOM      8  C   UNL     1       8.441  45.162 154.477  1.00  0.00     0.053 C 
BRANCH   8   9
ATOM      9  C   UNL     1       9.569  45.858 153.780  1.00  0.00     0.041 C 
ATOM     10  O   UNL     1       9.702  45.759 152.532  1.00  0.00    -0.550 OA
ATOM     11  O   UNL     1      10.491  46.594 154.514  1.00  0.00    -0.550 OA
ENDBRANCH   8   9
ENDBRANCH   7   8
ENDBRANCH   6   7
ENDBRANCH   5   6
ENDBRANCH   4   5
ENDBRANCH   3   4
ENDBRANCH   2   3
ENDBRANCH   1   2
BRANCH   1  12
ATOM     12  C   UNL     1      12.043  41.609 150.747  1.00  0.00     0.000 C 
BRANCH  12  13
ATOM     13  C   UNL     1      12.067  40.248 151.476  1.00  0.00    -0.000 C 
BRANCH  13  14
ATOM     14  C   UNL     1      10.893  39.344 151.069  1.00  0.00    -0.000 C 
BRANCH  14  15
ATOM     15  C   UNL     1       9.619  39.712 151.841  1.00  0.00    -0.000 C 
BRANCH  15  16
ATOM     16  C   UNL     1       8.551  40.282 150.896  1.00  0.00    -0.000 C 
BRANCH  16  17
ATOM     17  C   UNL     1       7.477  41.096 151.636  1.00  0.00    -0.000 C 
BRANCH  17  18
ATOM     18  C   UNL     1       7.480  40.835 153.152  1.00  0.00    -0.000 C 
BRANCH  18  19
ATOM     19  C   UNL     1       6.062  40.659 153.721  1.00  0.00    -0.003 C 
ATOM     20  C   UNL     1       5.620  41.838 154.588  1.00  0.00     0.004 C 
ENDBRANCH  18  19
ENDBRANCH  17  18
ENDBRANCH  16  17
ENDBRANCH  15  16
ENDBRANCH  14  15
ENDBRANCH  13  14
ENDBRANCH  12  13
ENDBRANCH   1  12
TORSDOF 16
ENDMDL
