MODEL 1
REMARK VINA RESULT:    -4.383      0.000      0.000
REMARK INTER + INTRA:         -11.911
REMARK INTER:                  -9.508
REMARK INTRA:                  -2.403
REMARK UNBOUND:                -2.403
REMARK SMILES CCCCCCCCCCCCCCCCCCCCCC(=O)[O-]
REMARK SMILES IDX 12 1 11 2 10 3 9 4 8 5 7 6 6 7 5 8 4 9 3 10 2 11 1 12 13 13
REMARK SMILES IDX 14 14 15 15 16 16 17 17 18 18 19 19 20 20 21 21 22 22 23 23
REMARK SMILES IDX 24 24
REMARK H PARENT
REMARK Flexibility Score: inf
ROOT
ATOM      1  C   UNL     1     165.673 174.221 151.527  1.00  0.00     0.000 C 
ENDROOT
BRANCH   1   2
ATOM      2  C   UNL     1     165.508 174.722 150.084  1.00  0.00     0.000 C 
BRANCH   2   3
ATOM      3  C   UNL     1     166.834 175.196 149.462  1.00  0.00     0.000 C 
BRANCH   3   4
ATOM      4  C   UNL     1     167.000 176.727 149.369  1.00  0.00    -0.000 C 
BRANCH   4   5
ATOM      5  C   UNL     1     167.808 177.368 150.516  1.00  0.00    -0.000 C 
BRANCH   5   6
ATOM      6  C   UNL     1     168.968 176.509 151.053  1.00  0.00    -0.000 C 
BRANCH   6   7
ATOM      7  C   UNL     1     169.103 176.482 152.587  1.00  0.00    -0.000 C 
BRANCH   7   8
ATOM      8  C   UNL     1     170.399 177.137 153.112  1.00  0.00    -0.000 C 
BRANCH   8   9
ATOM      9  C   UNL     1     171.216 177.811 151.994  1.00  0.00    -0.000 C 
BRANCH   9  10
ATOM     10  C   UNL     1     172.733 177.755 152.245  1.00  0.00    -0.000 C 
BRANCH  10  11
ATOM     11  C   UNL     1     173.598 177.745 150.971  1.00  0.00    -0.003 C 
ATOM     12  C   UNL     1     174.854 176.884 151.109  1.00  0.00     0.004 C 
ENDBRANCH  10  11
ENDBRANCH   9  10
ENDBRANCH   8   9
ENDBRANCH   7   8
ENDBRANCH   6   7
ENDBRANCH   5   6
ENDBRANCH   4   5
ENDBRANCH   3   4
ENDBRANCH   2   3
ENDBRANCH   1   2
BRANCH   1  13
ATOM     13  C   UNL     1     164.721 174.963 152.477  1.00  0.00     0.000 C 
BRANCH  13  14
ATOM     14  C   UNL     1     165.125 176.432 152.714  1.00  0.00     0.000 C 
BRANCH  14  15
ATOM     15  C   UNL     1     163.976 177.451 152.579  1.00  0.00     0.000 C 
BRANCH  15  16
ATOM     16  C   UNL     1     163.530 177.719 151.122  1.00  0.00     0.000 C 
BRANCH  16  17
ATOM     17  C   UNL     1     162.295 176.904 150.694  1.00  0.00     0.000 C 
BRANCH  17  18
ATOM     18  C   UNL     1     160.960 177.668 150.769  1.00  0.00     0.000 C 
BRANCH  18  19
ATOM     19  C   UNL     1     160.220 177.565 152.118  1.00  0.00     0.000 C 
BRANCH  19  20
ATOM     20  C   UNL     1     160.265 176.180 152.792  1.00  0.00     0.006 C 
BRANCH  20  21
ATOM     21  C   UNL     1     159.481 175.091 152.038  1.00  0.00     0.053 C 
BRANCH  21  22
ATOM     22  C   UNL     1     160.114 173.738 152.163  1.00  0.00     0.041 C 
ATOM     23  O   UNL     1     159.443 172.760 152.587  1.00  0.00    -0.550 OA
ATOM     24  O   UNL     1     161.457 173.565 151.854  1.00  0.00    -0.550 OA
ENDBRANCH  21  22
ENDBRANCH  20  21
ENDBRANCH  19  20
ENDBRANCH  18  19
ENDBRANCH  17  18
ENDBRANCH  16  17
ENDBRANCH  15  16
ENDBRANCH  14  15
ENDBRANCH  13  14
ENDBRANCH   1  13
TORSDOF 20
ENDMDL
MODEL 2
REMARK VINA RESULT:    -4.358      9.344     11.772
REMARK INTER + INTRA:         -11.855
REMARK INTER:                  -8.053
REMARK INTRA:                  -3.802
REMARK UNBOUND:                -2.403
REMARK SMILES CCCCCCCCCCCCCCCCCCCCCC(=O)[O-]
REMARK SMILES IDX 12 1 11 2 10 3 9 4 8 5 7 6 6 7 5 8 4 9 3 10 2 11 1 12 13 13
REMARK SMILES IDX 14 14 15 15 16 16 17 17 18 18 19 19 20 20 21 21 22 22 23 23
REMARK SMILES IDX 24 24
REMARK H PARENT
REMARK Flexibility Score: inf
ROOT
ATOM      1  C   UNL     1     174.601 174.411 151.073  1.00  0.00     0.000 C 
ENDROOT
BRANCH   1   2
ATOM      2  C   UNL     1     176.106 174.694 151.203  1.00  0.00     0.000 C 
BRANCH   2   3
ATOM      3  C   UNL     1     176.976 173.490 150.802  1.00  0.00     0.000 C 
BRANCH   3   4
ATOM      4  C   UNL     1     176.258 172.421 149.953  1.00  0.00    -0.000 C 
BRANCH   4   5
ATOM      5  C   UNL     1     176.527 170.961 150.375  1.00  0.00    -0.000 C 
BRANCH   5   6
ATOM      6  C   UNL     1     175.681 170.462 151.561  1.00  0.00    -0.000 C 
BRANCH   6   7
ATOM      7  C   UNL     1     176.396 170.482 152.925  1.00  0.00    -0.000 C 
BRANCH   7   8
ATOM      8  C   UNL     1     175.748 171.432 153.956  1.00  0.00    -0.000 C 
BRANCH   8   9
ATOM      9  C   UNL     1     174.380 171.964 153.492  1.00  0.00    -0.000 C 
BRANCH   9  10
ATOM     10  C   UNL     1     173.220 171.498 154.389  1.00  0.00    -0.000 C 
BRANCH  10  11
ATOM     11  C   UNL     1     172.300 172.625 154.893  1.00  0.00    -0.003 C 
ATOM     12  C   UNL     1     172.147 173.767 153.888  1.00  0.00     0.004 C 
ENDBRANCH  10  11
ENDBRANCH   9  10
ENDBRANCH   8   9
ENDBRANCH   7   8
ENDBRANCH   6   7
ENDBRANCH   5   6
ENDBRANCH   4   5
ENDBRANCH   3   4
ENDBRANCH   2   3
ENDBRANCH   1   2
BRANCH   1  13
ATOM     13  C   UNL     1     173.815 175.713 150.856  1.00  0.00     0.000 C 
BRANCH  13  14
ATOM     14  C   UNL     1     174.722 176.947 150.686  1.00  0.00     0.000 C 
BRANCH  14  15
ATOM     15  C   UNL     1     174.404 178.123 151.632  1.00  0.00     0.000 C 
BRANCH  15  16
ATOM     16  C   UNL     1     173.284 177.830 152.656  1.00  0.00     0.000 C 
BRANCH  16  17
ATOM     17  C   UNL     1     173.780 177.754 154.113  1.00  0.00     0.000 C 
BRANCH  17  18
ATOM     18  C   UNL     1     175.301 177.931 154.286  1.00  0.00     0.000 C 
BRANCH  18  19
ATOM     19  C   UNL     1     176.080 176.639 154.602  1.00  0.00     0.000 C 
BRANCH  19  20
ATOM     20  C   UNL     1     175.229 175.357 154.683  1.00  0.00     0.006 C 
BRANCH  20  21
ATOM     21  C   UNL     1     175.270 174.664 156.058  1.00  0.00     0.053 C 
BRANCH  21  22
ATOM     22  C   UNL     1     176.669 174.371 156.509  1.00  0.00     0.041 C 
ATOM     23  O   UNL     1     177.051 174.719 157.658  1.00  0.00    -0.550 OA
ATOM     24  O   UNL     1     177.565 173.751 155.647  1.00  0.00    -0.550 OA
ENDBRANCH  21  22
ENDBRANCH  20  21
ENDBRANCH  19  20
ENDBRANCH  18  19
ENDBRANCH  17  18
ENDBRANCH  16  17
ENDBRANCH  15  16
ENDBRANCH  14  15
ENDBRANCH  13  14
ENDBRANCH   1  13
TORSDOF 20
ENDMDL
MODEL 3
REMARK VINA RESULT:    -4.304      5.643      9.505
REMARK INTER + INTRA:         -11.738
REMARK INTER:                  -8.088
REMARK INTRA:                  -3.650
REMARK UNBOUND:                -2.403
REMARK SMILES CCCCCCCCCCCCCCCCCCCCCC(=O)[O-]
REMARK SMILES IDX 12 1 11 2 10 3 9 4 8 5 7 6 6 7 5 8 4 9 3 10 2 11 1 12 13 13
REMARK SMILES IDX 14 14 15 15 16 16 17 17 18 18 19 19 20 20 21 21 22 22 23 23
REMARK SMILES IDX 24 24
REMARK H PARENT
REMARK Flexibility Score: inf
ROOT
ATOM      1  C   UNL     1     176.952 173.311 151.187  1.00  0.00     0.000 C 
ENDROOT
BRANCH   1   2
ATOM      2  C   UNL     1     176.657 172.307 150.063  1.00  0.00     0.000 C 
BRANCH   2   3
ATOM      3  C   UNL     1     176.020 171.004 150.579  1.00  0.00     0.000 C 
BRANCH   3   4
ATOM      4  C   UNL     1     174.480 170.959 150.513  1.00  0.00    -0.000 C 
BRANCH   4   5
ATOM      5  C   UNL     1     173.827 172.094 149.697  1.00  0.00    -0.000 C 
BRANCH   5   6
ATOM      6  C   UNL     1     173.249 173.248 150.537  1.00  0.00    -0.000 C 
BRANCH   6   7
ATOM      7  C   UNL     1     172.740 172.845 151.934  1.00  0.00    -0.000 C 
BRANCH   7   8
ATOM      8  C   UNL     1     173.201 173.792 153.063  1.00  0.00    -0.000 C 
BRANCH   8   9
ATOM      9  C   UNL     1     173.774 173.034 154.274  1.00  0.00    -0.000 C 
BRANCH   9  10
ATOM     10  C   UNL     1     175.200 172.508 154.033  1.00  0.00    -0.000 C 
BRANCH  10  11
ATOM     11  C   UNL     1     176.296 173.215 154.850  1.00  0.00    -0.003 C 
ATOM     12  C   UNL     1     175.939 174.659 155.205  1.00  0.00     0.004 C 
ENDBRANCH  10  11
ENDBRANCH   9  10
ENDBRANCH   8   9
ENDBRANCH   7   8
ENDBRANCH   6   7
ENDBRANCH   5   6
ENDBRANCH   4   5
ENDBRANCH   3   4
ENDBRANCH   2   3
ENDBRANCH   1   2
BRANCH   1  13
ATOM     13  C   UNL     1     176.802 174.756 150.686  1.00  0.00     0.000 C 
BRANCH  13  14
ATOM     14  C   UNL     1     175.855 175.604 151.557  1.00  0.00     0.000 C 
BRANCH  14  15
ATOM     15  C   UNL     1     174.962 176.589 150.777  1.00  0.00     0.000 C 
BRANCH  15  16
ATOM     16  C   UNL     1     174.570 177.857 151.570  1.00  0.00     0.000 C 
BRANCH  16  17
ATOM     17  C   UNL     1     174.351 177.604 153.074  1.00  0.00     0.000 C 
BRANCH  17  18
ATOM     18  C   UNL     1     172.877 177.625 153.524  1.00  0.00     0.000 C 
BRANCH  18  19
ATOM     19  C   UNL     1     171.847 177.784 152.388  1.00  0.00     0.000 C 
BRANCH  19  20
ATOM     20  C   UNL     1     171.334 176.467 151.772  1.00  0.00     0.006 C 
BRANCH  20  21
ATOM     21  C   UNL     1     169.982 175.997 152.338  1.00  0.00     0.053 C 
BRANCH  21  22
ATOM     22  C   UNL     1     168.862 176.933 151.998  1.00  0.00     0.041 C 
ATOM     23  O   UNL     1     168.527 177.114 150.798  1.00  0.00    -0.550 OA
ATOM     24  O   UNL     1     168.214 177.641 153.004  1.00  0.00    -0.550 OA
ENDBRANCH  21  22
ENDBRANCH  20  21
ENDBRANCH  19  20
ENDBRANCH  18  19
ENDBRANCH  17  18
ENDBRANCH  16  17
ENDBRANCH  15  16
ENDBRANCH  14  15
ENDBRANCH  13  14
ENDBRANCH   1  13
TORSDOF 20
ENDMDL
MODEL 4
REMARK VINA RESULT:    -4.288      4.067      8.855
REMARK INTER + INTRA:         -11.703
REMARK INTER:                  -8.902
REMARK INTRA:                  -2.801
REMARK UNBOUND:                -2.403
REMARK SMILES CCCCCCCCCCCCCCCCCCCCCC(=O)[O-]
REMARK SMILES IDX 12 1 11 2 10 3 9 4 8 5 7 6 6 7 5 8 4 9 3 10 2 11 1 12 13 13
REMARK SMILES IDX 14 14 15 15 16 16 17 17 18 18 19 19 20 20 21 21 22 22 23 23
REMARK SMILES IDX 24 24
REMARK H PARENT
REMARK Flexibility Score: inf
ROOT
ATOM      1  C   UNL     1     163.908 175.312 151.425  1.00  0.00     0.000 C 
ENDROOT
BRANCH   1   2
ATOM      2  C   UNL     1     164.345 176.780 151.542  1.00  0.00     0.000 C 
BRANCH   2   3
ATOM      3  C   UNL     1     163.262 177.764 151.066  1.00  0.00     0.000 C 
BRANCH   3   4
ATOM      4  C   UNL     1     161.927 177.114 150.649  1.00  0.00    -0.000 C 
BRANCH   4   5
ATOM      5  C   UNL     1     160.675 177.987 150.872  1.00  0.00    -0.000 C 
BRANCH   5   6
ATOM      6  C   UNL     1     160.069 177.905 152.285  1.00  0.00    -0.000 C 
BRANCH   6   7
ATOM      7  C   UNL     1     160.328 176.581 153.028  1.00  0.00    -0.000 C 
BRANCH   7   8
ATOM      8  C   UNL     1     161.051 176.755 154.381  1.00  0.00    -0.000 C 
BRANCH   8   9
ATOM      9  C   UNL     1     161.839 178.074 154.465  1.00  0.00    -0.000 C 
BRANCH   9  10
ATOM     10  C   UNL     1     163.195 177.919 155.177  1.00  0.00    -0.000 C 
BRANCH  10  11
ATOM     11  C   UNL     1     163.745 176.482 155.213  1.00  0.00    -0.003 C 
ATOM     12  C   UNL     1     164.006 175.977 156.632  1.00  0.00     0.004 C 
ENDBRANCH  10  11
ENDBRANCH   9  10
ENDBRANCH   8   9
ENDBRANCH   7   8
ENDBRANCH   6   7
ENDBRANCH   5   6
ENDBRANCH   4   5
ENDBRANCH   3   4
ENDBRANCH   2   3
ENDBRANCH   1   2
BRANCH   1  13
ATOM     13  C   UNL     1     165.107 174.407 151.099  1.00  0.00     0.000 C 
BRANCH  13  14
ATOM     14  C   UNL     1     165.657 174.620 149.675  1.00  0.00     0.000 C 
BRANCH  14  15
ATOM     15  C   UNL     1     167.132 175.064 149.607  1.00  0.00     0.000 C 
BRANCH  15  16
ATOM     16  C   UNL     1     167.330 176.571 149.325  1.00  0.00     0.000 C 
BRANCH  16  17
ATOM     17  C   UNL     1     168.164 177.297 150.398  1.00  0.00     0.000 C 
BRANCH  17  18
ATOM     18  C   UNL     1     168.164 176.621 151.782  1.00  0.00     0.000 C 
BRANCH  18  19
ATOM     19  C   UNL     1     169.391 176.929 152.663  1.00  0.00     0.000 C 
BRANCH  19  20
ATOM     20  C   UNL     1     170.748 176.480 152.085  1.00  0.00     0.006 C 
BRANCH  20  21
ATOM     21  C   UNL     1     171.732 177.636 151.828  1.00  0.00     0.053 C 
BRANCH  21  22
ATOM     22  C   UNL     1     172.918 177.594 152.743  1.00  0.00     0.041 C 
ATOM     23  O   UNL     1     172.831 178.047 153.915  1.00  0.00    -0.550 OA
ATOM     24  O   UNL     1     174.132 177.094 152.289  1.00  0.00    -0.550 OA
ENDBRANCH  21  22
ENDBRANCH  20  21
ENDBRANCH  19  20
ENDBRANCH  18  19
ENDBRANCH  17  18
ENDBRANCH  16  17
ENDBRANCH  15  16
ENDBRANCH  14  15
ENDBRANCH  13  14
ENDBRANCH   1  13
TORSDOF 20
ENDMDL
MODEL 5
REMARK VINA RESULT:    -4.285      4.646     10.108
REMARK INTER + INTRA:         -11.698
REMARK INTER:                  -9.667
REMARK INTRA:                  -2.031
REMARK UNBOUND:                -2.403
REMARK SMILES CCCCCCCCCCCCCCCCCCCCCC(=O)[O-]
REMARK SMILES IDX 12 1 11 2 10 3 9 4 8 5 7 6 6 7 5 8 4 9 3 10 2 11 1 12 13 13
REMARK SMILES IDX 14 14 15 15 16 16 17 17 18 18 19 19 20 20 21 21 22 22 23 23
REMARK SMILES IDX 24 24
REMARK H PARENT
REMARK Flexibility Score: inf
ROOT
ATOM      1  C   UNL     1     166.161 174.529 151.712  1.00  0.00     0.000 C 
ENDROOT
BRANCH   1   2
ATOM      2  C   UNL     1     165.781 175.121 150.346  1.00  0.00     0.000 C 
BRANCH   2   3
ATOM      3  C   UNL     1     166.942 175.885 149.684  1.00  0.00     0.000 C 
BRANCH   3   4
ATOM      4  C   UNL     1     166.866 177.420 149.805  1.00  0.00    -0.000 C 
BRANCH   4   5
ATOM      5  C   UNL     1     165.510 177.972 150.293  1.00  0.00    -0.000 C 
BRANCH   5   6
ATOM      6  C   UNL     1     165.383 178.125 151.820  1.00  0.00    -0.000 C 
BRANCH   6   7
ATOM      7  C   UNL     1     164.104 177.521 152.431  1.00  0.00    -0.000 C 
BRANCH   7   8
ATOM      8  C   UNL     1     162.827 177.800 151.608  1.00  0.00    -0.000 C 
BRANCH   8   9
ATOM      9  C   UNL     1     162.313 176.550 150.871  1.00  0.00    -0.000 C 
BRANCH   9  10
ATOM     10  C   UNL     1     160.783 176.535 150.711  1.00  0.00    -0.000 C 
BRANCH  10  11
ATOM     11  C   UNL     1     159.999 176.294 152.014  1.00  0.00    -0.003 C 
ATOM     12  C   UNL     1     159.668 174.821 152.249  1.00  0.00     0.004 C 
ENDBRANCH  10  11
ENDBRANCH   9  10
ENDBRANCH   8   9
ENDBRANCH   7   8
ENDBRANCH   6   7
ENDBRANCH   5   6
ENDBRANCH   4   5
ENDBRANCH   3   4
ENDBRANCH   2   3
ENDBRANCH   1   2
BRANCH   1  13
ATOM     13  C   UNL     1     167.653 174.744 152.007  1.00  0.00     0.000 C 
BRANCH  13  14
ATOM     14  C   UNL     1     167.905 175.587 153.272  1.00  0.00     0.000 C 
BRANCH  14  15
ATOM     15  C   UNL     1     168.736 176.867 153.046  1.00  0.00     0.000 C 
BRANCH  15  16
ATOM     16  C   UNL     1     169.683 176.803 151.825  1.00  0.00     0.000 C 
BRANCH  16  17
ATOM     17  C   UNL     1     170.970 177.631 151.996  1.00  0.00     0.000 C 
BRANCH  17  18
ATOM     18  C   UNL     1     172.262 176.914 151.557  1.00  0.00     0.000 C 
BRANCH  18  19
ATOM     19  C   UNL     1     173.528 177.794 151.545  1.00  0.00     0.000 C 
BRANCH  19  20
ATOM     20  C   UNL     1     174.788 177.128 150.958  1.00  0.00     0.006 C 
BRANCH  20  21
ATOM     21  C   UNL     1     174.860 175.608 151.192  1.00  0.00     0.053 C 
BRANCH  21  22
ATOM     22  C   UNL     1     175.920 175.230 152.181  1.00  0.00     0.041 C 
ATOM     23  O   UNL     1     176.790 174.370 151.881  1.00  0.00    -0.550 OA
ATOM     24  O   UNL     1     175.924 175.795 153.451  1.00  0.00    -0.550 OA
ENDBRANCH  21  22
ENDBRANCH  20  21
ENDBRANCH  19  20
ENDBRANCH  18  19
ENDBRANCH  17  18
ENDBRANCH  16  17
ENDBRANCH  15  16
ENDBRANCH  14  15
ENDBRANCH  13  14
ENDBRANCH   1  13
TORSDOF 20
ENDMDL
MODEL 6
REMARK VINA RESULT:    -4.261      6.188     10.962
REMARK INTER + INTRA:         -11.645
REMARK INTER:                  -8.483
REMARK INTRA:                  -3.162
REMARK UNBOUND:                -2.403
REMARK SMILES CCCCCCCCCCCCCCCCCCCCCC(=O)[O-]
REMARK SMILES IDX 12 1 11 2 10 3 9 4 8 5 7 6 6 7 5 8 4 9 3 10 2 11 1 12 13 13
REMARK SMILES IDX 14 14 15 15 16 16 17 17 18 18 19 19 20 20 21 21 22 22 23 23
REMARK SMILES IDX 24 24
REMARK H PARENT
REMARK Flexibility Score: inf
ROOT
ATOM      1  C   UNL     1     175.213 174.018 151.152  1.00  0.00     0.000 C 
ENDROOT
BRANCH   1   2
ATOM      2  C   UNL     1     173.752 173.983 150.679  1.00  0.00     0.000 C 
BRANCH   2   3
ATOM      3  C   UNL     1     172.948 172.833 151.312  1.00  0.00     0.000 C 
BRANCH   3   4
ATOM      4  C   UNL     1     171.585 173.241 151.907  1.00  0.00    -0.000 C 
BRANCH   4   5
ATOM      5  C   UNL     1     171.648 173.886 153.307  1.00  0.00    -0.000 C 
BRANCH   5   6
ATOM      6  C   UNL     1     171.539 175.421 153.321  1.00  0.00    -0.000 C 
BRANCH   6   7
ATOM      7  C   UNL     1     171.114 176.056 151.983  1.00  0.00    -0.000 C 
BRANCH   7   8
ATOM      8  C   UNL     1     170.288 177.351 152.140  1.00  0.00    -0.000 C 
BRANCH   8   9
ATOM      9  C   UNL     1     168.985 177.130 152.928  1.00  0.00    -0.000 C 
BRANCH   9  10
ATOM     10  C   UNL     1     167.756 176.956 152.018  1.00  0.00    -0.000 C 
BRANCH  10  11
ATOM     11  C   UNL     1     168.057 177.006 150.509  1.00  0.00    -0.003 C 
ATOM     12  C   UNL     1     167.587 175.757 149.764  1.00  0.00     0.004 C 
ENDBRANCH  10  11
ENDBRANCH   9  10
ENDBRANCH   8   9
ENDBRANCH   7   8
ENDBRANCH   6   7
ENDBRANCH   5   6
ENDBRANCH   4   5
ENDBRANCH   3   4
ENDBRANCH   2   3
ENDBRANCH   1   2
BRANCH   1  13
ATOM     13  C   UNL     1     175.780 175.444 151.076  1.00  0.00     0.000 C 
BRANCH  13  14
ATOM     14  C   UNL     1     174.703 176.509 150.795  1.00  0.00     0.000 C 
BRANCH  14  15
ATOM     15  C   UNL     1     174.933 177.865 151.493  1.00  0.00     0.000 C 
BRANCH  15  16
ATOM     16  C   UNL     1     174.191 178.020 152.841  1.00  0.00     0.000 C 
BRANCH  16  17
ATOM     17  C   UNL     1     175.131 178.119 154.057  1.00  0.00     0.000 C 
BRANCH  17  18
ATOM     18  C   UNL     1     175.877 176.816 154.403  1.00  0.00     0.000 C 
BRANCH  18  19
ATOM     19  C   UNL     1     175.062 175.789 155.215  1.00  0.00     0.000 C 
BRANCH  19  20
ATOM     20  C   UNL     1     175.065 174.353 154.655  1.00  0.00     0.006 C 
BRANCH  20  21
ATOM     21  C   UNL     1     176.203 173.471 155.200  1.00  0.00     0.053 C 
BRANCH  21  22
ATOM     22  C   UNL     1     176.748 172.535 154.165  1.00  0.00     0.041 C 
ATOM     23  O   UNL     1     177.735 172.874 153.459  1.00  0.00    -0.550 OA
ATOM     24  O   UNL     1     176.141 171.304 153.947  1.00  0.00    -0.550 OA
ENDBRANCH  21  22
ENDBRANCH  20  21
ENDBRANCH  19  20
ENDBRANCH  18  19
ENDBRANCH  17  18
ENDBRANCH  16  17
ENDBRANCH  15  16
ENDBRANCH  14  15
ENDBRANCH  13  14
ENDBRANCH   1  13
TORSDOF 20
ENDMDL
MODEL 7
REMARK VINA RESULT:    -4.254      2.392      4.825
REMARK INTER + INTRA:         -11.631
REMARK INTER:                  -8.157
REMARK INTRA:                  -3.474
REMARK UNBOUND:                -2.403
REMARK SMILES CCCCCCCCCCCCCCCCCCCCCC(=O)[O-]
REMARK SMILES IDX 12 1 11 2 10 3 9 4 8 5 7 6 6 7 5 8 4 9 3 10 2 11 1 12 13 13
REMARK SMILES IDX 14 14 15 15 16 16 17 17 18 18 19 19 20 20 21 21 22 22 23 23
REMARK SMILES IDX 24 24
REMARK H PARENT
REMARK Flexibility Score: inf
ROOT
ATOM      1  C   UNL     1     164.973 174.382 151.006  1.00  0.00     0.000 C 
ENDROOT
BRANCH   1   2
ATOM      2  C   UNL     1     165.476 174.956 149.673  1.00  0.00     0.000 C 
BRANCH   2   3
ATOM      3  C   UNL     1     167.012 174.983 149.576  1.00  0.00     0.000 C 
BRANCH   3   4
ATOM      4  C   UNL     1     167.681 176.238 150.174  1.00  0.00    -0.000 C 
BRANCH   4   5
ATOM      5  C   UNL     1     168.490 175.996 151.465  1.00  0.00    -0.000 C 
BRANCH   5   6
ATOM      6  C   UNL     1     168.256 177.029 152.582  1.00  0.00    -0.000 C 
BRANCH   6   7
ATOM      7  C   UNL     1     166.783 177.418 152.810  1.00  0.00    -0.000 C 
BRANCH   7   8
ATOM      8  C   UNL     1     166.365 177.438 154.297  1.00  0.00    -0.000 C 
BRANCH   8   9
ATOM      9  C   UNL     1     165.312 176.366 154.630  1.00  0.00    -0.000 C 
BRANCH   9  10
ATOM     10  C   UNL     1     163.979 176.964 155.113  1.00  0.00    -0.000 C 
BRANCH  10  11
ATOM     11  C   UNL     1     162.780 176.001 155.056  1.00  0.00    -0.003 C 
ATOM     12  C   UNL     1     161.519 176.578 155.699  1.00  0.00     0.004 C 
ENDBRANCH  10  11
ENDBRANCH   9  10
ENDBRANCH   8   9
ENDBRANCH   7   8
ENDBRANCH   6   7
ENDBRANCH   5   6
ENDBRANCH   4   5
ENDBRANCH   3   4
ENDBRANCH   2   3
ENDBRANCH   1   2
BRANCH   1  13
ATOM     13  C   UNL     1     163.753 175.164 151.515  1.00  0.00     0.000 C 
BRANCH  13  14
ATOM     14  C   UNL     1     163.801 176.662 151.155  1.00  0.00     0.000 C 
BRANCH  14  15
ATOM     15  C   UNL     1     162.429 177.304 150.864  1.00  0.00     0.000 C 
BRANCH  15  16
ATOM     16  C   UNL     1     161.686 177.814 152.120  1.00  0.00     0.000 C 
BRANCH  16  17
ATOM     17  C   UNL     1     160.239 177.298 152.236  1.00  0.00     0.000 C 
BRANCH  17  18
ATOM     18  C   UNL     1     159.888 176.142 151.279  1.00  0.00     0.000 C 
BRANCH  18  19
ATOM     19  C   UNL     1     159.390 174.853 151.963  1.00  0.00     0.000 C 
BRANCH  19  20
ATOM     20  C   UNL     1     160.397 174.177 152.914  1.00  0.00     0.006 C 
BRANCH  20  21
ATOM     21  C   UNL     1     160.930 172.826 152.404  1.00  0.00     0.053 C 
BRANCH  21  22
ATOM     22  C   UNL     1     159.830 171.864 152.075  1.00  0.00     0.041 C 
ATOM     23  O   UNL     1     159.106 171.390 152.990  1.00  0.00    -0.550 OA
ATOM     24  O   UNL     1     159.630 171.454 150.762  1.00  0.00    -0.550 OA
ENDBRANCH  21  22
ENDBRANCH  20  21
ENDBRANCH  19  20
ENDBRANCH  18  19
ENDBRANCH  17  18
ENDBRANCH  16  17
ENDBRANCH  15  16
ENDBRANCH  14  15
ENDBRANCH  13  14
ENDBRANCH   1  13
TORSDOF 20
ENDMDL
MODEL 8
REMARK VINA RESULT:    -4.233      9.566     12.066
REMARK INTER + INTRA:         -11.585
REMARK INTER:                  -8.181
REMARK INTRA:                  -3.404
REMARK UNBOUND:                -2.403
REMARK SMILES CCCCCCCCCCCCCCCCCCCCCC(=O)[O-]
REMARK SMILES IDX 12 1 11 2 10 3 9 4 8 5 7 6 6 7 5 8 4 9 3 10 2 11 1 12 13 13
REMARK SMILES IDX 14 14 15 15 16 16 17 17 18 18 19 19 20 20 21 21 22 22 23 23
REMARK SMILES IDX 24 24
REMARK H PARENT
REMARK Flexibility Score: inf
ROOT
ATOM      1  C   UNL     1     173.678 175.603 150.857  1.00  0.00     0.000 C 
ENDROOT
BRANCH   1   2
ATOM      2  C   UNL     1     174.380 174.253 151.069  1.00  0.00     0.000 C 
BRANCH   2   3
ATOM      3  C   UNL     1     175.624 174.362 151.969  1.00  0.00     0.000 C 
BRANCH   3   4
ATOM      4  C   UNL     1     176.939 173.879 151.324  1.00  0.00    -0.000 C 
BRANCH   4   5
ATOM      5  C   UNL     1     176.774 173.105 150.000  1.00  0.00    -0.000 C 
BRANCH   5   6
ATOM      6  C   UNL     1     176.632 171.579 150.153  1.00  0.00    -0.000 C 
BRANCH   6   7
ATOM      7  C   UNL     1     175.286 170.999 149.678  1.00  0.00    -0.000 C 
BRANCH   7   8
ATOM      8  C   UNL     1     174.619 170.053 150.699  1.00  0.00    -0.000 C 
BRANCH   8   9
ATOM      9  C   UNL     1     173.604 170.777 151.601  1.00  0.00    -0.000 C 
BRANCH   9  10
ATOM     10  C   UNL     1     174.152 171.065 153.010  1.00  0.00    -0.000 C 
BRANCH  10  11
ATOM     11  C   UNL     1     175.385 170.233 153.407  1.00  0.00    -0.003 C 
ATOM     12  C   UNL     1     176.610 171.093 153.720  1.00  0.00     0.004 C 
ENDBRANCH  10  11
ENDBRANCH   9  10
ENDBRANCH   8   9
ENDBRANCH   7   8
ENDBRANCH   6   7
ENDBRANCH   5   6
ENDBRANCH   4   5
ENDBRANCH   3   4
ENDBRANCH   2   3
ENDBRANCH   1   2
BRANCH   1  13
ATOM     13  C   UNL     1     174.701 176.748 150.789  1.00  0.00     0.000 C 
BRANCH  13  14
ATOM     14  C   UNL     1     174.317 177.955 151.666  1.00  0.00     0.000 C 
BRANCH  14  15
ATOM     15  C   UNL     1     173.014 177.785 152.472  1.00  0.00     0.000 C 
BRANCH  15  16
ATOM     16  C   UNL     1     173.216 177.726 154.004  1.00  0.00     0.000 C 
BRANCH  16  17
ATOM     17  C   UNL     1     173.776 176.380 154.502  1.00  0.00     0.000 C 
BRANCH  17  18
ATOM     18  C   UNL     1     175.270 176.401 154.878  1.00  0.00     0.000 C 
BRANCH  18  19
ATOM     19  C   UNL     1     175.661 175.498 156.064  1.00  0.00     0.000 C 
BRANCH  19  20
ATOM     20  C   UNL     1     176.258 174.129 155.684  1.00  0.00     0.006 C 
BRANCH  20  21
ATOM     21  C   UNL     1     177.561 173.786 156.430  1.00  0.00     0.053 C 
BRANCH  21  22
ATOM     22  C   UNL     1     177.397 173.830 157.919  1.00  0.00     0.041 C 
ATOM     23  O   UNL     1     176.572 173.069 158.490  1.00  0.00    -0.550 OA
ATOM     24  O   UNL     1     178.125 174.742 158.674  1.00  0.00    -0.550 OA
ENDBRANCH  21  22
ENDBRANCH  20  21
ENDBRANCH  19  20
ENDBRANCH  18  19
ENDBRANCH  17  18
ENDBRANCH  16  17
ENDBRANCH  15  16
ENDBRANCH  14  15
ENDBRANCH  13  14
ENDBRANCH   1  13
TORSDOF 20
ENDMDL
MODEL 9
REMARK VINA RESULT:    -4.217      3.461      9.170
REMARK INTER + INTRA:         -11.551
REMARK INTER:                  -8.708
REMARK INTRA:                  -2.843
REMARK UNBOUND:                -2.403
REMARK SMILES CCCCCCCCCCCCCCCCCCCCCC(=O)[O-]
REMARK SMILES IDX 12 1 11 2 10 3 9 4 8 5 7 6 6 7 5 8 4 9 3 10 2 11 1 12 13 13
REMARK SMILES IDX 14 14 15 15 16 16 17 17 18 18 19 19 20 20 21 21 22 22 23 23
REMARK SMILES IDX 24 24
REMARK H PARENT
REMARK Flexibility Score: inf
ROOT
ATOM      1  C   UNL     1     162.579 177.479 151.124  1.00  0.00     0.000 C 
ENDROOT
BRANCH   1   2
ATOM      2  C   UNL     1     161.247 176.760 150.858  1.00  0.00     0.000 C 
BRANCH   2   3
ATOM      3  C   UNL     1     160.329 176.730 152.093  1.00  0.00     0.000 C 
BRANCH   3   4
ATOM      4  C   UNL     1     159.785 175.337 152.468  1.00  0.00    -0.000 C 
BRANCH   4   5
ATOM      5  C   UNL     1     160.269 174.181 151.567  1.00  0.00    -0.000 C 
BRANCH   5   6
ATOM      6  C   UNL     1     160.654 172.892 152.316  1.00  0.00    -0.000 C 
BRANCH   6   7
ATOM      7  C   UNL     1     160.725 171.627 151.439  1.00  0.00    -0.000 C 
BRANCH   7   8
ATOM      8  C   UNL     1     159.507 170.691 151.594  1.00  0.00    -0.000 C 
BRANCH   8   9
ATOM      9  C   UNL     1     159.234 169.861 150.326  1.00  0.00    -0.000 C 
BRANCH   9  10
ATOM     10  C   UNL     1     160.404 169.892 149.326  1.00  0.00    -0.000 C 
BRANCH  10  11
ATOM     11  C   UNL     1     161.167 168.562 149.183  1.00  0.00    -0.003 C 
ATOM     12  C   UNL     1     160.692 167.492 150.166  1.00  0.00     0.004 C 
ENDBRANCH  10  11
ENDBRANCH   9  10
ENDBRANCH   8   9
ENDBRANCH   7   8
ENDBRANCH   6   7
ENDBRANCH   5   6
ENDBRANCH   4   5
ENDBRANCH   3   4
ENDBRANCH   2   3
ENDBRANCH   1   2
BRANCH   1  13
ATOM     13  C   UNL     1     162.763 177.756 152.624  1.00  0.00     0.000 C 
BRANCH  13  14
ATOM     14  C   UNL     1     163.876 176.904 153.264  1.00  0.00     0.000 C 
BRANCH  14  15
ATOM     15  C   UNL     1     163.510 175.424 153.495  1.00  0.00     0.000 C 
BRANCH  15  16
ATOM     16  C   UNL     1     164.533 174.418 152.917  1.00  0.00     0.000 C 
BRANCH  16  17
ATOM     17  C   UNL     1     164.108 173.811 151.566  1.00  0.00     0.000 C 
BRANCH  17  18
ATOM     18  C   UNL     1     164.404 174.695 150.340  1.00  0.00     0.000 C 
BRANCH  18  19
ATOM     19  C   UNL     1     165.888 175.062 150.138  1.00  0.00     0.000 C 
BRANCH  19  20
ATOM     20  C   UNL     1     166.226 176.557 150.296  1.00  0.00     0.006 C 
BRANCH  20  21
ATOM     21  C   UNL     1     167.712 176.890 150.070  1.00  0.00     0.053 C 
BRANCH  21  22
ATOM     22  C   UNL     1     168.478 176.990 151.354  1.00  0.00     0.041 C 
ATOM     23  O   UNL     1     169.700 176.686 151.389  1.00  0.00    -0.550 OA
ATOM     24  O   UNL     1     167.834 177.376 152.524  1.00  0.00    -0.550 OA
ENDBRANCH  21  22
ENDBRANCH  20  21
ENDBRANCH  19  20
ENDBRANCH  18  19
ENDBRANCH  17  18
ENDBRANCH  16  17
ENDBRANCH  15  16
ENDBRANCH  14  15
ENDBRANCH  13  14
ENDBRANCH   1  13
TORSDOF 20
ENDMDL
