MODEL 1
REMARK VINA RESULT:    -2.430      0.000      0.000
REMARK INTER + INTRA:          -7.492
REMARK INTER:                  -6.122
REMARK INTRA:                  -1.370
REMARK UNBOUND:                -1.370
REMARK SMILES CCCCCCCCCCCCCCCCCCCCCCCCCCCC(=O)[O-]
REMARK SMILES IDX 15 1 16 2 17 3 18 4 19 5 20 6 21 7 22 8 23 9 24 10 25 11
REMARK SMILES IDX 26 12 27 13 28 14 29 15 30 16 14 17 13 18 12 19 11 20 10 21
REMARK SMILES IDX 9 22 8 23 7 24 6 25 5 26 4 27 3 28 2 29 1 30
REMARK H PARENT
REMARK Flexibility Score: inf
ROOT
ATOM      1  C   UNL     1      -0.076 -22.017 -16.013  1.00  0.00     0.000 C 
ENDROOT
BRANCH   1   2
ATOM      2  C   UNL     1       1.281 -22.745 -15.974  1.00  0.00     0.000 C 
BRANCH   2   3
ATOM      3  C   UNL     1       2.466 -21.778 -15.766  1.00  0.00     0.000 C 
BRANCH   3   4
ATOM      4  C   UNL     1       3.828 -22.483 -15.630  1.00  0.00     0.000 C 
BRANCH   4   5
ATOM      5  C   UNL     1       4.933 -21.822 -16.468  1.00  0.00     0.000 C 
BRANCH   5   6
ATOM      6  C   UNL     1       5.830 -20.880 -15.642  1.00  0.00     0.000 C 
BRANCH   6   7
ATOM      7  C   UNL     1       7.320 -20.887 -16.039  1.00  0.00     0.000 C 
BRANCH   7   8
ATOM      8  C   UNL     1       7.853 -22.302 -16.317  1.00  0.00     0.000 C 
BRANCH   8   9
ATOM      9  C   UNL     1       8.346 -22.474 -17.762  1.00  0.00     0.000 C 
BRANCH   9  10
ATOM     10  C   UNL     1       9.825 -22.892 -17.848  1.00  0.00     0.000 C 
BRANCH  10  11
ATOM     11  C   UNL     1      10.282 -23.088 -19.310  1.00  0.00     0.000 C 
BRANCH  11  12
ATOM     12  C   UNL     1      10.677 -21.775 -20.011  1.00  0.00     0.006 C 
BRANCH  12  13
ATOM     13  C   UNL     1       9.469 -20.976 -20.516  1.00  0.00     0.053 C 
BRANCH  13  14
ATOM     14  C   UNL     1       9.544 -20.781 -21.997  1.00  0.00     0.041 C 
ATOM     15  O   UNL     1       8.534 -20.998 -22.716  1.00  0.00    -0.550 OA
ATOM     16  O   UNL     1      10.737 -20.380 -22.586  1.00  0.00    -0.550 OA
ENDBRANCH  13  14
ENDBRANCH  12  13
ENDBRANCH  11  12
ENDBRANCH  10  11
ENDBRANCH   9  10
ENDBRANCH   8   9
ENDBRANCH   7   8
ENDBRANCH   6   7
ENDBRANCH   5   6
ENDBRANCH   4   5
ENDBRANCH   3   4
ENDBRANCH   2   3
ENDBRANCH   1   2
BRANCH   1  17
ATOM     17  C   UNL     1      -1.172 -22.758 -15.221  1.00  0.00     0.000 C 
BRANCH  17  18
ATOM     18  C   UNL     1      -2.617 -22.377 -15.598  1.00  0.00     0.000 C 
BRANCH  18  19
ATOM     19  C   UNL     1      -3.669 -23.085 -14.729  1.00  0.00     0.000 C 
BRANCH  19  20
ATOM     20  C   UNL     1      -5.093 -22.736 -15.186  1.00  0.00     0.000 C 
BRANCH  20  21
ATOM     21  C   UNL     1      -5.117 -21.748 -16.369  1.00  0.00     0.000 C 
BRANCH  21  22
ATOM     22  C   UNL     1      -6.465 -21.041 -16.609  1.00  0.00    -0.000 C 
BRANCH  22  23
ATOM     23  C   UNL     1      -7.565 -21.991 -17.111  1.00  0.00    -0.000 C 
BRANCH  23  24
ATOM     24  C   UNL     1      -8.861 -21.885 -16.291  1.00  0.00    -0.000 C 
BRANCH  24  25
ATOM     25  C   UNL     1      -8.924 -22.898 -15.136  1.00  0.00    -0.000 C 
BRANCH  25  26
ATOM     26  C   UNL     1      -9.125 -22.184 -13.792  1.00  0.00    -0.000 C 
BRANCH  26  27
ATOM     27  C   UNL     1      -7.918 -21.296 -13.450  1.00  0.00    -0.000 C 
BRANCH  27  28
ATOM     28  C   UNL     1      -8.052 -20.647 -12.057  1.00  0.00    -0.000 C 
BRANCH  28  29
ATOM     29  C   UNL     1      -9.024 -21.391 -11.128  1.00  0.00    -0.003 C 
ATOM     30  C   UNL     1      -8.438 -21.667  -9.743  1.00  0.00     0.004 C 
ENDBRANCH  28  29
ENDBRANCH  27  28
ENDBRANCH  26  27
ENDBRANCH  25  26
ENDBRANCH  24  25
ENDBRANCH  23  24
ENDBRANCH  22  23
ENDBRANCH  21  22
ENDBRANCH  20  21
ENDBRANCH  19  20
ENDBRANCH  18  19
ENDBRANCH  17  18
ENDBRANCH   1  17
TORSDOF 26
ENDMDL
MODEL 2
REMARK VINA RESULT:    -1.765      1.194      1.929
REMARK INTER + INTRA:          -5.816
REMARK INTER:                  -4.426
REMARK INTRA:                  -1.391
REMARK UNBOUND:                -1.370
REMARK SMILES CCCCCCCCCCCCCCCCCCCCCCCCCCCC(=O)[O-]
REMARK SMILES IDX 15 1 16 2 17 3 18 4 19 5 20 6 21 7 22 8 23 9 24 10 25 11
REMARK SMILES IDX 26 12 27 13 28 14 29 15 30 16 14 17 13 18 12 19 11 20 10 21
REMARK SMILES IDX 9 22 8 23 7 24 6 25 5 26 4 27 3 28 2 29 1 30
REMARK H PARENT
REMARK Flexibility Score: inf
ROOT
ATOM      1  C   UNL     1       1.649 -22.315 -15.281  1.00  0.00     0.000 C 
ENDROOT
BRANCH   1   2
ATOM      2  C   UNL     1       2.664 -21.412 -16.008  1.00  0.00     0.000 C 
BRANCH   2   3
ATOM      3  C   UNL     1       4.018 -21.330 -15.270  1.00  0.00     0.000 C 
BRANCH   3   4
ATOM      4  C   UNL     1       5.216 -21.803 -16.114  1.00  0.00     0.000 C 
BRANCH   4   5
ATOM      5  C   UNL     1       6.351 -20.770 -16.178  1.00  0.00     0.000 C 
BRANCH   5   6
ATOM      6  C   UNL     1       7.687 -21.375 -16.648  1.00  0.00     0.000 C 
BRANCH   6   7
ATOM      7  C   UNL     1       8.848 -21.248 -15.642  1.00  0.00     0.000 C 
BRANCH   7   8
ATOM      8  C   UNL     1      10.182 -20.887 -16.318  1.00  0.00     0.000 C 
BRANCH   8   9
ATOM      9  C   UNL     1      11.120 -22.095 -16.456  1.00  0.00     0.000 C 
BRANCH   9  10
ATOM     10  C   UNL     1      10.872 -22.906 -17.741  1.00  0.00     0.000 C 
BRANCH  10  11
ATOM     11  C   UNL     1      11.000 -22.031 -19.006  1.00  0.00     0.000 C 
BRANCH  11  12
ATOM     12  C   UNL     1       9.651 -21.740 -19.691  1.00  0.00     0.006 C 
BRANCH  12  13
ATOM     13  C   UNL     1       9.778 -21.525 -21.204  1.00  0.00     0.053 C 
BRANCH  13  14
ATOM     14  C   UNL     1       8.522 -21.932 -21.905  1.00  0.00     0.041 C 
ATOM     15  O   UNL     1       8.161 -21.337 -22.955  1.00  0.00    -0.550 OA
ATOM     16  O   UNL     1       7.737 -22.955 -21.388  1.00  0.00    -0.550 OA
ENDBRANCH  13  14
ENDBRANCH  12  13
ENDBRANCH  11  12
ENDBRANCH  10  11
ENDBRANCH   9  10
ENDBRANCH   8   9
ENDBRANCH   7   8
ENDBRANCH   6   7
ENDBRANCH   5   6
ENDBRANCH   4   5
ENDBRANCH   3   4
ENDBRANCH   2   3
ENDBRANCH   1   2
BRANCH   1  17
ATOM     17  C   UNL     1       0.283 -22.369 -15.993  1.00  0.00     0.000 C 
BRANCH  17  18
ATOM     18  C   UNL     1      -0.820 -23.125 -15.227  1.00  0.00     0.000 C 
BRANCH  18  19
ATOM     19  C   UNL     1      -2.047 -22.250 -14.925  1.00  0.00     0.000 C 
BRANCH  19  20
ATOM     20  C   UNL     1      -3.345 -22.938 -15.372  1.00  0.00     0.000 C 
BRANCH  20  21
ATOM     21  C   UNL     1      -4.499 -22.752 -14.367  1.00  0.00     0.000 C 
BRANCH  21  22
ATOM     22  C   UNL     1      -5.887 -22.513 -14.993  1.00  0.00    -0.000 C 
BRANCH  22  23
ATOM     23  C   UNL     1      -5.831 -21.694 -16.293  1.00  0.00    -0.000 C 
BRANCH  23  24
ATOM     24  C   UNL     1      -7.184 -21.061 -16.654  1.00  0.00    -0.000 C 
BRANCH  24  25
ATOM     25  C   UNL     1      -8.375 -21.997 -16.387  1.00  0.00    -0.000 C 
BRANCH  25  26
ATOM     26  C   UNL     1      -9.113 -21.590 -15.105  1.00  0.00    -0.000 C 
BRANCH  26  27
ATOM     27  C   UNL     1      -8.563 -20.269 -14.543  1.00  0.00    -0.000 C 
BRANCH  27  28
ATOM     28  C   UNL     1      -8.861 -20.111 -13.038  1.00  0.00    -0.000 C 
BRANCH  28  29
ATOM     29  C   UNL     1      -7.788 -20.738 -12.133  1.00  0.00    -0.003 C 
ATOM     30  C   UNL     1      -8.237 -22.051 -11.492  1.00  0.00     0.004 C 
ENDBRANCH  28  29
ENDBRANCH  27  28
ENDBRANCH  26  27
ENDBRANCH  25  26
ENDBRANCH  24  25
ENDBRANCH  23  24
ENDBRANCH  22  23
ENDBRANCH  21  22
ENDBRANCH  20  21
ENDBRANCH  19  20
ENDBRANCH  18  19
ENDBRANCH  17  18
ENDBRANCH   1  17
TORSDOF 26
ENDMDL
MODEL 3
REMARK VINA RESULT:    -0.495      1.267      3.708
REMARK INTER + INTRA:          -2.617
REMARK INTER:                  -2.926
REMARK INTRA:                   0.310
REMARK UNBOUND:                -1.370
REMARK SMILES CCCCCCCCCCCCCCCCCCCCCCCCCCCC(=O)[O-]
REMARK SMILES IDX 15 1 16 2 17 3 18 4 19 5 20 6 21 7 22 8 23 9 24 10 25 11
REMARK SMILES IDX 26 12 27 13 28 14 29 15 30 16 14 17 13 18 12 19 11 20 10 21
REMARK SMILES IDX 9 22 8 23 7 24 6 25 5 26 4 27 3 28 2 29 1 30
REMARK H PARENT
REMARK Flexibility Score: inf
ROOT
ATOM      1  C   UNL     1       3.888 -21.565 -14.903  1.00  0.00     0.000 C 
ENDROOT
BRANCH   1   2
ATOM      2  C   UNL     1       5.092 -20.603 -14.890  1.00  0.00     0.000 C 
BRANCH   2   3
ATOM      3  C   UNL     1       6.135 -20.947 -15.975  1.00  0.00     0.000 C 
BRANCH   3   4
ATOM      4  C   UNL     1       7.587 -20.652 -15.557  1.00  0.00     0.000 C 
BRANCH   4   5
ATOM      5  C   UNL     1       8.609 -20.999 -16.650  1.00  0.00     0.000 C 
BRANCH   5   6
ATOM      6  C   UNL     1      10.011 -21.300 -16.087  1.00  0.00     0.000 C 
BRANCH   6   7
ATOM      7  C   UNL     1      11.025 -21.834 -17.118  1.00  0.00     0.000 C 
BRANCH   7   8
ATOM      8  C   UNL     1      10.369 -22.710 -18.197  1.00  0.00     0.000 C 
BRANCH   8   9
ATOM      9  C   UNL     1       8.936 -23.124 -17.832  1.00  0.00     0.000 C 
BRANCH   9  10
ATOM     10  C   UNL     1       7.970 -23.073 -19.030  1.00  0.00     0.000 C 
BRANCH  10  11
ATOM     11  C   UNL     1       8.701 -22.718 -20.342  1.00  0.00     0.000 C 
BRANCH  11  12
ATOM     12  C   UNL     1       7.762 -22.611 -21.558  1.00  0.00     0.006 C 
BRANCH  12  13
ATOM     13  C   UNL     1       8.508 -22.635 -22.898  1.00  0.00     0.053 C 
BRANCH  13  14
ATOM     14  C   UNL     1       9.537 -21.551 -22.951  1.00  0.00     0.041 C 
ATOM     15  O   UNL     1      10.587 -21.707 -23.627  1.00  0.00    -0.550 OA
ATOM     16  O   UNL     1       9.345 -20.374 -22.238  1.00  0.00    -0.550 OA
ENDBRANCH  13  14
ENDBRANCH  12  13
ENDBRANCH  11  12
ENDBRANCH  10  11
ENDBRANCH   9  10
ENDBRANCH   8   9
ENDBRANCH   7   8
ENDBRANCH   6   7
ENDBRANCH   5   6
ENDBRANCH   4   5
ENDBRANCH   3   4
ENDBRANCH   2   3
ENDBRANCH   1   2
BRANCH   1  17
ATOM     17  C   UNL     1       3.830 -22.431 -16.177  1.00  0.00     0.000 C 
BRANCH  17  18
ATOM     18  C   UNL     1       2.415 -22.864 -16.605  1.00  0.00     0.000 C 
BRANCH  18  19
ATOM     19  C   UNL     1       1.349 -22.569 -15.537  1.00  0.00     0.000 C 
BRANCH  19  20
ATOM     20  C   UNL     1      -0.030 -22.342 -16.175  1.00  0.00     0.000 C 
BRANCH  20  21
ATOM     21  C   UNL     1      -1.193 -22.674 -15.219  1.00  0.00     0.000 C 
BRANCH  21  22
ATOM     22  C   UNL     1      -2.549 -22.039 -15.587  1.00  0.00    -0.000 C 
BRANCH  22  23
ATOM     23  C   UNL     1      -3.699 -23.058 -15.635  1.00  0.00    -0.000 C 
BRANCH  23  24
ATOM     24  C   UNL     1      -5.062 -22.430 -15.304  1.00  0.00    -0.000 C 
BRANCH  24  25
ATOM     25  C   UNL     1      -5.466 -21.320 -16.289  1.00  0.00    -0.000 C 
BRANCH  25  26
ATOM     26  C   UNL     1      -6.621 -21.780 -17.189  1.00  0.00    -0.000 C 
BRANCH  26  27
ATOM     27  C   UNL     1      -7.949 -21.812 -16.414  1.00  0.00    -0.000 C 
BRANCH  27  28
ATOM     28  C   UNL     1      -7.982 -20.769 -15.278  1.00  0.00    -0.000 C 
BRANCH  28  29
ATOM     29  C   UNL     1      -8.546 -21.320 -13.958  1.00  0.00    -0.003 C 
ATOM     30  C   UNL     1      -7.554 -21.231 -12.799  1.00  0.00     0.004 C 
ENDBRANCH  28  29
ENDBRANCH  27  28
ENDBRANCH  26  27
ENDBRANCH  25  26
ENDBRANCH  24  25
ENDBRANCH  23  24
ENDBRANCH  22  23
ENDBRANCH  21  22
ENDBRANCH  20  21
ENDBRANCH  19  20
ENDBRANCH  18  19
ENDBRANCH  17  18
ENDBRANCH   1  17
TORSDOF 26
ENDMDL
MODEL 4
REMARK VINA RESULT:    -0.438      5.854     15.315
REMARK INTER + INTRA:          -2.473
REMARK INTER:                  -0.488
REMARK INTRA:                  -1.985
REMARK UNBOUND:                -1.370
REMARK SMILES CCCCCCCCCCCCCCCCCCCCCCCCCCCC(=O)[O-]
REMARK SMILES IDX 15 1 16 2 17 3 18 4 19 5 20 6 21 7 22 8 23 9 24 10 25 11
REMARK SMILES IDX 26 12 27 13 28 14 29 15 30 16 14 17 13 18 12 19 11 20 10 21
REMARK SMILES IDX 9 22 8 23 7 24 6 25 5 26 4 27 3 28 2 29 1 30
REMARK H PARENT
REMARK Flexibility Score: inf
ROOT
ATOM      1  C   UNL     1       0.176 -22.075 -15.065  1.00  0.00     0.000 C 
ENDROOT
BRANCH   1   2
ATOM      2  C   UNL     1      -0.328 -21.462 -16.385  1.00  0.00     0.000 C 
BRANCH   2   3
ATOM      3  C   UNL     1      -1.869 -21.427 -16.471  1.00  0.00     0.000 C 
BRANCH   3   4
ATOM      4  C   UNL     1      -2.574 -22.128 -15.295  1.00  0.00     0.000 C 
BRANCH   4   5
ATOM      5  C   UNL     1      -3.744 -23.018 -15.741  1.00  0.00     0.000 C 
BRANCH   5   6
ATOM      6  C   UNL     1      -5.118 -22.361 -15.513  1.00  0.00     0.000 C 
BRANCH   6   7
ATOM      7  C   UNL     1      -5.491 -21.263 -16.528  1.00  0.00     0.000 C 
BRANCH   7   8
ATOM      8  C   UNL     1      -6.883 -21.473 -17.146  1.00  0.00     0.000 C 
BRANCH   8   9
ATOM      9  C   UNL     1      -7.780 -22.378 -16.287  1.00  0.00     0.000 C 
BRANCH   9  10
ATOM     10  C   UNL     1      -9.004 -21.642 -15.714  1.00  0.00     0.000 C 
BRANCH  10  11
ATOM     11  C   UNL     1      -8.707 -21.022 -14.332  1.00  0.00     0.000 C 
BRANCH  11  12
ATOM     12  C   UNL     1      -8.878 -22.012 -13.165  1.00  0.00     0.006 C 
BRANCH  12  13
ATOM     13  C   UNL     1      -7.801 -21.860 -12.085  1.00  0.00     0.053 C 
BRANCH  13  14
ATOM     14  C   UNL     1      -8.410 -21.893 -10.720  1.00  0.00     0.041 C 
ATOM     15  O   UNL     1      -8.962 -20.864 -10.248  1.00  0.00    -0.550 OA
ATOM     16  O   UNL     1      -8.353 -23.054  -9.959  1.00  0.00    -0.550 OA
ENDBRANCH  13  14
ENDBRANCH  12  13
ENDBRANCH  11  12
ENDBRANCH  10  11
ENDBRANCH   9  10
ENDBRANCH   8   9
ENDBRANCH   7   8
ENDBRANCH   6   7
ENDBRANCH   5   6
ENDBRANCH   4   5
ENDBRANCH   3   4
ENDBRANCH   2   3
ENDBRANCH   1   2
BRANCH   1  17
ATOM     17  C   UNL     1       1.285 -23.125 -15.281  1.00  0.00     0.000 C 
BRANCH  17  18
ATOM     18  C   UNL     1       2.324 -22.761 -16.360  1.00  0.00     0.000 C 
BRANCH  18  19
ATOM     19  C   UNL     1       3.118 -21.489 -16.022  1.00  0.00     0.000 C 
BRANCH  19  20
ATOM     20  C   UNL     1       4.474 -21.832 -15.388  1.00  0.00     0.000 C 
BRANCH  20  21
ATOM     21  C   UNL     1       5.642 -21.743 -16.389  1.00  0.00     0.000 C 
BRANCH  21  22
ATOM     22  C   UNL     1       5.794 -22.952 -17.334  1.00  0.00    -0.000 C 
BRANCH  22  23
ATOM     23  C   UNL     1       6.934 -22.784 -18.351  1.00  0.00    -0.000 C 
BRANCH  23  24
ATOM     24  C   UNL     1       7.867 -21.611 -18.011  1.00  0.00    -0.000 C 
BRANCH  24  25
ATOM     25  C   UNL     1       9.020 -21.450 -19.015  1.00  0.00    -0.000 C 
BRANCH  25  26
ATOM     26  C   UNL     1      10.360 -21.838 -18.376  1.00  0.00    -0.000 C 
BRANCH  26  27
ATOM     27  C   UNL     1      10.192 -22.149 -16.880  1.00  0.00    -0.000 C 
BRANCH  27  28
ATOM     28  C   UNL     1      11.125 -21.290 -16.001  1.00  0.00    -0.000 C 
BRANCH  28  29
ATOM     29  C   UNL     1      10.405 -20.127 -15.300  1.00  0.00    -0.003 C 
ATOM     30  C   UNL     1       9.133 -20.561 -14.572  1.00  0.00     0.004 C 
ENDBRANCH  28  29
ENDBRANCH  27  28
ENDBRANCH  26  27
ENDBRANCH  25  26
ENDBRANCH  24  25
ENDBRANCH  23  24
ENDBRANCH  22  23
ENDBRANCH  21  22
ENDBRANCH  20  21
ENDBRANCH  19  20
ENDBRANCH  18  19
ENDBRANCH  17  18
ENDBRANCH   1  17
TORSDOF 26
ENDMDL
MODEL 5
REMARK VINA RESULT:    -0.280      2.350      3.732
REMARK INTER + INTRA:          -2.076
REMARK INTER:                  -0.720
REMARK INTRA:                  -1.356
REMARK UNBOUND:                -1.370
REMARK SMILES CCCCCCCCCCCCCCCCCCCCCCCCCCCC(=O)[O-]
REMARK SMILES IDX 15 1 16 2 17 3 18 4 19 5 20 6 21 7 22 8 23 9 24 10 25 11
REMARK SMILES IDX 26 12 27 13 28 14 29 15 30 16 14 17 13 18 12 19 11 20 10 21
REMARK SMILES IDX 9 22 8 23 7 24 6 25 5 26 4 27 3 28 2 29 1 30
REMARK H PARENT
REMARK Flexibility Score: inf
ROOT
ATOM      1  C   UNL     1       2.281 -21.661 -15.469  1.00  0.00     0.000 C 
ENDROOT
BRANCH   1   2
ATOM      2  C   UNL     1       3.810 -21.840 -15.425  1.00  0.00     0.000 C 
BRANCH   2   3
ATOM      3  C   UNL     1       4.305 -22.950 -16.376  1.00  0.00     0.000 C 
BRANCH   3   4
ATOM      4  C   UNL     1       4.968 -22.420 -17.661  1.00  0.00     0.000 C 
BRANCH   4   5
ATOM      5  C   UNL     1       6.293 -23.125 -17.987  1.00  0.00     0.000 C 
BRANCH   5   6
ATOM      6  C   UNL     1       7.292 -22.213 -18.724  1.00  0.00     0.000 C 
BRANCH   6   7
ATOM      7  C   UNL     1       8.592 -22.904 -19.178  1.00  0.00     0.000 C 
BRANCH   7   8
ATOM      8  C   UNL     1       9.732 -21.908 -19.445  1.00  0.00     0.000 C 
BRANCH   8   9
ATOM      9  C   UNL     1      10.993 -22.218 -18.624  1.00  0.00     0.000 C 
BRANCH   9  10
ATOM     10  C   UNL     1      10.726 -22.271 -17.109  1.00  0.00     0.000 C 
BRANCH  10  11
ATOM     11  C   UNL     1      10.569 -20.859 -16.503  1.00  0.00     0.000 C 
BRANCH  11  12
ATOM     12  C   UNL     1      10.352 -20.866 -14.979  1.00  0.00     0.006 C 
BRANCH  12  13
ATOM     13  C   UNL     1       9.031 -20.210 -14.556  1.00  0.00     0.053 C 
BRANCH  13  14
ATOM     14  C   UNL     1       7.873 -20.862 -15.241  1.00  0.00     0.041 C 
ATOM     15  O   UNL     1       7.060 -20.170 -15.908  1.00  0.00    -0.550 OA
ATOM     16  O   UNL     1       7.679 -22.233 -15.126  1.00  0.00    -0.550 OA
ENDBRANCH  13  14
ENDBRANCH  12  13
ENDBRANCH  11  12
ENDBRANCH  10  11
ENDBRANCH   9  10
ENDBRANCH   8   9
ENDBRANCH   7   8
ENDBRANCH   6   7
ENDBRANCH   5   6
ENDBRANCH   4   5
ENDBRANCH   3   4
ENDBRANCH   2   3
ENDBRANCH   1   2
BRANCH   1  17
ATOM     17  C   UNL     1       1.550 -22.912 -15.998  1.00  0.00     0.000 C 
BRANCH  17  18
ATOM     18  C   UNL     1       0.133 -23.125 -15.431  1.00  0.00     0.000 C 
BRANCH  18  19
ATOM     19  C   UNL     1      -0.560 -21.809 -15.040  1.00  0.00     0.000 C 
BRANCH  19  20
ATOM     20  C   UNL     1      -1.957 -21.708 -15.669  1.00  0.00     0.000 C 
BRANCH  20  21
ATOM     21  C   UNL     1      -2.683 -23.066 -15.735  1.00  0.00     0.000 C 
BRANCH  21  22
ATOM     22  C   UNL     1      -4.213 -23.005 -15.561  1.00  0.00    -0.000 C 
BRANCH  22  23
ATOM     23  C   UNL     1      -4.855 -21.803 -16.273  1.00  0.00    -0.000 C 
BRANCH  23  24
ATOM     24  C   UNL     1      -6.176 -22.163 -16.972  1.00  0.00    -0.000 C 
BRANCH  24  25
ATOM     25  C   UNL     1      -7.333 -21.225 -16.589  1.00  0.00    -0.000 C 
BRANCH  25  26
ATOM     26  C   UNL     1      -8.081 -21.754 -15.358  1.00  0.00    -0.000 C 
BRANCH  26  27
ATOM     27  C   UNL     1      -7.100 -22.194 -14.259  1.00  0.00    -0.000 C 
BRANCH  27  28
ATOM     28  C   UNL     1      -7.261 -21.361 -12.971  1.00  0.00    -0.000 C 
BRANCH  28  29
ATOM     29  C   UNL     1      -7.248 -22.209 -11.689  1.00  0.00    -0.003 C 
ATOM     30  C   UNL     1      -8.637 -22.395 -11.078  1.00  0.00     0.004 C 
ENDBRANCH  28  29
ENDBRANCH  27  28
ENDBRANCH  26  27
ENDBRANCH  25  26
ENDBRANCH  24  25
ENDBRANCH  23  24
ENDBRANCH  22  23
ENDBRANCH  21  22
ENDBRANCH  20  21
ENDBRANCH  19  20
ENDBRANCH  18  19
ENDBRANCH  17  18
ENDBRANCH   1  17
TORSDOF 26
ENDMDL
MODEL 6
REMARK VINA RESULT:     0.328      5.368     15.560
REMARK INTER + INTRA:          -0.542
REMARK INTER:                  -0.221
REMARK INTRA:                  -0.321
REMARK UNBOUND:                -1.370
REMARK SMILES CCCCCCCCCCCCCCCCCCCCCCCCCCCC(=O)[O-]
REMARK SMILES IDX 15 1 16 2 17 3 18 4 19 5 20 6 21 7 22 8 23 9 24 10 25 11
REMARK SMILES IDX 26 12 27 13 28 14 29 15 30 16 14 17 13 18 12 19 11 20 10 21
REMARK SMILES IDX 9 22 8 23 7 24 6 25 5 26 4 27 3 28 2 29 1 30
REMARK H PARENT
REMARK Flexibility Score: inf
ROOT
ATOM      1  C   UNL     1      -0.743 -21.746 -15.808  1.00  0.00     0.000 C 
ENDROOT
BRANCH   1   2
ATOM      2  C   UNL     1      -1.202 -21.044 -17.100  1.00  0.00     0.000 C 
BRANCH   2   3
ATOM      3  C   UNL     1      -2.723 -20.783 -17.125  1.00  0.00     0.000 C 
BRANCH   3   4
ATOM      4  C   UNL     1      -3.479 -21.395 -15.931  1.00  0.00     0.000 C 
BRANCH   4   5
ATOM      5  C   UNL     1      -4.422 -22.537 -16.339  1.00  0.00     0.000 C 
BRANCH   5   6
ATOM      6  C   UNL     1      -5.862 -22.336 -15.830  1.00  0.00     0.000 C 
BRANCH   6   7
ATOM      7  C   UNL     1      -6.653 -21.220 -16.539  1.00  0.00     0.000 C 
BRANCH   7   8
ATOM      8  C   UNL     1      -8.056 -21.673 -16.975  1.00  0.00     0.000 C 
BRANCH   8   9
ATOM      9  C   UNL     1      -8.705 -22.636 -15.971  1.00  0.00     0.000 C 
BRANCH   9  10
ATOM     10  C   UNL     1      -8.065 -22.569 -14.572  1.00  0.00     0.000 C 
BRANCH  10  11
ATOM     11  C   UNL     1      -9.125 -22.387 -13.464  1.00  0.00     0.000 C 
BRANCH  11  12
ATOM     12  C   UNL     1      -8.546 -21.842 -12.146  1.00  0.00     0.006 C 
BRANCH  12  13
ATOM     13  C   UNL     1      -7.710 -20.570 -12.336  1.00  0.00     0.053 C 
BRANCH  13  14
ATOM     14  C   UNL     1      -8.565 -19.440 -12.813  1.00  0.00     0.041 C 
ATOM     15  O   UNL     1      -8.768 -19.276 -14.045  1.00  0.00    -0.550 OA
ATOM     16  O   UNL     1      -9.121 -18.554 -11.898  1.00  0.00    -0.550 OA
ENDBRANCH  13  14
ENDBRANCH  12  13
ENDBRANCH  11  12
ENDBRANCH  10  11
ENDBRANCH   9  10
ENDBRANCH   8   9
ENDBRANCH   7   8
ENDBRANCH   6   7
ENDBRANCH   5   6
ENDBRANCH   4   5
ENDBRANCH   3   4
ENDBRANCH   2   3
ENDBRANCH   1   2
BRANCH   1  17
ATOM     17  C   UNL     1       0.494 -22.640 -16.022  1.00  0.00     0.000 C 
BRANCH  17  18
ATOM     18  C   UNL     1       1.849 -21.931 -15.836  1.00  0.00     0.000 C 
BRANCH  18  19
ATOM     19  C   UNL     1       3.015 -22.912 -15.631  1.00  0.00     0.000 C 
BRANCH  19  20
ATOM     20  C   UNL     1       4.130 -22.674 -16.660  1.00  0.00     0.000 C 
BRANCH  20  21
ATOM     21  C   UNL     1       5.243 -21.747 -16.134  1.00  0.00     0.000 C 
BRANCH  21  22
ATOM     22  C   UNL     1       6.458 -21.580 -17.067  1.00  0.00    -0.000 C 
BRANCH  22  23
ATOM     23  C   UNL     1       7.661 -20.913 -16.380  1.00  0.00    -0.000 C 
BRANCH  23  24
ATOM     24  C   UNL     1       8.847 -21.873 -16.195  1.00  0.00    -0.000 C 
BRANCH  24  25
ATOM     25  C   UNL     1       9.771 -21.929 -17.423  1.00  0.00    -0.000 C 
BRANCH  25  26
ATOM     26  C   UNL     1       9.419 -23.125 -18.319  1.00  0.00    -0.000 C 
BRANCH  26  27
ATOM     27  C   UNL     1       9.096 -22.669 -19.751  1.00  0.00    -0.000 C 
BRANCH  27  28
ATOM     28  C   UNL     1       9.675 -21.273 -20.059  1.00  0.00    -0.000 C 
BRANCH  28  29
ATOM     29  C   UNL     1      10.205 -21.134 -21.495  1.00  0.00    -0.003 C 
ATOM     30  C   UNL     1       9.105 -21.223 -22.552  1.00  0.00     0.004 C 
ENDBRANCH  28  29
ENDBRANCH  27  28
ENDBRANCH  26  27
ENDBRANCH  25  26
ENDBRANCH  24  25
ENDBRANCH  23  24
ENDBRANCH  22  23
ENDBRANCH  21  22
ENDBRANCH  20  21
ENDBRANCH  19  20
ENDBRANCH  18  19
ENDBRANCH  17  18
ENDBRANCH   1  17
TORSDOF 26
ENDMDL
MODEL 7
REMARK VINA RESULT:     0.565      1.511      4.521
REMARK INTER + INTRA:           0.053
REMARK INTER:                  -0.001
REMARK INTRA:                   0.054
REMARK UNBOUND:                -1.370
REMARK SMILES CCCCCCCCCCCCCCCCCCCCCCCCCCCC(=O)[O-]
REMARK SMILES IDX 15 1 16 2 17 3 18 4 19 5 20 6 21 7 22 8 23 9 24 10 25 11
REMARK SMILES IDX 26 12 27 13 28 14 29 15 30 16 14 17 13 18 12 19 11 20 10 21
REMARK SMILES IDX 9 22 8 23 7 24 6 25 5 26 4 27 3 28 2 29 1 30
REMARK H PARENT
REMARK Flexibility Score: inf
ROOT
ATOM      1  C   UNL     1       4.943 -19.479 -15.634  1.00  0.00     0.000 C 
ENDROOT
BRANCH   1   2
ATOM      2  C   UNL     1       6.462 -19.618 -15.416  1.00  0.00     0.000 C 
BRANCH   2   3
ATOM      3  C   UNL     1       6.898 -21.082 -15.197  1.00  0.00     0.000 C 
BRANCH   3   4
ATOM      4  C   UNL     1       8.410 -21.314 -15.369  1.00  0.00     0.000 C 
BRANCH   4   5
ATOM      5  C   UNL     1       8.756 -22.764 -15.742  1.00  0.00     0.000 C 
BRANCH   5   6
ATOM      6  C   UNL     1       8.710 -23.020 -17.260  1.00  0.00     0.000 C 
BRANCH   6   7
ATOM      7  C   UNL     1      10.087 -23.121 -17.945  1.00  0.00     0.000 C 
BRANCH   7   8
ATOM      8  C   UNL     1      10.626 -21.754 -18.399  1.00  0.00     0.000 C 
BRANCH   8   9
ATOM      9  C   UNL     1      10.664 -21.613 -19.929  1.00  0.00     0.000 C 
BRANCH   9  10
ATOM     10  C   UNL     1      10.264 -22.906 -20.663  1.00  0.00     0.000 C 
BRANCH  10  11
ATOM     11  C   UNL     1       8.736 -23.012 -20.850  1.00  0.00     0.000 C 
BRANCH  11  12
ATOM     12  C   UNL     1       8.263 -22.638 -22.267  1.00  0.00     0.006 C 
BRANCH  12  13
ATOM     13  C   UNL     1       8.759 -21.260 -22.722  1.00  0.00     0.053 C 
BRANCH  13  14
ATOM     14  C   UNL     1      10.180 -21.335 -23.184  1.00  0.00     0.041 C 
ATOM     15  O   UNL     1      10.563 -22.297 -23.900  1.00  0.00    -0.550 OA
ATOM     16  O   UNL     1      11.086 -20.351 -22.808  1.00  0.00    -0.550 OA
ENDBRANCH  13  14
ENDBRANCH  12  13
ENDBRANCH  11  12
ENDBRANCH  10  11
ENDBRANCH   9  10
ENDBRANCH   8   9
ENDBRANCH   7   8
ENDBRANCH   6   7
ENDBRANCH   5   6
ENDBRANCH   4   5
ENDBRANCH   3   4
ENDBRANCH   2   3
ENDBRANCH   1   2
BRANCH   1  17
ATOM     17  C   UNL     1       4.131 -20.526 -14.846  1.00  0.00     0.000 C 
BRANCH  17  18
ATOM     18  C   UNL     1       3.494 -21.636 -15.706  1.00  0.00     0.000 C 
BRANCH  18  19
ATOM     19  C   UNL     1       1.995 -21.409 -15.961  1.00  0.00     0.000 C 
BRANCH  19  20
ATOM     20  C   UNL     1       1.245 -22.743 -16.093  1.00  0.00     0.000 C 
BRANCH  20  21
ATOM     21  C   UNL     1       0.160 -22.929 -15.015  1.00  0.00     0.000 C 
BRANCH  21  22
ATOM     22  C   UNL     1      -1.169 -22.196 -15.285  1.00  0.00    -0.000 C 
BRANCH  22  23
ATOM     23  C   UNL     1      -2.404 -23.088 -15.078  1.00  0.00    -0.000 C 
BRANCH  23  24
ATOM     24  C   UNL     1      -3.253 -22.656 -13.872  1.00  0.00    -0.000 C 
BRANCH  24  25
ATOM     25  C   UNL     1      -4.758 -22.612 -14.182  1.00  0.00    -0.000 C 
BRANCH  25  26
ATOM     26  C   UNL     1      -5.587 -22.767 -12.900  1.00  0.00    -0.000 C 
BRANCH  26  27
ATOM     27  C   UNL     1      -6.989 -22.159 -13.069  1.00  0.00    -0.000 C 
BRANCH  27  28
ATOM     28  C   UNL     1      -7.647 -22.581 -14.398  1.00  0.00    -0.000 C 
BRANCH  28  29
ATOM     29  C   UNL     1      -8.066 -21.392 -15.277  1.00  0.00    -0.003 C 
ATOM     30  C   UNL     1      -7.514 -21.474 -16.700  1.00  0.00     0.004 C 
ENDBRANCH  28  29
ENDBRANCH  27  28
ENDBRANCH  26  27
ENDBRANCH  25  26
ENDBRANCH  24  25
ENDBRANCH  23  24
ENDBRANCH  22  23
ENDBRANCH  21  22
ENDBRANCH  20  21
ENDBRANCH  19  20
ENDBRANCH  18  19
ENDBRANCH  17  18
ENDBRANCH   1  17
TORSDOF 26
ENDMDL
