MODEL 1
REMARK VINA RESULT:    -3.950      0.000      0.000
REMARK INTER + INTRA:          -4.065
REMARK INTER:                  -4.065
REMARK INTRA:                   0.000
REMARK UNBOUND:                 0.000
REMARK SMILES O=c1ccc2ccc(O)cc2o1
REMARK SMILES IDX 6 1 7 2 8 3 10 4 11 5 5 6 4 7 3 8 2 9 1 10 12 11 9 12
REMARK H PARENT 9 13
REMARK Flexibility Score: inf
ROOT
ATOM      1  C   UNL     1       5.593  18.053  24.617  1.00  0.00     0.016 A 
ATOM      2  C   UNL     1       6.835  18.229  25.238  1.00  0.00     0.047 A 
ATOM      3  C   UNL     1       8.017  17.923  24.552  1.00  0.00     0.119 A 
ATOM      4  C   UNL     1       7.957  17.439  23.236  1.00  0.00     0.094 A 
ATOM      5  C   UNL     1       6.720  17.261  22.608  1.00  0.00     0.142 A 
ATOM      6  C   UNL     1       5.530  17.570  23.303  1.00  0.00     0.018 A 
ATOM      7  C   UNL     1       4.308  17.382  22.650  1.00  0.00     0.019 A 
ATOM      8  C   UNL     1       4.300  16.899  21.341  1.00  0.00     0.094 A 
ATOM      9  C   UNL     1       5.519  16.613  20.716  1.00  0.00     0.336 A 
ATOM     10  O   UNL     1       5.531  16.177  19.535  1.00  0.00    -0.246 OA
ATOM     11  O   UNL     1       6.667  16.802  21.360  1.00  0.00    -0.423 OA
ENDROOT
BRANCH   3  12
ATOM     12  O   UNL     1       9.244  18.103  25.186  1.00  0.00    -0.508 OA
ATOM     13  H   UNL     1       9.702  17.346  25.678  1.00  0.00     0.293 HD
ENDBRANCH   3  12
TORSDOF 1
ENDMDL
MODEL 2
REMARK VINA RESULT:    -3.722     15.900     17.102
REMARK INTER + INTRA:          -3.831
REMARK INTER:                  -3.831
REMARK INTRA:                   0.000
REMARK UNBOUND:                 0.000
REMARK SMILES O=c1ccc2ccc(O)cc2o1
REMARK SMILES IDX 6 1 7 2 8 3 10 4 11 5 5 6 4 7 3 8 2 9 1 10 12 11 9 12
REMARK H PARENT 9 13
REMARK Flexibility Score: inf
ROOT
ATOM      1  C   UNL     1      -1.634  30.910  25.134  1.00  0.00     0.016 A 
ATOM      2  C   UNL     1      -2.915  31.395  25.418  1.00  0.00     0.047 A 
ATOM      3  C   UNL     1      -3.127  32.221  26.529  1.00  0.00     0.119 A 
ATOM      4  C   UNL     1      -2.051  32.563  27.362  1.00  0.00     0.094 A 
ATOM      5  C   UNL     1      -0.767  32.082  27.085  1.00  0.00     0.142 A 
ATOM      6  C   UNL     1      -0.557  31.250  25.963  1.00  0.00     0.018 A 
ATOM      7  C   UNL     1       0.737  30.784  25.711  1.00  0.00     0.019 A 
ATOM      8  C   UNL     1       1.775  31.152  26.567  1.00  0.00     0.094 A 
ATOM      9  C   UNL     1       1.492  31.980  27.660  1.00  0.00     0.336 A 
ATOM     10  O   UNL     1       2.416  32.322  28.444  1.00  0.00    -0.246 OA
ATOM     11  O   UNL     1       0.251  32.409  27.877  1.00  0.00    -0.423 OA
ENDROOT
BRANCH   3  12
ATOM     12  O   UNL     1      -4.409  32.694  26.798  1.00  0.00    -0.508 OA
ATOM     13  H   UNL     1      -4.615  33.686  26.819  1.00  0.00     0.293 HD
ENDBRANCH   3  12
TORSDOF 1
ENDMDL
MODEL 3
REMARK VINA RESULT:    -3.702      0.783      4.224
REMARK INTER + INTRA:          -3.810
REMARK INTER:                  -3.810
REMARK INTRA:                   0.000
REMARK UNBOUND:                 0.000
REMARK SMILES O=c1ccc2ccc(O)cc2o1
REMARK SMILES IDX 6 1 7 2 8 3 10 4 11 5 5 6 4 7 3 8 2 9 1 10 12 11 9 12
REMARK H PARENT 9 13
REMARK Flexibility Score: inf
ROOT
ATOM      1  C   UNL     1       4.336  17.425  22.668  1.00  0.00     0.016 A 
ATOM      2  C   UNL     1       4.332  16.929  21.360  1.00  0.00     0.047 A 
ATOM      3  C   UNL     1       5.536  16.612  20.720  1.00  0.00     0.119 A 
ATOM      4  C   UNL     1       6.754  16.793  21.392  1.00  0.00     0.094 A 
ATOM      5  C   UNL     1       6.768  17.289  22.701  1.00  0.00     0.142 A 
ATOM      6  C   UNL     1       5.551  17.607  23.343  1.00  0.00     0.018 A 
ATOM      7  C   UNL     1       5.596  18.101  24.650  1.00  0.00     0.019 A 
ATOM      8  C   UNL     1       6.831  18.262  25.278  1.00  0.00     0.094 A 
ATOM      9  C   UNL     1       7.996  17.927  24.579  1.00  0.00     0.336 A 
ATOM     10  O   UNL     1       9.120  18.066  25.129  1.00  0.00    -0.246 OA
ATOM     11  O   UNL     1       7.925  17.459  23.336  1.00  0.00    -0.423 OA
ENDROOT
BRANCH   3  12
ATOM     12  O   UNL     1       5.513  16.120  19.417  1.00  0.00    -0.508 OA
ATOM     13  H   UNL     1       4.987  16.582  18.685  1.00  0.00     0.293 HD
ENDBRANCH   3  12
TORSDOF 1
ENDMDL
MODEL 4
REMARK VINA RESULT:    -3.646     15.986     16.783
REMARK INTER + INTRA:          -3.753
REMARK INTER:                  -3.753
REMARK INTRA:                   0.000
REMARK UNBOUND:                 0.000
REMARK SMILES O=c1ccc2ccc(O)cc2o1
REMARK SMILES IDX 6 1 7 2 8 3 10 4 11 5 5 6 4 7 3 8 2 9 1 10 12 11 9 12
REMARK H PARENT 9 13
REMARK Flexibility Score: inf
ROOT
ATOM      1  C   UNL     1       0.694  30.843  25.805  1.00  0.00     0.016 A 
ATOM      2  C   UNL     1       1.713  31.224  26.685  1.00  0.00     0.047 A 
ATOM      3  C   UNL     1       1.425  32.035  27.790  1.00  0.00     0.119 A 
ATOM      4  C   UNL     1       0.110  32.468  28.017  1.00  0.00     0.094 A 
ATOM      5  C   UNL     1      -0.915  32.090  27.142  1.00  0.00     0.142 A 
ATOM      6  C   UNL     1      -0.621  31.273  26.029  1.00  0.00     0.018 A 
ATOM      7  C   UNL     1      -1.666  30.912  25.172  1.00  0.00     0.019 A 
ATOM      8  C   UNL     1      -2.957  31.366  25.440  1.00  0.00     0.094 A 
ATOM      9  C   UNL     1      -3.173  32.174  26.562  1.00  0.00     0.336 A 
ATOM     10  O   UNL     1      -4.332  32.593  26.820  1.00  0.00    -0.246 OA
ATOM     11  O   UNL     1      -2.161  32.502  27.361  1.00  0.00    -0.423 OA
ENDROOT
BRANCH   3  12
ATOM     12  O   UNL     1       2.452  32.406  28.654  1.00  0.00    -0.508 OA
ATOM     13  H   UNL     1       2.664  31.868  29.487  1.00  0.00     0.293 HD
ENDBRANCH   3  12
TORSDOF 1
ENDMDL
MODEL 5
REMARK VINA RESULT:    -2.940      1.560      2.377
REMARK INTER + INTRA:          -3.026
REMARK INTER:                  -3.026
REMARK INTRA:                   0.000
REMARK UNBOUND:                 0.000
REMARK SMILES O=c1ccc2ccc(O)cc2o1
REMARK SMILES IDX 6 1 7 2 8 3 10 4 11 5 5 6 4 7 3 8 2 9 1 10 12 11 9 12
REMARK H PARENT 9 13
REMARK Flexibility Score: inf
ROOT
ATOM      1  C   UNL     1       7.875  17.929  23.583  1.00  0.00     0.016 A 
ATOM      2  C   UNL     1       7.270  18.491  24.712  1.00  0.00     0.047 A 
ATOM      3  C   UNL     1       5.882  18.671  24.754  1.00  0.00     0.119 A 
ATOM      4  C   UNL     1       5.093  18.286  23.660  1.00  0.00     0.094 A 
ATOM      5  C   UNL     1       5.690  17.722  22.527  1.00  0.00     0.142 A 
ATOM      6  C   UNL     1       7.090  17.543  22.488  1.00  0.00     0.018 A 
ATOM      7  C   UNL     1       7.658  16.977  21.342  1.00  0.00     0.019 A 
ATOM      8  C   UNL     1       6.833  16.610  20.280  1.00  0.00     0.094 A 
ATOM      9  C   UNL     1       5.453  16.818  20.389  1.00  0.00     0.336 A 
ATOM     10  O   UNL     1       4.692  16.493  19.440  1.00  0.00    -0.246 OA
ATOM     11  O   UNL     1       4.938  17.358  21.491  1.00  0.00    -0.423 OA
ENDROOT
BRANCH   3  12
ATOM     12  O   UNL     1       5.297  19.233  25.886  1.00  0.00    -0.508 OA
ATOM     13  H   UNL     1       5.628  20.108  26.275  1.00  0.00     0.293 HD
ENDBRANCH   3  12
TORSDOF 1
ENDMDL
MODEL 6
REMARK VINA RESULT:    -2.825     15.777     16.543
REMARK INTER + INTRA:          -2.907
REMARK INTER:                  -2.907
REMARK INTRA:                   0.000
REMARK UNBOUND:                 0.000
REMARK SMILES O=c1ccc2ccc(O)cc2o1
REMARK SMILES IDX 6 1 7 2 8 3 10 4 11 5 5 6 4 7 3 8 2 9 1 10 12 11 9 12
REMARK H PARENT 9 13
REMARK Flexibility Score: inf
ROOT
ATOM      1  C   UNL     1       0.595  32.719  28.547  1.00  0.00     0.016 A 
ATOM      2  C   UNL     1       1.820  32.057  28.413  1.00  0.00     0.047 A 
ATOM      3  C   UNL     1       2.026  31.157  27.359  1.00  0.00     0.119 A 
ATOM      4  C   UNL     1       1.000  30.918  26.433  1.00  0.00     0.094 A 
ATOM      5  C   UNL     1      -0.228  31.576  26.559  1.00  0.00     0.142 A 
ATOM      6  C   UNL     1      -0.432  32.482  27.623  1.00  0.00     0.018 A 
ATOM      7  C   UNL     1      -1.671  33.125  27.723  1.00  0.00     0.019 A 
ATOM      8  C   UNL     1      -2.659  32.855  26.778  1.00  0.00     0.094 A 
ATOM      9  C   UNL     1      -2.386  31.945  25.750  1.00  0.00     0.336 A 
ATOM     10  O   UNL     1      -3.266  31.689  24.888  1.00  0.00    -0.246 OA
ATOM     11  O   UNL     1      -1.199  31.347  25.678  1.00  0.00    -0.423 OA
ENDROOT
BRANCH   3  12
ATOM     12  O   UNL     1       3.252  30.507  27.243  1.00  0.00    -0.508 OA
ATOM     13  H   UNL     1       4.125  31.021  27.221  1.00  0.00     0.293 HD
ENDBRANCH   3  12
TORSDOF 1
ENDMDL
MODEL 7
REMARK VINA RESULT:    -2.820      1.737      4.620
REMARK INTER + INTRA:          -2.902
REMARK INTER:                  -2.902
REMARK INTRA:                   0.000
REMARK UNBOUND:                 0.000
REMARK SMILES O=c1ccc2ccc(O)cc2o1
REMARK SMILES IDX 6 1 7 2 8 3 10 4 11 5 5 6 4 7 3 8 2 9 1 10 12 11 9 12
REMARK H PARENT 9 13
REMARK Flexibility Score: inf
ROOT
ATOM      1  C   UNL     1       7.659  16.965  21.563  1.00  0.00     0.016 A 
ATOM      2  C   UNL     1       6.871  16.616  20.461  1.00  0.00     0.047 A 
ATOM      3  C   UNL     1       5.490  16.847  20.478  1.00  0.00     0.119 A 
ATOM      4  C   UNL     1       4.892  17.430  21.606  1.00  0.00     0.094 A 
ATOM      5  C   UNL     1       5.673  17.783  22.712  1.00  0.00     0.142 A 
ATOM      6  C   UNL     1       7.066  17.549  22.691  1.00  0.00     0.018 A 
ATOM      7  C   UNL     1       7.820  17.912  23.811  1.00  0.00     0.019 A 
ATOM      8  C   UNL     1       7.181  18.490  24.907  1.00  0.00     0.094 A 
ATOM      9  C   UNL     1       5.796  18.691  24.858  1.00  0.00     0.336 A 
ATOM     10  O   UNL     1       5.202  19.211  25.838  1.00  0.00    -0.246 OA
ATOM     11  O   UNL     1       5.103  18.337  23.780  1.00  0.00    -0.423 OA
ENDROOT
BRANCH   3  12
ATOM     12  O   UNL     1       4.721  16.492  19.373  1.00  0.00    -0.508 OA
ATOM     13  H   UNL     1       4.922  16.856  18.449  1.00  0.00     0.293 HD
ENDBRANCH   3  12
TORSDOF 1
ENDMDL
MODEL 8
REMARK VINA RESULT:    -2.637     17.119     17.852
REMARK INTER + INTRA:          -2.714
REMARK INTER:                  -2.714
REMARK INTRA:                   0.000
REMARK UNBOUND:                 0.000
REMARK SMILES O=c1ccc2ccc(O)cc2o1
REMARK SMILES IDX 6 1 7 2 8 3 10 4 11 5 5 6 4 7 3 8 2 9 1 10 12 11 9 12
REMARK H PARENT 9 13
REMARK Flexibility Score: inf
ROOT
ATOM      1  C   UNL     1      -1.692  32.925  29.084  1.00  0.00     0.016 A 
ATOM      2  C   UNL     1      -0.334  32.587  29.060  1.00  0.00     0.047 A 
ATOM      3  C   UNL     1       0.258  32.122  27.880  1.00  0.00     0.119 A 
ATOM      4  C   UNL     1      -0.512  31.992  26.714  1.00  0.00     0.094 A 
ATOM      5  C   UNL     1      -1.870  32.328  26.729  1.00  0.00     0.142 A 
ATOM      6  C   UNL     1      -2.464  32.797  27.921  1.00  0.00     0.018 A 
ATOM      7  C   UNL     1      -3.824  33.125  27.905  1.00  0.00     0.019 A 
ATOM      8  C   UNL     1      -4.547  32.981  26.721  1.00  0.00     0.094 A 
ATOM      9  C   UNL     1      -3.892  32.509  25.578  1.00  0.00     0.336 A 
ATOM     10  O   UNL     1      -4.529  32.372  24.501  1.00  0.00    -0.246 OA
ATOM     11  O   UNL     1      -2.598  32.205  25.621  1.00  0.00    -0.423 OA
ENDROOT
BRANCH   3  12
ATOM     12  O   UNL     1       1.611  31.789  27.876  1.00  0.00    -0.508 OA
ATOM     13  H   UNL     1       1.981  31.067  28.482  1.00  0.00     0.293 HD
ENDBRANCH   3  12
TORSDOF 1
ENDMDL
MODEL 9
REMARK VINA RESULT:    -2.585     16.506     17.435
REMARK INTER + INTRA:          -2.660
REMARK INTER:                  -2.660
REMARK INTRA:                   0.000
REMARK UNBOUND:                 0.000
REMARK SMILES O=c1ccc2ccc(O)cc2o1
REMARK SMILES IDX 6 1 7 2 8 3 10 4 11 5 5 6 4 7 3 8 2 9 1 10 12 11 9 12
REMARK H PARENT 9 13
REMARK Flexibility Score: inf
ROOT
ATOM      1  C   UNL     1       0.555  32.220  27.900  1.00  0.00     0.016 A 
ATOM      2  C   UNL     1       1.174  31.588  26.817  1.00  0.00     0.047 A 
ATOM      3  C   UNL     1       0.408  31.106  25.748  1.00  0.00     0.119 A 
ATOM      4  C   UNL     1      -0.987  31.256  25.763  1.00  0.00     0.094 A 
ATOM      5  C   UNL     1      -1.614  31.887  26.842  1.00  0.00     0.142 A 
ATOM      6  C   UNL     1      -0.839  32.372  27.918  1.00  0.00     0.018 A 
ATOM      7  C   UNL     1      -1.494  32.999  28.984  1.00  0.00     0.019 A 
ATOM      8  C   UNL     1      -2.882  33.125  28.952  1.00  0.00     0.094 A 
ATOM      9  C   UNL     1      -3.586  32.619  27.853  1.00  0.00     0.336 A 
ATOM     10  O   UNL     1      -4.839  32.724  27.808  1.00  0.00    -0.246 OA
ATOM     11  O   UNL     1      -2.938  32.028  26.853  1.00  0.00    -0.423 OA
ENDROOT
BRANCH   3  12
ATOM     12  O   UNL     1       1.042  30.479  24.678  1.00  0.00    -0.508 OA
ATOM     13  H   UNL     1       0.750  29.566  24.351  1.00  0.00     0.293 HD
ENDBRANCH   3  12
TORSDOF 1
ENDMDL
