MODEL 1
REMARK VINA RESULT:    -3.272      0.000      0.000
REMARK INTER + INTRA:          -7.449
REMARK INTER:                  -5.950
REMARK INTRA:                  -1.499
REMARK UNBOUND:                -1.499
REMARK SMILES CCCCCCCCCCCCCCCC(=O)[O-]
REMARK SMILES IDX 9 1 10 2 11 3 12 4 13 5 14 6 15 7 16 8 17 9 18 10 8 11 7 12
REMARK SMILES IDX 6 13 5 14 4 15 3 16 2 17 1 18
REMARK H PARENT
REMARK Flexibility Score: inf
ROOT
ATOM      1  C   UNL     1      23.510  27.430  49.390  1.00  0.00     0.000 C 
ENDROOT
BRANCH   1   2
ATOM      2  C   UNL     1      22.841  28.372  50.403  1.00  0.00     0.000 C 
BRANCH   2   3
ATOM      3  C   UNL     1      21.313  28.246  50.343  1.00  0.00     0.000 C 
BRANCH   3   4
ATOM      4  C   UNL     1      20.648  29.628  50.271  1.00  0.00     0.000 C 
BRANCH   4   5
ATOM      5  C   UNL     1      21.547  30.741  50.854  1.00  0.00     0.000 C 
BRANCH   5   6
ATOM      6  C   UNL     1      21.032  32.163  50.562  1.00  0.00     0.006 C 
BRANCH   6   7
ATOM      7  C   UNL     1      20.675  32.408  49.089  1.00  0.00     0.053 C 
BRANCH   7   8
ATOM      8  C   UNL     1      20.314  33.840  48.835  1.00  0.00     0.041 C 
ATOM      9  O   UNL     1      21.007  34.769  49.329  1.00  0.00    -0.550 OA
ATOM     10  O   UNL     1      19.223  34.150  48.034  1.00  0.00    -0.550 OA
ENDBRANCH   7   8
ENDBRANCH   6   7
ENDBRANCH   5   6
ENDBRANCH   4   5
ENDBRANCH   3   4
ENDBRANCH   2   3
ENDBRANCH   1   2
BRANCH   1  11
ATOM     11  C   UNL     1      23.575  28.030  47.976  1.00  0.00     0.000 C 
BRANCH  11  12
ATOM     12  C   UNL     1      23.857  29.541  47.987  1.00  0.00    -0.000 C 
BRANCH  12  13
ATOM     13  C   UNL     1      22.950  30.275  46.990  1.00  0.00    -0.000 C 
BRANCH  13  14
ATOM     14  C   UNL     1      23.507  31.670  46.665  1.00  0.00    -0.000 C 
BRANCH  14  15
ATOM     15  C   UNL     1      24.928  31.620  46.079  1.00  0.00    -0.000 C 
BRANCH  15  16
ATOM     16  C   UNL     1      24.979  30.909  44.716  1.00  0.00    -0.000 C 
BRANCH  16  17
ATOM     17  C   UNL     1      26.235  31.277  43.908  1.00  0.00    -0.003 C 
ATOM     18  C   UNL     1      26.246  30.655  42.512  1.00  0.00     0.004 C 
ENDBRANCH  16  17
ENDBRANCH  15  16
ENDBRANCH  14  15
ENDBRANCH  13  14
ENDBRANCH  12  13
ENDBRANCH  11  12
ENDBRANCH   1  11
TORSDOF 14
ENDMDL
MODEL 2
REMARK VINA RESULT:    -3.160      3.050      6.147
REMARK INTER + INTRA:          -7.246
REMARK INTER:                  -5.127
REMARK INTRA:                  -2.119
REMARK UNBOUND:                -1.499
REMARK SMILES CCCCCCCCCCCCCCCC(=O)[O-]
REMARK SMILES IDX 9 1 10 2 11 3 12 4 13 5 14 6 15 7 16 8 17 9 18 10 8 11 7 12
REMARK SMILES IDX 6 13 5 14 4 15 3 16 2 17 1 18
REMARK H PARENT
REMARK Flexibility Score: inf
ROOT
ATOM      1  C   UNL     1      19.935  29.486  47.493  1.00  0.00     0.000 C 
ENDROOT
BRANCH   1   2
ATOM      2  C   UNL     1      20.984  29.648  46.383  1.00  0.00     0.000 C 
BRANCH   2   3
ATOM      3  C   UNL     1      22.106  28.613  46.532  1.00  0.00     0.000 C 
BRANCH   3   4
ATOM      4  C   UNL     1      23.437  29.161  45.997  1.00  0.00     0.000 C 
BRANCH   4   5
ATOM      5  C   UNL     1      24.074  30.190  46.957  1.00  0.00     0.000 C 
BRANCH   5   6
ATOM      6  C   UNL     1      24.162  31.610  46.366  1.00  0.00     0.006 C 
BRANCH   6   7
ATOM      7  C   UNL     1      25.534  31.955  45.770  1.00  0.00     0.053 C 
BRANCH   7   8
ATOM      8  C   UNL     1      25.561  31.757  44.284  1.00  0.00     0.041 C 
ATOM      9  O   UNL     1      24.905  32.521  43.529  1.00  0.00    -0.550 OA
ATOM     10  O   UNL     1      26.329  30.740  43.732  1.00  0.00    -0.550 OA
ENDBRANCH   7   8
ENDBRANCH   6   7
ENDBRANCH   5   6
ENDBRANCH   4   5
ENDBRANCH   3   4
ENDBRANCH   2   3
ENDBRANCH   1   2
BRANCH   1  11
ATOM     11  C   UNL     1      19.755  30.763  48.329  1.00  0.00     0.000 C 
BRANCH  11  12
ATOM     12  C   UNL     1      21.083  31.300  48.884  1.00  0.00    -0.000 C 
BRANCH  12  13
ATOM     13  C   UNL     1      21.046  31.380  50.416  1.00  0.00    -0.000 C 
BRANCH  13  14
ATOM     14  C   UNL     1      21.573  30.082  51.047  1.00  0.00    -0.000 C 
BRANCH  14  15
ATOM     15  C   UNL     1      22.736  29.464  50.252  1.00  0.00    -0.000 C 
BRANCH  15  16
ATOM     16  C   UNL     1      22.756  27.929  50.334  1.00  0.00    -0.000 C 
BRANCH  16  17
ATOM     17  C   UNL     1      21.405  27.301  49.952  1.00  0.00    -0.003 C 
ATOM     18  C   UNL     1      21.453  25.774  49.903  1.00  0.00     0.004 C 
ENDBRANCH  16  17
ENDBRANCH  15  16
ENDBRANCH  14  15
ENDBRANCH  13  14
ENDBRANCH  12  13
ENDBRANCH  11  12
ENDBRANCH   1  11
TORSDOF 14
ENDMDL
MODEL 3
REMARK VINA RESULT:    -3.141      3.706      6.663
REMARK INTER + INTRA:          -7.211
REMARK INTER:                  -5.106
REMARK INTRA:                  -2.105
REMARK UNBOUND:                -1.499
REMARK SMILES CCCCCCCCCCCCCCCC(=O)[O-]
REMARK SMILES IDX 9 1 10 2 11 3 12 4 13 5 14 6 15 7 16 8 17 9 18 10 8 11 7 12
REMARK SMILES IDX 6 13 5 14 4 15 3 16 2 17 1 18
REMARK H PARENT
REMARK Flexibility Score: inf
ROOT
ATOM      1  C   UNL     1      20.814  31.407  47.641  1.00  0.00     0.000 C 
ENDROOT
BRANCH   1   2
ATOM      2  C   UNL     1      21.881  31.512  46.541  1.00  0.00     0.000 C 
BRANCH   2   3
ATOM      3  C   UNL     1      23.160  32.166  47.078  1.00  0.00     0.000 C 
BRANCH   3   4
ATOM      4  C   UNL     1      24.399  31.649  46.332  1.00  0.00     0.000 C 
BRANCH   4   5
ATOM      5  C   UNL     1      24.221  31.701  44.798  1.00  0.00     0.000 C 
BRANCH   5   6
ATOM      6  C   UNL     1      24.882  30.519  44.063  1.00  0.00     0.006 C 
BRANCH   6   7
ATOM      7  C   UNL     1      26.289  30.823  43.530  1.00  0.00     0.053 C 
BRANCH   7   8
ATOM      8  C   UNL     1      26.535  30.171  42.203  1.00  0.00     0.041 C 
ATOM      9  O   UNL     1      27.416  29.279  42.086  1.00  0.00    -0.550 OA
ATOM     10  O   UNL     1      25.776  30.534  41.098  1.00  0.00    -0.550 OA
ENDBRANCH   7   8
ENDBRANCH   6   7
ENDBRANCH   5   6
ENDBRANCH   4   5
ENDBRANCH   3   4
ENDBRANCH   2   3
ENDBRANCH   1   2
BRANCH   1  11
ATOM     11  C   UNL     1      21.096  32.337  48.832  1.00  0.00     0.000 C 
BRANCH  11  12
ATOM     12  C   UNL     1      21.129  31.588  50.173  1.00  0.00    -0.000 C 
BRANCH  12  13
ATOM     13  C   UNL     1      21.130  30.070  49.954  1.00  0.00    -0.000 C 
BRANCH  13  14
ATOM     14  C   UNL     1      22.514  29.472  50.251  1.00  0.00    -0.000 C 
BRANCH  14  15
ATOM     15  C   UNL     1      22.850  28.275  49.347  1.00  0.00    -0.000 C 
BRANCH  15  16
ATOM     16  C   UNL     1      23.788  28.654  48.189  1.00  0.00    -0.000 C 
BRANCH  16  17
ATOM     17  C   UNL     1      23.302  28.108  46.836  1.00  0.00    -0.003 C 
ATOM     18  C   UNL     1      21.801  27.824  46.815  1.00  0.00     0.004 C 
ENDBRANCH  16  17
ENDBRANCH  15  16
ENDBRANCH  14  15
ENDBRANCH  13  14
ENDBRANCH  12  13
ENDBRANCH  11  12
ENDBRANCH   1  11
TORSDOF 14
ENDMDL
MODEL 4
REMARK VINA RESULT:    -3.123      2.785      6.161
REMARK INTER + INTRA:          -7.179
REMARK INTER:                  -4.789
REMARK INTRA:                  -2.389
REMARK UNBOUND:                -1.499
REMARK SMILES CCCCCCCCCCCCCCCC(=O)[O-]
REMARK SMILES IDX 9 1 10 2 11 3 12 4 13 5 14 6 15 7 16 8 17 9 18 10 8 11 7 12
REMARK SMILES IDX 6 13 5 14 4 15 3 16 2 17 1 18
REMARK H PARENT
REMARK Flexibility Score: inf
ROOT
ATOM      1  C   UNL     1      20.335  30.110  47.355  1.00  0.00     0.000 C 
ENDROOT
BRANCH   1   2
ATOM      2  C   UNL     1      21.415  30.804  46.511  1.00  0.00     0.000 C 
BRANCH   2   3
ATOM      3  C   UNL     1      22.512  31.398  47.403  1.00  0.00     0.000 C 
BRANCH   3   4
ATOM      4  C   UNL     1      23.881  30.782  47.080  1.00  0.00     0.000 C 
BRANCH   4   5
ATOM      5  C   UNL     1      23.789  29.691  45.991  1.00  0.00     0.000 C 
BRANCH   5   6
ATOM      6  C   UNL     1      24.467  30.087  44.665  1.00  0.00     0.006 C 
BRANCH   6   7
ATOM      7  C   UNL     1      25.158  31.457  44.702  1.00  0.00     0.053 C 
BRANCH   7   8
ATOM      8  C   UNL     1      24.584  32.398  43.686  1.00  0.00     0.041 C 
ATOM      9  O   UNL     1      23.371  32.732  43.742  1.00  0.00    -0.550 OA
ATOM     10  O   UNL     1      25.394  32.922  42.688  1.00  0.00    -0.550 OA
ENDBRANCH   7   8
ENDBRANCH   6   7
ENDBRANCH   5   6
ENDBRANCH   4   5
ENDBRANCH   3   4
ENDBRANCH   2   3
ENDBRANCH   1   2
BRANCH   1  11
ATOM     11  C   UNL     1      20.600  28.608  47.538  1.00  0.00     0.000 C 
BRANCH  11  12
ATOM     12  C   UNL     1      20.651  28.191  49.016  1.00  0.00    -0.000 C 
BRANCH  12  13
ATOM     13  C   UNL     1      22.100  27.989  49.480  1.00  0.00    -0.000 C 
BRANCH  13  14
ATOM     14  C   UNL     1      22.585  29.191  50.305  1.00  0.00    -0.000 C 
BRANCH  14  15
ATOM     15  C   UNL     1      21.458  29.845  51.122  1.00  0.00    -0.000 C 
BRANCH  15  16
ATOM     16  C   UNL     1      21.485  31.380  51.042  1.00  0.00    -0.000 C 
BRANCH  16  17
ATOM     17  C   UNL     1      20.158  31.966  50.532  1.00  0.00    -0.003 C 
ATOM     18  C   UNL     1      20.357  33.133  49.565  1.00  0.00     0.004 C 
ENDBRANCH  16  17
ENDBRANCH  15  16
ENDBRANCH  14  15
ENDBRANCH  13  14
ENDBRANCH  12  13
ENDBRANCH  11  12
ENDBRANCH   1  11
TORSDOF 14
ENDMDL
MODEL 5
REMARK VINA RESULT:    -3.121      3.366      6.022
REMARK INTER + INTRA:          -7.174
REMARK INTER:                  -5.070
REMARK INTRA:                  -2.104
REMARK UNBOUND:                -1.499
REMARK SMILES CCCCCCCCCCCCCCCC(=O)[O-]
REMARK SMILES IDX 9 1 10 2 11 3 12 4 13 5 14 6 15 7 16 8 17 9 18 10 8 11 7 12
REMARK SMILES IDX 6 13 5 14 4 15 3 16 2 17 1 18
REMARK H PARENT
REMARK Flexibility Score: inf
ROOT
ATOM      1  C   UNL     1      22.745  28.215  49.395  1.00  0.00     0.000 C 
ENDROOT
BRANCH   1   2
ATOM      2  C   UNL     1      23.004  28.509  47.909  1.00  0.00     0.000 C 
BRANCH   2   3
ATOM      3  C   UNL     1      23.874  29.761  47.740  1.00  0.00     0.000 C 
BRANCH   3   4
ATOM      4  C   UNL     1      24.031  30.128  46.258  1.00  0.00     0.000 C 
BRANCH   4   5
ATOM      5  C   UNL     1      24.202  31.649  46.048  1.00  0.00     0.000 C 
BRANCH   5   6
ATOM      6  C   UNL     1      24.906  32.012  44.726  1.00  0.00     0.006 C 
BRANCH   6   7
ATOM      7  C   UNL     1      25.992  31.014  44.302  1.00  0.00     0.053 C 
BRANCH   7   8
ATOM      8  C   UNL     1      25.773  30.511  42.907  1.00  0.00     0.041 C 
ATOM      9  O   UNL     1      26.754  30.282  42.152  1.00  0.00    -0.550 OA
ATOM     10  O   UNL     1      24.484  30.276  42.448  1.00  0.00    -0.550 OA
ENDBRANCH   7   8
ENDBRANCH   6   7
ENDBRANCH   5   6
ENDBRANCH   4   5
ENDBRANCH   3   4
ENDBRANCH   2   3
ENDBRANCH   1   2
BRANCH   1  11
ATOM     11  C   UNL     1      22.765  29.484  50.262  1.00  0.00     0.000 C 
BRANCH  11  12
ATOM     12  C   UNL     1      21.397  29.791  50.893  1.00  0.00    -0.000 C 
BRANCH  12  13
ATOM     13  C   UNL     1      21.226  31.298  51.125  1.00  0.00    -0.000 C 
BRANCH  13  14
ATOM     14  C   UNL     1      20.352  31.926  50.028  1.00  0.00    -0.000 C 
BRANCH  14  15
ATOM     15  C   UNL     1      21.172  32.721  48.998  1.00  0.00    -0.000 C 
BRANCH  15  16
ATOM     16  C   UNL     1      20.980  32.201  47.563  1.00  0.00    -0.000 C 
BRANCH  16  17
ATOM     17  C   UNL     1      20.178  30.890  47.516  1.00  0.00    -0.003 C 
ATOM     18  C   UNL     1      20.226  30.214  46.145  1.00  0.00     0.004 C 
ENDBRANCH  16  17
ENDBRANCH  15  16
ENDBRANCH  14  15
ENDBRANCH  13  14
ENDBRANCH  12  13
ENDBRANCH  11  12
ENDBRANCH   1  11
TORSDOF 14
ENDMDL
MODEL 6
REMARK VINA RESULT:    -3.093      2.602      4.430
REMARK INTER + INTRA:          -7.124
REMARK INTER:                  -4.982
REMARK INTRA:                  -2.142
REMARK UNBOUND:                -1.499
REMARK SMILES CCCCCCCCCCCCCCCC(=O)[O-]
REMARK SMILES IDX 9 1 10 2 11 3 12 4 13 5 14 6 15 7 16 8 17 9 18 10 8 11 7 12
REMARK SMILES IDX 6 13 5 14 4 15 3 16 2 17 1 18
REMARK H PARENT
REMARK Flexibility Score: inf
ROOT
ATOM      1  C   UNL     1      21.807  30.876  50.926  1.00  0.00     0.000 C 
ENDROOT
BRANCH   1   2
ATOM      2  C   UNL     1      21.432  29.396  51.091  1.00  0.00     0.000 C 
BRANCH   2   3
ATOM      3  C   UNL     1      22.497  28.487  50.466  1.00  0.00     0.000 C 
BRANCH   3   4
ATOM      4  C   UNL     1      23.082  29.116  49.194  1.00  0.00     0.000 C 
BRANCH   4   5
ATOM      5  C   UNL     1      23.689  28.059  48.244  1.00  0.00     0.000 C 
BRANCH   5   6
ATOM      6  C   UNL     1      22.882  27.864  46.946  1.00  0.00     0.006 C 
BRANCH   6   7
ATOM      7  C   UNL     1      21.429  28.349  47.034  1.00  0.00     0.053 C 
BRANCH   7   8
ATOM      8  C   UNL     1      20.742  28.294  45.703  1.00  0.00     0.041 C 
ATOM      9  O   UNL     1      19.875  27.411  45.471  1.00  0.00    -0.550 OA
ATOM     10  O   UNL     1      21.044  29.233  44.725  1.00  0.00    -0.550 OA
ENDBRANCH   7   8
ENDBRANCH   6   7
ENDBRANCH   5   6
ENDBRANCH   4   5
ENDBRANCH   3   4
ENDBRANCH   2   3
ENDBRANCH   1   2
BRANCH   1  11
ATOM     11  C   UNL     1      20.577  31.788  50.795  1.00  0.00     0.000 C 
BRANCH  11  12
ATOM     12  C   UNL     1      20.555  32.566  49.469  1.00  0.00    -0.000 C 
BRANCH  12  13
ATOM     13  C   UNL     1      20.196  31.643  48.297  1.00  0.00    -0.000 C 
BRANCH  13  14
ATOM     14  C   UNL     1      20.973  32.035  47.031  1.00  0.00    -0.000 C 
BRANCH  14  15
ATOM     15  C   UNL     1      22.490  32.121  47.269  1.00  0.00    -0.000 C 
BRANCH  15  16
ATOM     16  C   UNL     1      23.304  31.542  46.099  1.00  0.00    -0.000 C 
BRANCH  16  17
ATOM     17  C   UNL     1      24.819  31.726  46.288  1.00  0.00    -0.003 C 
ATOM     18  C   UNL     1      25.584  31.745  44.966  1.00  0.00     0.004 C 
ENDBRANCH  16  17
ENDBRANCH  15  16
ENDBRANCH  14  15
ENDBRANCH  13  14
ENDBRANCH  12  13
ENDBRANCH  11  12
ENDBRANCH   1  11
TORSDOF 14
ENDMDL
MODEL 7
REMARK VINA RESULT:    -3.034      3.702      5.896
REMARK INTER + INTRA:          -7.016
REMARK INTER:                  -4.660
REMARK INTRA:                  -2.356
REMARK UNBOUND:                -1.499
REMARK SMILES CCCCCCCCCCCCCCCC(=O)[O-]
REMARK SMILES IDX 9 1 10 2 11 3 12 4 13 5 14 6 15 7 16 8 17 9 18 10 8 11 7 12
REMARK SMILES IDX 6 13 5 14 4 15 3 16 2 17 1 18
REMARK H PARENT
REMARK Flexibility Score: inf
ROOT
ATOM      1  C   UNL     1      21.598  31.384  47.879  1.00  0.00     0.000 C 
ENDROOT
BRANCH   1   2
ATOM      2  C   UNL     1      21.251  32.191  49.139  1.00  0.00     0.000 C 
BRANCH   2   3
ATOM      3  C   UNL     1      20.891  31.261  50.304  1.00  0.00     0.000 C 
BRANCH   3   4
ATOM      4  C   UNL     1      22.107  30.436  50.748  1.00  0.00     0.000 C 
BRANCH   4   5
ATOM      5  C   UNL     1      21.817  28.918  50.743  1.00  0.00     0.000 C 
BRANCH   5   6
ATOM      6  C   UNL     1      23.060  28.055  50.454  1.00  0.00     0.006 C 
BRANCH   6   7
ATOM      7  C   UNL     1      22.777  26.548  50.405  1.00  0.00     0.053 C 
BRANCH   7   8
ATOM      8  C   UNL     1      23.924  25.784  49.815  1.00  0.00     0.041 C 
ATOM      9  O   UNL     1      24.830  26.387  49.182  1.00  0.00    -0.550 OA
ATOM     10  O   UNL     1      24.002  24.408  49.982  1.00  0.00    -0.550 OA
ENDBRANCH   7   8
ENDBRANCH   6   7
ENDBRANCH   5   6
ENDBRANCH   4   5
ENDBRANCH   3   4
ENDBRANCH   2   3
ENDBRANCH   1   2
BRANCH   1  11
ATOM     11  C   UNL     1      22.648  32.081  46.999  1.00  0.00     0.000 C 
BRANCH  11  12
ATOM     12  C   UNL     1      23.915  31.233  46.806  1.00  0.00    -0.000 C 
BRANCH  12  13
ATOM     13  C   UNL     1      23.717  29.816  47.361  1.00  0.00    -0.000 C 
BRANCH  13  14
ATOM     14  C   UNL     1      23.467  28.811  46.226  1.00  0.00    -0.000 C 
BRANCH  14  15
ATOM     15  C   UNL     1      22.658  27.587  46.684  1.00  0.00    -0.000 C 
BRANCH  15  16
ATOM     16  C   UNL     1      21.150  27.746  46.425  1.00  0.00    -0.000 C 
BRANCH  16  17
ATOM     17  C   UNL     1      20.331  27.784  47.726  1.00  0.00    -0.003 C 
ATOM     18  C   UNL     1      19.179  28.786  47.673  1.00  0.00     0.004 C 
ENDBRANCH  16  17
ENDBRANCH  15  16
ENDBRANCH  14  15
ENDBRANCH  13  14
ENDBRANCH  12  13
ENDBRANCH  11  12
ENDBRANCH   1  11
TORSDOF 14
ENDMDL
MODEL 8
REMARK VINA RESULT:    -3.028     15.330     17.694
REMARK INTER + INTRA:          -7.005
REMARK INTER:                  -4.852
REMARK INTRA:                  -2.153
REMARK UNBOUND:                -1.499
REMARK SMILES CCCCCCCCCCCCCCCC(=O)[O-]
REMARK SMILES IDX 9 1 10 2 11 3 12 4 13 5 14 6 15 7 16 8 17 9 18 10 8 11 7 12
REMARK SMILES IDX 6 13 5 14 4 15 3 16 2 17 1 18
REMARK H PARENT
REMARK Flexibility Score: inf
ROOT
ATOM      1  C   UNL     1      17.007  28.475  31.236  1.00  0.00     0.000 C 
ENDROOT
BRANCH   1   2
ATOM      2  C   UNL     1      16.362  27.081  31.184  1.00  0.00     0.000 C 
BRANCH   2   3
ATOM      3  C   UNL     1      17.218  26.052  31.932  1.00  0.00     0.000 C 
BRANCH   3   4
ATOM      4  C   UNL     1      16.353  24.908  32.480  1.00  0.00     0.000 C 
BRANCH   4   5
ATOM      5  C   UNL     1      15.609  25.306  33.775  1.00  0.00     0.000 C 
BRANCH   5   6
ATOM      6  C   UNL     1      14.089  25.064  33.709  1.00  0.00     0.006 C 
BRANCH   6   7
ATOM      7  C   UNL     1      13.512  25.093  32.287  1.00  0.00     0.053 C 
BRANCH   7   8
ATOM      8  C   UNL     1      12.206  25.827  32.230  1.00  0.00     0.041 C 
ATOM      9  O   UNL     1      11.362  25.695  33.155  1.00  0.00    -0.550 OA
ATOM     10  O   UNL     1      11.930  26.673  31.164  1.00  0.00    -0.550 OA
ENDBRANCH   7   8
ENDBRANCH   6   7
ENDBRANCH   5   6
ENDBRANCH   4   5
ENDBRANCH   3   4
ENDBRANCH   2   3
ENDBRANCH   1   2
BRANCH   1  11
ATOM     11  C   UNL     1      18.542  28.416  31.282  1.00  0.00     0.000 C 
BRANCH  11  12
ATOM     12  C   UNL     1      19.170  29.728  31.777  1.00  0.00    -0.000 C 
BRANCH  12  13
ATOM     13  C   UNL     1      18.155  30.878  31.722  1.00  0.00    -0.000 C 
BRANCH  13  14
ATOM     14  C   UNL     1      18.149  31.668  33.040  1.00  0.00    -0.000 C 
BRANCH  14  15
ATOM     15  C   UNL     1      17.759  30.804  34.249  1.00  0.00    -0.000 C 
BRANCH  15  16
ATOM     16  C   UNL     1      16.297  30.329  34.189  1.00  0.00    -0.000 C 
BRANCH  16  17
ATOM     17  C   UNL     1      16.103  28.942  34.823  1.00  0.00    -0.003 C 
ATOM     18  C   UNL     1      17.418  28.190  35.022  1.00  0.00     0.004 C 
ENDBRANCH  16  17
ENDBRANCH  15  16
ENDBRANCH  14  15
ENDBRANCH  13  14
ENDBRANCH  12  13
ENDBRANCH  11  12
ENDBRANCH   1  11
TORSDOF 14
ENDMDL
MODEL 9
REMARK VINA RESULT:    -2.957     14.269     17.066
REMARK INTER + INTRA:          -6.877
REMARK INTER:                  -4.975
REMARK INTRA:                  -1.901
REMARK UNBOUND:                -1.499
REMARK SMILES CCCCCCCCCCCCCCCC(=O)[O-]
REMARK SMILES IDX 9 1 10 2 11 3 12 4 13 5 14 6 15 7 16 8 17 9 18 10 8 11 7 12
REMARK SMILES IDX 6 13 5 14 4 15 3 16 2 17 1 18
REMARK H PARENT
REMARK Flexibility Score: inf
ROOT
ATOM      1  C   UNL     1      16.119  26.308  30.905  1.00  0.00     0.000 C 
ENDROOT
BRANCH   1   2
ATOM      2  C   UNL     1      16.638  27.713  31.245  1.00  0.00     0.000 C 
BRANCH   2   3
ATOM      3  C   UNL     1      18.128  27.676  31.606  1.00  0.00     0.000 C 
BRANCH   3   4
ATOM      4  C   UNL     1      18.824  28.987  31.213  1.00  0.00     0.000 C 
BRANCH   4   5
ATOM      5  C   UNL     1      17.838  30.173  31.138  1.00  0.00     0.000 C 
BRANCH   5   6
ATOM      6  C   UNL     1      18.530  31.538  30.962  1.00  0.00     0.006 C 
BRANCH   6   7
ATOM      7  C   UNL     1      18.870  32.242  32.283  1.00  0.00     0.053 C 
BRANCH   7   8
ATOM      8  C   UNL     1      20.350  32.379  32.476  1.00  0.00     0.041 C 
ATOM      9  O   UNL     1      21.060  31.363  32.696  1.00  0.00    -0.550 OA
ATOM     10  O   UNL     1      20.949  33.629  32.394  1.00  0.00    -0.550 OA
ENDBRANCH   7   8
ENDBRANCH   6   7
ENDBRANCH   5   6
ENDBRANCH   4   5
ENDBRANCH   3   4
ENDBRANCH   2   3
ENDBRANCH   1   2
BRANCH   1  11
ATOM     11  C   UNL     1      14.788  25.982  31.601  1.00  0.00     0.000 C 
BRANCH  11  12
ATOM     12  C   UNL     1      14.719  26.535  33.034  1.00  0.00    -0.000 C 
BRANCH  12  13
ATOM     13  C   UNL     1      15.383  25.571  34.026  1.00  0.00    -0.000 C 
BRANCH  13  14
ATOM     14  C   UNL     1      15.871  26.321  35.276  1.00  0.00    -0.000 C 
BRANCH  14  15
ATOM     15  C   UNL     1      16.920  27.397  34.952  1.00  0.00    -0.000 C 
BRANCH  15  16
ATOM     16  C   UNL     1      16.927  28.541  35.980  1.00  0.00    -0.000 C 
BRANCH  16  17
ATOM     17  C   UNL     1      16.808  29.925  35.321  1.00  0.00    -0.003 C 
ATOM     18  C   UNL     1      15.856  29.933  34.126  1.00  0.00     0.004 C 
ENDBRANCH  16  17
ENDBRANCH  15  16
ENDBRANCH  14  15
ENDBRANCH  13  14
ENDBRANCH  12  13
ENDBRANCH  11  12
ENDBRANCH   1  11
TORSDOF 14
ENDMDL
