MODEL 1
REMARK VINA RESULT:    -5.818      0.000      0.000
REMARK INTER + INTRA:          -7.552
REMARK INTER:                  -7.178
REMARK INTRA:                  -0.373
REMARK UNBOUND:                -0.373
REMARK SMILES Oc1cc(O)c2cc(O)c(-c3cc(O)c(O)c(O)c3)[o+]c2c1
REMARK SMILES IDX 10 1 20 2 21 3 22 4 2 5 3 6 4 7 6 8 7 9 8 10 11 11 12 12
REMARK SMILES IDX 13 13 19 14 15 15 17 16 14 17 16 19 18 21 9 23 1 25 5 27
REMARK H PARENT 14 18 16 20 18 22 9 24 1 26 5 28
REMARK Flexibility Score: inf
ROOT
ATOM      1  C   UNL     1      48.071 -27.419  -4.111  1.00  0.00     0.402 A 
ATOM      2  O   UNL     1      46.921 -26.864  -3.733  1.00  0.00    -0.202 OA
ATOM      3  C   UNL     1      46.729 -26.330  -2.531  1.00  0.00     0.368 A 
ATOM      4  C   UNL     1      45.485 -25.773  -2.225  1.00  0.00     0.162 A 
ATOM      5  C   UNL     1      45.255 -25.209  -0.967  1.00  0.00     0.128 A 
ATOM      6  C   UNL     1      46.273 -25.202  -0.011  1.00  0.00     0.093 A 
ATOM      7  C   UNL     1      47.528 -25.754  -0.293  1.00  0.00     0.136 A 
ATOM      8  C   UNL     1      47.769 -26.326  -1.569  1.00  0.00     0.125 A 
ATOM      9  C   UNL     1      48.999 -26.890  -1.943  1.00  0.00     0.078 A 
ATOM     10  C   UNL     1      49.162 -27.432  -3.223  1.00  0.00     0.223 A 
ENDROOT
BRANCH   1  11
ATOM     11  C   UNL     1      48.157 -27.988  -5.475  1.00  0.00     0.091 A 
ATOM     12  C   UNL     1      47.726 -29.297  -5.749  1.00  0.00     0.068 A 
ATOM     13  C   UNL     1      47.795 -29.811  -7.051  1.00  0.00     0.162 A 
ATOM     14  C   UNL     1      48.627 -27.189  -6.529  1.00  0.00     0.068 A 
ATOM     15  C   UNL     1      48.288 -29.012  -8.096  1.00  0.00     0.200 A 
ATOM     16  C   UNL     1      48.700 -27.695  -7.830  1.00  0.00     0.162 A 
BRANCH  13  17
ATOM     17  O   UNL     1      47.371 -31.115  -7.311  1.00  0.00    -0.504 OA
ATOM     18  H   UNL     1      47.001 -31.709  -6.577  1.00  0.00     0.293 HD
ENDBRANCH  13  17
BRANCH  15  19
ATOM     19  O   UNL     1      48.368 -29.510  -9.398  1.00  0.00    -0.502 OA
ATOM     20  H   UNL     1      48.772 -28.974 -10.156  1.00  0.00     0.293 HD
ENDBRANCH  15  19
BRANCH  16  21
ATOM     21  O   UNL     1      49.187 -26.873  -8.847  1.00  0.00    -0.504 OA
ATOM     22  H   UNL     1      49.068 -25.868  -8.831  1.00  0.00     0.293 HD
ENDBRANCH  16  21
ENDBRANCH   1  11
BRANCH  10  23
ATOM     23  O   UNL     1      50.398 -27.947  -3.613  1.00  0.00    -0.500 OA
ATOM     24  H   UNL     1      50.914 -28.594  -3.027  1.00  0.00     0.294 HD
ENDBRANCH  10  23
BRANCH   5  25
ATOM     25  O   UNL     1      44.016 -24.651  -0.655  1.00  0.00    -0.507 OA
ATOM     26  H   UNL     1      43.207 -24.797  -1.246  1.00  0.00     0.293 HD
ENDBRANCH   5  25
BRANCH   7  27
ATOM     27  O   UNL     1      48.492 -25.711   0.719  1.00  0.00    -0.507 OA
ATOM     28  H   UNL     1      48.522 -25.014   1.450  1.00  0.00     0.293 HD
ENDBRANCH   7  27
TORSDOF 7
ENDMDL
MODEL 2
REMARK VINA RESULT:    -5.774      0.171      1.802
REMARK INTER + INTRA:          -7.497
REMARK INTER:                  -7.125
REMARK INTRA:                  -0.372
REMARK UNBOUND:                -0.373
REMARK SMILES Oc1cc(O)c2cc(O)c(-c3cc(O)c(O)c(O)c3)[o+]c2c1
REMARK SMILES IDX 10 1 20 2 21 3 22 4 2 5 3 6 4 7 6 8 7 9 8 10 11 11 12 12
REMARK SMILES IDX 13 13 19 14 15 15 17 16 14 17 16 19 18 21 9 23 1 25 5 27
REMARK H PARENT 14 18 16 20 18 22 9 24 1 26 5 28
REMARK Flexibility Score: inf
ROOT
ATOM      1  C   UNL     1      47.927 -27.313  -4.047  1.00  0.00     0.402 A 
ATOM      2  O   UNL     1      46.777 -26.769  -3.657  1.00  0.00    -0.202 OA
ATOM      3  C   UNL     1      46.583 -26.261  -2.445  1.00  0.00     0.368 A 
ATOM      4  C   UNL     1      45.338 -25.713  -2.127  1.00  0.00     0.162 A 
ATOM      5  C   UNL     1      45.107 -25.176  -0.858  1.00  0.00     0.128 A 
ATOM      6  C   UNL     1      46.124 -25.187   0.098  1.00  0.00     0.093 A 
ATOM      7  C   UNL     1      47.380 -25.731  -0.195  1.00  0.00     0.136 A 
ATOM      8  C   UNL     1      47.622 -26.276  -1.482  1.00  0.00     0.125 A 
ATOM      9  C   UNL     1      48.853 -26.830  -1.868  1.00  0.00     0.078 A 
ATOM     10  C   UNL     1      49.018 -27.343  -3.159  1.00  0.00     0.223 A 
ENDROOT
BRANCH   1  11
ATOM     11  C   UNL     1      48.015 -27.853  -5.423  1.00  0.00     0.091 A 
ATOM     12  C   UNL     1      48.518 -27.079  -6.482  1.00  0.00     0.068 A 
ATOM     13  C   UNL     1      48.614 -27.615  -7.773  1.00  0.00     0.162 A 
ATOM     14  C   UNL     1      47.642 -29.184  -5.668  1.00  0.00     0.068 A 
ATOM     15  C   UNL     1      48.217 -28.941  -8.014  1.00  0.00     0.200 A 
ATOM     16  C   UNL     1      47.733 -29.726  -6.953  1.00  0.00     0.162 A 
BRANCH  13  17
ATOM     17  O   UNL     1      49.109 -26.834  -8.818  1.00  0.00    -0.504 OA
ATOM     18  H   UNL     1      49.585 -27.249  -9.611  1.00  0.00     0.293 HD
ENDBRANCH  13  17
BRANCH  15  19
ATOM     19  O   UNL     1      48.302 -29.489  -9.294  1.00  0.00    -0.502 OA
ATOM     20  H   UNL     1      48.983 -30.199  -9.533  1.00  0.00     0.293 HD
ENDBRANCH  15  19
BRANCH  16  21
ATOM     21  O   UNL     1      47.338 -31.048  -7.158  1.00  0.00    -0.504 OA
ATOM     22  H   UNL     1      47.160 -31.683  -6.389  1.00  0.00     0.293 HD
ENDBRANCH  16  21
ENDBRANCH   1  11
BRANCH  10  23
ATOM     23  O   UNL     1      50.255 -27.848  -3.559  1.00  0.00    -0.500 OA
ATOM     24  H   UNL     1      50.559 -27.809  -4.526  1.00  0.00     0.294 HD
ENDBRANCH  10  23
BRANCH   5  25
ATOM     25  O   UNL     1      43.866 -24.627  -0.535  1.00  0.00    -0.507 OA
ATOM     26  H   UNL     1      43.520 -24.627   0.417  1.00  0.00     0.293 HD
ENDBRANCH   5  25
BRANCH   7  27
ATOM     27  O   UNL     1      48.343 -25.708   0.819  1.00  0.00    -0.507 OA
ATOM     28  H   UNL     1      48.584 -24.889   1.359  1.00  0.00     0.293 HD
ENDBRANCH   7  27
TORSDOF 7
ENDMDL
MODEL 3
REMARK VINA RESULT:    -5.642      1.482      7.280
REMARK INTER + INTRA:          -7.334
REMARK INTER:                  -6.992
REMARK INTRA:                  -0.342
REMARK UNBOUND:                -0.373
REMARK SMILES Oc1cc(O)c2cc(O)c(-c3cc(O)c(O)c(O)c3)[o+]c2c1
REMARK SMILES IDX 10 1 20 2 21 3 22 4 2 5 3 6 4 7 6 8 7 9 8 10 11 11 12 12
REMARK SMILES IDX 13 13 19 14 15 15 17 16 14 17 16 19 18 21 9 23 1 25 5 27
REMARK H PARENT 14 18 16 20 18 22 9 24 1 26 5 28
REMARK Flexibility Score: inf
ROOT
ATOM      1  C   UNL     1      47.950 -27.202  -4.055  1.00  0.00     0.402 A 
ATOM      2  O   UNL     1      48.715 -26.901  -5.102  1.00  0.00    -0.202 OA
ATOM      3  C   UNL     1      48.752 -27.629  -6.213  1.00  0.00     0.368 A 
ATOM      4  C   UNL     1      49.591 -27.234  -7.258  1.00  0.00     0.162 A 
ATOM      5  C   UNL     1      49.651 -27.984  -8.435  1.00  0.00     0.128 A 
ATOM      6  C   UNL     1      48.871 -29.134  -8.569  1.00  0.00     0.093 A 
ATOM      7  C   UNL     1      48.023 -29.552  -7.536  1.00  0.00     0.136 A 
ATOM      8  C   UNL     1      47.955 -28.793  -6.339  1.00  0.00     0.125 A 
ATOM      9  C   UNL     1      47.125 -29.129  -5.257  1.00  0.00     0.078 A 
ATOM     10  C   UNL     1      47.109 -28.328  -4.110  1.00  0.00     0.223 A 
ENDROOT
BRANCH   1  11
ATOM     11  C   UNL     1      48.005 -26.316  -2.870  1.00  0.00     0.091 A 
ATOM     12  C   UNL     1      47.005 -25.359  -2.626  1.00  0.00     0.068 A 
ATOM     13  C   UNL     1      47.062 -24.544  -1.488  1.00  0.00     0.162 A 
ATOM     14  C   UNL     1      49.045 -26.469  -1.940  1.00  0.00     0.068 A 
ATOM     15  C   UNL     1      48.120 -24.688  -0.574  1.00  0.00     0.200 A 
ATOM     16  C   UNL     1      49.110 -25.659  -0.802  1.00  0.00     0.162 A 
BRANCH  13  17
ATOM     17  O   UNL     1      46.068 -23.592  -1.259  1.00  0.00    -0.504 OA
ATOM     18  H   UNL     1      46.097 -22.679  -1.697  1.00  0.00     0.293 HD
ENDBRANCH  13  17
BRANCH  15  19
ATOM     19  O   UNL     1      48.194 -23.882   0.563  1.00  0.00    -0.502 OA
ATOM     20  H   UNL     1      47.727 -22.986   0.620  1.00  0.00     0.293 HD
ENDBRANCH  15  19
BRANCH  16  21
ATOM     21  O   UNL     1      50.168 -25.833   0.090  1.00  0.00    -0.504 OA
ATOM     22  H   UNL     1      50.134 -26.513   0.840  1.00  0.00     0.293 HD
ENDBRANCH  16  21
ENDBRANCH   1  11
BRANCH  10  23
ATOM     23  O   UNL     1      46.248 -28.633  -3.056  1.00  0.00    -0.500 OA
ATOM     24  H   UNL     1      46.479 -28.403  -2.096  1.00  0.00     0.294 HD
ENDBRANCH  10  23
BRANCH   5  25
ATOM     25  O   UNL     1      50.485 -27.595  -9.482  1.00  0.00    -0.507 OA
ATOM     26  H   UNL     1      51.463 -27.380  -9.328  1.00  0.00     0.293 HD
ENDBRANCH   5  25
BRANCH   7  27
ATOM     27  O   UNL     1      47.279 -30.717  -7.746  1.00  0.00    -0.507 OA
ATOM     28  H   UNL     1      47.637 -31.653  -7.623  1.00  0.00     0.293 HD
ENDBRANCH   7  27
TORSDOF 7
ENDMDL
MODEL 4
REMARK VINA RESULT:    -5.504      1.482      7.236
REMARK INTER + INTRA:          -7.164
REMARK INTER:                  -6.816
REMARK INTRA:                  -0.348
REMARK UNBOUND:                -0.373
REMARK SMILES Oc1cc(O)c2cc(O)c(-c3cc(O)c(O)c(O)c3)[o+]c2c1
REMARK SMILES IDX 10 1 20 2 21 3 22 4 2 5 3 6 4 7 6 8 7 9 8 10 11 11 12 12
REMARK SMILES IDX 13 13 19 14 15 15 17 16 14 17 16 19 18 21 9 23 1 25 5 27
REMARK H PARENT 14 18 16 20 18 22 9 24 1 26 5 28
REMARK Flexibility Score: inf
ROOT
ATOM      1  C   UNL     1      47.959 -27.257  -4.013  1.00  0.00     0.402 A 
ATOM      2  O   UNL     1      48.725 -26.949  -5.057  1.00  0.00    -0.202 OA
ATOM      3  C   UNL     1      48.757 -27.666  -6.175  1.00  0.00     0.368 A 
ATOM      4  C   UNL     1      49.597 -27.264  -7.217  1.00  0.00     0.162 A 
ATOM      5  C   UNL     1      49.652 -28.003  -8.402  1.00  0.00     0.128 A 
ATOM      6  C   UNL     1      48.867 -29.148  -8.546  1.00  0.00     0.093 A 
ATOM      7  C   UNL     1      48.018 -29.572  -7.517  1.00  0.00     0.136 A 
ATOM      8  C   UNL     1      47.954 -28.825  -6.312  1.00  0.00     0.125 A 
ATOM      9  C   UNL     1      47.124 -29.167  -5.233  1.00  0.00     0.078 A 
ATOM     10  C   UNL     1      47.112 -28.378  -4.078  1.00  0.00     0.223 A 
ENDROOT
BRANCH   1  11
ATOM     11  C   UNL     1      48.019 -26.382  -2.819  1.00  0.00     0.091 A 
ATOM     12  C   UNL     1      49.076 -26.475  -1.897  1.00  0.00     0.068 A 
ATOM     13  C   UNL     1      49.127 -25.623  -0.786  1.00  0.00     0.162 A 
ATOM     14  C   UNL     1      47.032 -25.403  -2.630  1.00  0.00     0.068 A 
ATOM     15  C   UNL     1      48.122 -24.661  -0.592  1.00  0.00     0.200 A 
ATOM     16  C   UNL     1      47.075 -24.550  -1.523  1.00  0.00     0.162 A 
BRANCH  13  17
ATOM     17  O   UNL     1      50.177 -25.728   0.126  1.00  0.00    -0.504 OA
ATOM     18  H   UNL     1      50.769 -24.936   0.349  1.00  0.00     0.293 HD
ENDBRANCH  13  17
BRANCH  15  19
ATOM     19  O   UNL     1      48.155 -23.808   0.513  1.00  0.00    -0.502 OA
ATOM     20  H   UNL     1      49.020 -23.560   0.977  1.00  0.00     0.293 HD
ENDBRANCH  15  19
BRANCH  16  21
ATOM     21  O   UNL     1      46.066 -23.600  -1.363  1.00  0.00    -0.504 OA
ATOM     22  H   UNL     1      46.258 -22.605  -1.368  1.00  0.00     0.293 HD
ENDBRANCH  16  21
ENDBRANCH   1  11
BRANCH  10  23
ATOM     23  O   UNL     1      46.250 -28.689  -3.027  1.00  0.00    -0.500 OA
ATOM     24  H   UNL     1      46.598 -29.014  -2.131  1.00  0.00     0.294 HD
ENDBRANCH  10  23
BRANCH   5  25
ATOM     25  O   UNL     1      50.488 -27.608  -9.446  1.00  0.00    -0.507 OA
ATOM     26  H   UNL     1      51.199 -26.898  -9.315  1.00  0.00     0.293 HD
ENDBRANCH   5  25
BRANCH   7  27
ATOM     27  O   UNL     1      47.267 -30.731  -7.738  1.00  0.00    -0.507 OA
ATOM     28  H   UNL     1      47.001 -31.073  -8.650  1.00  0.00     0.293 HD
ENDBRANCH   7  27
TORSDOF 7
ENDMDL
MODEL 5
REMARK VINA RESULT:    -3.822     11.402     13.546
REMARK INTER + INTRA:          -5.089
REMARK INTER:                  -4.879
REMARK INTRA:                  -0.210
REMARK UNBOUND:                -0.373
REMARK SMILES Oc1cc(O)c2cc(O)c(-c3cc(O)c(O)c(O)c3)[o+]c2c1
REMARK SMILES IDX 10 1 20 2 21 3 22 4 2 5 3 6 4 7 6 8 7 9 8 10 11 11 12 12
REMARK SMILES IDX 13 13 19 14 15 15 17 16 14 17 16 19 18 21 9 23 1 25 5 27
REMARK H PARENT 14 18 16 20 18 22 9 24 1 26 5 28
REMARK Flexibility Score: inf
ROOT
ATOM      1  C   UNL     1      45.890 -32.261 -16.208  1.00  0.00     0.402 A 
ATOM      2  O   UNL     1      45.475 -31.547 -15.165  1.00  0.00    -0.202 OA
ATOM      3  C   UNL     1      44.278 -30.973 -15.102  1.00  0.00     0.368 A 
ATOM      4  C   UNL     1      43.934 -30.239 -13.965  1.00  0.00     0.162 A 
ATOM      5  C   UNL     1      42.683 -29.623 -13.875  1.00  0.00     0.128 A 
ATOM      6  C   UNL     1      41.772 -29.741 -14.927  1.00  0.00     0.093 A 
ATOM      7  C   UNL     1      42.093 -30.471 -16.078  1.00  0.00     0.136 A 
ATOM      8  C   UNL     1      43.361 -31.101 -16.174  1.00  0.00     0.125 A 
ATOM      9  C   UNL     1      43.763 -31.862 -17.283  1.00  0.00     0.078 A 
ATOM     10  C   UNL     1      45.029 -32.458 -17.303  1.00  0.00     0.223 A 
ENDROOT
BRANCH   1  11
ATOM     11  C   UNL     1      47.252 -32.842 -16.162  1.00  0.00     0.091 A 
ATOM     12  C   UNL     1      48.223 -32.507 -17.121  1.00  0.00     0.068 A 
ATOM     13  C   UNL     1      49.512 -33.050 -17.048  1.00  0.00     0.162 A 
ATOM     14  C   UNL     1      47.600 -33.702 -15.108  1.00  0.00     0.068 A 
ATOM     15  C   UNL     1      49.846 -33.928 -16.002  1.00  0.00     0.200 A 
ATOM     16  C   UNL     1      48.885 -34.249 -15.029  1.00  0.00     0.162 A 
BRANCH  13  17
ATOM     17  O   UNL     1      50.466 -32.716 -18.009  1.00  0.00    -0.504 OA
ATOM     18  H   UNL     1      50.281 -32.820 -19.000  1.00  0.00     0.293 HD
ENDBRANCH  13  17
BRANCH  15  19
ATOM     19  O   UNL     1      51.125 -34.481 -15.917  1.00  0.00    -0.502 OA
ATOM     20  H   UNL     1      51.333 -35.267 -15.313  1.00  0.00     0.293 HD
ENDBRANCH  15  19
BRANCH  16  21
ATOM     21  O   UNL     1      49.187 -35.110 -13.974  1.00  0.00    -0.504 OA
ATOM     22  H   UNL     1      49.273 -36.111 -14.104  1.00  0.00     0.293 HD
ENDBRANCH  16  21
ENDBRANCH   1  11
BRANCH  10  23
ATOM     23  O   UNL     1      45.410 -33.255 -18.382  1.00  0.00    -0.500 OA
ATOM     24  H   UNL     1      46.148 -32.975 -19.017  1.00  0.00     0.294 HD
ENDBRANCH  10  23
BRANCH   5  25
ATOM     25  O   UNL     1      42.332 -28.889 -12.743  1.00  0.00    -0.507 OA
ATOM     26  H   UNL     1      41.826 -28.015 -12.815  1.00  0.00     0.293 HD
ENDBRANCH   5  25
BRANCH   7  27
ATOM     27  O   UNL     1      41.128 -30.537 -17.087  1.00  0.00    -0.507 OA
ATOM     28  H   UNL     1      41.335 -30.533 -18.076  1.00  0.00     0.293 HD
ENDBRANCH   7  27
TORSDOF 7
ENDMDL
MODEL 6
REMARK VINA RESULT:    -3.711     12.693     14.702
REMARK INTER + INTRA:          -4.952
REMARK INTER:                  -5.038
REMARK INTRA:                   0.086
REMARK UNBOUND:                -0.373
REMARK SMILES Oc1cc(O)c2cc(O)c(-c3cc(O)c(O)c(O)c3)[o+]c2c1
REMARK SMILES IDX 10 1 20 2 21 3 22 4 2 5 3 6 4 7 6 8 7 9 8 10 11 11 12 12
REMARK SMILES IDX 13 13 19 14 15 15 17 16 14 17 16 19 18 21 9 23 1 25 5 27
REMARK H PARENT 14 18 16 20 18 22 9 24 1 26 5 28
REMARK Flexibility Score: inf
ROOT
ATOM      1  C   UNL     1      46.245 -31.999 -16.921  1.00  0.00     0.402 A 
ATOM      2  O   UNL     1      46.710 -32.688 -15.882  1.00  0.00    -0.202 OA
ATOM      3  C   UNL     1      47.947 -33.171 -15.821  1.00  0.00     0.368 A 
ATOM      4  C   UNL     1      48.343 -33.886 -14.688  1.00  0.00     0.162 A 
ATOM      5  C   UNL     1      49.636 -34.407 -14.599  1.00  0.00     0.128 A 
ATOM      6  C   UNL     1      50.538 -34.214 -15.648  1.00  0.00     0.093 A 
ATOM      7  C   UNL     1      50.166 -33.501 -16.794  1.00  0.00     0.136 A 
ATOM      8  C   UNL     1      48.854 -32.967 -16.889  1.00  0.00     0.125 A 
ATOM      9  C   UNL     1      48.398 -32.229 -17.993  1.00  0.00     0.078 A 
ATOM     10  C   UNL     1      47.092 -31.730 -18.012  1.00  0.00     0.223 A 
ENDROOT
BRANCH   1  11
ATOM     11  C   UNL     1      44.844 -31.522 -16.874  1.00  0.00     0.091 A 
ATOM     12  C   UNL     1      44.045 -31.483 -18.030  1.00  0.00     0.068 A 
ATOM     13  C   UNL     1      42.715 -31.050 -17.961  1.00  0.00     0.162 A 
ATOM     14  C   UNL     1      44.281 -31.152 -15.643  1.00  0.00     0.068 A 
ATOM     15  C   UNL     1      42.167 -30.660 -16.728  1.00  0.00     0.200 A 
ATOM     16  C   UNL     1      42.955 -30.717 -15.566  1.00  0.00     0.162 A 
BRANCH  13  17
ATOM     17  O   UNL     1      41.933 -31.010 -19.116  1.00  0.00    -0.504 OA
ATOM     18  H   UNL     1      41.205 -31.694 -19.289  1.00  0.00     0.293 HD
ENDBRANCH  13  17
BRANCH  15  19
ATOM     19  O   UNL     1      40.844 -30.221 -16.642  1.00  0.00    -0.502 OA
ATOM     20  H   UNL     1      40.164 -30.674 -16.045  1.00  0.00     0.293 HD
ENDBRANCH  15  19
BRANCH  16  21
ATOM     21  O   UNL     1      42.438 -30.344 -14.325  1.00  0.00    -0.504 OA
ATOM     22  H   UNL     1      42.722 -30.796 -13.465  1.00  0.00     0.293 HD
ENDBRANCH  16  21
ENDBRANCH   1  11
BRANCH  10  23
ATOM     23  O   UNL     1      46.655 -30.955 -19.086  1.00  0.00    -0.500 OA
ATOM     24  H   UNL     1      47.064 -30.050 -19.292  1.00  0.00     0.294 HD
ENDBRANCH  10  23
BRANCH   5  25
ATOM     25  O   UNL     1      50.038 -35.122 -13.472  1.00  0.00    -0.507 OA
ATOM     26  H   UNL     1      50.001 -36.134 -13.446  1.00  0.00     0.293 HD
ENDBRANCH   5  25
BRANCH   7  27
ATOM     27  O   UNL     1      51.125 -33.355 -17.801  1.00  0.00    -0.507 OA
ATOM     28  H   UNL     1      51.566 -32.480 -18.046  1.00  0.00     0.293 HD
ENDBRANCH   7  27
TORSDOF 7
ENDMDL
