MODEL 1
REMARK VINA RESULT:    -4.672      0.000      0.000
REMARK INTER + INTRA:          -6.137
REMARK INTER:                  -5.764
REMARK INTRA:                  -0.373
REMARK UNBOUND:                -0.373
REMARK SMILES Oc1cc(O)c2cc(O)c(-c3cc(O)c(O)c(O)c3)[o+]c2c1
REMARK SMILES IDX 10 1 20 2 21 3 22 4 2 5 3 6 4 7 6 8 7 9 8 10 11 11 12 12
REMARK SMILES IDX 13 13 19 14 15 15 17 16 14 17 16 19 18 21 9 23 1 25 5 27
REMARK H PARENT 14 18 16 20 18 22 9 24 1 26 5 28
REMARK Flexibility Score: inf
ROOT
ATOM      1  C   UNL     1      33.698  17.909  31.645  1.00  0.00     0.402 A 
ATOM      2  O   UNL     1      33.915  17.714  30.346  1.00  0.00    -0.202 OA
ATOM      3  C   UNL     1      34.471  16.611  29.857  1.00  0.00     0.368 A 
ATOM      4  C   UNL     1      34.660  16.500  28.477  1.00  0.00     0.162 A 
ATOM      5  C   UNL     1      35.246  15.351  27.935  1.00  0.00     0.128 A 
ATOM      6  C   UNL     1      35.644  14.311  28.777  1.00  0.00     0.093 A 
ATOM      7  C   UNL     1      35.466  14.398  30.164  1.00  0.00     0.136 A 
ATOM      8  C   UNL     1      34.869  15.560  30.718  1.00  0.00     0.125 A 
ATOM      9  C   UNL     1      34.639  15.729  32.094  1.00  0.00     0.078 A 
ATOM     10  C   UNL     1      34.041  16.901  32.566  1.00  0.00     0.223 A 
ENDROOT
BRANCH   1  11
ATOM     11  C   UNL     1      33.079  19.186  32.068  1.00  0.00     0.091 A 
ATOM     12  C   UNL     1      31.696  19.366  31.918  1.00  0.00     0.068 A 
ATOM     13  C   UNL     1      31.088  20.571  32.292  1.00  0.00     0.162 A 
ATOM     14  C   UNL     1      33.856  20.246  32.566  1.00  0.00     0.068 A 
ATOM     15  C   UNL     1      31.869  21.619  32.808  1.00  0.00     0.200 A 
ATOM     16  C   UNL     1      33.257  21.453  32.940  1.00  0.00     0.162 A 
BRANCH  13  17
ATOM     17  O   UNL     1      29.710  20.732  32.151  1.00  0.00    -0.504 OA
ATOM     18  H   UNL     1      29.069  20.507  32.904  1.00  0.00     0.293 HD
ENDBRANCH  13  17
BRANCH  15  19
ATOM     19  O   UNL     1      31.279  22.826  33.189  1.00  0.00    -0.502 OA
ATOM     20  H   UNL     1      30.304  22.890  33.456  1.00  0.00     0.293 HD
ENDBRANCH  15  19
BRANCH  16  21
ATOM     21  O   UNL     1      34.062  22.480  33.435  1.00  0.00    -0.504 OA
ATOM     22  H   UNL     1      35.054  22.529  33.238  1.00  0.00     0.293 HD
ENDBRANCH  16  21
ENDBRANCH   1  11
BRANCH  10  23
ATOM     23  O   UNL     1      33.767  17.047  33.925  1.00  0.00    -0.500 OA
ATOM     24  H   UNL     1      33.844  16.271  34.571  1.00  0.00     0.294 HD
ENDBRANCH  10  23
BRANCH   5  25
ATOM     25  O   UNL     1      35.438  15.234  26.560  1.00  0.00    -0.507 OA
ATOM     26  H   UNL     1      35.193  15.985  25.926  1.00  0.00     0.293 HD
ENDBRANCH   5  25
BRANCH   7  27
ATOM     27  O   UNL     1      35.894  13.315  30.937  1.00  0.00    -0.507 OA
ATOM     28  H   UNL     1      35.384  12.449  31.037  1.00  0.00     0.293 HD
ENDBRANCH   7  27
TORSDOF 7
ENDMDL
MODEL 2
REMARK VINA RESULT:    -4.232      2.237      7.090
REMARK INTER + INTRA:          -5.595
REMARK INTER:                  -5.323
REMARK INTRA:                  -0.272
REMARK UNBOUND:                -0.373
REMARK SMILES Oc1cc(O)c2cc(O)c(-c3cc(O)c(O)c(O)c3)[o+]c2c1
REMARK SMILES IDX 10 1 20 2 21 3 22 4 2 5 3 6 4 7 6 8 7 9 8 10 11 11 12 12
REMARK SMILES IDX 13 13 19 14 15 15 17 16 14 17 16 19 18 21 9 23 1 25 5 27
REMARK H PARENT 14 18 16 20 18 22 9 24 1 26 5 28
REMARK Flexibility Score: inf
ROOT
ATOM      1  C   UNL     1      33.122  18.819  31.378  1.00  0.00     0.402 A 
ATOM      2  O   UNL     1      32.015  19.072  32.074  1.00  0.00    -0.202 OA
ATOM      3  C   UNL     1      31.234  20.122  31.845  1.00  0.00     0.368 A 
ATOM      4  C   UNL     1      30.093  20.304  32.632  1.00  0.00     0.162 A 
ATOM      5  C   UNL     1      29.254  21.402  32.414  1.00  0.00     0.128 A 
ATOM      6  C   UNL     1      29.558  22.320  31.408  1.00  0.00     0.093 A 
ATOM      7  C   UNL     1      30.696  22.160  30.606  1.00  0.00     0.136 A 
ATOM      8  C   UNL     1      31.548  21.047  30.820  1.00  0.00     0.125 A 
ATOM      9  C   UNL     1      32.702  20.799  30.057  1.00  0.00     0.078 A 
ATOM     10  C   UNL     1      33.491  19.676  30.325  1.00  0.00     0.223 A 
ENDROOT
BRANCH   1  11
ATOM     11  C   UNL     1      33.916  17.622  31.735  1.00  0.00     0.091 A 
ATOM     12  C   UNL     1      33.916  16.513  30.876  1.00  0.00     0.068 A 
ATOM     13  C   UNL     1      34.643  15.359  31.199  1.00  0.00     0.162 A 
ATOM     14  C   UNL     1      34.626  17.548  32.945  1.00  0.00     0.068 A 
ATOM     15  C   UNL     1      35.367  15.302  32.401  1.00  0.00     0.200 A 
ATOM     16  C   UNL     1      35.352  16.400  33.277  1.00  0.00     0.162 A 
BRANCH  13  17
ATOM     17  O   UNL     1      34.647  14.269  30.330  1.00  0.00    -0.504 OA
ATOM     18  H   UNL     1      34.310  13.357  30.620  1.00  0.00     0.293 HD
ENDBRANCH  13  17
BRANCH  15  19
ATOM     19  O   UNL     1      36.099  14.162  32.738  1.00  0.00    -0.502 OA
ATOM     20  H   UNL     1      37.084  14.069  32.520  1.00  0.00     0.293 HD
ENDBRANCH  15  19
BRANCH  16  21
ATOM     21  O   UNL     1      36.049  16.369  34.485  1.00  0.00    -0.504 OA
ATOM     22  H   UNL     1      36.992  16.728  34.573  1.00  0.00     0.293 HD
ENDBRANCH  16  21
ENDBRANCH   1  11
BRANCH  10  23
ATOM     23  O   UNL     1      34.608  19.403  29.535  1.00  0.00    -0.500 OA
ATOM     24  H   UNL     1      34.836  18.460  29.243  1.00  0.00     0.294 HD
ENDBRANCH  10  23
BRANCH   5  25
ATOM     25  O   UNL     1      28.116  21.589  33.195  1.00  0.00    -0.507 OA
ATOM     26  H   UNL     1      27.521  22.401  33.077  1.00  0.00     0.293 HD
ENDBRANCH   5  25
BRANCH   7  27
ATOM     27  O   UNL     1      30.930  23.125  29.622  1.00  0.00    -0.507 OA
ATOM     28  H   UNL     1      31.223  24.073  29.811  1.00  0.00     0.293 HD
ENDBRANCH   7  27
TORSDOF 7
ENDMDL
MODEL 3
REMARK VINA RESULT:    -4.138      2.168      7.324
REMARK INTER + INTRA:          -5.479
REMARK INTER:                  -5.561
REMARK INTRA:                   0.082
REMARK UNBOUND:                -0.373
REMARK SMILES Oc1cc(O)c2cc(O)c(-c3cc(O)c(O)c(O)c3)[o+]c2c1
REMARK SMILES IDX 10 1 20 2 21 3 22 4 2 5 3 6 4 7 6 8 7 9 8 10 11 11 12 12
REMARK SMILES IDX 13 13 19 14 15 15 17 16 14 17 16 19 18 21 9 23 1 25 5 27
REMARK H PARENT 14 18 16 20 18 22 9 24 1 26 5 28
REMARK Flexibility Score: inf
ROOT
ATOM      1  C   UNL     1      32.633  19.022  30.905  1.00  0.00     0.402 A 
ATOM      2  O   UNL     1      31.637  19.284  31.750  1.00  0.00    -0.202 OA
ATOM      3  C   UNL     1      30.784  20.288  31.582  1.00  0.00     0.368 A 
ATOM      4  C   UNL     1      29.772  20.484  32.526  1.00  0.00     0.162 A 
ATOM      5  C   UNL     1      28.862  21.535  32.376  1.00  0.00     0.128 A 
ATOM      6  C   UNL     1      28.965  22.393  31.279  1.00  0.00     0.093 A 
ATOM      7  C   UNL     1      29.971  22.218  30.319  1.00  0.00     0.136 A 
ATOM      8  C   UNL     1      30.894  21.151  30.465  1.00  0.00     0.125 A 
ATOM      9  C   UNL     1      31.926  20.891  29.547  1.00  0.00     0.078 A 
ATOM     10  C   UNL     1      32.796  19.818  29.756  1.00  0.00     0.223 A 
ENDROOT
BRANCH   1  11
ATOM     11  C   UNL     1      33.525  17.879  31.206  1.00  0.00     0.091 A 
ATOM     12  C   UNL     1      33.974  17.683  32.521  1.00  0.00     0.068 A 
ATOM     13  C   UNL     1      34.835  16.622  32.830  1.00  0.00     0.162 A 
ATOM     14  C   UNL     1      33.979  17.018  30.194  1.00  0.00     0.068 A 
ATOM     15  C   UNL     1      35.268  15.752  31.815  1.00  0.00     0.200 A 
ATOM     16  C   UNL     1      34.840  15.958  30.493  1.00  0.00     0.162 A 
BRANCH  13  17
ATOM     17  O   UNL     1      35.263  16.428  34.144  1.00  0.00    -0.504 OA
ATOM     18  H   UNL     1      35.389  15.499  34.529  1.00  0.00     0.293 HD
ENDBRANCH  13  17
BRANCH  15  19
ATOM     19  O   UNL     1      36.123  14.688  32.106  1.00  0.00    -0.502 OA
ATOM     20  H   UNL     1      36.709  14.676  32.932  1.00  0.00     0.293 HD
ENDBRANCH  15  19
BRANCH  16  21
ATOM     21  O   UNL     1      35.264  15.121  29.460  1.00  0.00    -0.504 OA
ATOM     22  H   UNL     1      34.770  15.061  28.578  1.00  0.00     0.293 HD
ENDBRANCH  16  21
ENDBRANCH   1  11
BRANCH  10  23
ATOM     23  O   UNL     1      33.788  19.529  28.818  1.00  0.00    -0.500 OA
ATOM     24  H   UNL     1      34.552  20.169  28.637  1.00  0.00     0.294 HD
ENDBRANCH  10  23
BRANCH   5  25
ATOM     25  O   UNL     1      27.851  21.737  33.313  1.00  0.00    -0.507 OA
ATOM     26  H   UNL     1      27.953  22.406  34.067  1.00  0.00     0.293 HD
ENDBRANCH   5  25
BRANCH   7  27
ATOM     27  O   UNL     1      30.007  23.121  29.253  1.00  0.00    -0.507 OA
ATOM     28  H   UNL     1      29.569  24.031  29.261  1.00  0.00     0.293 HD
ENDBRANCH   7  27
TORSDOF 7
ENDMDL
MODEL 4
REMARK VINA RESULT:    -4.134      3.480      6.969
REMARK INTER + INTRA:          -5.474
REMARK INTER:                  -5.181
REMARK INTRA:                  -0.293
REMARK UNBOUND:                -0.373
REMARK SMILES Oc1cc(O)c2cc(O)c(-c3cc(O)c(O)c(O)c3)[o+]c2c1
REMARK SMILES IDX 10 1 20 2 21 3 22 4 2 5 3 6 4 7 6 8 7 9 8 10 11 11 12 12
REMARK SMILES IDX 13 13 19 14 15 15 17 16 14 17 16 19 18 21 9 23 1 25 5 27
REMARK H PARENT 14 18 16 20 18 22 9 24 1 26 5 28
REMARK Flexibility Score: inf
ROOT
ATOM      1  C   UNL     1      31.434  19.355  30.132  1.00  0.00     0.402 A 
ATOM      2  O   UNL     1      30.501  18.789  29.368  1.00  0.00    -0.202 OA
ATOM      3  C   UNL     1      29.479  19.460  28.848  1.00  0.00     0.368 A 
ATOM      4  C   UNL     1      28.548  18.776  28.061  1.00  0.00     0.162 A 
ATOM      5  C   UNL     1      27.461  19.457  27.504  1.00  0.00     0.128 A 
ATOM      6  C   UNL     1      27.305  20.825  27.735  1.00  0.00     0.093 A 
ATOM      7  C   UNL     1      28.224  21.532  28.521  1.00  0.00     0.136 A 
ATOM      8  C   UNL     1      29.330  20.847  29.086  1.00  0.00     0.125 A 
ATOM      9  C   UNL     1      30.307  21.477  29.875  1.00  0.00     0.078 A 
ATOM     10  C   UNL     1      31.372  20.736  30.395  1.00  0.00     0.223 A 
ENDROOT
BRANCH   1  11
ATOM     11  C   UNL     1      32.519  18.498  30.662  1.00  0.00     0.091 A 
ATOM     12  C   UNL     1      33.429  17.908  29.772  1.00  0.00     0.068 A 
ATOM     13  C   UNL     1      34.454  17.078  30.245  1.00  0.00     0.162 A 
ATOM     14  C   UNL     1      32.625  18.217  32.034  1.00  0.00     0.068 A 
ATOM     15  C   UNL     1      34.566  16.818  31.621  1.00  0.00     0.200 A 
ATOM     16  C   UNL     1      33.644  17.387  32.515  1.00  0.00     0.162 A 
BRANCH  13  17
ATOM     17  O   UNL     1      35.361  16.508  29.352  1.00  0.00    -0.504 OA
ATOM     18  H   UNL     1      35.079  15.788  28.696  1.00  0.00     0.293 HD
ENDBRANCH  13  17
BRANCH  15  19
ATOM     19  O   UNL     1      35.582  15.995  32.111  1.00  0.00    -0.502 OA
ATOM     20  H   UNL     1      36.307  15.619  31.512  1.00  0.00     0.293 HD
ENDBRANCH  15  19
BRANCH  16  21
ATOM     21  O   UNL     1      33.719  17.137  33.885  1.00  0.00    -0.504 OA
ATOM     22  H   UNL     1      32.892  17.044  34.462  1.00  0.00     0.293 HD
ENDBRANCH  16  21
ENDBRANCH   1  11
BRANCH  10  23
ATOM     23  O   UNL     1      32.370  21.370  31.136  1.00  0.00    -0.500 OA
ATOM     24  H   UNL     1      33.104  20.848  31.597  1.00  0.00     0.294 HD
ENDBRANCH  10  23
BRANCH   5  25
ATOM     25  O   UNL     1      26.529  18.782  26.718  1.00  0.00    -0.507 OA
ATOM     26  H   UNL     1      25.769  19.271  26.260  1.00  0.00     0.293 HD
ENDBRANCH   5  25
BRANCH   7  27
ATOM     27  O   UNL     1      27.994  22.899  28.706  1.00  0.00    -0.507 OA
ATOM     28  H   UNL     1      28.491  23.632  28.221  1.00  0.00     0.293 HD
ENDBRANCH   7  27
TORSDOF 7
ENDMDL
MODEL 5
REMARK VINA RESULT:    -4.074      3.443      6.877
REMARK INTER + INTRA:          -5.399
REMARK INTER:                  -5.095
REMARK INTRA:                  -0.305
REMARK UNBOUND:                -0.373
REMARK SMILES Oc1cc(O)c2cc(O)c(-c3cc(O)c(O)c(O)c3)[o+]c2c1
REMARK SMILES IDX 10 1 20 2 21 3 22 4 2 5 3 6 4 7 6 8 7 9 8 10 11 11 12 12
REMARK SMILES IDX 13 13 19 14 15 15 17 16 14 17 16 19 18 21 9 23 1 25 5 27
REMARK H PARENT 14 18 16 20 18 22 9 24 1 26 5 28
REMARK Flexibility Score: inf
ROOT
ATOM      1  C   UNL     1      31.516  19.359  30.165  1.00  0.00     0.402 A 
ATOM      2  O   UNL     1      30.612  18.779  29.379  1.00  0.00    -0.202 OA
ATOM      3  C   UNL     1      29.567  19.423  28.871  1.00  0.00     0.368 A 
ATOM      4  C   UNL     1      28.669  18.726  28.057  1.00  0.00     0.162 A 
ATOM      5  C   UNL     1      27.559  19.379  27.512  1.00  0.00     0.128 A 
ATOM      6  C   UNL     1      27.346  20.732  27.781  1.00  0.00     0.093 A 
ATOM      7  C   UNL     1      28.231  21.452  28.594  1.00  0.00     0.136 A 
ATOM      8  C   UNL     1      29.360  20.796  29.147  1.00  0.00     0.125 A 
ATOM      9  C   UNL     1      30.307  21.441  29.960  1.00  0.00     0.078 A 
ATOM     10  C   UNL     1      31.398  20.728  30.467  1.00  0.00     0.223 A 
ENDROOT
BRANCH   1  11
ATOM     11  C   UNL     1      32.632  18.532  30.678  1.00  0.00     0.091 A 
ATOM     12  C   UNL     1      32.664  18.184  32.037  1.00  0.00     0.068 A 
ATOM     13  C   UNL     1      33.718  17.419  32.553  1.00  0.00     0.162 A 
ATOM     14  C   UNL     1      33.692  18.134  29.846  1.00  0.00     0.068 A 
ATOM     15  C   UNL     1      34.764  17.007  31.710  1.00  0.00     0.200 A 
ATOM     16  C   UNL     1      34.749  17.372  30.354  1.00  0.00     0.162 A 
BRANCH  13  17
ATOM     17  O   UNL     1      33.731  17.067  33.903  1.00  0.00    -0.504 OA
ATOM     18  H   UNL     1      34.352  17.520  34.564  1.00  0.00     0.293 HD
ENDBRANCH  13  17
BRANCH  15  19
ATOM     19  O   UNL     1      35.820  16.242  32.207  1.00  0.00    -0.502 OA
ATOM     20  H   UNL     1      35.705  15.603  32.985  1.00  0.00     0.293 HD
ENDBRANCH  15  19
BRANCH  16  21
ATOM     21  O   UNL     1      35.779  16.992  29.493  1.00  0.00    -0.504 OA
ATOM     22  H   UNL     1      36.377  17.669  29.036  1.00  0.00     0.293 HD
ENDBRANCH  16  21
ENDBRANCH   1  11
BRANCH  10  23
ATOM     23  O   UNL     1      32.364  21.380  31.233  1.00  0.00    -0.500 OA
ATOM     24  H   UNL     1      32.882  20.900  31.959  1.00  0.00     0.294 HD
ENDBRANCH  10  23
BRANCH   5  25
ATOM     25  O   UNL     1      26.659  18.690  26.701  1.00  0.00    -0.507 OA
ATOM     26  H   UNL     1      25.685  18.961  26.641  1.00  0.00     0.293 HD
ENDBRANCH   5  25
BRANCH   7  27
ATOM     27  O   UNL     1      27.946  22.802  28.816  1.00  0.00    -0.507 OA
ATOM     28  H   UNL     1      28.642  23.533  28.866  1.00  0.00     0.293 HD
ENDBRANCH   7  27
TORSDOF 7
ENDMDL
MODEL 6
REMARK VINA RESULT:    -4.054      1.080      2.591
REMARK INTER + INTRA:          -5.375
REMARK INTER:                  -4.999
REMARK INTRA:                  -0.377
REMARK UNBOUND:                -0.373
REMARK SMILES Oc1cc(O)c2cc(O)c(-c3cc(O)c(O)c(O)c3)[o+]c2c1
REMARK SMILES IDX 10 1 20 2 21 3 22 4 2 5 3 6 4 7 6 8 7 9 8 10 11 11 12 12
REMARK SMILES IDX 13 13 19 14 15 15 17 16 14 17 16 19 18 21 9 23 1 25 5 27
REMARK H PARENT 14 18 16 20 18 22 9 24 1 26 5 28
REMARK Flexibility Score: inf
ROOT
ATOM      1  C   UNL     1      33.508  18.336  31.110  1.00  0.00     0.402 A 
ATOM      2  O   UNL     1      33.965  17.343  31.871  1.00  0.00    -0.202 OA
ATOM      3  C   UNL     1      34.585  16.275  31.380  1.00  0.00     0.368 A 
ATOM      4  C   UNL     1      35.028  15.283  32.260  1.00  0.00     0.162 A 
ATOM      5  C   UNL     1      35.681  14.147  31.771  1.00  0.00     0.128 A 
ATOM      6  C   UNL     1      35.891  14.003  30.398  1.00  0.00     0.093 A 
ATOM      7  C   UNL     1      35.456  14.983  29.496  1.00  0.00     0.136 A 
ATOM      8  C   UNL     1      34.796  16.139  29.987  1.00  0.00     0.125 A 
ATOM      9  C   UNL     1      34.339  17.177  29.159  1.00  0.00     0.078 A 
ATOM     10  C   UNL     1      33.700  18.289  29.717  1.00  0.00     0.223 A 
ENDROOT
BRANCH   1  11
ATOM     11  C   UNL     1      32.823  19.469  31.774  1.00  0.00     0.091 A 
ATOM     12  C   UNL     1      31.423  19.471  31.865  1.00  0.00     0.068 A 
ATOM     13  C   UNL     1      30.749  20.540  32.470  1.00  0.00     0.162 A 
ATOM     14  C   UNL     1      33.542  20.571  32.266  1.00  0.00     0.068 A 
ATOM     15  C   UNL     1      31.477  21.629  32.979  1.00  0.00     0.200 A 
ATOM     16  C   UNL     1      32.877  21.643  32.870  1.00  0.00     0.162 A 
BRANCH  13  17
ATOM     17  O   UNL     1      29.358  20.524  32.568  1.00  0.00    -0.504 OA
ATOM     18  H   UNL     1      28.871  19.804  33.089  1.00  0.00     0.293 HD
ENDBRANCH  13  17
BRANCH  15  19
ATOM     19  O   UNL     1      30.822  22.701  33.588  1.00  0.00    -0.502 OA
ATOM     20  H   UNL     1      30.038  23.172  33.153  1.00  0.00     0.293 HD
ENDBRANCH  15  19
BRANCH  16  21
ATOM     21  O   UNL     1      33.627  22.717  33.351  1.00  0.00    -0.504 OA
ATOM     22  H   UNL     1      34.110  23.357  32.733  1.00  0.00     0.293 HD
ENDBRANCH  16  21
ENDBRANCH   1  11
BRANCH  10  23
ATOM     23  O   UNL     1      33.291  19.343  28.900  1.00  0.00    -0.500 OA
ATOM     24  H   UNL     1      32.912  19.184  27.975  1.00  0.00     0.294 HD
ENDBRANCH  10  23
BRANCH   5  25
ATOM     25  O   UNL     1      36.125  13.155  32.642  1.00  0.00    -0.507 OA
ATOM     26  H   UNL     1      35.500  12.438  32.990  1.00  0.00     0.293 HD
ENDBRANCH   5  25
BRANCH   7  27
ATOM     27  O   UNL     1      35.703  14.762  28.138  1.00  0.00    -0.507 OA
ATOM     28  H   UNL     1      35.509  13.895  27.657  1.00  0.00     0.293 HD
ENDBRANCH   7  27
TORSDOF 7
ENDMDL
MODEL 7
REMARK VINA RESULT:    -4.013      2.222      4.052
REMARK INTER + INTRA:          -5.324
REMARK INTER:                  -5.699
REMARK INTRA:                   0.375
REMARK UNBOUND:                -0.373
REMARK SMILES Oc1cc(O)c2cc(O)c(-c3cc(O)c(O)c(O)c3)[o+]c2c1
REMARK SMILES IDX 10 1 20 2 21 3 22 4 2 5 3 6 4 7 6 8 7 9 8 10 11 11 12 12
REMARK SMILES IDX 13 13 19 14 15 15 17 16 14 17 16 19 18 21 9 23 1 25 5 27
REMARK H PARENT 14 18 16 20 18 22 9 24 1 26 5 28
REMARK Flexibility Score: inf
ROOT
ATOM      1  C   UNL     1      31.755  19.363  30.882  1.00  0.00     0.402 A 
ATOM      2  O   UNL     1      32.366  18.716  31.872  1.00  0.00    -0.202 OA
ATOM      3  C   UNL     1      33.328  17.821  31.674  1.00  0.00     0.368 A 
ATOM      4  C   UNL     1      33.908  17.191  32.780  1.00  0.00     0.162 A 
ATOM      5  C   UNL     1      34.920  16.243  32.600  1.00  0.00     0.128 A 
ATOM      6  C   UNL     1      35.352  15.923  31.312  1.00  0.00     0.093 A 
ATOM      7  C   UNL     1      34.787  16.539  30.188  1.00  0.00     0.136 A 
ATOM      8  C   UNL     1      33.762  17.504  30.365  1.00  0.00     0.125 A 
ATOM      9  C   UNL     1      33.148  18.182  29.298  1.00  0.00     0.078 A 
ATOM     10  C   UNL     1      32.146  19.124  29.551  1.00  0.00     0.223 A 
ENDROOT
BRANCH   1  11
ATOM     11  C   UNL     1      30.690  20.331  31.229  1.00  0.00     0.091 A 
ATOM     12  C   UNL     1      30.383  20.563  32.578  1.00  0.00     0.068 A 
ATOM     13  C   UNL     1      29.366  21.459  32.935  1.00  0.00     0.162 A 
ATOM     14  C   UNL     1      29.940  20.982  30.236  1.00  0.00     0.068 A 
ATOM     15  C   UNL     1      28.634  22.122  31.935  1.00  0.00     0.200 A 
ATOM     16  C   UNL     1      28.922  21.876  30.583  1.00  0.00     0.162 A 
BRANCH  13  17
ATOM     17  O   UNL     1      29.079  21.692  34.280  1.00  0.00    -0.504 OA
ATOM     18  H   UNL     1      29.347  22.556  34.738  1.00  0.00     0.293 HD
ENDBRANCH  13  17
BRANCH  15  19
ATOM     19  O   UNL     1      27.620  23.020  32.272  1.00  0.00    -0.502 OA
ATOM     20  H   UNL     1      26.952  23.360  31.591  1.00  0.00     0.293 HD
ENDBRANCH  15  19
BRANCH  16  21
ATOM     21  O   UNL     1      28.204  22.507  29.567  1.00  0.00    -0.504 OA
ATOM     22  H   UNL     1      27.317  22.151  29.233  1.00  0.00     0.293 HD
ENDBRANCH  16  21
ENDBRANCH   1  11
BRANCH  10  23
ATOM     23  O   UNL     1      31.572  19.834  28.496  1.00  0.00    -0.500 OA
ATOM     24  H   UNL     1      32.065  19.986  27.625  1.00  0.00     0.294 HD
ENDBRANCH  10  23
BRANCH   5  25
ATOM     25  O   UNL     1      35.502  15.611  33.697  1.00  0.00    -0.507 OA
ATOM     26  H   UNL     1      36.267  16.036  34.208  1.00  0.00     0.293 HD
ENDBRANCH   5  25
BRANCH   7  27
ATOM     27  O   UNL     1      35.274  16.161  28.934  1.00  0.00    -0.507 OA
ATOM     28  H   UNL     1      35.494  15.211  28.669  1.00  0.00     0.293 HD
ENDBRANCH   7  27
TORSDOF 7
ENDMDL
MODEL 8
REMARK VINA RESULT:    -3.847      3.716      5.169
REMARK INTER + INTRA:          -5.119
REMARK INTER:                  -4.801
REMARK INTRA:                  -0.318
REMARK UNBOUND:                -0.373
REMARK SMILES Oc1cc(O)c2cc(O)c(-c3cc(O)c(O)c(O)c3)[o+]c2c1
REMARK SMILES IDX 10 1 20 2 21 3 22 4 2 5 3 6 4 7 6 8 7 9 8 10 11 11 12 12
REMARK SMILES IDX 13 13 19 14 15 15 17 16 14 17 16 19 18 21 9 23 1 25 5 27
REMARK H PARENT 14 18 16 20 18 22 9 24 1 26 5 28
REMARK Flexibility Score: inf
ROOT
ATOM      1  C   UNL     1      30.609  19.052  29.771  1.00  0.00     0.402 A 
ATOM      2  O   UNL     1      31.663  18.626  29.078  1.00  0.00    -0.202 OA
ATOM      3  C   UNL     1      32.804  18.250  29.645  1.00  0.00     0.368 A 
ATOM      4  C   UNL     1      33.856  17.819  28.831  1.00  0.00     0.162 A 
ATOM      5  C   UNL     1      35.070  17.420  29.401  1.00  0.00     0.128 A 
ATOM      6  C   UNL     1      35.232  17.454  30.787  1.00  0.00     0.093 A 
ATOM      7  C   UNL     1      34.192  17.882  31.624  1.00  0.00     0.136 A 
ATOM      8  C   UNL     1      32.959  18.284  31.051  1.00  0.00     0.125 A 
ATOM      9  C   UNL     1      31.859  18.715  31.812  1.00  0.00     0.078 A 
ATOM     10  C   UNL     1      30.672  19.092  31.177  1.00  0.00     0.223 A 
ENDROOT
BRANCH   1  11
ATOM     11  C   UNL     1      29.395  19.454  29.025  1.00  0.00     0.091 A 
ATOM     12  C   UNL     1      28.641  18.477  28.357  1.00  0.00     0.068 A 
ATOM     13  C   UNL     1      27.500  18.832  27.627  1.00  0.00     0.162 A 
ATOM     14  C   UNL     1      29.012  20.802  28.922  1.00  0.00     0.068 A 
ATOM     15  C   UNL     1      27.110  20.180  27.546  1.00  0.00     0.200 A 
ATOM     16  C   UNL     1      27.875  21.165  28.193  1.00  0.00     0.162 A 
BRANCH  13  17
ATOM     17  O   UNL     1      26.750  17.850  26.980  1.00  0.00    -0.504 OA
ATOM     18  H   UNL     1      26.203  17.172  27.499  1.00  0.00     0.293 HD
ENDBRANCH  13  17
BRANCH  15  19
ATOM     19  O   UNL     1      25.974  20.552  26.825  1.00  0.00    -0.502 OA
ATOM     20  H   UNL     1      25.870  21.474  26.420  1.00  0.00     0.293 HD
ENDBRANCH  15  19
BRANCH  16  21
ATOM     21  O   UNL     1      27.524  22.514  28.119  1.00  0.00    -0.504 OA
ATOM     22  H   UNL     1      28.114  23.200  27.666  1.00  0.00     0.293 HD
ENDBRANCH  16  21
ENDBRANCH   1  11
BRANCH  10  23
ATOM     23  O   UNL     1      29.563  19.471  31.934  1.00  0.00    -0.500 OA
ATOM     24  H   UNL     1      28.830  18.814  32.171  1.00  0.00     0.294 HD
ENDBRANCH  10  23
BRANCH   5  25
ATOM     25  O   UNL     1      36.123  16.990  28.596  1.00  0.00    -0.507 OA
ATOM     26  H   UNL     1      36.864  16.404  28.963  1.00  0.00     0.293 HD
ENDBRANCH   5  25
BRANCH   7  27
ATOM     27  O   UNL     1      34.436  17.888  33.000  1.00  0.00    -0.507 OA
ATOM     28  H   UNL     1      33.842  17.445  33.687  1.00  0.00     0.293 HD
ENDBRANCH   7  27
TORSDOF 7
ENDMDL
