MODEL 1
REMARK VINA RESULT:    -8.045      0.000      0.000
REMARK INTER + INTRA:          -9.759
REMARK INTER:                  -9.456
REMARK INTRA:                  -0.303
REMARK UNBOUND:                -0.303
REMARK SMILES O=c1cc(-c2ccc(O)c(O)c2)oc2cc(O)cc(O)c12
REMARK SMILES IDX 4 1 3 2 2 3 1 4 21 5 19 6 18 7 16 8 15 9 14 10 13 11 5 12
REMARK SMILES IDX 6 13 7 14 8 15 12 16 10 17 9 18 11 20 20 22 17 24
REMARK H PARENT 9 19 11 21 20 23 17 25
REMARK Flexibility Score: inf
ROOT
ATOM      1  C   UNL     1      39.112 -12.828   8.728  1.00  0.00     0.138 A 
ATOM      2  C   UNL     1      39.364 -11.493   9.082  1.00  0.00     0.100 A 
ATOM      3  C   UNL     1      40.438 -11.196   9.923  1.00  0.00     0.197 A 
ATOM      4  O   UNL     1      40.655  -9.995  10.237  1.00  0.00    -0.289 OA
ATOM      5  C   UNL     1      41.252 -12.240  10.407  1.00  0.00     0.107 A 
ATOM      6  C   UNL     1      42.360 -12.027  11.261  1.00  0.00     0.134 A 
ATOM      7  C   UNL     1      43.117 -13.122  11.704  1.00  0.00     0.093 A 
ATOM      8  C   UNL     1      42.786 -14.423  11.309  1.00  0.00     0.123 A 
ATOM      9  C   UNL     1      41.694 -14.638  10.466  1.00  0.00     0.094 A 
ATOM     10  C   UNL     1      40.927 -13.561  10.013  1.00  0.00     0.146 A 
ATOM     11  O   UNL     1      39.893 -13.792   9.211  1.00  0.00    -0.456 OA
ENDROOT
BRANCH   1  12
ATOM     12  C   UNL     1      37.983 -13.203   7.839  1.00  0.00     0.021 A 
ATOM     13  C   UNL     1      36.784 -12.477   7.902  1.00  0.00     0.016 A 
ATOM     14  C   UNL     1      35.706 -12.814   7.081  1.00  0.00     0.051 A 
ATOM     15  C   UNL     1      35.796 -13.887   6.189  1.00  0.00     0.157 A 
ATOM     16  C   UNL     1      38.070 -14.292   6.951  1.00  0.00     0.062 A 
ATOM     17  C   UNL     1      36.992 -14.639   6.127  1.00  0.00     0.158 A 
BRANCH  15  18
ATOM     18  O   UNL     1      34.685 -14.168   5.392  1.00  0.00    -0.504 OA
ATOM     19  H   UNL     1      34.529 -13.766   4.478  1.00  0.00     0.293 HD
ENDBRANCH  15  18
BRANCH  17  20
ATOM     20  O   UNL     1      37.151 -15.733   5.273  1.00  0.00    -0.504 OA
ATOM     21  H   UNL     1      37.386 -16.664   5.585  1.00  0.00     0.293 HD
ENDBRANCH  17  20
ENDBRANCH   1  12
BRANCH   6  22
ATOM     22  O   UNL     1      42.711 -10.741  11.672  1.00  0.00    -0.507 OA
ATOM     23  H   UNL     1      42.130 -10.207  12.308  1.00  0.00     0.293 HD
ENDBRANCH   6  22
BRANCH   8  24
ATOM     24  O   UNL     1      43.538 -15.511  11.748  1.00  0.00    -0.508 OA
ATOM     25  H   UNL     1      43.431 -15.886  12.683  1.00  0.00     0.293 HD
ENDBRANCH   8  24
TORSDOF 5
ENDMDL
MODEL 2
REMARK VINA RESULT:    -7.244      1.965      6.967
REMARK INTER + INTRA:          -8.817
REMARK INTER:                  -8.531
REMARK INTRA:                  -0.286
REMARK UNBOUND:                -0.303
REMARK SMILES O=c1cc(-c2ccc(O)c(O)c2)oc2cc(O)cc(O)c12
REMARK SMILES IDX 4 1 3 2 2 3 1 4 21 5 19 6 18 7 16 8 15 9 14 10 13 11 5 12
REMARK SMILES IDX 6 13 7 14 8 15 12 16 10 17 9 18 11 20 20 22 17 24
REMARK H PARENT 9 19 11 21 20 23 17 25
REMARK Flexibility Score: inf
ROOT
ATOM      1  C   UNL     1      40.456 -12.479   8.700  1.00  0.00     0.138 A 
ATOM      2  C   UNL     1      40.773 -11.395   7.865  1.00  0.00     0.100 A 
ATOM      3  C   UNL     1      39.917 -11.064   6.813  1.00  0.00     0.197 A 
ATOM      4  O   UNL     1      40.211 -10.090   6.068  1.00  0.00    -0.289 OA
ATOM      5  C   UNL     1      38.750 -11.824   6.601  1.00  0.00     0.107 A 
ATOM      6  C   UNL     1      37.829 -11.557   5.560  1.00  0.00     0.134 A 
ATOM      7  C   UNL     1      36.692 -12.365   5.413  1.00  0.00     0.093 A 
ATOM      8  C   UNL     1      36.461 -13.435   6.285  1.00  0.00     0.123 A 
ATOM      9  C   UNL     1      37.366 -13.703   7.314  1.00  0.00     0.094 A 
ATOM     10  C   UNL     1      38.504 -12.908   7.478  1.00  0.00     0.146 A 
ATOM     11  O   UNL     1      39.350 -13.183   8.465  1.00  0.00    -0.456 OA
ENDROOT
BRANCH   1  12
ATOM     12  C   UNL     1      41.329 -12.877   9.832  1.00  0.00     0.021 A 
ATOM     13  C   UNL     1      41.437 -14.233  10.177  1.00  0.00     0.016 A 
ATOM     14  C   UNL     1      42.248 -14.632  11.242  1.00  0.00     0.051 A 
ATOM     15  C   UNL     1      42.956 -13.689  11.992  1.00  0.00     0.157 A 
ATOM     16  C   UNL     1      42.031 -11.926  10.596  1.00  0.00     0.062 A 
ATOM     17  C   UNL     1      42.843 -12.317  11.668  1.00  0.00     0.158 A 
BRANCH  15  18
ATOM     18  O   UNL     1      43.753 -14.155  13.040  1.00  0.00    -0.504 OA
ATOM     19  H   UNL     1      43.788 -15.119  13.338  1.00  0.00     0.293 HD
ENDBRANCH  15  18
BRANCH  17  20
ATOM     20  O   UNL     1      43.508 -11.317  12.382  1.00  0.00    -0.504 OA
ATOM     21  H   UNL     1      44.480 -11.365  12.649  1.00  0.00     0.293 HD
ENDBRANCH  17  20
ENDBRANCH   1  12
BRANCH   6  22
ATOM     22  O   UNL     1      38.036 -10.498   4.675  1.00  0.00    -0.507 OA
ATOM     23  H   UNL     1      37.376  -9.732   4.597  1.00  0.00     0.293 HD
ENDBRANCH   6  22
BRANCH   8  24
ATOM     24  O   UNL     1      35.331 -14.238   6.139  1.00  0.00    -0.508 OA
ATOM     25  H   UNL     1      34.910 -14.708   6.932  1.00  0.00     0.293 HD
ENDBRANCH   8  24
TORSDOF 5
ENDMDL
MODEL 3
REMARK VINA RESULT:    -7.226      1.312      2.752
REMARK INTER + INTRA:          -8.796
REMARK INTER:                  -8.507
REMARK INTRA:                  -0.289
REMARK UNBOUND:                -0.303
REMARK SMILES O=c1cc(-c2ccc(O)c(O)c2)oc2cc(O)cc(O)c12
REMARK SMILES IDX 4 1 3 2 2 3 1 4 21 5 19 6 18 7 16 8 15 9 14 10 13 11 5 12
REMARK SMILES IDX 6 13 7 14 8 15 12 16 10 17 9 18 11 20 20 22 17 24
REMARK H PARENT 9 19 11 21 20 23 17 25
REMARK Flexibility Score: inf
ROOT
ATOM      1  C   UNL     1      38.696 -13.259   8.366  1.00  0.00     0.138 A 
ATOM      2  C   UNL     1      39.641 -14.273   8.587  1.00  0.00     0.100 A 
ATOM      3  C   UNL     1      40.736 -14.024   9.416  1.00  0.00     0.197 A 
ATOM      4  O   UNL     1      41.581 -14.941   9.607  1.00  0.00    -0.289 OA
ATOM      5  C   UNL     1      40.879 -12.757  10.017  1.00  0.00     0.107 A 
ATOM      6  C   UNL     1      41.957 -12.421  10.870  1.00  0.00     0.134 A 
ATOM      7  C   UNL     1      42.030 -11.135  11.425  1.00  0.00     0.093 A 
ATOM      8  C   UNL     1      41.047 -10.180  11.141  1.00  0.00     0.123 A 
ATOM      9  C   UNL     1      39.982 -10.507  10.299  1.00  0.00     0.094 A 
ATOM     10  C   UNL     1      39.890 -11.784   9.738  1.00  0.00     0.146 A 
ATOM     11  O   UNL     1      38.866 -12.069   8.941  1.00  0.00    -0.456 OA
ENDROOT
BRANCH   1  12
ATOM     12  C   UNL     1      37.513 -13.467   7.493  1.00  0.00     0.021 A 
ATOM     13  C   UNL     1      36.337 -12.743   7.740  1.00  0.00     0.016 A 
ATOM     14  C   UNL     1      35.209 -12.924   6.937  1.00  0.00     0.051 A 
ATOM     15  C   UNL     1      35.226 -13.839   5.880  1.00  0.00     0.157 A 
ATOM     16  C   UNL     1      37.526 -14.398   6.438  1.00  0.00     0.062 A 
ATOM     17  C   UNL     1      36.398 -14.590   5.630  1.00  0.00     0.158 A 
BRANCH  15  18
ATOM     18  O   UNL     1      34.068 -13.970   5.111  1.00  0.00    -0.504 OA
ATOM     19  H   UNL     1      33.619 -14.852   4.911  1.00  0.00     0.293 HD
ENDBRANCH  15  18
BRANCH  17  20
ATOM     20  O   UNL     1      36.485 -15.533   4.603  1.00  0.00    -0.504 OA
ATOM     21  H   UNL     1      37.161 -15.492   3.854  1.00  0.00     0.293 HD
ENDBRANCH  17  20
ENDBRANCH   1  12
BRANCH   6  22
ATOM     22  O   UNL     1      42.952 -13.354  11.169  1.00  0.00    -0.507 OA
ATOM     23  H   UNL     1      42.726 -14.289  11.489  1.00  0.00     0.293 HD
ENDBRANCH   6  22
BRANCH   8  24
ATOM     24  O   UNL     1      41.119  -8.902  11.691  1.00  0.00    -0.508 OA
ATOM     25  H   UNL     1      42.008  -8.445  11.855  1.00  0.00     0.293 HD
ENDBRANCH   8  24
TORSDOF 5
ENDMDL
MODEL 4
REMARK VINA RESULT:    -6.976      7.304     10.343
REMARK INTER + INTRA:          -8.502
REMARK INTER:                  -8.234
REMARK INTRA:                  -0.268
REMARK UNBOUND:                -0.303
REMARK SMILES O=c1cc(-c2ccc(O)c(O)c2)oc2cc(O)cc(O)c12
REMARK SMILES IDX 4 1 3 2 2 3 1 4 21 5 19 6 18 7 16 8 15 9 14 10 13 11 5 12
REMARK SMILES IDX 6 13 7 14 8 15 12 16 10 17 9 18 11 20 20 22 17 24
REMARK H PARENT 9 19 11 21 20 23 17 25
REMARK Flexibility Score: inf
ROOT
ATOM      1  C   UNL     1      32.734 -14.242   1.646  1.00  0.00     0.138 A 
ATOM      2  C   UNL     1      33.347 -14.905   2.722  1.00  0.00     0.100 A 
ATOM      3  C   UNL     1      34.537 -14.403   3.251  1.00  0.00     0.197 A 
ATOM      4  O   UNL     1      35.080 -15.006   4.216  1.00  0.00    -0.289 OA
ATOM      5  C   UNL     1      35.109 -13.241   2.696  1.00  0.00     0.107 A 
ATOM      6  C   UNL     1      36.311 -12.665   3.171  1.00  0.00     0.134 A 
ATOM      7  C   UNL     1      36.818 -11.509   2.560  1.00  0.00     0.093 A 
ATOM      8  C   UNL     1      36.146 -10.920   1.482  1.00  0.00     0.123 A 
ATOM      9  C   UNL     1      34.959 -11.485   1.009  1.00  0.00     0.094 A 
ATOM     10  C   UNL     1      34.437 -12.636   1.607  1.00  0.00     0.146 A 
ATOM     11  O   UNL     1      33.306 -13.152   1.138  1.00  0.00    -0.456 OA
ENDROOT
BRANCH   1  12
ATOM     12  C   UNL     1      31.469 -14.731   1.043  1.00  0.00     0.021 A 
ATOM     13  C   UNL     1      31.472 -15.207  -0.277  1.00  0.00     0.016 A 
ATOM     14  C   UNL     1      30.294 -15.667  -0.869  1.00  0.00     0.051 A 
ATOM     15  C   UNL     1      29.087 -15.651  -0.163  1.00  0.00     0.157 A 
ATOM     16  C   UNL     1      30.252 -14.702   1.749  1.00  0.00     0.062 A 
ATOM     17  C   UNL     1      29.065 -15.158   1.162  1.00  0.00     0.158 A 
BRANCH  15  18
ATOM     18  O   UNL     1      27.947 -16.130  -0.810  1.00  0.00    -0.504 OA
ATOM     19  H   UNL     1      27.591 -15.758  -1.679  1.00  0.00     0.293 HD
ENDBRANCH  15  18
BRANCH  17  20
ATOM     20  O   UNL     1      27.895 -15.097   1.923  1.00  0.00    -0.504 OA
ATOM     21  H   UNL     1      27.872 -14.868   2.907  1.00  0.00     0.293 HD
ENDBRANCH  17  20
ENDBRANCH   1  12
BRANCH   6  22
ATOM     22  O   UNL     1      37.002 -13.232   4.243  1.00  0.00    -0.507 OA
ATOM     23  H   UNL     1      36.562 -13.374   5.145  1.00  0.00     0.293 HD
ENDBRANCH   6  22
BRANCH   8  24
ATOM     24  O   UNL     1      36.649  -9.772   0.874  1.00  0.00    -0.508 OA
ATOM     25  H   UNL     1      37.552  -9.390   1.128  1.00  0.00     0.293 HD
ENDBRANCH   8  24
TORSDOF 5
ENDMDL
MODEL 5
REMARK VINA RESULT:    -6.913      1.747      3.135
REMARK INTER + INTRA:          -8.428
REMARK INTER:                  -8.153
REMARK INTRA:                  -0.275
REMARK UNBOUND:                -0.303
REMARK SMILES O=c1cc(-c2ccc(O)c(O)c2)oc2cc(O)cc(O)c12
REMARK SMILES IDX 4 1 3 2 2 3 1 4 21 5 19 6 18 7 16 8 15 9 14 10 13 11 5 12
REMARK SMILES IDX 6 13 7 14 8 15 12 16 10 17 9 18 11 20 20 22 17 24
REMARK H PARENT 9 19 11 21 20 23 17 25
REMARK Flexibility Score: inf
ROOT
ATOM      1  C   UNL     1      40.050 -12.588   8.742  1.00  0.00     0.138 A 
ATOM      2  C   UNL     1      40.311 -13.932   9.058  1.00  0.00     0.100 A 
ATOM      3  C   UNL     1      41.306 -14.238   9.988  1.00  0.00     0.197 A 
ATOM      4  O   UNL     1      41.533 -15.448  10.263  1.00  0.00    -0.289 OA
ATOM      5  C   UNL     1      42.036 -13.197  10.593  1.00  0.00     0.107 A 
ATOM      6  C   UNL     1      43.060 -13.420  11.545  1.00  0.00     0.134 A 
ATOM      7  C   UNL     1      43.744 -12.328  12.098  1.00  0.00     0.093 A 
ATOM      8  C   UNL     1      43.426 -11.019  11.716  1.00  0.00     0.123 A 
ATOM      9  C   UNL     1      42.418 -10.795  10.777  1.00  0.00     0.094 A 
ATOM     10  C   UNL     1      41.722 -11.870  10.215  1.00  0.00     0.146 A 
ATOM     11  O   UNL     1      40.766 -11.628   9.324  1.00  0.00    -0.456 OA
ENDROOT
BRANCH   1  12
ATOM     12  C   UNL     1      39.006 -12.203   7.760  1.00  0.00     0.021 A 
ATOM     13  C   UNL     1      39.327 -11.314   6.723  1.00  0.00     0.016 A 
ATOM     14  C   UNL     1      38.361 -10.932   5.790  1.00  0.00     0.051 A 
ATOM     15  C   UNL     1      37.053 -11.417   5.878  1.00  0.00     0.157 A 
ATOM     16  C   UNL     1      37.685 -12.681   7.857  1.00  0.00     0.062 A 
ATOM     17  C   UNL     1      36.709 -12.300   6.928  1.00  0.00     0.158 A 
BRANCH  15  18
ATOM     18  O   UNL     1      36.136 -11.001   4.911  1.00  0.00    -0.504 OA
ATOM     19  H   UNL     1      35.321 -11.532   4.639  1.00  0.00     0.293 HD
ENDBRANCH  15  18
BRANCH  17  20
ATOM     20  O   UNL     1      35.420 -12.813   7.089  1.00  0.00    -0.504 OA
ATOM     21  H   UNL     1      35.092 -13.665   6.656  1.00  0.00     0.293 HD
ENDBRANCH  17  20
ENDBRANCH   1  12
BRANCH   6  22
ATOM     22  O   UNL     1      43.399 -14.714  11.944  1.00  0.00    -0.507 OA
ATOM     23  H   UNL     1      44.344 -14.956  12.219  1.00  0.00     0.293 HD
ENDBRANCH   6  22
BRANCH   8  24
ATOM     24  O   UNL     1      44.106  -9.934  12.265  1.00  0.00    -0.508 OA
ATOM     25  H   UNL     1      44.668  -9.316  11.691  1.00  0.00     0.293 HD
ENDBRANCH   8  24
TORSDOF 5
ENDMDL
MODEL 6
REMARK VINA RESULT:    -6.889      6.244      9.746
REMARK INTER + INTRA:          -8.400
REMARK INTER:                  -8.118
REMARK INTRA:                  -0.282
REMARK UNBOUND:                -0.303
REMARK SMILES O=c1cc(-c2ccc(O)c(O)c2)oc2cc(O)cc(O)c12
REMARK SMILES IDX 4 1 3 2 2 3 1 4 21 5 19 6 18 7 16 8 15 9 14 10 13 11 5 12
REMARK SMILES IDX 6 13 7 14 8 15 12 16 10 17 9 18 11 20 20 22 17 24
REMARK H PARENT 9 19 11 21 20 23 17 25
REMARK Flexibility Score: inf
ROOT
ATOM      1  C   UNL     1      32.718 -14.041   1.590  1.00  0.00     0.138 A 
ATOM      2  C   UNL     1      33.461 -13.059   0.913  1.00  0.00     0.100 A 
ATOM      3  C   UNL     1      34.644 -12.582   1.478  1.00  0.00     0.197 A 
ATOM      4  O   UNL     1      35.303 -11.700   0.863  1.00  0.00    -0.289 OA
ATOM      5  C   UNL     1      35.076 -13.088   2.721  1.00  0.00     0.107 A 
ATOM      6  C   UNL     1      36.262 -12.660   3.362  1.00  0.00     0.134 A 
ATOM      7  C   UNL     1      36.620 -13.210   4.602  1.00  0.00     0.093 A 
ATOM      8  C   UNL     1      35.812 -14.177   5.211  1.00  0.00     0.123 A 
ATOM      9  C   UNL     1      34.641 -14.603   4.582  1.00  0.00     0.094 A 
ATOM     10  C   UNL     1      34.268 -14.068   3.345  1.00  0.00     0.146 A 
ATOM     11  O   UNL     1      33.148 -14.491   2.768  1.00  0.00    -0.456 OA
ENDROOT
BRANCH   1  12
ATOM     12  C   UNL     1      31.452 -14.584   1.038  1.00  0.00     0.021 A 
ATOM     13  C   UNL     1      31.444 -15.148  -0.246  1.00  0.00     0.016 A 
ATOM     14  C   UNL     1      30.265 -15.660  -0.790  1.00  0.00     0.051 A 
ATOM     15  C   UNL     1      29.067 -15.611  -0.070  1.00  0.00     0.157 A 
ATOM     16  C   UNL     1      30.244 -14.522   1.758  1.00  0.00     0.062 A 
ATOM     17  C   UNL     1      29.055 -15.030   1.219  1.00  0.00     0.158 A 
BRANCH  15  18
ATOM     18  O   UNL     1      27.924 -16.146  -0.668  1.00  0.00    -0.504 OA
ATOM     19  H   UNL     1      27.678 -16.011  -1.638  1.00  0.00     0.293 HD
ENDBRANCH  15  18
BRANCH  17  20
ATOM     20  O   UNL     1      27.895 -14.931   1.991  1.00  0.00    -0.504 OA
ATOM     21  H   UNL     1      26.976 -14.757   1.610  1.00  0.00     0.293 HD
ENDBRANCH  17  20
ENDBRANCH   1  12
BRANCH   6  22
ATOM     22  O   UNL     1      37.085 -11.696   2.778  1.00  0.00    -0.507 OA
ATOM     23  H   UNL     1      37.919 -11.355   3.243  1.00  0.00     0.293 HD
ENDBRANCH   6  22
BRANCH   8  24
ATOM     24  O   UNL     1      36.167 -14.724   6.443  1.00  0.00    -0.508 OA
ATOM     25  H   UNL     1      36.336 -14.139   7.253  1.00  0.00     0.293 HD
ENDBRANCH   8  24
TORSDOF 5
ENDMDL
MODEL 7
REMARK VINA RESULT:    -6.865      2.009      7.609
REMARK INTER + INTRA:          -8.372
REMARK INTER:                  -8.079
REMARK INTRA:                  -0.293
REMARK UNBOUND:                -0.303
REMARK SMILES O=c1cc(-c2ccc(O)c(O)c2)oc2cc(O)cc(O)c12
REMARK SMILES IDX 4 1 3 2 2 3 1 4 21 5 19 6 18 7 16 8 15 9 14 10 13 11 5 12
REMARK SMILES IDX 6 13 7 14 8 15 12 16 10 17 9 18 11 20 20 22 17 24
REMARK H PARENT 9 19 11 21 20 23 17 25
REMARK Flexibility Score: inf
ROOT
ATOM      1  C   UNL     1      39.158 -12.175   8.183  1.00  0.00     0.138 A 
ATOM      2  C   UNL     1      38.755 -13.515   8.062  1.00  0.00     0.100 A 
ATOM      3  C   UNL     1      37.798 -13.862   7.107  1.00  0.00     0.197 A 
ATOM      4  O   UNL     1      37.442 -15.068   7.008  1.00  0.00    -0.289 OA
ATOM      5  C   UNL     1      37.246 -12.863   6.281  1.00  0.00     0.107 A 
ATOM      6  C   UNL     1      36.273 -13.128   5.288  1.00  0.00     0.134 A 
ATOM      7  C   UNL     1      35.769 -12.076   4.510  1.00  0.00     0.093 A 
ATOM      8  C   UNL     1      36.220 -10.765   4.706  1.00  0.00     0.123 A 
ATOM      9  C   UNL     1      37.180 -10.499   5.685  1.00  0.00     0.094 A 
ATOM     10  C   UNL     1      37.695 -11.534   6.470  1.00  0.00     0.146 A 
ATOM     11  O   UNL     1      38.609 -11.254   7.393  1.00  0.00    -0.456 OA
ENDROOT
BRANCH   1  12
ATOM     12  C   UNL     1      40.170 -11.748   9.181  1.00  0.00     0.021 A 
ATOM     13  C   UNL     1      41.338 -12.507   9.348  1.00  0.00     0.016 A 
ATOM     14  C   UNL     1      42.303 -12.129  10.284  1.00  0.00     0.051 A 
ATOM     15  C   UNL     1      42.118 -10.996  11.082  1.00  0.00     0.157 A 
ATOM     16  C   UNL     1      39.976 -10.616   9.994  1.00  0.00     0.062 A 
ATOM     17  C   UNL     1      40.937 -10.232  10.939  1.00  0.00     0.158 A 
BRANCH  15  18
ATOM     18  O   UNL     1      43.122 -10.670  11.995  1.00  0.00    -0.504 OA
ATOM     19  H   UNL     1      43.745  -9.882  11.892  1.00  0.00     0.293 HD
ENDBRANCH  15  18
BRANCH  17  20
ATOM     20  O   UNL     1      40.675  -9.097  11.711  1.00  0.00    -0.504 OA
ATOM     21  H   UNL     1      40.770  -8.150  11.373  1.00  0.00     0.293 HD
ENDBRANCH  17  20
ENDBRANCH   1  12
BRANCH   6  22
ATOM     22  O   UNL     1      35.805 -14.425   5.072  1.00  0.00    -0.507 OA
ATOM     23  H   UNL     1      36.098 -14.970   4.269  1.00  0.00     0.293 HD
ENDBRANCH   6  22
BRANCH   8  24
ATOM     24  O   UNL     1      35.720  -9.719   3.933  1.00  0.00    -0.508 OA
ATOM     25  H   UNL     1      35.944  -8.753   4.141  1.00  0.00     0.293 HD
ENDBRANCH   8  24
TORSDOF 5
ENDMDL
MODEL 8
REMARK VINA RESULT:    -6.858      2.466      7.433
REMARK INTER + INTRA:          -8.364
REMARK INTER:                  -8.094
REMARK INTRA:                  -0.270
REMARK UNBOUND:                -0.303
REMARK SMILES O=c1cc(-c2ccc(O)c(O)c2)oc2cc(O)cc(O)c12
REMARK SMILES IDX 4 1 3 2 2 3 1 4 21 5 19 6 18 7 16 8 15 9 14 10 13 11 5 12
REMARK SMILES IDX 6 13 7 14 8 15 12 16 10 17 9 18 11 20 20 22 17 24
REMARK H PARENT 9 19 11 21 20 23 17 25
REMARK Flexibility Score: inf
ROOT
ATOM      1  C   UNL     1      39.650 -11.162   7.585  1.00  0.00     0.138 A 
ATOM      2  C   UNL     1      39.985 -10.683   6.308  1.00  0.00     0.100 A 
ATOM      3  C   UNL     1      39.111 -10.898   5.241  1.00  0.00     0.197 A 
ATOM      4  O   UNL     1      39.422 -10.466   4.098  1.00  0.00    -0.289 OA
ATOM      5  C   UNL     1      37.906 -11.596   5.460  1.00  0.00     0.107 A 
ATOM      6  C   UNL     1      36.965 -11.857   4.436  1.00  0.00     0.134 A 
ATOM      7  C   UNL     1      35.791 -12.564   4.735  1.00  0.00     0.093 A 
ATOM      8  C   UNL     1      35.542 -13.015   6.036  1.00  0.00     0.123 A 
ATOM      9  C   UNL     1      36.469 -12.761   7.049  1.00  0.00     0.094 A 
ATOM     10  C   UNL     1      37.644 -12.056   6.772  1.00  0.00     0.146 A 
ATOM     11  O   UNL     1      38.509 -11.827   7.755  1.00  0.00    -0.456 OA
ENDROOT
BRANCH   1  12
ATOM     12  C   UNL     1      40.541 -10.964   8.755  1.00  0.00     0.021 A 
ATOM     13  C   UNL     1      41.745 -11.680   8.835  1.00  0.00     0.016 A 
ATOM     14  C   UNL     1      42.598 -11.515   9.928  1.00  0.00     0.051 A 
ATOM     15  C   UNL     1      42.264 -10.644  10.969  1.00  0.00     0.157 A 
ATOM     16  C   UNL     1      40.198 -10.097   9.809  1.00  0.00     0.062 A 
ATOM     17  C   UNL     1      41.046  -9.929  10.911  1.00  0.00     0.158 A 
BRANCH  15  18
ATOM     18  O   UNL     1      43.163 -10.521  12.031  1.00  0.00    -0.504 OA
ATOM     19  H   UNL     1      43.577  -9.647  12.322  1.00  0.00     0.293 HD
ENDBRANCH  15  18
BRANCH  17  20
ATOM     20  O   UNL     1      40.637  -9.053  11.920  1.00  0.00    -0.504 OA
ATOM     21  H   UNL     1      41.200  -8.290  12.269  1.00  0.00     0.293 HD
ENDBRANCH  17  20
ENDBRANCH   1  12
BRANCH   6  22
ATOM     22  O   UNL     1      37.187 -11.419   3.129  1.00  0.00    -0.507 OA
ATOM     23  H   UNL     1      37.401 -12.068   2.380  1.00  0.00     0.293 HD
ENDBRANCH   6  22
BRANCH   8  24
ATOM     24  O   UNL     1      34.376 -13.718   6.333  1.00  0.00    -0.508 OA
ATOM     25  H   UNL     1      34.216 -14.113   7.252  1.00  0.00     0.293 HD
ENDBRANCH   8  24
TORSDOF 5
ENDMDL
