MODEL 1
REMARK VINA RESULT:    12.703      0.000      0.000
REMARK INTER + INTRA:          12.703
REMARK INTER:                  12.703
REMARK INTRA:                   0.000
REMARK UNBOUND:                 0.000
REMARK SMILES CC1(C)O[C@]2(C)CC[C@H]1CC2
REMARK SMILES IDX 1 1 2 2 9 3 10 4 11 5 5 6 4 7 7 8 8 9 6 10 3 11
REMARK H PARENT
REMARK Flexibility Score: inf
ROOT
ATOM      1  C   UNL     1      15.412   3.456  29.836  1.00  0.00     0.042 C 
ATOM      2  C   UNL     1      14.243   2.735  30.540  1.00  0.00     0.066 C 
ATOM      3  C   UNL     1      12.882   3.487  30.275  1.00  0.00     0.021 C 
ATOM      4  C   UNL     1      12.585   3.441  28.757  1.00  0.00     0.009 C 
ATOM      5  C   UNL     1      12.682   1.976  28.264  1.00  0.00     0.035 C 
ATOM      6  C   UNL     1      12.954   1.032  29.471  1.00  0.00     0.066 C 
ATOM      7  O   UNL     1      14.204   1.380  30.067  1.00  0.00    -0.369 OA
ATOM      8  C   UNL     1      11.819   1.213  30.520  1.00  0.00     0.035 C 
ATOM      9  C   UNL     1      11.742   2.695  30.959  1.00  0.00     0.009 C 
ATOM     10  C   UNL     1      13.019  -0.426  29.002  1.00  0.00     0.042 C 
ATOM     11  C   UNL     1      14.565   2.705  32.051  1.00  0.00     0.042 C 
ENDROOT
TORSDOF 0
ENDMDL
MODEL 2
REMARK VINA RESULT:    12.929      1.291      2.522
REMARK INTER + INTRA:          12.929
REMARK INTER:                  12.929
REMARK INTRA:                   0.000
REMARK UNBOUND:                 0.000
REMARK SMILES CC1(C)O[C@]2(C)CC[C@H]1CC2
REMARK SMILES IDX 1 1 2 2 9 3 10 4 11 5 5 6 4 7 7 8 8 9 6 10 3 11
REMARK H PARENT
REMARK Flexibility Score: inf
ROOT
ATOM      1  C   UNL     1      14.890   4.822  30.624  1.00  0.00     0.042 C 
ATOM      2  C   UNL     1      14.799   3.412  30.002  1.00  0.00     0.066 C 
ATOM      3  C   UNL     1      14.584   2.321  31.121  1.00  0.00     0.021 C 
ATOM      4  C   UNL     1      13.227   2.592  31.814  1.00  0.00     0.009 C 
ATOM      5  C   UNL     1      12.122   2.716  30.737  1.00  0.00     0.035 C 
ATOM      6  C   UNL     1      12.725   2.438  29.330  1.00  0.00     0.066 C 
ATOM      7  O   UNL     1      13.728   3.414  29.047  1.00  0.00    -0.369 OA
ATOM      8  C   UNL     1      13.374   1.023  29.329  1.00  0.00     0.035 C 
ATOM      9  C   UNL     1      14.449   0.939  30.439  1.00  0.00     0.009 C 
ATOM     10  C   UNL     1      11.634   2.524  28.256  1.00  0.00     0.042 C 
ATOM     11  C   UNL     1      16.119   3.160  29.241  1.00  0.00     0.042 C 
ENDROOT
TORSDOF 0
ENDMDL
MODEL 3
REMARK VINA RESULT:    14.155      1.230      3.148
REMARK INTER + INTRA:          14.155
REMARK INTER:                  14.155
REMARK INTRA:                   0.000
REMARK UNBOUND:                 0.000
REMARK SMILES CC1(C)O[C@]2(C)CC[C@H]1CC2
REMARK SMILES IDX 1 1 2 2 9 3 10 4 11 5 5 6 4 7 7 8 8 9 6 10 3 11
REMARK H PARENT
REMARK Flexibility Score: inf
ROOT
ATOM      1  C   UNL     1      13.122   0.052  29.314  1.00  0.00     0.042 C 
ATOM      2  C   UNL     1      12.779   1.435  29.907  1.00  0.00     0.066 C 
ATOM      3  C   UNL     1      13.874   1.882  30.952  1.00  0.00     0.021 C 
ATOM      4  C   UNL     1      15.223   2.037  30.210  1.00  0.00     0.009 C 
ATOM      5  C   UNL     1      15.022   2.948  28.974  1.00  0.00     0.035 C 
ATOM      6  C   UNL     1      13.559   3.476  28.942  1.00  0.00     0.066 C 
ATOM      7  O   UNL     1      12.663   2.370  28.824  1.00  0.00    -0.369 OA
ATOM      8  C   UNL     1      13.264   4.233  30.270  1.00  0.00     0.035 C 
ATOM      9  C   UNL     1      13.507   3.291  31.474  1.00  0.00     0.009 C 
ATOM     10  C   UNL     1      13.355   4.407  27.742  1.00  0.00     0.042 C 
ATOM     11  C   UNL     1      11.396   1.313  30.585  1.00  0.00     0.042 C 
ENDROOT
TORSDOF 0
ENDMDL
MODEL 4
REMARK VINA RESULT:    14.925      1.243      2.831
REMARK INTER + INTRA:          14.925
REMARK INTER:                  14.925
REMARK INTRA:                   0.000
REMARK UNBOUND:                 0.000
REMARK SMILES CC1(C)O[C@]2(C)CC[C@H]1CC2
REMARK SMILES IDX 1 1 2 2 9 3 10 4 11 5 5 6 4 7 7 8 8 9 6 10 3 11
REMARK H PARENT
REMARK Flexibility Score: inf
ROOT
ATOM      1  C   UNL     1      15.089   0.477  30.146  1.00  0.00     0.042 C 
ATOM      2  C   UNL     1      13.673   1.022  29.859  1.00  0.00     0.066 C 
ATOM      3  C   UNL     1      13.081   1.738  31.134  1.00  0.00     0.021 C 
ATOM      4  C   UNL     1      13.970   2.961  31.465  1.00  0.00     0.009 C 
ATOM      5  C   UNL     1      14.140   3.826  30.192  1.00  0.00     0.035 C 
ATOM      6  C   UNL     1      13.289   3.230  29.034  1.00  0.00     0.066 C 
ATOM      7  O   UNL     1      13.756   1.913  28.737  1.00  0.00    -0.369 OA
ATOM      8  C   UNL     1      11.802   3.156  29.485  1.00  0.00     0.035 C 
ATOM      9  C   UNL     1      11.687   2.307  30.775  1.00  0.00     0.009 C 
ATOM     10  C   UNL     1      13.422   4.096  27.776  1.00  0.00     0.042 C 
ATOM     11  C   UNL     1      12.793  -0.180  29.451  1.00  0.00     0.042 C 
ENDROOT
TORSDOF 0
ENDMDL
MODEL 5
REMARK VINA RESULT:    15.535      1.251      3.131
REMARK INTER + INTRA:          15.535
REMARK INTER:                  15.535
REMARK INTRA:                   0.000
REMARK UNBOUND:                 0.000
REMARK SMILES CC1(C)O[C@]2(C)CC[C@H]1CC2
REMARK SMILES IDX 1 1 2 2 9 3 10 4 11 5 5 6 4 7 7 8 8 9 6 10 3 11
REMARK H PARENT
REMARK Flexibility Score: inf
ROOT
ATOM      1  C   UNL     1      11.188   2.135  30.492  1.00  0.00     0.042 C 
ATOM      2  C   UNL     1      12.528   2.431  29.784  1.00  0.00     0.066 C 
ATOM      3  C   UNL     1      13.318   3.571  30.537  1.00  0.00     0.021 C 
ATOM      4  C   UNL     1      13.666   3.068  31.959  1.00  0.00     0.009 C 
ATOM      5  C   UNL     1      14.360   1.688  31.854  1.00  0.00     0.035 C 
ATOM      6  C   UNL     1      14.558   1.310  30.358  1.00  0.00     0.066 C 
ATOM      7  O   UNL     1      13.281   1.210  29.726  1.00  0.00    -0.369 OA
ATOM      8  C   UNL     1      15.388   2.427  29.660  1.00  0.00     0.035 C 
ATOM      9  C   UNL     1      14.670   3.789  29.817  1.00  0.00     0.009 C 
ATOM     10  C   UNL     1      15.275  -0.039  30.239  1.00  0.00     0.042 C 
ATOM     11  C   UNL     1      12.198   2.860  28.338  1.00  0.00     0.042 C 
ENDROOT
TORSDOF 0
ENDMDL
