MODEL 1
REMARK VINA RESULT:    -4.817      0.000      0.000
REMARK INTER + INTRA:         -12.321
REMARK INTER:                 -10.450
REMARK INTRA:                  -1.871
REMARK UNBOUND:                -1.871
REMARK SMILES CCCCCCCCCCCCCCCCCCCCCC(=O)[O-]
REMARK SMILES IDX 12 1 11 2 10 3 9 4 8 5 7 6 6 7 5 8 4 9 3 10 2 11 1 12 13 13
REMARK SMILES IDX 14 14 15 15 16 16 17 17 18 18 19 19 20 20 21 21 22 22 23 23
REMARK SMILES IDX 24 24
REMARK H PARENT
REMARK Flexibility Score: inf
ROOT
ATOM      1  C   UNL     1      -4.462 -15.698   6.300  1.00  0.00     0.000 C 
ENDROOT
BRANCH   1   2
ATOM      2  C   UNL     1      -5.492 -15.800   5.161  1.00  0.00     0.000 C 
BRANCH   2   3
ATOM      3  C   UNL     1      -6.876 -15.251   5.555  1.00  0.00     0.000 C 
BRANCH   3   4
ATOM      4  C   UNL     1      -7.258 -13.907   4.907  1.00  0.00    -0.000 C 
BRANCH   4   5
ATOM      5  C   UNL     1      -8.692 -13.463   5.244  1.00  0.00    -0.000 C 
BRANCH   5   6
ATOM      6  C   UNL     1      -8.831 -12.977   6.703  1.00  0.00    -0.000 C 
BRANCH   6   7
ATOM      7  C   UNL     1      -9.683 -11.700   6.854  1.00  0.00    -0.000 C 
BRANCH   7   8
ATOM      8  C   UNL     1     -10.985 -11.690   6.030  1.00  0.00    -0.000 C 
BRANCH   8   9
ATOM      9  C   UNL     1     -11.739 -10.343   6.020  1.00  0.00    -0.000 C 
BRANCH   9  10
ATOM     10  C   UNL     1     -13.156 -10.379   6.628  1.00  0.00    -0.000 C 
BRANCH  10  11
ATOM     11  C   UNL     1     -13.306  -9.625   7.961  1.00  0.00    -0.003 C 
ATOM     12  C   UNL     1     -12.038  -8.876   8.367  1.00  0.00     0.004 C 
ENDBRANCH  10  11
ENDBRANCH   9  10
ENDBRANCH   8   9
ENDBRANCH   7   8
ENDBRANCH   6   7
ENDBRANCH   5   6
ENDBRANCH   4   5
ENDBRANCH   3   4
ENDBRANCH   2   3
ENDBRANCH   1   2
BRANCH   1  13
ATOM     13  C   UNL     1      -3.026 -15.979   5.828  1.00  0.00     0.000 C 
BRANCH  13  14
ATOM     14  C   UNL     1      -2.933 -16.247   4.318  1.00  0.00     0.000 C 
BRANCH  14  15
ATOM     15  C   UNL     1      -2.120 -17.517   4.037  1.00  0.00     0.000 C 
BRANCH  15  16
ATOM     16  C   UNL     1      -3.040 -18.703   3.720  1.00  0.00     0.000 C 
BRANCH  16  17
ATOM     17  C   UNL     1      -3.191 -19.623   4.941  1.00  0.00     0.000 C 
BRANCH  17  18
ATOM     18  C   UNL     1      -4.653 -19.789   5.391  1.00  0.00     0.000 C 
BRANCH  18  19
ATOM     19  C   UNL     1      -5.691 -19.087   4.498  1.00  0.00     0.000 C 
BRANCH  19  20
ATOM     20  C   UNL     1      -7.126 -19.219   5.030  1.00  0.00     0.006 C 
BRANCH  20  21
ATOM     21  C   UNL     1      -7.969 -20.113   4.114  1.00  0.00     0.053 C 
BRANCH  21  22
ATOM     22  C   UNL     1      -9.056 -19.320   3.458  1.00  0.00     0.041 C 
ATOM     23  O   UNL     1      -9.839 -19.873   2.641  1.00  0.00    -0.550 OA
ATOM     24  O   UNL     1      -9.219 -17.975   3.767  1.00  0.00    -0.550 OA
ENDBRANCH  21  22
ENDBRANCH  20  21
ENDBRANCH  19  20
ENDBRANCH  18  19
ENDBRANCH  17  18
ENDBRANCH  16  17
ENDBRANCH  15  16
ENDBRANCH  14  15
ENDBRANCH  13  14
ENDBRANCH   1  13
TORSDOF 20
ENDMDL
MODEL 2
REMARK VINA RESULT:    -4.668      1.264      2.615
REMARK INTER + INTRA:         -11.996
REMARK INTER:                  -9.757
REMARK INTRA:                  -2.239
REMARK UNBOUND:                -1.871
REMARK SMILES CCCCCCCCCCCCCCCCCCCCCC(=O)[O-]
REMARK SMILES IDX 12 1 11 2 10 3 9 4 8 5 7 6 6 7 5 8 4 9 3 10 2 11 1 12 13 13
REMARK SMILES IDX 14 14 15 15 16 16 17 17 18 18 19 19 20 20 21 21 22 22 23 23
REMARK SMILES IDX 24 24
REMARK H PARENT
REMARK Flexibility Score: inf
ROOT
ATOM      1  C   UNL     1      -3.021 -17.282   3.523  1.00  0.00     0.000 C 
ENDROOT
BRANCH   1   2
ATOM      2  C   UNL     1      -2.814 -16.320   4.706  1.00  0.00     0.000 C 
BRANCH   2   3
ATOM      3  C   UNL     1      -4.119 -16.016   5.465  1.00  0.00     0.000 C 
BRANCH   3   4
ATOM      4  C   UNL     1      -5.403 -16.089   4.617  1.00  0.00    -0.000 C 
BRANCH   4   5
ATOM      5  C   UNL     1      -6.654 -15.619   5.381  1.00  0.00    -0.000 C 
BRANCH   5   6
ATOM      6  C   UNL     1      -6.972 -14.129   5.132  1.00  0.00    -0.000 C 
BRANCH   6   7
ATOM      7  C   UNL     1      -8.481 -13.821   5.052  1.00  0.00    -0.000 C 
BRANCH   7   8
ATOM      8  C   UNL     1      -9.000 -12.840   6.120  1.00  0.00    -0.000 C 
BRANCH   8   9
ATOM      9  C   UNL     1     -10.483 -12.440   5.973  1.00  0.00    -0.000 C 
BRANCH   9  10
ATOM     10  C   UNL     1     -10.913 -11.203   6.786  1.00  0.00    -0.000 C 
BRANCH  10  11
ATOM     11  C   UNL     1     -11.975 -10.320   6.106  1.00  0.00    -0.003 C 
ATOM     12  C   UNL     1     -13.363 -10.473   6.727  1.00  0.00     0.004 C 
ENDBRANCH  10  11
ENDBRANCH   9  10
ENDBRANCH   8   9
ENDBRANCH   7   8
ENDBRANCH   6   7
ENDBRANCH   5   6
ENDBRANCH   4   5
ENDBRANCH   3   4
ENDBRANCH   2   3
ENDBRANCH   1   2
BRANCH   1  13
ATOM     13  C   UNL     1      -1.791 -18.164   3.252  1.00  0.00     0.000 C 
BRANCH  13  14
ATOM     14  C   UNL     1      -1.920 -19.572   3.853  1.00  0.00     0.000 C 
BRANCH  14  15
ATOM     15  C   UNL     1      -1.163 -19.670   5.183  1.00  0.00     0.000 C 
BRANCH  15  16
ATOM     16  C   UNL     1      -2.121 -19.965   6.343  1.00  0.00     0.000 C 
BRANCH  16  17
ATOM     17  C   UNL     1      -3.570 -20.080   5.845  1.00  0.00     0.000 C 
BRANCH  17  18
ATOM     18  C   UNL     1      -4.574 -19.329   6.737  1.00  0.00     0.000 C 
BRANCH  18  19
ATOM     19  C   UNL     1      -6.038 -19.397   6.266  1.00  0.00     0.000 C 
BRANCH  19  20
ATOM     20  C   UNL     1      -6.173 -19.517   4.741  1.00  0.00     0.006 C 
BRANCH  20  21
ATOM     21  C   UNL     1      -7.629 -19.324   4.304  1.00  0.00     0.053 C 
BRANCH  21  22
ATOM     22  C   UNL     1      -8.353 -20.634   4.287  1.00  0.00     0.041 C 
ATOM     23  O   UNL     1      -9.547 -20.694   3.892  1.00  0.00    -0.550 OA
ATOM     24  O   UNL     1      -7.699 -21.794   4.685  1.00  0.00    -0.550 OA
ENDBRANCH  21  22
ENDBRANCH  20  21
ENDBRANCH  19  20
ENDBRANCH  18  19
ENDBRANCH  17  18
ENDBRANCH  16  17
ENDBRANCH  15  16
ENDBRANCH  14  15
ENDBRANCH  13  14
ENDBRANCH   1  13
TORSDOF 20
ENDMDL
MODEL 3
REMARK VINA RESULT:    -4.586      3.642      8.111
REMARK INTER + INTRA:         -11.819
REMARK INTER:                  -9.399
REMARK INTRA:                  -2.419
REMARK UNBOUND:                -1.871
REMARK SMILES CCCCCCCCCCCCCCCCCCCCCC(=O)[O-]
REMARK SMILES IDX 12 1 11 2 10 3 9 4 8 5 7 6 6 7 5 8 4 9 3 10 2 11 1 12 13 13
REMARK SMILES IDX 14 14 15 15 16 16 17 17 18 18 19 19 20 20 21 21 22 22 23 23
REMARK SMILES IDX 24 24
REMARK H PARENT
REMARK Flexibility Score: inf
ROOT
ATOM      1  C   UNL     1      -5.619 -17.401   4.826  1.00  0.00     0.000 C 
ENDROOT
BRANCH   1   2
ATOM      2  C   UNL     1      -4.213 -17.890   4.439  1.00  0.00     0.000 C 
BRANCH   2   3
ATOM      3  C   UNL     1      -3.359 -16.791   3.777  1.00  0.00     0.000 C 
BRANCH   3   4
ATOM      4  C   UNL     1      -1.983 -16.550   4.426  1.00  0.00    -0.000 C 
BRANCH   4   5
ATOM      5  C   UNL     1      -2.002 -15.418   5.468  1.00  0.00    -0.000 C 
BRANCH   5   6
ATOM      6  C   UNL     1      -2.129 -15.950   6.913  1.00  0.00    -0.000 C 
BRANCH   6   7
ATOM      7  C   UNL     1      -3.395 -15.461   7.645  1.00  0.00    -0.000 C 
BRANCH   7   8
ATOM      8  C   UNL     1      -4.077 -16.518   8.535  1.00  0.00    -0.000 C 
BRANCH   8   9
ATOM      9  C   UNL     1      -5.570 -16.258   8.828  1.00  0.00    -0.000 C 
BRANCH   9  10
ATOM     10  C   UNL     1      -5.955 -14.776   9.009  1.00  0.00    -0.000 C 
BRANCH  10  11
ATOM     11  C   UNL     1      -7.439 -14.528   9.329  1.00  0.00    -0.003 C 
ATOM     12  C   UNL     1      -7.725 -13.087   9.749  1.00  0.00     0.004 C 
ENDBRANCH  10  11
ENDBRANCH   9  10
ENDBRANCH   8   9
ENDBRANCH   7   8
ENDBRANCH   6   7
ENDBRANCH   5   6
ENDBRANCH   4   5
ENDBRANCH   3   4
ENDBRANCH   2   3
ENDBRANCH   1   2
BRANCH   1  13
ATOM     13  C   UNL     1      -5.755 -15.871   4.764  1.00  0.00     0.000 C 
BRANCH  13  14
ATOM     14  C   UNL     1      -6.916 -15.338   5.618  1.00  0.00     0.000 C 
BRANCH  14  15
ATOM     15  C   UNL     1      -7.537 -14.090   4.979  1.00  0.00     0.000 C 
BRANCH  15  16
ATOM     16  C   UNL     1      -8.254 -13.231   6.028  1.00  0.00     0.000 C 
BRANCH  16  17
ATOM     17  C   UNL     1      -9.714 -12.975   5.625  1.00  0.00     0.000 C 
BRANCH  17  18
ATOM     18  C   UNL     1     -10.429 -11.980   6.556  1.00  0.00     0.000 C 
BRANCH  18  19
ATOM     19  C   UNL     1     -10.547 -10.547   6.009  1.00  0.00     0.000 C 
BRANCH  19  20
ATOM     20  C   UNL     1     -11.900  -9.893   6.326  1.00  0.00     0.006 C 
BRANCH  20  21
ATOM     21  C   UNL     1     -12.933 -10.946   6.742  1.00  0.00     0.053 C 
BRANCH  21  22
ATOM     22  C   UNL     1     -14.013 -10.325   7.573  1.00  0.00     0.041 C 
ATOM     23  O   UNL     1     -13.750  -9.875   8.719  1.00  0.00    -0.550 OA
ATOM     24  O   UNL     1     -15.304 -10.224   7.071  1.00  0.00    -0.550 OA
ENDBRANCH  21  22
ENDBRANCH  20  21
ENDBRANCH  19  20
ENDBRANCH  18  19
ENDBRANCH  17  18
ENDBRANCH  16  17
ENDBRANCH  15  16
ENDBRANCH  14  15
ENDBRANCH  13  14
ENDBRANCH   1  13
TORSDOF 20
ENDMDL
MODEL 4
REMARK VINA RESULT:    -4.571      3.609      9.234
REMARK INTER + INTRA:         -11.786
REMARK INTER:                  -9.595
REMARK INTRA:                  -2.191
REMARK UNBOUND:                -1.871
REMARK SMILES CCCCCCCCCCCCCCCCCCCCCC(=O)[O-]
REMARK SMILES IDX 12 1 11 2 10 3 9 4 8 5 7 6 6 7 5 8 4 9 3 10 2 11 1 12 13 13
REMARK SMILES IDX 14 14 15 15 16 16 17 17 18 18 19 19 20 20 21 21 22 22 23 23
REMARK SMILES IDX 24 24
REMARK H PARENT
REMARK Flexibility Score: inf
ROOT
ATOM      1  C   UNL     1      -4.797 -15.698   5.967  1.00  0.00     0.000 C 
ENDROOT
BRANCH   1   2
ATOM      2  C   UNL     1      -4.737 -16.188   4.510  1.00  0.00     0.000 C 
BRANCH   2   3
ATOM      3  C   UNL     1      -3.365 -16.779   4.133  1.00  0.00     0.000 C 
BRANCH   3   4
ATOM      4  C   UNL     1      -2.152 -16.085   4.782  1.00  0.00    -0.000 C 
BRANCH   4   5
ATOM      5  C   UNL     1      -1.282 -17.048   5.609  1.00  0.00    -0.000 C 
BRANCH   5   6
ATOM      6  C   UNL     1      -1.793 -18.504   5.549  1.00  0.00    -0.000 C 
BRANCH   6   7
ATOM      7  C   UNL     1      -2.633 -18.918   6.774  1.00  0.00    -0.000 C 
BRANCH   7   8
ATOM      8  C   UNL     1      -3.975 -19.597   6.440  1.00  0.00    -0.000 C 
BRANCH   8   9
ATOM      9  C   UNL     1      -5.203 -19.008   7.166  1.00  0.00    -0.000 C 
BRANCH   9  10
ATOM     10  C   UNL     1      -6.568 -19.530   6.677  1.00  0.00    -0.000 C 
BRANCH  10  11
ATOM     11  C   UNL     1      -7.111 -18.836   5.416  1.00  0.00    -0.003 C 
ATOM     12  C   UNL     1      -7.000 -19.705   4.164  1.00  0.00     0.004 C 
ENDBRANCH  10  11
ENDBRANCH   9  10
ENDBRANCH   8   9
ENDBRANCH   7   8
ENDBRANCH   6   7
ENDBRANCH   5   6
ENDBRANCH   4   5
ENDBRANCH   3   4
ENDBRANCH   2   3
ENDBRANCH   1   2
BRANCH   1  13
ATOM     13  C   UNL     1      -6.220 -15.316   6.407  1.00  0.00     0.000 C 
BRANCH  13  14
ATOM     14  C   UNL     1      -7.197 -15.186   5.228  1.00  0.00     0.000 C 
BRANCH  14  15
ATOM     15  C   UNL     1      -7.593 -13.721   5.005  1.00  0.00     0.000 C 
BRANCH  15  16
ATOM     16  C   UNL     1      -8.410 -13.184   6.187  1.00  0.00     0.000 C 
BRANCH  16  17
ATOM     17  C   UNL     1      -9.907 -13.144   5.848  1.00  0.00     0.000 C 
BRANCH  17  18
ATOM     18  C   UNL     1     -10.475 -11.714   5.803  1.00  0.00     0.000 C 
BRANCH  18  19
ATOM     19  C   UNL     1     -11.429 -11.357   6.957  1.00  0.00     0.000 C 
BRANCH  19  20
ATOM     20  C   UNL     1     -12.175 -10.034   6.732  1.00  0.00     0.006 C 
BRANCH  20  21
ATOM     21  C   UNL     1     -13.677 -10.275   6.552  1.00  0.00     0.053 C 
BRANCH  21  22
ATOM     22  C   UNL     1     -14.426  -9.887   7.789  1.00  0.00     0.041 C 
ATOM     23  O   UNL     1     -13.803  -9.483   8.806  1.00  0.00    -0.550 OA
ATOM     24  O   UNL     1     -15.814  -9.950   7.810  1.00  0.00    -0.550 OA
ENDBRANCH  21  22
ENDBRANCH  20  21
ENDBRANCH  19  20
ENDBRANCH  18  19
ENDBRANCH  17  18
ENDBRANCH  16  17
ENDBRANCH  15  16
ENDBRANCH  14  15
ENDBRANCH  13  14
ENDBRANCH   1  13
TORSDOF 20
ENDMDL
MODEL 5
REMARK VINA RESULT:    -4.560      3.154      8.446
REMARK INTER + INTRA:         -11.763
REMARK INTER:                  -9.118
REMARK INTRA:                  -2.644
REMARK UNBOUND:                -1.871
REMARK SMILES CCCCCCCCCCCCCCCCCCCCCC(=O)[O-]
REMARK SMILES IDX 12 1 11 2 10 3 9 4 8 5 7 6 6 7 5 8 4 9 3 10 2 11 1 12 13 13
REMARK SMILES IDX 14 14 15 15 16 16 17 17 18 18 19 19 20 20 21 21 22 22 23 23
REMARK SMILES IDX 24 24
REMARK H PARENT
REMARK Flexibility Score: inf
ROOT
ATOM      1  C   UNL     1      -5.817 -18.393   4.941  1.00  0.00     0.000 C 
ENDROOT
BRANCH   1   2
ATOM      2  C   UNL     1      -4.289 -18.223   4.861  1.00  0.00     0.000 C 
BRANCH   2   3
ATOM      3  C   UNL     1      -3.862 -17.097   3.901  1.00  0.00     0.000 C 
BRANCH   3   4
ATOM      4  C   UNL     1      -2.371 -16.715   3.959  1.00  0.00    -0.000 C 
BRANCH   4   5
ATOM      5  C   UNL     1      -1.536 -17.687   4.811  1.00  0.00    -0.000 C 
BRANCH   5   6
ATOM      6  C   UNL     1      -0.929 -17.006   6.058  1.00  0.00    -0.000 C 
BRANCH   6   7
ATOM      7  C   UNL     1      -1.170 -15.484   6.113  1.00  0.00    -0.000 C 
BRANCH   7   8
ATOM      8  C   UNL     1      -0.889 -14.833   7.481  1.00  0.00    -0.000 C 
BRANCH   8   9
ATOM      9  C   UNL     1      -2.118 -14.699   8.404  1.00  0.00    -0.000 C 
BRANCH   9  10
ATOM     10  C   UNL     1      -3.484 -14.751   7.691  1.00  0.00    -0.000 C 
BRANCH  10  11
ATOM     11  C   UNL     1      -4.453 -15.819   8.227  1.00  0.00    -0.003 C 
ATOM     12  C   UNL     1      -3.779 -17.171   8.458  1.00  0.00     0.004 C 
ENDBRANCH  10  11
ENDBRANCH   9  10
ENDBRANCH   8   9
ENDBRANCH   7   8
ENDBRANCH   6   7
ENDBRANCH   5   6
ENDBRANCH   4   5
ENDBRANCH   3   4
ENDBRANCH   2   3
ENDBRANCH   1   2
BRANCH   1  13
ATOM     13  C   UNL     1      -6.479 -17.375   5.884  1.00  0.00     0.000 C 
BRANCH  13  14
ATOM     14  C   UNL     1      -7.231 -16.265   5.133  1.00  0.00     0.000 C 
BRANCH  14  15
ATOM     15  C   UNL     1      -6.498 -14.924   5.260  1.00  0.00     0.000 C 
BRANCH  15  16
ATOM     16  C   UNL     1      -7.440 -13.826   5.768  1.00  0.00     0.000 C 
BRANCH  16  17
ATOM     17  C   UNL     1      -8.710 -13.748   4.908  1.00  0.00     0.000 C 
BRANCH  17  18
ATOM     18  C   UNL     1      -9.884 -13.063   5.629  1.00  0.00     0.000 C 
BRANCH  18  19
ATOM     19  C   UNL     1      -9.495 -12.251   6.877  1.00  0.00     0.000 C 
BRANCH  19  20
ATOM     20  C   UNL     1      -9.760 -10.746   6.720  1.00  0.00     0.006 C 
BRANCH  20  21
ATOM     21  C   UNL     1     -11.103 -10.496   6.026  1.00  0.00     0.053 C 
BRANCH  21  22
ATOM     22  C   UNL     1     -12.196 -10.333   7.036  1.00  0.00     0.041 C 
ATOM     23  O   UNL     1     -13.218 -11.068   6.988  1.00  0.00    -0.550 OA
ATOM     24  O   UNL     1     -12.074  -9.384   8.043  1.00  0.00    -0.550 OA
ENDBRANCH  21  22
ENDBRANCH  20  21
ENDBRANCH  19  20
ENDBRANCH  18  19
ENDBRANCH  17  18
ENDBRANCH  16  17
ENDBRANCH  15  16
ENDBRANCH  14  15
ENDBRANCH  13  14
ENDBRANCH   1  13
TORSDOF 20
ENDMDL
MODEL 6
REMARK VINA RESULT:    -4.515      2.935      8.109
REMARK INTER + INTRA:         -11.664
REMARK INTER:                  -9.283
REMARK INTRA:                  -2.381
REMARK UNBOUND:                -1.871
REMARK SMILES CCCCCCCCCCCCCCCCCCCCCC(=O)[O-]
REMARK SMILES IDX 12 1 11 2 10 3 9 4 8 5 7 6 6 7 5 8 4 9 3 10 2 11 1 12 13 13
REMARK SMILES IDX 14 14 15 15 16 16 17 17 18 18 19 19 20 20 21 21 22 22 23 23
REMARK SMILES IDX 24 24
REMARK H PARENT
REMARK Flexibility Score: inf
ROOT
ATOM      1  C   UNL     1      -2.700 -16.803   3.828  1.00  0.00     0.000 C 
ENDROOT
BRANCH   1   2
ATOM      2  C   UNL     1      -1.892 -16.629   5.126  1.00  0.00     0.000 C 
BRANCH   2   3
ATOM      3  C   UNL     1      -1.795 -17.927   5.949  1.00  0.00     0.000 C 
BRANCH   3   4
ATOM      4  C   UNL     1      -2.149 -17.786   7.441  1.00  0.00    -0.000 C 
BRANCH   4   5
ATOM      5  C   UNL     1      -3.496 -18.436   7.803  1.00  0.00    -0.000 C 
BRANCH   5   6
ATOM      6  C   UNL     1      -3.886 -19.566   6.826  1.00  0.00    -0.000 C 
BRANCH   6   7
ATOM      7  C   UNL     1      -5.403 -19.664   6.564  1.00  0.00    -0.000 C 
BRANCH   7   8
ATOM      8  C   UNL     1      -5.797 -19.787   5.079  1.00  0.00    -0.000 C 
BRANCH   8   9
ATOM      9  C   UNL     1      -7.229 -19.317   4.744  1.00  0.00    -0.000 C 
BRANCH   9  10
ATOM     10  C   UNL     1      -7.987 -20.196   3.730  1.00  0.00    -0.000 C 
BRANCH  10  11
ATOM     11  C   UNL     1      -9.231 -19.538   3.108  1.00  0.00    -0.003 C 
ATOM     12  C   UNL     1      -9.486 -18.127   3.638  1.00  0.00     0.004 C 
ENDBRANCH  10  11
ENDBRANCH   9  10
ENDBRANCH   8   9
ENDBRANCH   7   8
ENDBRANCH   6   7
ENDBRANCH   5   6
ENDBRANCH   4   5
ENDBRANCH   3   4
ENDBRANCH   2   3
ENDBRANCH   1   2
BRANCH   1  13
ATOM     13  C   UNL     1      -4.218 -16.730   4.058  1.00  0.00     0.000 C 
BRANCH  13  14
ATOM     14  C   UNL     1      -4.612 -15.706   5.134  1.00  0.00     0.000 C 
BRANCH  14  15
ATOM     15  C   UNL     1      -5.844 -16.180   5.916  1.00  0.00     0.000 C 
BRANCH  15  16
ATOM     16  C   UNL     1      -7.139 -15.701   5.249  1.00  0.00     0.000 C 
BRANCH  16  17
ATOM     17  C   UNL     1      -7.208 -14.167   5.219  1.00  0.00     0.000 C 
BRANCH  17  18
ATOM     18  C   UNL     1      -8.649 -13.631   5.147  1.00  0.00     0.000 C 
BRANCH  18  19
ATOM     19  C   UNL     1      -8.996 -12.558   6.195  1.00  0.00     0.000 C 
BRANCH  19  20
ATOM     20  C   UNL     1     -10.477 -12.149   6.166  1.00  0.00     0.006 C 
BRANCH  20  21
ATOM     21  C   UNL     1     -10.736 -10.967   7.106  1.00  0.00     0.053 C 
BRANCH  21  22
ATOM     22  C   UNL     1     -12.056 -10.331   6.802  1.00  0.00     0.041 C 
ATOM     23  O   UNL     1     -12.122  -9.100   6.544  1.00  0.00    -0.550 OA
ATOM     24  O   UNL     1     -13.211 -11.103   6.779  1.00  0.00    -0.550 OA
ENDBRANCH  21  22
ENDBRANCH  20  21
ENDBRANCH  19  20
ENDBRANCH  18  19
ENDBRANCH  17  18
ENDBRANCH  16  17
ENDBRANCH  15  16
ENDBRANCH  14  15
ENDBRANCH  13  14
ENDBRANCH   1  13
TORSDOF 20
ENDMDL
MODEL 7
REMARK VINA RESULT:    -4.505      2.710      6.963
REMARK INTER + INTRA:         -11.644
REMARK INTER:                  -9.308
REMARK INTRA:                  -2.336
REMARK UNBOUND:                -1.871
REMARK SMILES CCCCCCCCCCCCCCCCCCCCCC(=O)[O-]
REMARK SMILES IDX 12 1 11 2 10 3 9 4 8 5 7 6 6 7 5 8 4 9 3 10 2 11 1 12 13 13
REMARK SMILES IDX 14 14 15 15 16 16 17 17 18 18 19 19 20 20 21 21 22 22 23 23
REMARK SMILES IDX 24 24
REMARK H PARENT
REMARK Flexibility Score: inf
ROOT
ATOM      1  C   UNL     1     -11.330  -9.810   6.060  1.00  0.00     0.000 C 
ENDROOT
BRANCH   1   2
ATOM      2  C   UNL     1     -12.715 -10.439   6.290  1.00  0.00     0.000 C 
BRANCH   2   3
ATOM      3  C   UNL     1     -13.606  -9.600   7.225  1.00  0.00     0.000 C 
BRANCH   3   4
ATOM      4  C   UNL     1     -13.637 -10.063   8.693  1.00  0.00    -0.000 C 
BRANCH   4   5
ATOM      5  C   UNL     1     -13.029  -9.032   9.661  1.00  0.00    -0.000 C 
BRANCH   5   6
ATOM      6  C   UNL     1     -11.503  -9.206   9.825  1.00  0.00    -0.000 C 
BRANCH   6   7
ATOM      7  C   UNL     1     -11.056 -10.676   9.956  1.00  0.00    -0.000 C 
BRANCH   7   8
ATOM      8  C   UNL     1      -9.693 -10.880  10.644  1.00  0.00    -0.000 C 
BRANCH   8   9
ATOM      9  C   UNL     1      -8.558 -11.360   9.714  1.00  0.00    -0.000 C 
BRANCH   9  10
ATOM     10  C   UNL     1      -8.439 -12.889   9.559  1.00  0.00    -0.000 C 
BRANCH  10  11
ATOM     11  C   UNL     1      -8.407 -13.672  10.883  1.00  0.00    -0.003 C 
ATOM     12  C   UNL     1      -8.056 -15.148  10.694  1.00  0.00     0.004 C 
ENDBRANCH  10  11
ENDBRANCH   9  10
ENDBRANCH   8   9
ENDBRANCH   7   8
ENDBRANCH   6   7
ENDBRANCH   5   6
ENDBRANCH   4   5
ENDBRANCH   3   4
ENDBRANCH   2   3
ENDBRANCH   1   2
BRANCH   1  13
ATOM     13  C   UNL     1     -10.177 -10.777   6.375  1.00  0.00     0.000 C 
BRANCH  13  14
ATOM     14  C   UNL     1     -10.651 -12.225   6.582  1.00  0.00     0.000 C 
BRANCH  14  15
ATOM     15  C   UNL     1      -9.887 -13.186   5.663  1.00  0.00     0.000 C 
BRANCH  15  16
ATOM     16  C   UNL     1      -8.372 -13.069   5.877  1.00  0.00     0.000 C 
BRANCH  16  17
ATOM     17  C   UNL     1      -7.602 -13.838   4.794  1.00  0.00     0.000 C 
BRANCH  17  18
ATOM     18  C   UNL     1      -6.534 -14.783   5.372  1.00  0.00     0.000 C 
BRANCH  18  19
ATOM     19  C   UNL     1      -6.935 -16.269   5.415  1.00  0.00     0.000 C 
BRANCH  19  20
ATOM     20  C   UNL     1      -5.866 -17.196   4.819  1.00  0.00     0.006 C 
BRANCH  20  21
ATOM     21  C   UNL     1      -4.512 -16.484   4.728  1.00  0.00     0.053 C 
BRANCH  21  22
ATOM     22  C   UNL     1      -3.520 -17.330   3.992  1.00  0.00     0.041 C 
ATOM     23  O   UNL     1      -3.646 -18.583   3.973  1.00  0.00    -0.550 OA
ATOM     24  O   UNL     1      -2.469 -16.731   3.308  1.00  0.00    -0.550 OA
ENDBRANCH  21  22
ENDBRANCH  20  21
ENDBRANCH  19  20
ENDBRANCH  18  19
ENDBRANCH  17  18
ENDBRANCH  16  17
ENDBRANCH  15  16
ENDBRANCH  14  15
ENDBRANCH  13  14
ENDBRANCH   1  13
TORSDOF 20
ENDMDL
MODEL 8
REMARK VINA RESULT:    -4.464      3.647      9.780
REMARK INTER + INTRA:         -11.553
REMARK INTER:                  -9.840
REMARK INTRA:                  -1.714
REMARK UNBOUND:                -1.871
REMARK SMILES CCCCCCCCCCCCCCCCCCCCCC(=O)[O-]
REMARK SMILES IDX 12 1 11 2 10 3 9 4 8 5 7 6 6 7 5 8 4 9 3 10 2 11 1 12 13 13
REMARK SMILES IDX 14 14 15 15 16 16 17 17 18 18 19 19 20 20 21 21 22 22 23 23
REMARK SMILES IDX 24 24
REMARK H PARENT
REMARK Flexibility Score: inf
ROOT
ATOM      1  C   UNL     1      -8.536 -13.508   6.025  1.00  0.00     0.000 C 
ENDROOT
BRANCH   1   2
ATOM      2  C   UNL     1      -7.604 -13.873   4.855  1.00  0.00     0.000 C 
BRANCH   2   3
ATOM      3  C   UNL     1      -6.794 -15.157   5.114  1.00  0.00     0.000 C 
BRANCH   3   4
ATOM      4  C   UNL     1      -5.962 -15.157   6.411  1.00  0.00    -0.000 C 
BRANCH   4   5
ATOM      5  C   UNL     1      -5.009 -16.361   6.512  1.00  0.00    -0.000 C 
BRANCH   5   6
ATOM      6  C   UNL     1      -4.435 -16.776   5.140  1.00  0.00    -0.000 C 
BRANCH   6   7
ATOM      7  C   UNL     1      -4.822 -18.206   4.713  1.00  0.00    -0.000 C 
BRANCH   7   8
ATOM      8  C   UNL     1      -5.654 -18.989   5.746  1.00  0.00    -0.000 C 
BRANCH   8   9
ATOM      9  C   UNL     1      -7.066 -19.394   5.272  1.00  0.00    -0.000 C 
BRANCH   9  10
ATOM     10  C   UNL     1      -7.767 -18.377   4.350  1.00  0.00    -0.000 C 
BRANCH  10  11
ATOM     11  C   UNL     1      -9.087 -18.868   3.731  1.00  0.00    -0.003 C 
ATOM     12  C   UNL     1      -9.067 -20.357   3.390  1.00  0.00     0.004 C 
ENDBRANCH  10  11
ENDBRANCH   9  10
ENDBRANCH   8   9
ENDBRANCH   7   8
ENDBRANCH   6   7
ENDBRANCH   5   6
ENDBRANCH   4   5
ENDBRANCH   3   4
ENDBRANCH   2   3
ENDBRANCH   1   2
BRANCH   1  13
ATOM     13  C   UNL     1      -9.927 -13.052   5.556  1.00  0.00     0.000 C 
BRANCH  13  14
ATOM     14  C   UNL     1     -10.286 -11.636   6.036  1.00  0.00     0.000 C 
BRANCH  14  15
ATOM     15  C   UNL     1      -9.124 -11.014   6.820  1.00  0.00     0.000 C 
BRANCH  15  16
ATOM     16  C   UNL     1      -9.134  -9.485   6.702  1.00  0.00     0.000 C 
BRANCH  16  17
ATOM     17  C   UNL     1     -10.267  -8.876   7.542  1.00  0.00     0.000 C 
BRANCH  17  18
ATOM     18  C   UNL     1     -10.346  -9.464   8.961  1.00  0.00     0.000 C 
BRANCH  18  19
ATOM     19  C   UNL     1     -11.772  -9.730   9.476  1.00  0.00     0.000 C 
BRANCH  19  20
ATOM     20  C   UNL     1     -12.676 -10.389   8.423  1.00  0.00     0.006 C 
BRANCH  20  21
ATOM     21  C   UNL     1     -13.687  -9.382   7.863  1.00  0.00     0.053 C 
BRANCH  21  22
ATOM     22  C   UNL     1     -15.087  -9.816   8.165  1.00  0.00     0.041 C 
ATOM     23  O   UNL     1     -15.913  -9.986   7.230  1.00  0.00    -0.550 OA
ATOM     24  O   UNL     1     -15.472 -10.056   9.478  1.00  0.00    -0.550 OA
ENDBRANCH  21  22
ENDBRANCH  20  21
ENDBRANCH  19  20
ENDBRANCH  18  19
ENDBRANCH  17  18
ENDBRANCH  16  17
ENDBRANCH  15  16
ENDBRANCH  14  15
ENDBRANCH  13  14
ENDBRANCH   1  13
TORSDOF 20
ENDMDL
MODEL 9
REMARK VINA RESULT:    -4.421      3.478      5.675
REMARK INTER + INTRA:         -11.461
REMARK INTER:                  -7.538
REMARK INTRA:                  -3.922
REMARK UNBOUND:                -1.871
REMARK SMILES CCCCCCCCCCCCCCCCCCCCCC(=O)[O-]
REMARK SMILES IDX 12 1 11 2 10 3 9 4 8 5 7 6 6 7 5 8 4 9 3 10 2 11 1 12 13 13
REMARK SMILES IDX 14 14 15 15 16 16 17 17 18 18 19 19 20 20 21 21 22 22 23 23
REMARK SMILES IDX 24 24
REMARK H PARENT
REMARK Flexibility Score: inf
ROOT
ATOM      1  C   UNL     1      -3.520 -18.895   5.000  1.00  0.00     0.000 C 
ENDROOT
BRANCH   1   2
ATOM      2  C   UNL     1      -3.343 -18.250   3.614  1.00  0.00     0.000 C 
BRANCH   2   3
ATOM      3  C   UNL     1      -2.365 -17.060   3.628  1.00  0.00     0.000 C 
BRANCH   3   4
ATOM      4  C   UNL     1      -1.696 -16.776   4.986  1.00  0.00    -0.000 C 
BRANCH   4   5
ATOM      5  C   UNL     1      -1.584 -15.274   5.297  1.00  0.00    -0.000 C 
BRANCH   5   6
ATOM      6  C   UNL     1      -1.858 -14.957   6.784  1.00  0.00    -0.000 C 
BRANCH   6   7
ATOM      7  C   UNL     1      -2.732 -16.012   7.492  1.00  0.00    -0.000 C 
BRANCH   7   8
ATOM      8  C   UNL     1      -4.024 -15.464   8.126  1.00  0.00    -0.000 C 
BRANCH   8   9
ATOM      9  C   UNL     1      -5.126 -15.068   7.121  1.00  0.00    -0.000 C 
BRANCH   9  10
ATOM     10  C   UNL     1      -5.264 -15.997   5.898  1.00  0.00    -0.000 C 
BRANCH  10  11
ATOM     11  C   UNL     1      -6.542 -15.788   5.068  1.00  0.00    -0.003 C 
ATOM     12  C   UNL     1      -7.179 -14.417   5.292  1.00  0.00     0.004 C 
ENDBRANCH  10  11
ENDBRANCH   9  10
ENDBRANCH   8   9
ENDBRANCH   7   8
ENDBRANCH   6   7
ENDBRANCH   5   6
ENDBRANCH   4   5
ENDBRANCH   3   4
ENDBRANCH   2   3
ENDBRANCH   1   2
BRANCH   1  13
ATOM     13  C   UNL     1      -2.816 -20.257   5.115  1.00  0.00     0.000 C 
BRANCH  13  14
ATOM     14  C   UNL     1      -2.873 -20.842   6.535  1.00  0.00     0.000 C 
BRANCH  14  15
ATOM     15  C   UNL     1      -2.730 -19.735   7.588  1.00  0.00     0.000 C 
BRANCH  15  16
ATOM     16  C   UNL     1      -3.824 -19.846   8.657  1.00  0.00     0.000 C 
BRANCH  16  17
ATOM     17  C   UNL     1      -5.057 -19.016   8.271  1.00  0.00     0.000 C 
BRANCH  17  18
ATOM     18  C   UNL     1      -6.215 -19.874   7.731  1.00  0.00     0.000 C 
BRANCH  18  19
ATOM     19  C   UNL     1      -6.858 -19.354   6.433  1.00  0.00     0.000 C 
BRANCH  19  20
ATOM     20  C   UNL     1      -6.854 -20.393   5.302  1.00  0.00     0.006 C 
BRANCH  20  21
ATOM     21  C   UNL     1      -7.215 -19.745   3.961  1.00  0.00     0.053 C 
BRANCH  21  22
ATOM     22  C   UNL     1      -8.695 -19.552   3.850  1.00  0.00     0.041 C 
ATOM     23  O   UNL     1      -9.476 -20.520   4.045  1.00  0.00    -0.550 OA
ATOM     24  O   UNL     1      -9.213 -18.297   3.554  1.00  0.00    -0.550 OA
ENDBRANCH  21  22
ENDBRANCH  20  21
ENDBRANCH  19  20
ENDBRANCH  18  19
ENDBRANCH  17  18
ENDBRANCH  16  17
ENDBRANCH  15  16
ENDBRANCH  14  15
ENDBRANCH  13  14
ENDBRANCH   1  13
TORSDOF 20
ENDMDL
