MODEL 1
REMARK VINA RESULT:    -4.130      0.000      0.000
REMARK INTER + INTRA:          -4.250
REMARK INTER:                  -4.250
REMARK INTRA:                   0.000
REMARK UNBOUND:                 0.000
REMARK SMILES O=c1ccc2ccc(O)cc2o1
REMARK SMILES IDX 6 1 7 2 8 3 10 4 11 5 5 6 4 7 3 8 2 9 1 10 12 11 9 12
REMARK H PARENT 9 13
REMARK Flexibility Score: inf
ROOT
ATOM      1  C   UNL     1      13.129 -17.984  18.506  1.00  0.00     0.016 A 
ATOM      2  C   UNL     1      11.768 -17.960  18.826  1.00  0.00     0.047 A 
ATOM      3  C   UNL     1      11.354 -17.979  20.164  1.00  0.00     0.119 A 
ATOM      4  C   UNL     1      12.310 -18.021  21.190  1.00  0.00     0.094 A 
ATOM      5  C   UNL     1      13.674 -18.044  20.880  1.00  0.00     0.142 A 
ATOM      6  C   UNL     1      14.086 -18.025  19.529  1.00  0.00     0.018 A 
ATOM      7  C   UNL     1      15.457 -18.049  19.250  1.00  0.00     0.019 A 
ATOM      8  C   UNL     1      16.369 -18.091  20.304  1.00  0.00     0.094 A 
ATOM      9  C   UNL     1      15.887 -18.108  21.617  1.00  0.00     0.336 A 
ATOM     10  O   UNL     1      16.695 -18.146  22.581  1.00  0.00    -0.246 OA
ATOM     11  O   UNL     1      14.578 -18.085  21.856  1.00  0.00    -0.423 OA
ENDROOT
BRANCH   3  12
ATOM     12  O   UNL     1       9.994 -17.954  20.463  1.00  0.00    -0.508 OA
ATOM     13  H   UNL     1       9.552 -17.128  20.848  1.00  0.00     0.293 HD
ENDBRANCH   3  12
TORSDOF 1
ENDMDL
MODEL 2
REMARK VINA RESULT:    -4.125      0.795      4.226
REMARK INTER + INTRA:          -4.246
REMARK INTER:                  -4.246
REMARK INTRA:                   0.000
REMARK UNBOUND:                 0.000
REMARK SMILES O=c1ccc2ccc(O)cc2o1
REMARK SMILES IDX 6 1 7 2 8 3 10 4 11 5 5 6 4 7 3 8 2 9 1 10 12 11 9 12
REMARK H PARENT 9 13
REMARK Flexibility Score: inf
ROOT
ATOM      1  C   UNL     1      15.328 -17.969  19.257  1.00  0.00     0.016 A 
ATOM      2  C   UNL     1      16.371 -18.028  20.186  1.00  0.00     0.047 A 
ATOM      3  C   UNL     1      16.095 -18.099  21.557  1.00  0.00     0.119 A 
ATOM      4  C   UNL     1      14.765 -18.112  22.003  1.00  0.00     0.094 A 
ATOM      5  C   UNL     1      13.715 -18.053  21.081  1.00  0.00     0.142 A 
ATOM      6  C   UNL     1      13.997 -17.982  19.699  1.00  0.00     0.018 A 
ATOM      7  C   UNL     1      12.926 -17.925  18.801  1.00  0.00     0.019 A 
ATOM      8  C   UNL     1      11.621 -17.940  19.292  1.00  0.00     0.094 A 
ATOM      9  C   UNL     1      11.417 -18.012  20.674  1.00  0.00     0.336 A 
ATOM     10  O   UNL     1      10.247 -18.026  21.136  1.00  0.00    -0.246 OA
ATOM     11  O   UNL     1      12.453 -18.065  21.507  1.00  0.00    -0.423 OA
ENDROOT
BRANCH   3  12
ATOM     12  O   UNL     1      17.148 -18.157  22.467  1.00  0.00    -0.508 OA
ATOM     13  H   UNL     1      17.991 -17.609  22.337  1.00  0.00     0.293 HD
ENDBRANCH   3  12
TORSDOF 1
ENDMDL
MODEL 3
REMARK VINA RESULT:    -4.020     17.865     18.923
REMARK INTER + INTRA:          -4.137
REMARK INTER:                  -4.137
REMARK INTRA:                   0.000
REMARK UNBOUND:                 0.000
REMARK SMILES O=c1ccc2ccc(O)cc2o1
REMARK SMILES IDX 6 1 7 2 8 3 10 4 11 5 5 6 4 7 3 8 2 9 1 10 12 11 9 12
REMARK H PARENT 9 13
REMARK Flexibility Score: inf
ROOT
ATOM      1  C   UNL     1      16.751  -4.082   5.751  1.00  0.00     0.016 A 
ATOM      2  C   UNL     1      18.148  -4.003   5.755  1.00  0.00     0.047 A 
ATOM      3  C   UNL     1      18.907  -4.916   6.498  1.00  0.00     0.119 A 
ATOM      4  C   UNL     1      18.264  -5.917   7.242  1.00  0.00     0.094 A 
ATOM      5  C   UNL     1      16.868  -6.004   7.244  1.00  0.00     0.142 A 
ATOM      6  C   UNL     1      16.106  -5.081   6.493  1.00  0.00     0.018 A 
ATOM      7  C   UNL     1      14.712  -5.193   6.514  1.00  0.00     0.019 A 
ATOM      8  C   UNL     1      14.119  -6.205   7.269  1.00  0.00     0.094 A 
ATOM      9  C   UNL     1      14.937  -7.083   7.988  1.00  0.00     0.336 A 
ATOM     10  O   UNL     1      14.421  -8.002   8.676  1.00  0.00    -0.246 OA
ATOM     11  O   UNL     1      16.261  -6.954   7.951  1.00  0.00    -0.423 OA
ENDROOT
BRANCH   3  12
ATOM     12  O   UNL     1      20.296  -4.821   6.489  1.00  0.00    -0.508 OA
ATOM     13  H   UNL     1      20.877  -5.513   6.948  1.00  0.00     0.293 HD
ENDBRANCH   3  12
TORSDOF 1
ENDMDL
MODEL 4
REMARK VINA RESULT:    -3.862      1.458      2.274
REMARK INTER + INTRA:          -3.974
REMARK INTER:                  -3.974
REMARK INTRA:                   0.000
REMARK UNBOUND:                 0.000
REMARK SMILES O=c1ccc2ccc(O)cc2o1
REMARK SMILES IDX 6 1 7 2 8 3 10 4 11 5 5 6 4 7 3 8 2 9 1 10 12 11 9 12
REMARK H PARENT 9 13
REMARK Flexibility Score: inf
ROOT
ATOM      1  C   UNL     1      11.729 -17.969  20.767  1.00  0.00     0.016 A 
ATOM      2  C   UNL     1      11.203 -17.967  19.471  1.00  0.00     0.047 A 
ATOM      3  C   UNL     1      12.055 -17.914  18.361  1.00  0.00     0.119 A 
ATOM      4  C   UNL     1      13.445 -17.865  18.548  1.00  0.00     0.094 A 
ATOM      5  C   UNL     1      13.980 -17.867  19.841  1.00  0.00     0.142 A 
ATOM      6  C   UNL     1      13.117 -17.920  20.957  1.00  0.00     0.018 A 
ATOM      7  C   UNL     1      13.681 -17.921  22.237  1.00  0.00     0.019 A 
ATOM      8  C   UNL     1      15.069 -17.870  22.373  1.00  0.00     0.094 A 
ATOM      9  C   UNL     1      15.861 -17.820  21.221  1.00  0.00     0.336 A 
ATOM     10  O   UNL     1      17.114 -17.773  21.323  1.00  0.00    -0.246 OA
ATOM     11  O   UNL     1      15.299 -17.819  20.015  1.00  0.00    -0.423 OA
ENDROOT
BRANCH   3  12
ATOM     12  O   UNL     1      11.512 -17.913  17.078  1.00  0.00    -0.508 OA
ATOM     13  H   UNL     1      11.610 -18.711  16.461  1.00  0.00     0.293 HD
ENDBRANCH   3  12
TORSDOF 1
ENDMDL
MODEL 5
REMARK VINA RESULT:    -3.843     15.130     15.675
REMARK INTER + INTRA:          -3.955
REMARK INTER:                  -3.955
REMARK INTRA:                   0.000
REMARK UNBOUND:                 0.000
REMARK SMILES O=c1ccc2ccc(O)cc2o1
REMARK SMILES IDX 6 1 7 2 8 3 10 4 11 5 5 6 4 7 3 8 2 9 1 10 12 11 9 12
REMARK H PARENT 9 13
REMARK Flexibility Score: inf
ROOT
ATOM      1  C   UNL     1      14.132  -4.793  12.026  1.00  0.00     0.016 A 
ATOM      2  C   UNL     1      14.677  -6.058  11.784  1.00  0.00     0.047 A 
ATOM      3  C   UNL     1      15.725  -6.542  12.577  1.00  0.00     0.119 A 
ATOM      4  C   UNL     1      16.231  -5.755  13.622  1.00  0.00     0.094 A 
ATOM      5  C   UNL     1      15.693  -4.488  13.872  1.00  0.00     0.142 A 
ATOM      6  C   UNL     1      14.636  -4.004  13.070  1.00  0.00     0.018 A 
ATOM      7  C   UNL     1      14.118  -2.734  13.344  1.00  0.00     0.019 A 
ATOM      8  C   UNL     1      14.655  -1.988  14.393  1.00  0.00     0.094 A 
ATOM      9  C   UNL     1      15.701  -2.533  15.146  1.00  0.00     0.336 A 
ATOM     10  O   UNL     1      16.199  -1.875  16.096  1.00  0.00    -0.246 OA
ATOM     11  O   UNL     1      16.176  -3.743  14.864  1.00  0.00    -0.423 OA
ENDROOT
BRANCH   3  12
ATOM     12  O   UNL     1      16.253  -7.805  12.320  1.00  0.00    -0.508 OA
ATOM     13  H   UNL     1      15.659  -8.622  12.242  1.00  0.00     0.293 HD
ENDBRANCH   3  12
TORSDOF 1
ENDMDL
MODEL 6
REMARK VINA RESULT:    -3.832      2.197      4.765
REMARK INTER + INTRA:          -3.944
REMARK INTER:                  -3.944
REMARK INTRA:                   0.000
REMARK UNBOUND:                 0.000
REMARK SMILES O=c1ccc2ccc(O)cc2o1
REMARK SMILES IDX 6 1 7 2 8 3 10 4 11 5 5 6 4 7 3 8 2 9 1 10 12 11 9 12
REMARK H PARENT 9 13
REMARK Flexibility Score: inf
ROOT
ATOM      1  C   UNL     1      14.468 -18.183  20.651  1.00  0.00     0.016 A 
ATOM      2  C   UNL     1      15.536 -17.696  19.890  1.00  0.00     0.047 A 
ATOM      3  C   UNL     1      15.303 -16.838  18.809  1.00  0.00     0.119 A 
ATOM      4  C   UNL     1      13.991 -16.461  18.486  1.00  0.00     0.094 A 
ATOM      5  C   UNL     1      12.916 -16.943  19.241  1.00  0.00     0.142 A 
ATOM      6  C   UNL     1      13.156 -17.809  20.330  1.00  0.00     0.018 A 
ATOM      7  C   UNL     1      12.061 -18.274  21.067  1.00  0.00     0.019 A 
ATOM      8  C   UNL     1      10.775 -17.872  20.707  1.00  0.00     0.094 A 
ATOM      9  C   UNL     1      10.614 -17.012  19.616  1.00  0.00     0.336 A 
ATOM     10  O   UNL     1       9.461 -16.639  19.276  1.00  0.00    -0.246 OA
ATOM     11  O   UNL     1      11.672 -16.584  18.931  1.00  0.00    -0.423 OA
ENDROOT
BRANCH   3  12
ATOM     12  O   UNL     1      16.380 -16.363  18.064  1.00  0.00    -0.508 OA
ATOM     13  H   UNL     1      16.955 -15.597  18.394  1.00  0.00     0.293 HD
ENDBRANCH   3  12
TORSDOF 1
ENDMDL
MODEL 7
REMARK VINA RESULT:    -3.803      2.129      2.762
REMARK INTER + INTRA:          -3.914
REMARK INTER:                  -3.914
REMARK INTRA:                   0.000
REMARK UNBOUND:                 0.000
REMARK SMILES O=c1ccc2ccc(O)cc2o1
REMARK SMILES IDX 6 1 7 2 8 3 10 4 11 5 5 6 4 7 3 8 2 9 1 10 12 11 9 12
REMARK H PARENT 9 13
REMARK Flexibility Score: inf
ROOT
ATOM      1  C   UNL     1      13.457 -18.185  20.199  1.00  0.00     0.016 A 
ATOM      2  C   UNL     1      12.969 -17.617  19.018  1.00  0.00     0.047 A 
ATOM      3  C   UNL     1      13.695 -16.616  18.360  1.00  0.00     0.119 A 
ATOM      4  C   UNL     1      14.920 -16.181  18.887  1.00  0.00     0.094 A 
ATOM      5  C   UNL     1      15.416 -16.744  20.068  1.00  0.00     0.142 A 
ATOM      6  C   UNL     1      14.681 -17.752  20.728  1.00  0.00     0.018 A 
ATOM      7  C   UNL     1      15.203 -18.296  21.906  1.00  0.00     0.019 A 
ATOM      8  C   UNL     1      16.425 -17.830  22.392  1.00  0.00     0.094 A 
ATOM      9  C   UNL     1      17.098 -16.828  21.684  1.00  0.00     0.336 A 
ATOM     10  O   UNL     1      18.201 -16.395  22.106  1.00  0.00    -0.246 OA
ATOM     11  O   UNL     1      16.579 -16.328  20.565  1.00  0.00    -0.423 OA
ENDROOT
BRANCH   3  12
ATOM     12  O   UNL     1      13.192 -16.064  17.185  1.00  0.00    -0.508 OA
ATOM     13  H   UNL     1      12.334 -16.404  16.765  1.00  0.00     0.293 HD
ENDBRANCH   3  12
TORSDOF 1
ENDMDL
MODEL 8
REMARK VINA RESULT:    -3.778     13.346     14.015
REMARK INTER + INTRA:          -3.888
REMARK INTER:                  -3.888
REMARK INTRA:                   0.000
REMARK UNBOUND:                 0.000
REMARK SMILES O=c1ccc2ccc(O)cc2o1
REMARK SMILES IDX 6 1 7 2 8 3 10 4 11 5 5 6 4 7 3 8 2 9 1 10 12 11 9 12
REMARK H PARENT 9 13
REMARK Flexibility Score: inf
ROOT
ATOM      1  C   UNL     1      14.756  -9.108  12.489  1.00  0.00     0.016 A 
ATOM      2  C   UNL     1      14.815  -9.368  11.116  1.00  0.00     0.047 A 
ATOM      3  C   UNL     1      15.171  -8.354  10.217  1.00  0.00     0.119 A 
ATOM      4  C   UNL     1      15.472  -7.071  10.695  1.00  0.00     0.094 A 
ATOM      5  C   UNL     1      15.417  -6.801  12.067  1.00  0.00     0.142 A 
ATOM      6  C   UNL     1      15.057  -7.825  12.970  1.00  0.00     0.018 A 
ATOM      7  C   UNL     1      15.011  -7.526  14.335  1.00  0.00     0.019 A 
ATOM      8  C   UNL     1      15.319  -6.234  14.763  1.00  0.00     0.094 A 
ATOM      9  C   UNL     1      15.667  -5.270  13.811  1.00  0.00     0.336 A 
ATOM     10  O   UNL     1      15.948  -4.099  14.177  1.00  0.00    -0.246 OA
ATOM     11  O   UNL     1      15.703  -5.581  12.518  1.00  0.00    -0.423 OA
ENDROOT
BRANCH   3  12
ATOM     12  O   UNL     1      15.223  -8.634   8.854  1.00  0.00    -0.508 OA
ATOM     13  H   UNL     1      14.501  -9.179   8.397  1.00  0.00     0.293 HD
ENDBRANCH   3  12
TORSDOF 1
ENDMDL
MODEL 9
REMARK VINA RESULT:    -3.730      1.589      4.709
REMARK INTER + INTRA:          -3.839
REMARK INTER:                  -3.839
REMARK INTRA:                   0.000
REMARK UNBOUND:                 0.000
REMARK SMILES O=c1ccc2ccc(O)cc2o1
REMARK SMILES IDX 6 1 7 2 8 3 10 4 11 5 5 6 4 7 3 8 2 9 1 10 12 11 9 12
REMARK H PARENT 9 13
REMARK Flexibility Score: inf
ROOT
ATOM      1  C   UNL     1      13.961 -17.898  22.271  1.00  0.00     0.016 A 
ATOM      2  C   UNL     1      15.359 -17.915  22.305  1.00  0.00     0.047 A 
ATOM      3  C   UNL     1      16.096 -17.954  21.114  1.00  0.00     0.119 A 
ATOM      4  C   UNL     1      15.429 -17.976  19.880  1.00  0.00     0.094 A 
ATOM      5  C   UNL     1      14.031 -17.959  19.837  1.00  0.00     0.142 A 
ATOM      6  C   UNL     1      13.292 -17.919  21.039  1.00  0.00     0.018 A 
ATOM      7  C   UNL     1      11.895 -17.903  20.964  1.00  0.00     0.019 A 
ATOM      8  C   UNL     1      11.277 -17.926  19.714  1.00  0.00     0.094 A 
ATOM      9  C   UNL     1      12.074 -17.965  18.565  1.00  0.00     0.336 A 
ATOM     10  O   UNL     1      11.535 -17.987  17.428  1.00  0.00    -0.246 OA
ATOM     11  O   UNL     1      13.401 -17.980  18.664  1.00  0.00    -0.423 OA
ENDROOT
BRANCH   3  12
ATOM     12  O   UNL     1      17.487 -17.970  21.169  1.00  0.00    -0.508 OA
ATOM     13  H   UNL     1      18.040 -17.209  20.793  1.00  0.00     0.293 HD
ENDBRANCH   3  12
TORSDOF 1
ENDMDL
