MODEL 1
REMARK VINA RESULT:    -4.486      0.000      0.000
REMARK INTER + INTRA:         -17.289
REMARK INTER:                 -11.828
REMARK INTRA:                  -5.460
REMARK UNBOUND:                -5.460
REMARK SMILES CCCCCCCCCCCCCCCCCCCCCCCCCCCCCC(=O)[O-]
REMARK SMILES IDX 16 1 17 2 18 3 19 4 20 5 21 6 22 7 23 8 24 9 25 10 26 11
REMARK SMILES IDX 27 12 28 13 29 14 30 15 31 16 32 17 15 18 14 19 13 20 12 21
REMARK SMILES IDX 11 22 10 23 9 24 8 25 7 26 6 27 5 28 4 29 3 30 2 31 1 32
REMARK H PARENT
REMARK Flexibility Score: inf
ROOT
ATOM      1  C   UNL     1      16.147   2.050  -0.080  1.00  0.00     0.000 C 
ENDROOT
BRANCH   1   2
ATOM      2  C   UNL     1      15.696   3.456   0.358  1.00  0.00     0.000 C 
BRANCH   2   3
ATOM      3  C   UNL     1      14.200   3.710   0.108  1.00  0.00     0.000 C 
BRANCH   3   4
ATOM      4  C   UNL     1      13.448   4.141   1.380  1.00  0.00     0.000 C 
BRANCH   4   5
ATOM      5  C   UNL     1      12.104   4.851   1.132  1.00  0.00     0.000 C 
BRANCH   5   6
ATOM      6  C   UNL     1      11.019   4.444   2.145  1.00  0.00     0.000 C 
BRANCH   6   7
ATOM      7  C   UNL     1      11.399   3.177   2.933  1.00  0.00     0.000 C 
BRANCH   7   8
ATOM      8  C   UNL     1      10.420   2.007   2.718  1.00  0.00     0.000 C 
BRANCH   8   9
ATOM      9  C   UNL     1      11.139   0.720   2.274  1.00  0.00     0.000 C 
BRANCH   9  10
ATOM     10  C   UNL     1      12.596   0.970   1.851  1.00  0.00     0.000 C 
BRANCH  10  11
ATOM     11  C   UNL     1      13.458  -0.300   1.921  1.00  0.00     0.000 C 
BRANCH  11  12
ATOM     12  C   UNL     1      14.720  -0.114   2.782  1.00  0.00     0.000 C 
BRANCH  12  13
ATOM     13  C   UNL     1      14.706   1.172   3.634  1.00  0.00     0.006 C 
BRANCH  13  14
ATOM     14  C   UNL     1      16.082   1.848   3.688  1.00  0.00     0.053 C 
BRANCH  14  15
ATOM     15  C   UNL     1      16.735   1.608   5.012  1.00  0.00     0.041 C 
ATOM     16  O   UNL     1      16.738   0.452   5.515  1.00  0.00    -0.550 OA
ATOM     17  O   UNL     1      17.386   2.647   5.667  1.00  0.00    -0.550 OA
ENDBRANCH  14  15
ENDBRANCH  13  14
ENDBRANCH  12  13
ENDBRANCH  11  12
ENDBRANCH  10  11
ENDBRANCH   9  10
ENDBRANCH   8   9
ENDBRANCH   7   8
ENDBRANCH   6   7
ENDBRANCH   5   6
ENDBRANCH   4   5
ENDBRANCH   3   4
ENDBRANCH   2   3
ENDBRANCH   1   2
BRANCH   1  18
ATOM     18  C   UNL     1      17.172   2.017  -1.231  1.00  0.00     0.000 C 
BRANCH  18  19
ATOM     19  C   UNL     1      17.063   0.801  -2.173  1.00  0.00     0.000 C 
BRANCH  19  20
ATOM     20  C   UNL     1      15.630   0.460  -2.618  1.00  0.00     0.000 C 
BRANCH  20  21
ATOM     21  C   UNL     1      15.102  -0.832  -1.979  1.00  0.00     0.000 C 
BRANCH  21  22
ATOM     22  C   UNL     1      13.634  -0.677  -1.555  1.00  0.00     0.000 C 
BRANCH  22  23
ATOM     23  C   UNL     1      13.078   0.728  -1.849  1.00  0.00     0.000 C 
BRANCH  23  24
ATOM     24  C   UNL     1      11.568   0.712  -2.141  1.00  0.00    -0.000 C 
BRANCH  24  25
ATOM     25  C   UNL     1      10.786   1.714  -1.274  1.00  0.00    -0.000 C 
BRANCH  25  26
ATOM     26  C   UNL     1       9.359   1.241  -0.956  1.00  0.00    -0.000 C 
BRANCH  26  27
ATOM     27  C   UNL     1       8.452   2.431  -0.617  1.00  0.00    -0.000 C 
BRANCH  27  28
ATOM     28  C   UNL     1       9.180   3.764  -0.849  1.00  0.00    -0.000 C 
BRANCH  28  29
ATOM     29  C   UNL     1       8.255   4.981  -0.685  1.00  0.00    -0.000 C 
BRANCH  29  30
ATOM     30  C   UNL     1       8.753   6.211  -1.465  1.00  0.00    -0.000 C 
BRANCH  30  31
ATOM     31  C   UNL     1       8.423   7.532  -0.753  1.00  0.00    -0.003 C 
ATOM     32  C   UNL     1       8.301   7.377   0.763  1.00  0.00     0.004 C 
ENDBRANCH  30  31
ENDBRANCH  29  30
ENDBRANCH  28  29
ENDBRANCH  27  28
ENDBRANCH  26  27
ENDBRANCH  25  26
ENDBRANCH  24  25
ENDBRANCH  23  24
ENDBRANCH  22  23
ENDBRANCH  21  22
ENDBRANCH  20  21
ENDBRANCH  19  20
ENDBRANCH  18  19
ENDBRANCH   1  18
TORSDOF 28
ENDMDL
MODEL 2
REMARK VINA RESULT:    -4.432      3.268      7.325
REMARK INTER + INTRA:         -17.147
REMARK INTER:                 -11.731
REMARK INTRA:                  -5.415
REMARK UNBOUND:                -5.460
REMARK SMILES CCCCCCCCCCCCCCCCCCCCCCCCCCCCCC(=O)[O-]
REMARK SMILES IDX 16 1 17 2 18 3 19 4 20 5 21 6 22 7 23 8 24 9 25 10 26 11
REMARK SMILES IDX 27 12 28 13 29 14 30 15 31 16 32 17 15 18 14 19 13 20 12 21
REMARK SMILES IDX 11 22 10 23 9 24 8 25 7 26 6 27 5 28 4 29 3 30 2 31 1 32
REMARK H PARENT
REMARK Flexibility Score: inf
ROOT
ATOM      1  C   UNL     1      16.507   2.557  -0.359  1.00  0.00     0.000 C 
ENDROOT
BRANCH   1   2
ATOM      2  C   UNL     1      16.791   1.756  -1.643  1.00  0.00     0.000 C 
BRANCH   2   3
ATOM      3  C   UNL     1      16.204   0.335  -1.604  1.00  0.00     0.000 C 
BRANCH   3   4
ATOM      4  C   UNL     1      14.913   0.200  -2.430  1.00  0.00     0.000 C 
BRANCH   4   5
ATOM      5  C   UNL     1      13.609   0.273  -1.615  1.00  0.00     0.000 C 
BRANCH   5   6
ATOM      6  C   UNL     1      12.455   0.931  -2.393  1.00  0.00     0.000 C 
BRANCH   6   7
ATOM      7  C   UNL     1      11.074   0.509  -1.860  1.00  0.00     0.000 C 
BRANCH   7   8
ATOM      8  C   UNL     1      10.258   1.681  -1.283  1.00  0.00     0.000 C 
BRANCH   8   9
ATOM      9  C   UNL     1       8.997   1.203  -0.541  1.00  0.00     0.000 C 
BRANCH   9  10
ATOM     10  C   UNL     1       7.880   2.260  -0.526  1.00  0.00     0.000 C 
BRANCH  10  11
ATOM     11  C   UNL     1       8.414   3.689  -0.703  1.00  0.00     0.000 C 
BRANCH  11  12
ATOM     12  C   UNL     1       8.201   4.562   0.546  1.00  0.00     0.000 C 
BRANCH  12  13
ATOM     13  C   UNL     1       8.590   6.042   0.342  1.00  0.00     0.006 C 
BRANCH  13  14
ATOM     14  C   UNL     1       9.284   6.280  -1.005  1.00  0.00     0.053 C 
BRANCH  14  15
ATOM     15  C   UNL     1       8.982   7.653  -1.516  1.00  0.00     0.041 C 
ATOM     16  O   UNL     1       8.688   7.825  -2.730  1.00  0.00    -0.550 OA
ATOM     17  O   UNL     1       8.974   8.736  -0.644  1.00  0.00    -0.550 OA
ENDBRANCH  14  15
ENDBRANCH  13  14
ENDBRANCH  12  13
ENDBRANCH  11  12
ENDBRANCH  10  11
ENDBRANCH   9  10
ENDBRANCH   8   9
ENDBRANCH   7   8
ENDBRANCH   6   7
ENDBRANCH   5   6
ENDBRANCH   4   5
ENDBRANCH   3   4
ENDBRANCH   2   3
ENDBRANCH   1   2
BRANCH   1  18
ATOM     18  C   UNL     1      15.512   3.725  -0.519  1.00  0.00     0.000 C 
BRANCH  18  19
ATOM     19  C   UNL     1      14.367   3.757   0.513  1.00  0.00     0.000 C 
BRANCH  19  20
ATOM     20  C   UNL     1      12.954   3.727  -0.095  1.00  0.00     0.000 C 
BRANCH  20  21
ATOM     21  C   UNL     1      11.902   4.381   0.813  1.00  0.00     0.000 C 
BRANCH  21  22
ATOM     22  C   UNL     1      12.426   4.519   2.250  1.00  0.00     0.000 C 
BRANCH  22  23
ATOM     23  C   UNL     1      11.927   3.393   3.173  1.00  0.00     0.000 C 
BRANCH  23  24
ATOM     24  C   UNL     1      10.702   2.662   2.597  1.00  0.00    -0.000 C 
BRANCH  24  25
ATOM     25  C   UNL     1      10.928   1.147   2.455  1.00  0.00    -0.000 C 
BRANCH  25  26
ATOM     26  C   UNL     1      12.249   0.805   1.749  1.00  0.00    -0.000 C 
BRANCH  26  27
ATOM     27  C   UNL     1      12.948  -0.374   2.439  1.00  0.00    -0.000 C 
BRANCH  27  28
ATOM     28  C   UNL     1      14.061   0.116   3.378  1.00  0.00    -0.000 C 
BRANCH  28  29
ATOM     29  C   UNL     1      15.210   0.808   2.626  1.00  0.00    -0.000 C 
BRANCH  29  30
ATOM     30  C   UNL     1      15.836   1.958   3.434  1.00  0.00    -0.000 C 
BRANCH  30  31
ATOM     31  C   UNL     1      16.460   1.479   4.753  1.00  0.00    -0.003 C 
ATOM     32  C   UNL     1      17.324   2.546   5.424  1.00  0.00     0.004 C 
ENDBRANCH  30  31
ENDBRANCH  29  30
ENDBRANCH  28  29
ENDBRANCH  27  28
ENDBRANCH  26  27
ENDBRANCH  25  26
ENDBRANCH  24  25
ENDBRANCH  23  24
ENDBRANCH  22  23
ENDBRANCH  21  22
ENDBRANCH  20  21
ENDBRANCH  19  20
ENDBRANCH  18  19
ENDBRANCH   1  18
TORSDOF 28
ENDMDL
MODEL 3
REMARK VINA RESULT:    -4.323      2.199      4.926
REMARK INTER + INTRA:         -16.858
REMARK INTER:                 -11.531
REMARK INTRA:                  -5.328
REMARK UNBOUND:                -5.460
REMARK SMILES CCCCCCCCCCCCCCCCCCCCCCCCCCCCCC(=O)[O-]
REMARK SMILES IDX 16 1 17 2 18 3 19 4 20 5 21 6 22 7 23 8 24 9 25 10 26 11
REMARK SMILES IDX 27 12 28 13 29 14 30 15 31 16 32 17 15 18 14 19 13 20 12 21
REMARK SMILES IDX 11 22 10 23 9 24 8 25 7 26 6 27 5 28 4 29 3 30 2 31 1 32
REMARK H PARENT
REMARK Flexibility Score: inf
ROOT
ATOM      1  C   UNL     1      14.499   4.339   1.345  1.00  0.00     0.000 C 
ENDROOT
BRANCH   1   2
ATOM      2  C   UNL     1      15.397   3.111   1.585  1.00  0.00     0.000 C 
BRANCH   2   3
ATOM      3  C   UNL     1      14.739   2.056   2.491  1.00  0.00     0.000 C 
BRANCH   3   4
ATOM      4  C   UNL     1      15.039   0.615   2.042  1.00  0.00     0.000 C 
BRANCH   4   5
ATOM      5  C   UNL     1      13.871  -0.374   2.209  1.00  0.00     0.000 C 
BRANCH   5   6
ATOM      6  C   UNL     1      13.457  -1.037   0.883  1.00  0.00     0.000 C 
BRANCH   6   7
ATOM      7  C   UNL     1      12.011  -0.689   0.481  1.00  0.00     0.000 C 
BRANCH   7   8
ATOM      8  C   UNL     1      11.682  -1.044  -0.982  1.00  0.00     0.000 C 
BRANCH   8   9
ATOM      9  C   UNL     1      11.712   0.190  -1.901  1.00  0.00     0.000 C 
BRANCH   9  10
ATOM     10  C   UNL     1      12.087   1.480  -1.152  1.00  0.00     0.000 C 
BRANCH  10  11
ATOM     11  C   UNL     1      13.044   2.374  -1.954  1.00  0.00     0.000 C 
BRANCH  11  12
ATOM     12  C   UNL     1      14.181   1.580  -2.621  1.00  0.00     0.000 C 
BRANCH  12  13
ATOM     13  C   UNL     1      15.092   0.839  -1.619  1.00  0.00     0.006 C 
BRANCH  13  14
ATOM     14  C   UNL     1      16.460   0.495  -2.222  1.00  0.00     0.053 C 
BRANCH  14  15
ATOM     15  C   UNL     1      17.510   1.430  -1.710  1.00  0.00     0.041 C 
ATOM     16  O   UNL     1      18.730   1.133  -1.823  1.00  0.00    -0.550 OA
ATOM     17  O   UNL     1      17.145   2.651  -1.156  1.00  0.00    -0.550 OA
ENDBRANCH  14  15
ENDBRANCH  13  14
ENDBRANCH  12  13
ENDBRANCH  11  12
ENDBRANCH  10  11
ENDBRANCH   9  10
ENDBRANCH   8   9
ENDBRANCH   7   8
ENDBRANCH   6   7
ENDBRANCH   5   6
ENDBRANCH   4   5
ENDBRANCH   3   4
ENDBRANCH   2   3
ENDBRANCH   1   2
BRANCH   1  18
ATOM     18  C   UNL     1      12.994   4.036   1.207  1.00  0.00     0.000 C 
BRANCH  18  19
ATOM     19  C   UNL     1      12.096   4.658   2.296  1.00  0.00     0.000 C 
BRANCH  19  20
ATOM     20  C   UNL     1      11.280   3.642   3.113  1.00  0.00     0.000 C 
BRANCH  20  21
ATOM     21  C   UNL     1      11.047   2.325   2.359  1.00  0.00     0.000 C 
BRANCH  21  22
ATOM     22  C   UNL     1       9.547   2.061   2.161  1.00  0.00     0.000 C 
BRANCH  22  23
ATOM     23  C   UNL     1       9.219   1.529   0.755  1.00  0.00     0.000 C 
BRANCH  23  24
ATOM     24  C   UNL     1       8.611   2.610  -0.155  1.00  0.00    -0.000 C 
BRANCH  24  25
ATOM     25  C   UNL     1       8.352   3.932   0.587  1.00  0.00    -0.000 C 
BRANCH  25  26
ATOM     26  C   UNL     1       9.237   5.083   0.083  1.00  0.00    -0.000 C 
BRANCH  26  27
ATOM     27  C   UNL     1      10.083   4.636  -1.116  1.00  0.00    -0.000 C 
BRANCH  27  28
ATOM     28  C   UNL     1       9.854   5.554  -2.327  1.00  0.00    -0.000 C 
BRANCH  28  29
ATOM     29  C   UNL     1       8.616   6.450  -2.166  1.00  0.00    -0.000 C 
BRANCH  29  30
ATOM     30  C   UNL     1       8.857   7.887  -2.662  1.00  0.00    -0.000 C 
BRANCH  30  31
ATOM     31  C   UNL     1       8.602   8.937  -1.569  1.00  0.00    -0.003 C 
ATOM     32  C   UNL     1       8.558   8.336  -0.165  1.00  0.00     0.004 C 
ENDBRANCH  30  31
ENDBRANCH  29  30
ENDBRANCH  28  29
ENDBRANCH  27  28
ENDBRANCH  26  27
ENDBRANCH  25  26
ENDBRANCH  24  25
ENDBRANCH  23  24
ENDBRANCH  22  23
ENDBRANCH  21  22
ENDBRANCH  20  21
ENDBRANCH  19  20
ENDBRANCH  18  19
ENDBRANCH   1  18
TORSDOF 28
ENDMDL
MODEL 4
REMARK VINA RESULT:    -4.036     13.841     17.359
REMARK INTER + INTRA:         -16.104
REMARK INTER:                 -12.983
REMARK INTRA:                  -3.121
REMARK UNBOUND:                -5.460
REMARK SMILES CCCCCCCCCCCCCCCCCCCCCCCCCCCCCC(=O)[O-]
REMARK SMILES IDX 16 1 17 2 18 3 19 4 20 5 21 6 22 7 23 8 24 9 25 10 26 11
REMARK SMILES IDX 27 12 28 13 29 14 30 15 31 16 32 17 15 18 14 19 13 20 12 21
REMARK SMILES IDX 11 22 10 23 9 24 8 25 7 26 6 27 5 28 4 29 3 30 2 31 1 32
REMARK H PARENT
REMARK Flexibility Score: inf
ROOT
ATOM      1  C   UNL     1      20.096  16.746   1.262  1.00  0.00     0.000 C 
ENDROOT
BRANCH   1   2
ATOM      2  C   UNL     1      19.005  17.394   0.390  1.00  0.00     0.000 C 
BRANCH   2   3
ATOM      3  C   UNL     1      18.461  18.704   0.986  1.00  0.00     0.000 C 
BRANCH   3   4
ATOM      4  C   UNL     1      16.972  18.613   1.365  1.00  0.00     0.000 C 
BRANCH   4   5
ATOM      5  C   UNL     1      16.480  17.202   1.734  1.00  0.00     0.000 C 
BRANCH   5   6
ATOM      6  C   UNL     1      15.207  16.796   0.970  1.00  0.00     0.000 C 
BRANCH   6   7
ATOM      7  C   UNL     1      15.522  16.138  -0.386  1.00  0.00     0.000 C 
BRANCH   7   8
ATOM      8  C   UNL     1      15.504  17.130  -1.565  1.00  0.00     0.000 C 
BRANCH   8   9
ATOM      9  C   UNL     1      14.467  18.250  -1.366  1.00  0.00     0.000 C 
BRANCH   9  10
ATOM     10  C   UNL     1      13.899  18.776  -2.694  1.00  0.00     0.000 C 
BRANCH  10  11
ATOM     11  C   UNL     1      14.642  18.220  -3.918  1.00  0.00     0.000 C 
BRANCH  11  12
ATOM     12  C   UNL     1      13.714  17.463  -4.884  1.00  0.00     0.000 C 
BRANCH  12  13
ATOM     13  C   UNL     1      12.971  16.278  -4.232  1.00  0.00     0.006 C 
BRANCH  13  14
ATOM     14  C   UNL     1      12.629  15.178  -5.245  1.00  0.00     0.053 C 
BRANCH  14  15
ATOM     15  C   UNL     1      11.642  14.217  -4.663  1.00  0.00     0.041 C 
ATOM     16  O   UNL     1      10.482  14.608  -4.360  1.00  0.00    -0.550 OA
ATOM     17  O   UNL     1      11.982  12.878  -4.505  1.00  0.00    -0.550 OA
ENDBRANCH  14  15
ENDBRANCH  13  14
ENDBRANCH  12  13
ENDBRANCH  11  12
ENDBRANCH  10  11
ENDBRANCH   9  10
ENDBRANCH   8   9
ENDBRANCH   7   8
ENDBRANCH   6   7
ENDBRANCH   5   6
ENDBRANCH   4   5
ENDBRANCH   3   4
ENDBRANCH   2   3
ENDBRANCH   1   2
BRANCH   1  18
ATOM     18  C   UNL     1      20.248  17.342   2.676  1.00  0.00     0.000 C 
BRANCH  18  19
ATOM     19  C   UNL     1      21.690  17.706   3.084  1.00  0.00     0.000 C 
BRANCH  19  20
ATOM     20  C   UNL     1      22.146  17.111   4.428  1.00  0.00     0.000 C 
BRANCH  20  21
ATOM     21  C   UNL     1      23.398  16.231   4.292  1.00  0.00     0.000 C 
BRANCH  21  22
ATOM     22  C   UNL     1      24.193  16.198   5.606  1.00  0.00     0.000 C 
BRANCH  22  23
ATOM     23  C   UNL     1      24.524  14.766   6.062  1.00  0.00     0.000 C 
BRANCH  23  24
ATOM     24  C   UNL     1      24.164  13.714   5.000  1.00  0.00    -0.000 C 
BRANCH  24  25
ATOM     25  C   UNL     1      23.194  12.644   5.530  1.00  0.00    -0.000 C 
BRANCH  25  26
ATOM     26  C   UNL     1      22.220  13.192   6.584  1.00  0.00    -0.000 C 
BRANCH  26  27
ATOM     27  C   UNL     1      21.015  13.867   5.916  1.00  0.00    -0.000 C 
BRANCH  27  28
ATOM     28  C   UNL     1      20.192  14.666   6.937  1.00  0.00    -0.000 C 
BRANCH  28  29
ATOM     29  C   UNL     1      19.379  15.798   6.288  1.00  0.00    -0.000 C 
BRANCH  29  30
ATOM     30  C   UNL     1      18.722  16.725   7.327  1.00  0.00    -0.000 C 
BRANCH  30  31
ATOM     31  C   UNL     1      19.672  17.828   7.817  1.00  0.00    -0.003 C 
ATOM     32  C   UNL     1      19.320  18.339   9.213  1.00  0.00     0.004 C 
ENDBRANCH  30  31
ENDBRANCH  29  30
ENDBRANCH  28  29
ENDBRANCH  27  28
ENDBRANCH  26  27
ENDBRANCH  25  26
ENDBRANCH  24  25
ENDBRANCH  23  24
ENDBRANCH  22  23
ENDBRANCH  21  22
ENDBRANCH  20  21
ENDBRANCH  19  20
ENDBRANCH  18  19
ENDBRANCH   1  18
TORSDOF 28
ENDMDL
MODEL 5
REMARK VINA RESULT:    -3.985      7.422     11.993
REMARK INTER + INTRA:         -15.968
REMARK INTER:                 -14.060
REMARK INTRA:                  -1.909
REMARK UNBOUND:                -5.460
REMARK SMILES CCCCCCCCCCCCCCCCCCCCCCCCCCCCCC(=O)[O-]
REMARK SMILES IDX 16 1 17 2 18 3 19 4 20 5 21 6 22 7 23 8 24 9 25 10 26 11
REMARK SMILES IDX 27 12 28 13 29 14 30 15 31 16 32 17 15 18 14 19 13 20 12 21
REMARK SMILES IDX 11 22 10 23 9 24 8 25 7 26 6 27 5 28 4 29 3 30 2 31 1 32
REMARK H PARENT
REMARK Flexibility Score: inf
ROOT
ATOM      1  C   UNL     1       8.791   9.399  -1.891  1.00  0.00     0.000 C 
ENDROOT
BRANCH   1   2
ATOM      2  C   UNL     1       8.092  10.678  -2.388  1.00  0.00     0.000 C 
BRANCH   2   3
ATOM      3  C   UNL     1       9.044  11.883  -2.480  1.00  0.00     0.000 C 
BRANCH   3   4
ATOM      4  C   UNL     1      10.465  11.558  -1.987  1.00  0.00     0.000 C 
BRANCH   4   5
ATOM      5  C   UNL     1      11.598  12.004  -2.929  1.00  0.00     0.000 C 
BRANCH   5   6
ATOM      6  C   UNL     1      11.157  13.100  -3.916  1.00  0.00     0.000 C 
BRANCH   6   7
ATOM      7  C   UNL     1      12.069  13.175  -5.155  1.00  0.00     0.000 C 
BRANCH   7   8
ATOM      8  C   UNL     1      12.023  14.541  -5.865  1.00  0.00     0.000 C 
BRANCH   8   9
ATOM      9  C   UNL     1      12.025  15.715  -4.868  1.00  0.00     0.000 C 
BRANCH   9  10
ATOM     10  C   UNL     1      13.421  16.004  -4.293  1.00  0.00     0.000 C 
BRANCH  10  11
ATOM     11  C   UNL     1      14.087  17.228  -4.942  1.00  0.00     0.000 C 
BRANCH  11  12
ATOM     12  C   UNL     1      14.266  18.398  -3.959  1.00  0.00     0.000 C 
BRANCH  12  13
ATOM     13  C   UNL     1      14.618  17.954  -2.523  1.00  0.00     0.006 C 
BRANCH  13  14
ATOM     14  C   UNL     1      16.132  17.866  -2.297  1.00  0.00     0.053 C 
BRANCH  14  15
ATOM     15  C   UNL     1      16.470  16.682  -1.447  1.00  0.00     0.041 C 
ATOM     16  O   UNL     1      17.657  16.262  -1.391  1.00  0.00    -0.550 OA
ATOM     17  O   UNL     1      15.485  16.074  -0.677  1.00  0.00    -0.550 OA
ENDBRANCH  14  15
ENDBRANCH  13  14
ENDBRANCH  12  13
ENDBRANCH  11  12
ENDBRANCH  10  11
ENDBRANCH   9  10
ENDBRANCH   8   9
ENDBRANCH   7   8
ENDBRANCH   6   7
ENDBRANCH   5   6
ENDBRANCH   4   5
ENDBRANCH   3   4
ENDBRANCH   2   3
ENDBRANCH   1   2
BRANCH   1  18
ATOM     18  C   UNL     1       8.481   8.124  -2.700  1.00  0.00     0.000 C 
BRANCH  18  19
ATOM     19  C   UNL     1       8.484   6.813  -1.887  1.00  0.00     0.000 C 
BRANCH  19  20
ATOM     20  C   UNL     1       9.509   5.767  -2.360  1.00  0.00     0.000 C 
BRANCH  20  21
ATOM     21  C   UNL     1       9.387   4.435  -1.607  1.00  0.00     0.000 C 
BRANCH  21  22
ATOM     22  C   UNL     1       8.519   4.590  -0.349  1.00  0.00     0.000 C 
BRANCH  22  23
ATOM     23  C   UNL     1       9.061   3.788   0.847  1.00  0.00     0.000 C 
BRANCH  23  24
ATOM     24  C   UNL     1      10.598   3.762   0.889  1.00  0.00    -0.000 C 
BRANCH  24  25
ATOM     25  C   UNL     1      11.197   5.046   1.485  1.00  0.00    -0.000 C 
BRANCH  25  26
ATOM     26  C   UNL     1      12.557   4.813   2.161  1.00  0.00    -0.000 C 
BRANCH  26  27
ATOM     27  C   UNL     1      13.317   3.668   1.478  1.00  0.00    -0.000 C 
BRANCH  27  28
ATOM     28  C   UNL     1      14.794   4.034   1.264  1.00  0.00    -0.000 C 
BRANCH  28  29
ATOM     29  C   UNL     1      15.755   3.021   1.907  1.00  0.00    -0.000 C 
BRANCH  29  30
ATOM     30  C   UNL     1      15.212   1.582   1.865  1.00  0.00    -0.000 C 
BRANCH  30  31
ATOM     31  C   UNL     1      15.692   0.737   3.055  1.00  0.00    -0.003 C 
ATOM     32  C   UNL     1      15.608   1.482   4.386  1.00  0.00     0.004 C 
ENDBRANCH  30  31
ENDBRANCH  29  30
ENDBRANCH  28  29
ENDBRANCH  27  28
ENDBRANCH  26  27
ENDBRANCH  25  26
ENDBRANCH  24  25
ENDBRANCH  23  24
ENDBRANCH  22  23
ENDBRANCH  21  22
ENDBRANCH  20  21
ENDBRANCH  19  20
ENDBRANCH  18  19
ENDBRANCH   1  18
TORSDOF 28
ENDMDL
MODEL 6
REMARK VINA RESULT:    -3.921      8.039     12.282
REMARK INTER + INTRA:         -15.800
REMARK INTER:                 -14.105
REMARK INTRA:                  -1.695
REMARK UNBOUND:                -5.460
REMARK SMILES CCCCCCCCCCCCCCCCCCCCCCCCCCCCCC(=O)[O-]
REMARK SMILES IDX 16 1 17 2 18 3 19 4 20 5 21 6 22 7 23 8 24 9 25 10 26 11
REMARK SMILES IDX 27 12 28 13 29 14 30 15 31 16 32 17 15 18 14 19 13 20 12 21
REMARK SMILES IDX 11 22 10 23 9 24 8 25 7 26 6 27 5 28 4 29 3 30 2 31 1 32
REMARK H PARENT
REMARK Flexibility Score: inf
ROOT
ATOM      1  C   UNL     1       9.281   9.799  -1.979  1.00  0.00     0.000 C 
ENDROOT
BRANCH   1   2
ATOM      2  C   UNL     1       9.290  11.288  -2.372  1.00  0.00     0.000 C 
BRANCH   2   3
ATOM      3  C   UNL     1      10.709  11.872  -2.475  1.00  0.00     0.000 C 
BRANCH   3   4
ATOM      4  C   UNL     1      10.815  12.999  -3.517  1.00  0.00     0.000 C 
BRANCH   4   5
ATOM      5  C   UNL     1      11.929  12.815  -4.563  1.00  0.00     0.000 C 
BRANCH   5   6
ATOM      6  C   UNL     1      12.285  14.123  -5.292  1.00  0.00     0.000 C 
BRANCH   6   7
ATOM      7  C   UNL     1      12.674  15.250  -4.317  1.00  0.00     0.000 C 
BRANCH   7   8
ATOM      8  C   UNL     1      12.772  16.632  -4.990  1.00  0.00     0.000 C 
BRANCH   8   9
ATOM      9  C   UNL     1      14.140  17.299  -4.753  1.00  0.00     0.000 C 
BRANCH   9  10
ATOM     10  C   UNL     1      14.036  18.590  -3.924  1.00  0.00     0.000 C 
BRANCH  10  11
ATOM     11  C   UNL     1      15.051  18.636  -2.771  1.00  0.00     0.000 C 
BRANCH  11  12
ATOM     12  C   UNL     1      15.662  17.258  -2.462  1.00  0.00     0.000 C 
BRANCH  12  13
ATOM     13  C   UNL     1      15.336  16.739  -1.045  1.00  0.00     0.006 C 
BRANCH  13  14
ATOM     14  C   UNL     1      16.601  16.469  -0.220  1.00  0.00     0.053 C 
BRANCH  14  15
ATOM     15  C   UNL     1      16.808  17.549   0.793  1.00  0.00     0.041 C 
ATOM     16  O   UNL     1      17.703  17.428   1.672  1.00  0.00    -0.550 OA
ATOM     17  O   UNL     1      16.050  18.714   0.735  1.00  0.00    -0.550 OA
ENDBRANCH  14  15
ENDBRANCH  13  14
ENDBRANCH  12  13
ENDBRANCH  11  12
ENDBRANCH  10  11
ENDBRANCH   9  10
ENDBRANCH   8   9
ENDBRANCH   7   8
ENDBRANCH   6   7
ENDBRANCH   5   6
ENDBRANCH   4   5
ENDBRANCH   3   4
ENDBRANCH   2   3
ENDBRANCH   1   2
BRANCH   1  18
ATOM     18  C   UNL     1       7.951   9.060  -2.231  1.00  0.00     0.000 C 
BRANCH  18  19
ATOM     19  C   UNL     1       8.016   7.526  -2.090  1.00  0.00     0.000 C 
BRANCH  19  20
ATOM     20  C   UNL     1       9.398   6.913  -2.379  1.00  0.00     0.000 C 
BRANCH  20  21
ATOM     21  C   UNL     1       9.515   5.460  -1.895  1.00  0.00     0.000 C 
BRANCH  21  22
ATOM     22  C   UNL     1       8.445   5.143  -0.839  1.00  0.00     0.000 C 
BRANCH  22  23
ATOM     23  C   UNL     1       8.936   5.398   0.597  1.00  0.00     0.000 C 
BRANCH  23  24
ATOM     24  C   UNL     1      10.460   5.591   0.670  1.00  0.00    -0.000 C 
BRANCH  24  25
ATOM     25  C   UNL     1      11.165   4.458   1.434  1.00  0.00    -0.000 C 
BRANCH  25  26
ATOM     26  C   UNL     1      12.614   4.804   1.811  1.00  0.00    -0.000 C 
BRANCH  26  27
ATOM     27  C   UNL     1      13.474   3.536   1.894  1.00  0.00    -0.000 C 
BRANCH  27  28
ATOM     28  C   UNL     1      14.950   3.849   1.600  1.00  0.00    -0.000 C 
BRANCH  28  29
ATOM     29  C   UNL     1      15.758   2.598   1.221  1.00  0.00    -0.000 C 
BRANCH  29  30
ATOM     30  C   UNL     1      16.256   2.635  -0.235  1.00  0.00    -0.000 C 
BRANCH  30  31
ATOM     31  C   UNL     1      15.801   3.899  -0.981  1.00  0.00    -0.003 C 
ATOM     32  C   UNL     1      14.814   3.602  -2.108  1.00  0.00     0.004 C 
ENDBRANCH  30  31
ENDBRANCH  29  30
ENDBRANCH  28  29
ENDBRANCH  27  28
ENDBRANCH  26  27
ENDBRANCH  25  26
ENDBRANCH  24  25
ENDBRANCH  23  24
ENDBRANCH  22  23
ENDBRANCH  21  22
ENDBRANCH  20  21
ENDBRANCH  19  20
ENDBRANCH  18  19
ENDBRANCH   1  18
TORSDOF 28
ENDMDL
MODEL 7
REMARK VINA RESULT:    -3.865      6.275      9.673
REMARK INTER + INTRA:         -15.651
REMARK INTER:                 -13.356
REMARK INTRA:                  -2.294
REMARK UNBOUND:                -5.460
REMARK SMILES CCCCCCCCCCCCCCCCCCCCCCCCCCCCCC(=O)[O-]
REMARK SMILES IDX 16 1 17 2 18 3 19 4 20 5 21 6 22 7 23 8 24 9 25 10 26 11
REMARK SMILES IDX 27 12 28 13 29 14 30 15 31 16 32 17 15 18 14 19 13 20 12 21
REMARK SMILES IDX 11 22 10 23 9 24 8 25 7 26 6 27 5 28 4 29 3 30 2 31 1 32
REMARK H PARENT
REMARK Flexibility Score: inf
ROOT
ATOM      1  C   UNL     1       9.048   7.331  -0.608  1.00  0.00     0.000 C 
ENDROOT
BRANCH   1   2
ATOM      2  C   UNL     1       9.426   6.463  -1.823  1.00  0.00     0.000 C 
BRANCH   2   3
ATOM      3  C   UNL     1      10.040   5.110  -1.424  1.00  0.00     0.000 C 
BRANCH   3   4
ATOM      4  C   UNL     1       9.250   4.402  -0.309  1.00  0.00     0.000 C 
BRANCH   4   5
ATOM      5  C   UNL     1      10.039   4.155   0.990  1.00  0.00     0.000 C 
BRANCH   5   6
ATOM      6  C   UNL     1      11.230   5.116   1.156  1.00  0.00     0.000 C 
BRANCH   6   7
ATOM      7  C   UNL     1      12.388   4.481   1.949  1.00  0.00     0.000 C 
BRANCH   7   8
ATOM      8  C   UNL     1      12.075   3.059   2.453  1.00  0.00     0.000 C 
BRANCH   8   9
ATOM      9  C   UNL     1      13.051   2.012   1.886  1.00  0.00     0.000 C 
BRANCH   9  10
ATOM     10  C   UNL     1      13.464   2.310   0.435  1.00  0.00     0.000 C 
BRANCH  10  11
ATOM     11  C   UNL     1      12.430   1.817  -0.589  1.00  0.00     0.000 C 
BRANCH  11  12
ATOM     12  C   UNL     1      12.942   0.632  -1.427  1.00  0.00     0.000 C 
BRANCH  12  13
ATOM     13  C   UNL     1      14.047   1.016  -2.434  1.00  0.00     0.006 C 
BRANCH  13  14
ATOM     14  C   UNL     1      15.398   0.378  -2.085  1.00  0.00     0.053 C 
BRANCH  14  15
ATOM     15  C   UNL     1      16.470   1.419  -2.023  1.00  0.00     0.041 C 
ATOM     16  O   UNL     1      17.678   1.092  -2.176  1.00  0.00    -0.550 OA
ATOM     17  O   UNL     1      16.134   2.757  -1.850  1.00  0.00    -0.550 OA
ENDBRANCH  14  15
ENDBRANCH  13  14
ENDBRANCH  12  13
ENDBRANCH  11  12
ENDBRANCH  10  11
ENDBRANCH   9  10
ENDBRANCH   8   9
ENDBRANCH   7   8
ENDBRANCH   6   7
ENDBRANCH   5   6
ENDBRANCH   4   5
ENDBRANCH   3   4
ENDBRANCH   2   3
ENDBRANCH   1   2
BRANCH   1  18
ATOM     18  C   UNL     1       8.242   8.604  -0.934  1.00  0.00     0.000 C 
BRANCH  18  19
ATOM     19  C   UNL     1       8.679   9.347  -2.213  1.00  0.00     0.000 C 
BRANCH  19  20
ATOM     20  C   UNL     1       7.998  10.710  -2.427  1.00  0.00     0.000 C 
BRANCH  20  21
ATOM     21  C   UNL     1       9.006  11.859  -2.579  1.00  0.00     0.000 C 
BRANCH  21  22
ATOM     22  C   UNL     1      10.365  11.484  -1.970  1.00  0.00     0.000 C 
BRANCH  22  23
ATOM     23  C   UNL     1      11.544  11.827  -2.897  1.00  0.00     0.000 C 
BRANCH  23  24
ATOM     24  C   UNL     1      11.298  13.110  -3.709  1.00  0.00    -0.000 C 
BRANCH  24  25
ATOM     25  C   UNL     1      11.999  13.090  -5.078  1.00  0.00    -0.000 C 
BRANCH  25  26
ATOM     26  C   UNL     1      12.532  14.469  -5.496  1.00  0.00    -0.000 C 
BRANCH  26  27
ATOM     27  C   UNL     1      12.322  15.498  -4.378  1.00  0.00    -0.000 C 
BRANCH  27  28
ATOM     28  C   UNL     1      13.363  16.625  -4.462  1.00  0.00    -0.000 C 
BRANCH  28  29
ATOM     29  C   UNL     1      14.066  16.884  -3.119  1.00  0.00    -0.000 C 
BRANCH  29  30
ATOM     30  C   UNL     1      15.066  18.052  -3.191  1.00  0.00    -0.000 C 
BRANCH  30  31
ATOM     31  C   UNL     1      15.995  18.107  -1.969  1.00  0.00    -0.003 C 
ATOM     32  C   UNL     1      16.863  16.858  -1.826  1.00  0.00     0.004 C 
ENDBRANCH  30  31
ENDBRANCH  29  30
ENDBRANCH  28  29
ENDBRANCH  27  28
ENDBRANCH  26  27
ENDBRANCH  25  26
ENDBRANCH  24  25
ENDBRANCH  23  24
ENDBRANCH  22  23
ENDBRANCH  21  22
ENDBRANCH  20  21
ENDBRANCH  19  20
ENDBRANCH  18  19
ENDBRANCH   1  18
TORSDOF 28
ENDMDL
MODEL 8
REMARK VINA RESULT:    -3.760      4.694      7.963
REMARK INTER + INTRA:         -15.376
REMARK INTER:                 -12.627
REMARK INTRA:                  -2.749
REMARK UNBOUND:                -5.460
REMARK SMILES CCCCCCCCCCCCCCCCCCCCCCCCCCCCCC(=O)[O-]
REMARK SMILES IDX 16 1 17 2 18 3 19 4 20 5 21 6 22 7 23 8 24 9 25 10 26 11
REMARK SMILES IDX 27 12 28 13 29 14 30 15 31 16 32 17 15 18 14 19 13 20 12 21
REMARK SMILES IDX 11 22 10 23 9 24 8 25 7 26 6 27 5 28 4 29 3 30 2 31 1 32
REMARK H PARENT
REMARK Flexibility Score: inf
ROOT
ATOM      1  C   UNL     1      11.534   5.009   1.715  1.00  0.00     0.000 C 
ENDROOT
BRANCH   1   2
ATOM      2  C   UNL     1      11.523   3.831   2.707  1.00  0.00     0.000 C 
BRANCH   2   3
ATOM      3  C   UNL     1      10.619   2.672   2.251  1.00  0.00     0.000 C 
BRANCH   3   4
ATOM      4  C   UNL     1      11.332   1.309   2.292  1.00  0.00     0.000 C 
BRANCH   4   5
ATOM      5  C   UNL     1      12.173   0.977   1.047  1.00  0.00     0.000 C 
BRANCH   5   6
ATOM      6  C   UNL     1      13.547   0.377   1.398  1.00  0.00     0.000 C 
BRANCH   6   7
ATOM      7  C   UNL     1      13.975   0.699   2.842  1.00  0.00     0.000 C 
BRANCH   7   8
ATOM      8  C   UNL     1      15.401   1.276   2.941  1.00  0.00     0.000 C 
BRANCH   8   9
ATOM      9  C   UNL     1      15.754   2.165   1.735  1.00  0.00     0.000 C 
BRANCH   9  10
ATOM     10  C   UNL     1      14.920   3.456   1.684  1.00  0.00     0.000 C 
BRANCH  10  11
ATOM     11  C   UNL     1      15.338   4.386   0.536  1.00  0.00     0.000 C 
BRANCH  11  12
ATOM     12  C   UNL     1      16.257   3.694  -0.486  1.00  0.00     0.000 C 
BRANCH  12  13
ATOM     13  C   UNL     1      15.573   3.405  -1.839  1.00  0.00     0.006 C 
BRANCH  13  14
ATOM     14  C   UNL     1      14.505   2.310  -1.729  1.00  0.00     0.053 C 
BRANCH  14  15
ATOM     15  C   UNL     1      15.087   0.973  -2.065  1.00  0.00     0.041 C 
ATOM     16  O   UNL     1      14.361  -0.057  -2.038  1.00  0.00    -0.550 OA
ATOM     17  O   UNL     1      16.416   0.870  -2.458  1.00  0.00    -0.550 OA
ENDBRANCH  14  15
ENDBRANCH  13  14
ENDBRANCH  12  13
ENDBRANCH  11  12
ENDBRANCH  10  11
ENDBRANCH   9  10
ENDBRANCH   8   9
ENDBRANCH   7   8
ENDBRANCH   6   7
ENDBRANCH   5   6
ENDBRANCH   4   5
ENDBRANCH   3   4
ENDBRANCH   2   3
ENDBRANCH   1   2
BRANCH   1  18
ATOM     18  C   UNL     1      10.685   4.805   0.444  1.00  0.00     0.000 C 
BRANCH  18  19
ATOM     19  C   UNL     1       9.743   5.974   0.090  1.00  0.00     0.000 C 
BRANCH  19  20
ATOM     20  C   UNL     1       9.585   6.237  -1.418  1.00  0.00     0.000 C 
BRANCH  20  21
ATOM     21  C   UNL     1       8.280   6.972  -1.758  1.00  0.00     0.000 C 
BRANCH  21  22
ATOM     22  C   UNL     1       8.547   8.171  -2.680  1.00  0.00     0.000 C 
BRANCH  22  23
ATOM     23  C   UNL     1       8.730   9.486  -1.903  1.00  0.00     0.000 C 
BRANCH  23  24
ATOM     24  C   UNL     1       8.217  10.707  -2.685  1.00  0.00    -0.000 C 
BRANCH  24  25
ATOM     25  C   UNL     1       9.101  11.950  -2.490  1.00  0.00    -0.000 C 
BRANCH  25  26
ATOM     26  C   UNL     1      10.502  11.609  -1.959  1.00  0.00    -0.000 C 
BRANCH  26  27
ATOM     27  C   UNL     1      11.573  11.892  -3.021  1.00  0.00    -0.000 C 
BRANCH  27  28
ATOM     28  C   UNL     1      11.224  13.147  -3.837  1.00  0.00    -0.000 C 
BRANCH  28  29
ATOM     29  C   UNL     1      12.238  13.425  -4.958  1.00  0.00    -0.000 C 
BRANCH  29  30
ATOM     30  C   UNL     1      12.313  14.917  -5.330  1.00  0.00    -0.000 C 
BRANCH  30  31
ATOM     31  C   UNL     1      13.122  15.737  -4.314  1.00  0.00    -0.003 C 
ATOM     32  C   UNL     1      13.770  16.976  -4.931  1.00  0.00     0.004 C 
ENDBRANCH  30  31
ENDBRANCH  29  30
ENDBRANCH  28  29
ENDBRANCH  27  28
ENDBRANCH  26  27
ENDBRANCH  25  26
ENDBRANCH  24  25
ENDBRANCH  23  24
ENDBRANCH  22  23
ENDBRANCH  21  22
ENDBRANCH  20  21
ENDBRANCH  19  20
ENDBRANCH  18  19
ENDBRANCH   1  18
TORSDOF 28
ENDMDL
MODEL 9
REMARK VINA RESULT:    -3.740      7.554     11.795
REMARK INTER + INTRA:         -15.323
REMARK INTER:                 -13.256
REMARK INTRA:                  -2.068
REMARK UNBOUND:                -5.460
REMARK SMILES CCCCCCCCCCCCCCCCCCCCCCCCCCCCCC(=O)[O-]
REMARK SMILES IDX 16 1 17 2 18 3 19 4 20 5 21 6 22 7 23 8 24 9 25 10 26 11
REMARK SMILES IDX 27 12 28 13 29 14 30 15 31 16 32 17 15 18 14 19 13 20 12 21
REMARK SMILES IDX 11 22 10 23 9 24 8 25 7 26 6 27 5 28 4 29 3 30 2 31 1 32
REMARK H PARENT
REMARK Flexibility Score: inf
ROOT
ATOM      1  C   UNL     1       7.878   8.227  -1.829  1.00  0.00     0.000 C 
ENDROOT
BRANCH   1   2
ATOM      2  C   UNL     1       8.125   9.685  -2.261  1.00  0.00     0.000 C 
BRANCH   2   3
ATOM      3  C   UNL     1       9.560  10.160  -1.973  1.00  0.00     0.000 C 
BRANCH   3   4
ATOM      4  C   UNL     1       9.799  11.621  -2.393  1.00  0.00     0.000 C 
BRANCH   4   5
ATOM      5  C   UNL     1      11.278  12.030  -2.508  1.00  0.00     0.000 C 
BRANCH   5   6
ATOM      6  C   UNL     1      11.651  12.532  -3.915  1.00  0.00     0.000 C 
BRANCH   6   7
ATOM      7  C   UNL     1      11.330  14.026  -4.108  1.00  0.00     0.000 C 
BRANCH   7   8
ATOM      8  C   UNL     1      12.416  14.786  -4.894  1.00  0.00     0.000 C 
BRANCH   8   9
ATOM      9  C   UNL     1      13.048  15.919  -4.066  1.00  0.00     0.000 C 
BRANCH   9  10
ATOM     10  C   UNL     1      13.923  16.857  -4.913  1.00  0.00     0.000 C 
BRANCH  10  11
ATOM     11  C   UNL     1      14.231  18.184  -4.202  1.00  0.00     0.000 C 
BRANCH  11  12
ATOM     12  C   UNL     1      14.497  18.004  -2.697  1.00  0.00     0.000 C 
BRANCH  12  13
ATOM     13  C   UNL     1      15.986  18.129  -2.311  1.00  0.00     0.006 C 
BRANCH  13  14
ATOM     14  C   UNL     1      16.556  16.816  -1.759  1.00  0.00     0.053 C 
BRANCH  14  15
ATOM     15  C   UNL     1      17.232  17.048  -0.445  1.00  0.00     0.041 C 
ATOM     16  O   UNL     1      16.678  17.762   0.434  1.00  0.00    -0.550 OA
ATOM     17  O   UNL     1      18.448  16.434  -0.169  1.00  0.00    -0.550 OA
ENDBRANCH  14  15
ENDBRANCH  13  14
ENDBRANCH  12  13
ENDBRANCH  11  12
ENDBRANCH  10  11
ENDBRANCH   9  10
ENDBRANCH   8   9
ENDBRANCH   7   8
ENDBRANCH   6   7
ENDBRANCH   5   6
ENDBRANCH   4   5
ENDBRANCH   3   4
ENDBRANCH   2   3
ENDBRANCH   1   2
BRANCH   1  18
ATOM     18  C   UNL     1       8.574   7.158  -2.696  1.00  0.00     0.000 C 
BRANCH  18  19
ATOM     19  C   UNL     1       9.662   6.336  -1.975  1.00  0.00     0.000 C 
BRANCH  19  20
ATOM     20  C   UNL     1       9.552   6.330  -0.440  1.00  0.00     0.000 C 
BRANCH  20  21
ATOM     21  C   UNL     1      10.337   5.180   0.206  1.00  0.00     0.000 C 
BRANCH  21  22
ATOM     22  C   UNL     1      10.458   3.987  -0.754  1.00  0.00     0.000 C 
BRANCH  22  23
ATOM     23  C   UNL     1      11.113   2.760  -0.095  1.00  0.00     0.000 C 
BRANCH  23  24
ATOM     24  C   UNL     1      12.068   2.022  -1.048  1.00  0.00    -0.000 C 
BRANCH  24  25
ATOM     25  C   UNL     1      13.096   2.961  -1.702  1.00  0.00    -0.000 C 
BRANCH  25  26
ATOM     26  C   UNL     1      14.492   2.330  -1.816  1.00  0.00    -0.000 C 
BRANCH  26  27
ATOM     27  C   UNL     1      15.577   3.413  -1.882  1.00  0.00    -0.000 C 
BRANCH  27  28
ATOM     28  C   UNL     1      16.406   3.444  -0.588  1.00  0.00    -0.000 C 
BRANCH  28  29
ATOM     29  C   UNL     1      15.600   3.946   0.621  1.00  0.00    -0.000 C 
BRANCH  29  30
ATOM     30  C   UNL     1      15.687   2.992   1.826  1.00  0.00    -0.000 C 
BRANCH  30  31
ATOM     31  C   UNL     1      14.674   1.840   1.739  1.00  0.00    -0.003 C 
ATOM     32  C   UNL     1      15.334   0.463   1.802  1.00  0.00     0.004 C 
ENDBRANCH  30  31
ENDBRANCH  29  30
ENDBRANCH  28  29
ENDBRANCH  27  28
ENDBRANCH  26  27
ENDBRANCH  25  26
ENDBRANCH  24  25
ENDBRANCH  23  24
ENDBRANCH  22  23
ENDBRANCH  21  22
ENDBRANCH  20  21
ENDBRANCH  19  20
ENDBRANCH  18  19
ENDBRANCH   1  18
TORSDOF 28
ENDMDL
