MODEL 1
REMARK VINA RESULT:    -3.669      0.000      0.000
REMARK INTER + INTRA:          -8.798
REMARK INTER:                  -6.672
REMARK INTRA:                  -2.126
REMARK UNBOUND:                -2.126
REMARK SMILES CCCCCCCCCCCCCCCC(=O)[O-]
REMARK SMILES IDX 9 1 10 2 11 3 12 4 13 5 14 6 15 7 16 8 17 9 18 10 8 11 7 12
REMARK SMILES IDX 6 13 5 14 4 15 3 16 2 17 1 18
REMARK H PARENT
REMARK Flexibility Score: inf
ROOT
ATOM      1  C   UNL     1      11.703   3.004  51.800  1.00  0.00     0.000 C 
ENDROOT
BRANCH   1   2
ATOM      2  C   UNL     1      10.375   2.225  51.774  1.00  0.00     0.000 C 
BRANCH   2   3
ATOM      3  C   UNL     1       9.555   2.374  50.480  1.00  0.00     0.000 C 
BRANCH   3   4
ATOM      4  C   UNL     1       8.076   1.998  50.659  1.00  0.00     0.000 C 
BRANCH   4   5
ATOM      5  C   UNL     1       7.166   3.202  50.375  1.00  0.00     0.000 C 
BRANCH   5   6
ATOM      6  C   UNL     1       6.189   3.496  51.528  1.00  0.00     0.006 C 
BRANCH   6   7
ATOM      7  C   UNL     1       5.585   4.909  51.500  1.00  0.00     0.053 C 
BRANCH   7   8
ATOM      8  C   UNL     1       4.126   4.890  51.154  1.00  0.00     0.041 C 
ATOM      9  O   UNL     1       3.505   5.970  50.971  1.00  0.00    -0.550 OA
ATOM     10  O   UNL     1       3.464   3.680  50.998  1.00  0.00    -0.550 OA
ENDBRANCH   7   8
ENDBRANCH   6   7
ENDBRANCH   5   6
ENDBRANCH   4   5
ENDBRANCH   3   4
ENDBRANCH   2   3
ENDBRANCH   1   2
BRANCH   1  11
ATOM     11  C   UNL     1      11.810   4.042  50.669  1.00  0.00     0.000 C 
BRANCH  11  12
ATOM     12  C   UNL     1      11.693   5.487  51.182  1.00  0.00    -0.000 C 
BRANCH  12  13
ATOM     13  C   UNL     1      10.468   6.221  50.615  1.00  0.00    -0.000 C 
BRANCH  13  14
ATOM     14  C   UNL     1       9.229   5.969  51.483  1.00  0.00    -0.000 C 
BRANCH  14  15
ATOM     15  C   UNL     1       9.624   5.712  52.945  1.00  0.00    -0.000 C 
BRANCH  15  16
ATOM     16  C   UNL     1       8.606   4.835  53.696  1.00  0.00    -0.000 C 
BRANCH  16  17
ATOM     17  C   UNL     1       8.250   5.325  55.111  1.00  0.00    -0.003 C 
ATOM     18  C   UNL     1       7.034   4.611  55.702  1.00  0.00     0.004 C 
ENDBRANCH  16  17
ENDBRANCH  15  16
ENDBRANCH  14  15
ENDBRANCH  13  14
ENDBRANCH  12  13
ENDBRANCH  11  12
ENDBRANCH   1  11
TORSDOF 14
ENDMDL
MODEL 2
REMARK VINA RESULT:    -3.655      1.182      3.547
REMARK INTER + INTRA:          -8.772
REMARK INTER:                  -6.726
REMARK INTRA:                  -2.046
REMARK UNBOUND:                -2.126
REMARK SMILES CCCCCCCCCCCCCCCC(=O)[O-]
REMARK SMILES IDX 9 1 10 2 11 3 12 4 13 5 14 6 15 7 16 8 17 9 18 10 8 11 7 12
REMARK SMILES IDX 6 13 5 14 4 15 3 16 2 17 1 18
REMARK H PARENT
REMARK Flexibility Score: inf
ROOT
ATOM      1  C   UNL     1       7.144   4.467  54.016  1.00  0.00     0.000 C 
ENDROOT
BRANCH   1   2
ATOM      2  C   UNL     1       6.114   4.096  52.933  1.00  0.00     0.000 C 
BRANCH   2   3
ATOM      3  C   UNL     1       6.675   3.295  51.744  1.00  0.00     0.000 C 
BRANCH   3   4
ATOM      4  C   UNL     1       6.611   4.066  50.417  1.00  0.00     0.000 C 
BRANCH   4   5
ATOM      5  C   UNL     1       6.220   5.532  50.653  1.00  0.00     0.000 C 
BRANCH   5   6
ATOM      6  C   UNL     1       4.908   5.922  49.948  1.00  0.00     0.006 C 
BRANCH   6   7
ATOM      7  C   UNL     1       3.711   6.103  50.894  1.00  0.00     0.053 C 
BRANCH   7   8
ATOM      8  C   UNL     1       2.747   4.958  50.808  1.00  0.00     0.041 C 
ATOM      9  O   UNL     1       1.534   5.170  50.546  1.00  0.00    -0.550 OA
ATOM     10  O   UNL     1       3.196   3.656  50.982  1.00  0.00    -0.550 OA
ENDBRANCH   7   8
ENDBRANCH   6   7
ENDBRANCH   5   6
ENDBRANCH   4   5
ENDBRANCH   3   4
ENDBRANCH   2   3
ENDBRANCH   1   2
BRANCH   1  11
ATOM     11  C   UNL     1       8.598   4.275  53.551  1.00  0.00     0.000 C 
BRANCH  11  12
ATOM     12  C   UNL     1       9.315   5.609  53.292  1.00  0.00    -0.000 C 
BRANCH  12  13
ATOM     13  C   UNL     1       9.700   5.801  51.816  1.00  0.00    -0.000 C 
BRANCH  13  14
ATOM     14  C   UNL     1      11.220   5.912  51.656  1.00  0.00    -0.000 C 
BRANCH  14  15
ATOM     15  C   UNL     1      11.803   4.635  51.031  1.00  0.00    -0.000 C 
BRANCH  15  16
ATOM     16  C   UNL     1      12.015   3.507  52.057  1.00  0.00    -0.000 C 
BRANCH  16  17
ATOM     17  C   UNL     1      11.294   2.189  51.727  1.00  0.00    -0.003 C 
ATOM     18  C   UNL     1      10.108   2.377  50.781  1.00  0.00     0.004 C 
ENDBRANCH  16  17
ENDBRANCH  15  16
ENDBRANCH  14  15
ENDBRANCH  13  14
ENDBRANCH  12  13
ENDBRANCH  11  12
ENDBRANCH   1  11
TORSDOF 14
ENDMDL
MODEL 3
REMARK VINA RESULT:    -3.613      1.191      2.406
REMARK INTER + INTRA:          -8.696
REMARK INTER:                  -6.946
REMARK INTRA:                  -1.750
REMARK UNBOUND:                -2.126
REMARK SMILES CCCCCCCCCCCCCCCC(=O)[O-]
REMARK SMILES IDX 9 1 10 2 11 3 12 4 13 5 14 6 15 7 16 8 17 9 18 10 8 11 7 12
REMARK SMILES IDX 6 13 5 14 4 15 3 16 2 17 1 18
REMARK H PARENT
REMARK Flexibility Score: inf
ROOT
ATOM      1  C   UNL     1       8.881   2.110  50.748  1.00  0.00     0.000 C 
ENDROOT
BRANCH   1   2
ATOM      2  C   UNL     1       7.474   2.303  50.151  1.00  0.00     0.000 C 
BRANCH   2   3
ATOM      3  C   UNL     1       6.432   2.901  51.113  1.00  0.00     0.000 C 
BRANCH   3   4
ATOM      4  C   UNL     1       6.054   4.348  50.765  1.00  0.00     0.000 C 
BRANCH   4   5
ATOM      5  C   UNL     1       5.145   4.952  51.846  1.00  0.00     0.000 C 
BRANCH   5   6
ATOM      6  C   UNL     1       4.040   5.852  51.263  1.00  0.00     0.006 C 
BRANCH   6   7
ATOM      7  C   UNL     1       3.209   5.192  50.151  1.00  0.00     0.053 C 
BRANCH   7   8
ATOM      8  C   UNL     1       1.932   4.608  50.674  1.00  0.00     0.041 C 
ATOM      9  O   UNL     1       1.936   3.485  51.242  1.00  0.00    -0.550 OA
ATOM     10  O   UNL     1       0.745   5.320  50.564  1.00  0.00    -0.550 OA
ENDBRANCH   7   8
ENDBRANCH   6   7
ENDBRANCH   5   6
ENDBRANCH   4   5
ENDBRANCH   3   4
ENDBRANCH   2   3
ENDBRANCH   1   2
BRANCH   1  11
ATOM     11  C   UNL     1       9.990   2.724  49.875  1.00  0.00     0.000 C 
BRANCH  11  12
ATOM     12  C   UNL     1      10.952   3.611  50.682  1.00  0.00    -0.000 C 
BRANCH  12  13
ATOM     13  C   UNL     1      10.731   5.111  50.427  1.00  0.00    -0.000 C 
BRANCH  13  14
ATOM     14  C   UNL     1       9.570   5.645  51.273  1.00  0.00    -0.000 C 
BRANCH  14  15
ATOM     15  C   UNL     1       9.814   5.387  52.768  1.00  0.00    -0.000 C 
BRANCH  15  16
ATOM     16  C   UNL     1       8.622   4.701  53.460  1.00  0.00    -0.000 C 
BRANCH  16  17
ATOM     17  C   UNL     1       8.278   5.255  54.854  1.00  0.00    -0.003 C 
ATOM     18  C   UNL     1       6.970   4.696  55.413  1.00  0.00     0.004 C 
ENDBRANCH  16  17
ENDBRANCH  15  16
ENDBRANCH  14  15
ENDBRANCH  13  14
ENDBRANCH  12  13
ENDBRANCH  11  12
ENDBRANCH   1  11
TORSDOF 14
ENDMDL
MODEL 4
REMARK VINA RESULT:    -3.246      2.766      5.839
REMARK INTER + INTRA:          -8.029
REMARK INTER:                  -6.723
REMARK INTRA:                  -1.306
REMARK UNBOUND:                -2.126
REMARK SMILES CCCCCCCCCCCCCCCC(=O)[O-]
REMARK SMILES IDX 9 1 10 2 11 3 12 4 13 5 14 6 15 7 16 8 17 9 18 10 8 11 7 12
REMARK SMILES IDX 6 13 5 14 4 15 3 16 2 17 1 18
REMARK H PARENT
REMARK Flexibility Score: inf
ROOT
ATOM      1  C   UNL     1       8.468   5.144  54.400  1.00  0.00     0.000 C 
ENDROOT
BRANCH   1   2
ATOM      2  C   UNL     1       9.209   5.290  53.058  1.00  0.00     0.000 C 
BRANCH   2   3
ATOM      3  C   UNL     1      10.678   5.736  53.168  1.00  0.00     0.000 C 
BRANCH   3   4
ATOM      4  C   UNL     1      11.040   6.858  52.183  1.00  0.00     0.000 C 
BRANCH   4   5
ATOM      5  C   UNL     1      11.354   6.287  50.792  1.00  0.00     0.000 C 
BRANCH   5   6
ATOM      6  C   UNL     1      11.981   4.882  50.851  1.00  0.00     0.006 C 
BRANCH   6   7
ATOM      7  C   UNL     1      11.154   3.790  50.154  1.00  0.00     0.053 C 
BRANCH   7   8
ATOM      8  C   UNL     1      10.861   2.638  51.067  1.00  0.00     0.041 C 
ATOM      9  O   UNL     1       9.809   1.964  50.917  1.00  0.00    -0.550 OA
ATOM     10  O   UNL     1      11.767   2.289  52.060  1.00  0.00    -0.550 OA
ENDBRANCH   7   8
ENDBRANCH   6   7
ENDBRANCH   5   6
ENDBRANCH   4   5
ENDBRANCH   3   4
ENDBRANCH   2   3
ENDBRANCH   1   2
BRANCH   1  11
ATOM     11  C   UNL     1       7.095   4.465  54.254  1.00  0.00     0.000 C 
BRANCH  11  12
ATOM     12  C   UNL     1       6.602   4.438  52.798  1.00  0.00    -0.000 C 
BRANCH  12  13
ATOM     13  C   UNL     1       6.222   3.026  52.325  1.00  0.00    -0.000 C 
BRANCH  13  14
ATOM     14  C   UNL     1       6.327   2.911  50.800  1.00  0.00    -0.000 C 
BRANCH  14  15
ATOM     15  C   UNL     1       5.668   4.116  50.111  1.00  0.00    -0.000 C 
BRANCH  15  16
ATOM     16  C   UNL     1       4.130   4.071  50.168  1.00  0.00    -0.000 C 
BRANCH  16  17
ATOM     17  C   UNL     1       3.481   5.198  50.992  1.00  0.00    -0.003 C 
ATOM     18  C   UNL     1       4.163   6.552  50.793  1.00  0.00     0.004 C 
ENDBRANCH  16  17
ENDBRANCH  15  16
ENDBRANCH  14  15
ENDBRANCH  13  14
ENDBRANCH  12  13
ENDBRANCH  11  12
ENDBRANCH   1  11
TORSDOF 14
ENDMDL
MODEL 5
REMARK VINA RESULT:    -3.178      2.031      4.538
REMARK INTER + INTRA:          -7.905
REMARK INTER:                  -6.526
REMARK INTRA:                  -1.380
REMARK UNBOUND:                -2.126
REMARK SMILES CCCCCCCCCCCCCCCC(=O)[O-]
REMARK SMILES IDX 9 1 10 2 11 3 12 4 13 5 14 6 15 7 16 8 17 9 18 10 8 11 7 12
REMARK SMILES IDX 6 13 5 14 4 15 3 16 2 17 1 18
REMARK H PARENT
REMARK Flexibility Score: inf
ROOT
ATOM      1  C   UNL     1       7.478   5.134  51.391  1.00  0.00     0.000 C 
ENDROOT
BRANCH   1   2
ATOM      2  C   UNL     1       6.443   5.392  50.281  1.00  0.00     0.000 C 
BRANCH   2   3
ATOM      3  C   UNL     1       6.251   6.871  49.897  1.00  0.00     0.000 C 
BRANCH   3   4
ATOM      4  C   UNL     1       4.821   7.374  50.142  1.00  0.00     0.000 C 
BRANCH   4   5
ATOM      5  C   UNL     1       4.047   6.406  51.049  1.00  0.00     0.000 C 
BRANCH   5   6
ATOM      6  C   UNL     1       2.811   5.801  50.360  1.00  0.00     0.006 C 
BRANCH   6   7
ATOM      7  C   UNL     1       2.567   4.319  50.686  1.00  0.00     0.053 C 
BRANCH   7   8
ATOM      8  C   UNL     1       1.106   3.996  50.778  1.00  0.00     0.041 C 
ATOM      9  O   UNL     1       0.252   4.920  50.767  1.00  0.00    -0.550 OA
ATOM     10  O   UNL     1       0.689   2.673  50.841  1.00  0.00    -0.550 OA
ENDBRANCH   7   8
ENDBRANCH   6   7
ENDBRANCH   5   6
ENDBRANCH   4   5
ENDBRANCH   3   4
ENDBRANCH   2   3
ENDBRANCH   1   2
BRANCH   1  11
ATOM     11  C   UNL     1       7.274   3.781  52.097  1.00  0.00     0.000 C 
BRANCH  11  12
ATOM     12  C   UNL     1       7.077   2.623  51.105  1.00  0.00    -0.000 C 
BRANCH  12  13
ATOM     13  C   UNL     1       8.333   2.339  50.267  1.00  0.00    -0.000 C 
BRANCH  13  14
ATOM     14  C   UNL     1       9.540   2.053  51.169  1.00  0.00    -0.000 C 
BRANCH  14  15
ATOM     15  C   UNL     1      10.817   2.686  50.596  1.00  0.00    -0.000 C 
BRANCH  15  16
ATOM     16  C   UNL     1      10.785   4.225  50.616  1.00  0.00    -0.000 C 
BRANCH  16  17
ATOM     17  C   UNL     1      11.407   4.868  51.869  1.00  0.00    -0.003 C 
ATOM     18  C   UNL     1      10.935   6.303  52.101  1.00  0.00     0.004 C 
ENDBRANCH  16  17
ENDBRANCH  15  16
ENDBRANCH  14  15
ENDBRANCH  13  14
ENDBRANCH  12  13
ENDBRANCH  11  12
ENDBRANCH   1  11
TORSDOF 14
ENDMDL
MODEL 6
REMARK VINA RESULT:    -3.137      2.518      4.309
REMARK INTER + INTRA:          -7.831
REMARK INTER:                  -6.225
REMARK INTRA:                  -1.606
REMARK UNBOUND:                -2.126
REMARK SMILES CCCCCCCCCCCCCCCC(=O)[O-]
REMARK SMILES IDX 9 1 10 2 11 3 12 4 13 5 14 6 15 7 16 8 17 9 18 10 8 11 7 12
REMARK SMILES IDX 6 13 5 14 4 15 3 16 2 17 1 18
REMARK H PARENT
REMARK Flexibility Score: inf
ROOT
ATOM      1  C   UNL     1       8.768   2.940  50.266  1.00  0.00     0.000 C 
ENDROOT
BRANCH   1   2
ATOM      2  C   UNL     1       7.558   1.987  50.293  1.00  0.00     0.000 C 
BRANCH   2   3
ATOM      3  C   UNL     1       6.565   2.224  51.444  1.00  0.00     0.000 C 
BRANCH   3   4
ATOM      4  C   UNL     1       5.650   3.435  51.209  1.00  0.00     0.000 C 
BRANCH   4   5
ATOM      5  C   UNL     1       5.964   4.561  52.206  1.00  0.00     0.000 C 
BRANCH   5   6
ATOM      6  C   UNL     1       7.111   4.204  53.169  1.00  0.00     0.006 C 
BRANCH   6   7
ATOM      7  C   UNL     1       6.810   4.496  54.647  1.00  0.00     0.053 C 
BRANCH   7   8
ATOM      8  C   UNL     1       8.020   4.990  55.381  1.00  0.00     0.041 C 
ATOM      9  O   UNL     1       8.916   5.626  54.767  1.00  0.00    -0.550 OA
ATOM     10  O   UNL     1       8.139   4.778  56.748  1.00  0.00    -0.550 OA
ENDBRANCH   7   8
ENDBRANCH   6   7
ENDBRANCH   5   6
ENDBRANCH   4   5
ENDBRANCH   3   4
ENDBRANCH   2   3
ENDBRANCH   1   2
BRANCH   1  11
ATOM     11  C   UNL     1      10.072   2.263  50.723  1.00  0.00     0.000 C 
BRANCH  11  12
ATOM     12  C   UNL     1      10.551   2.771  52.093  1.00  0.00    -0.000 C 
BRANCH  12  13
ATOM     13  C   UNL     1      11.802   3.657  51.994  1.00  0.00    -0.000 C 
BRANCH  13  14
ATOM     14  C   UNL     1      11.954   4.234  50.581  1.00  0.00    -0.000 C 
BRANCH  14  15
ATOM     15  C   UNL     1      12.671   5.593  50.616  1.00  0.00    -0.000 C 
BRANCH  15  16
ATOM     16  C   UNL     1      11.724   6.777  50.348  1.00  0.00    -0.000 C 
BRANCH  16  17
ATOM     17  C   UNL     1      10.314   6.383  49.875  1.00  0.00    -0.003 C 
ATOM     18  C   UNL     1       9.285   6.374  51.005  1.00  0.00     0.004 C 
ENDBRANCH  16  17
ENDBRANCH  15  16
ENDBRANCH  14  15
ENDBRANCH  13  14
ENDBRANCH  12  13
ENDBRANCH  11  12
ENDBRANCH   1  11
TORSDOF 14
ENDMDL
MODEL 7
REMARK VINA RESULT:    -3.042      2.896      5.222
REMARK INTER + INTRA:          -7.659
REMARK INTER:                  -6.384
REMARK INTRA:                  -1.274
REMARK UNBOUND:                -2.126
REMARK SMILES CCCCCCCCCCCCCCCC(=O)[O-]
REMARK SMILES IDX 9 1 10 2 11 3 12 4 13 5 14 6 15 7 16 8 17 9 18 10 8 11 7 12
REMARK SMILES IDX 6 13 5 14 4 15 3 16 2 17 1 18
REMARK H PARENT
REMARK Flexibility Score: inf
ROOT
ATOM      1  C   UNL     1       5.995   4.362  51.778  1.00  0.00     0.000 C 
ENDROOT
BRANCH   1   2
ATOM      2  C   UNL     1       4.786   4.291  50.828  1.00  0.00     0.000 C 
BRANCH   2   3
ATOM      3  C   UNL     1       3.844   5.508  50.877  1.00  0.00     0.000 C 
BRANCH   3   4
ATOM      4  C   UNL     1       2.377   5.144  50.600  1.00  0.00     0.000 C 
BRANCH   4   5
ATOM      5  C   UNL     1       2.086   3.693  51.010  1.00  0.00     0.000 C 
BRANCH   5   6
ATOM      6  C   UNL     1       1.215   2.945  49.984  1.00  0.00     0.006 C 
BRANCH   6   7
ATOM      7  C   UNL     1       0.065   2.135  50.602  1.00  0.00     0.053 C 
BRANCH   7   8
ATOM      8  C   UNL     1      -1.265   2.793  50.390  1.00  0.00     0.041 C 
ATOM      9  O   UNL     1      -2.290   2.094  50.177  1.00  0.00    -0.550 OA
ATOM     10  O   UNL     1      -1.377   4.175  50.462  1.00  0.00    -0.550 OA
ENDBRANCH   7   8
ENDBRANCH   6   7
ENDBRANCH   5   6
ENDBRANCH   4   5
ENDBRANCH   3   4
ENDBRANCH   2   3
ENDBRANCH   1   2
BRANCH   1  11
ATOM     11  C   UNL     1       6.512   2.973  52.192  1.00  0.00     0.000 C 
BRANCH  11  12
ATOM     12  C   UNL     1       6.969   2.131  50.990  1.00  0.00    -0.000 C 
BRANCH  12  13
ATOM     13  C   UNL     1       8.197   2.725  50.281  1.00  0.00    -0.000 C 
BRANCH  13  14
ATOM     14  C   UNL     1       9.493   2.119  50.830  1.00  0.00    -0.000 C 
BRANCH  14  15
ATOM     15  C   UNL     1      10.068   2.981  51.964  1.00  0.00    -0.000 C 
BRANCH  15  16
ATOM     16  C   UNL     1      10.434   4.405  51.509  1.00  0.00    -0.000 C 
BRANCH  16  17
ATOM     17  C   UNL     1       9.552   5.519  52.098  1.00  0.00    -0.003 C 
ATOM     18  C   UNL     1       9.081   5.219  53.521  1.00  0.00     0.004 C 
ENDBRANCH  16  17
ENDBRANCH  15  16
ENDBRANCH  14  15
ENDBRANCH  13  14
ENDBRANCH  12  13
ENDBRANCH  11  12
ENDBRANCH   1  11
TORSDOF 14
ENDMDL
MODEL 8
REMARK VINA RESULT:    -3.040      3.100      6.285
REMARK INTER + INTRA:          -7.655
REMARK INTER:                  -6.704
REMARK INTRA:                  -0.951
REMARK UNBOUND:                -2.126
REMARK SMILES CCCCCCCCCCCCCCCC(=O)[O-]
REMARK SMILES IDX 9 1 10 2 11 3 12 4 13 5 14 6 15 7 16 8 17 9 18 10 8 11 7 12
REMARK SMILES IDX 6 13 5 14 4 15 3 16 2 17 1 18
REMARK H PARENT
REMARK Flexibility Score: inf
ROOT
ATOM      1  C   UNL     1       7.230   3.714  52.869  1.00  0.00     0.000 C 
ENDROOT
BRANCH   1   2
ATOM      2  C   UNL     1       8.301   4.021  51.807  1.00  0.00     0.000 C 
BRANCH   2   3
ATOM      3  C   UNL     1       8.733   2.819  50.948  1.00  0.00     0.000 C 
BRANCH   3   4
ATOM      4  C   UNL     1      10.259   2.695  50.812  1.00  0.00     0.000 C 
BRANCH   4   5
ATOM      5  C   UNL     1      10.966   3.250  52.057  1.00  0.00     0.000 C 
BRANCH   5   6
ATOM      6  C   UNL     1      12.196   4.110  51.711  1.00  0.00     0.006 C 
BRANCH   6   7
ATOM      7  C   UNL     1      11.912   5.249  50.718  1.00  0.00     0.053 C 
BRANCH   7   8
ATOM      8  C   UNL     1      10.991   6.281  51.295  1.00  0.00     0.041 C 
ATOM      9  O   UNL     1      11.200   6.743  52.447  1.00  0.00    -0.550 OA
ATOM     10  O   UNL     1       9.924   6.758  50.545  1.00  0.00    -0.550 OA
ENDBRANCH   7   8
ENDBRANCH   6   7
ENDBRANCH   5   6
ENDBRANCH   4   5
ENDBRANCH   3   4
ENDBRANCH   2   3
ENDBRANCH   1   2
BRANCH   1  11
ATOM     11  C   UNL     1       5.956   4.560  52.696  1.00  0.00     0.000 C 
BRANCH  11  12
ATOM     12  C   UNL     1       5.453   4.577  51.243  1.00  0.00    -0.000 C 
BRANCH  12  13
ATOM     13  C   UNL     1       5.463   5.985  50.628  1.00  0.00    -0.000 C 
BRANCH  13  14
ATOM     14  C   UNL     1       4.096   6.329  50.024  1.00  0.00    -0.000 C 
BRANCH  14  15
ATOM     15  C   UNL     1       2.985   5.476  50.656  1.00  0.00    -0.000 C 
BRANCH  15  16
ATOM     16  C   UNL     1       1.627   5.641  49.950  1.00  0.00    -0.000 C 
BRANCH  16  17
ATOM     17  C   UNL     1       0.468   4.854  50.586  1.00  0.00    -0.003 C 
ATOM     18  C   UNL     1      -0.895   5.505  50.352  1.00  0.00     0.004 C 
ENDBRANCH  16  17
ENDBRANCH  15  16
ENDBRANCH  14  15
ENDBRANCH  13  14
ENDBRANCH  12  13
ENDBRANCH  11  12
ENDBRANCH   1  11
TORSDOF 14
ENDMDL
MODEL 9
REMARK VINA RESULT:    -2.930      5.386      8.049
REMARK INTER + INTRA:          -7.455
REMARK INTER:                  -6.763
REMARK INTRA:                  -0.692
REMARK UNBOUND:                -2.126
REMARK SMILES CCCCCCCCCCCCCCCC(=O)[O-]
REMARK SMILES IDX 9 1 10 2 11 3 12 4 13 5 14 6 15 7 16 8 17 9 18 10 8 11 7 12
REMARK SMILES IDX 6 13 5 14 4 15 3 16 2 17 1 18
REMARK H PARENT
REMARK Flexibility Score: inf
ROOT
ATOM      1  C   UNL     1       1.856   3.751  51.026  1.00  0.00     0.000 C 
ENDROOT
BRANCH   1   2
ATOM      2  C   UNL     1       0.903   4.366  49.984  1.00  0.00     0.000 C 
BRANCH   2   3
ATOM      3  C   UNL     1      -0.240   5.216  50.566  1.00  0.00     0.000 C 
BRANCH   3   4
ATOM      4  C   UNL     1      -1.624   4.798  50.046  1.00  0.00     0.000 C 
BRANCH   4   5
ATOM      5  C   UNL     1      -1.789   3.272  50.094  1.00  0.00     0.000 C 
BRANCH   5   6
ATOM      6  C   UNL     1      -3.093   2.833  50.785  1.00  0.00     0.006 C 
BRANCH   6   7
ATOM      7  C   UNL     1      -4.369   3.158  49.992  1.00  0.00     0.053 C 
BRANCH   7   8
ATOM      8  C   UNL     1      -5.373   3.901  50.821  1.00  0.00     0.041 C 
ATOM      9  O   UNL     1      -5.693   5.080  50.520  1.00  0.00    -0.550 OA
ATOM     10  O   UNL     1      -5.979   3.277  51.903  1.00  0.00    -0.550 OA
ENDBRANCH   7   8
ENDBRANCH   6   7
ENDBRANCH   5   6
ENDBRANCH   4   5
ENDBRANCH   3   4
ENDBRANCH   2   3
ENDBRANCH   1   2
BRANCH   1  11
ATOM     11  C   UNL     1       3.340   3.920  50.653  1.00  0.00     0.000 C 
BRANCH  11  12
ATOM     12  C   UNL     1       3.897   5.294  51.058  1.00  0.00    -0.000 C 
BRANCH  12  13
ATOM     13  C   UNL     1       5.396   5.251  51.396  1.00  0.00    -0.000 C 
BRANCH  13  14
ATOM     14  C   UNL     1       5.738   3.997  52.209  1.00  0.00    -0.000 C 
BRANCH  14  15
ATOM     15  C   UNL     1       7.184   4.054  52.727  1.00  0.00    -0.000 C 
BRANCH  15  16
ATOM     16  C   UNL     1       8.207   4.352  51.616  1.00  0.00    -0.000 C 
BRANCH  16  17
ATOM     17  C   UNL     1       9.036   5.631  51.827  1.00  0.00    -0.003 C 
ATOM     18  C   UNL     1      10.463   5.348  52.297  1.00  0.00     0.004 C 
ENDBRANCH  16  17
ENDBRANCH  15  16
ENDBRANCH  14  15
ENDBRANCH  13  14
ENDBRANCH  12  13
ENDBRANCH  11  12
ENDBRANCH   1  11
TORSDOF 14
ENDMDL
