MODEL 1
REMARK VINA RESULT:    -5.843      0.000      0.000
REMARK INTER + INTRA:         -13.841
REMARK INTER:                 -11.308
REMARK INTRA:                  -2.533
REMARK UNBOUND:                -2.533
REMARK SMILES CCCCCCCCCCCCCCCCCC(=O)[O-]
REMARK SMILES IDX 10 1 11 2 12 3 13 4 14 5 15 6 16 7 17 8 18 9 19 10 20 11
REMARK SMILES IDX 9 12 8 13 7 14 6 15 5 16 4 17 3 18 2 19 1 20
REMARK H PARENT
REMARK Flexibility Score: inf
ROOT
ATOM      1  C   UNL     1      10.826  71.142  -2.980  1.00  0.00     0.000 C 
ENDROOT
BRANCH   1   2
ATOM      2  C   UNL     1      10.238  72.031  -1.872  1.00  0.00     0.000 C 
BRANCH   2   3
ATOM      3  C   UNL     1      10.343  73.531  -2.191  1.00  0.00     0.000 C 
BRANCH   3   4
ATOM      4  C   UNL     1       8.980  74.244  -2.168  1.00  0.00     0.000 C 
BRANCH   4   5
ATOM      5  C   UNL     1       9.044  75.773  -2.344  1.00  0.00     0.000 C 
BRANCH   5   6
ATOM      6  C   UNL     1       9.050  76.529  -1.004  1.00  0.00     0.000 C 
BRANCH   6   7
ATOM      7  C   UNL     1       8.409  75.719   0.135  1.00  0.00     0.006 C 
BRANCH   7   8
ATOM      8  C   UNL     1       7.038  76.265   0.554  1.00  0.00     0.053 C 
BRANCH   8   9
ATOM      9  C   UNL     1       5.990  75.206   0.413  1.00  0.00     0.041 C 
ATOM     10  O   UNL     1       5.345  74.814   1.421  1.00  0.00    -0.550 OA
ATOM     11  O   UNL     1       5.752  74.625  -0.827  1.00  0.00    -0.550 OA
ENDBRANCH   8   9
ENDBRANCH   7   8
ENDBRANCH   6   7
ENDBRANCH   5   6
ENDBRANCH   4   5
ENDBRANCH   3   4
ENDBRANCH   2   3
ENDBRANCH   1   2
BRANCH   1  12
ATOM     12  C   UNL     1       9.863  70.914  -4.165  1.00  0.00     0.000 C 
BRANCH  12  13
ATOM     13  C   UNL     1      10.414  71.482  -5.487  1.00  0.00    -0.000 C 
BRANCH  13  14
ATOM     14  C   UNL     1       9.759  72.830  -5.860  1.00  0.00    -0.000 C 
BRANCH  14  15
ATOM     15  C   UNL     1      10.771  73.969  -6.069  1.00  0.00    -0.000 C 
BRANCH  15  16
ATOM     16  C   UNL     1      12.179  73.616  -5.560  1.00  0.00    -0.000 C 
BRANCH  16  17
ATOM     17  C   UNL     1      12.880  74.809  -4.891  1.00  0.00    -0.000 C 
BRANCH  17  18
ATOM     18  C   UNL     1      13.606  74.415  -3.593  1.00  0.00    -0.000 C 
BRANCH  18  19
ATOM     19  C   UNL     1      13.993  72.928  -3.564  1.00  0.00    -0.003 C 
ATOM     20  C   UNL     1      14.308  72.428  -2.155  1.00  0.00     0.004 C 
ENDBRANCH  18  19
ENDBRANCH  17  18
ENDBRANCH  16  17
ENDBRANCH  15  16
ENDBRANCH  14  15
ENDBRANCH  13  14
ENDBRANCH  12  13
ENDBRANCH   1  12
TORSDOF 16
ENDMDL
MODEL 2
REMARK VINA RESULT:    -5.749      2.760      3.493
REMARK INTER + INTRA:         -13.659
REMARK INTER:                 -10.765
REMARK INTRA:                  -2.894
REMARK UNBOUND:                -2.533
REMARK SMILES CCCCCCCCCCCCCCCCCC(=O)[O-]
REMARK SMILES IDX 10 1 11 2 12 3 13 4 14 5 15 6 16 7 17 8 18 9 19 10 20 11
REMARK SMILES IDX 9 12 8 13 7 14 6 15 5 16 4 17 3 18 2 19 1 20
REMARK H PARENT
REMARK Flexibility Score: inf
ROOT
ATOM      1  C   UNL     1      10.043  71.963  -1.970  1.00  0.00     0.000 C 
ENDROOT
BRANCH   1   2
ATOM      2  C   UNL     1      10.489  73.433  -2.050  1.00  0.00     0.000 C 
BRANCH   2   3
ATOM      3  C   UNL     1       9.364  74.417  -1.698  1.00  0.00     0.000 C 
BRANCH   3   4
ATOM      4  C   UNL     1       8.665  74.997  -2.940  1.00  0.00     0.000 C 
BRANCH   4   5
ATOM      5  C   UNL     1       9.144  76.399  -3.361  1.00  0.00     0.000 C 
BRANCH   5   6
ATOM      6  C   UNL     1       9.975  77.097  -2.271  1.00  0.00     0.000 C 
BRANCH   6   7
ATOM      7  C   UNL     1      11.385  77.475  -2.754  1.00  0.00     0.006 C 
BRANCH   7   8
ATOM      8  C   UNL     1      12.465  76.510  -2.248  1.00  0.00     0.053 C 
BRANCH   8   9
ATOM      9  C   UNL     1      12.607  76.621  -0.762  1.00  0.00     0.041 C 
ATOM     10  O   UNL     1      12.707  75.584  -0.055  1.00  0.00    -0.550 OA
ATOM     11  O   UNL     1      12.592  77.871  -0.154  1.00  0.00    -0.550 OA
ENDBRANCH   8   9
ENDBRANCH   7   8
ENDBRANCH   6   7
ENDBRANCH   5   6
ENDBRANCH   4   5
ENDBRANCH   3   4
ENDBRANCH   2   3
ENDBRANCH   1   2
BRANCH   1  12
ATOM     12  C   UNL     1      10.678  71.065  -3.053  1.00  0.00     0.000 C 
BRANCH  12  13
ATOM     13  C   UNL     1       9.817  70.986  -4.328  1.00  0.00    -0.000 C 
BRANCH  13  14
ATOM     14  C   UNL     1      10.552  71.553  -5.562  1.00  0.00    -0.000 C 
BRANCH  14  15
ATOM     15  C   UNL     1      10.229  73.029  -5.847  1.00  0.00    -0.000 C 
BRANCH  15  16
ATOM     16  C   UNL     1      11.451  73.949  -5.682  1.00  0.00    -0.000 C 
BRANCH  16  17
ATOM     17  C   UNL     1      12.749  73.165  -5.431  1.00  0.00    -0.000 C 
BRANCH  17  18
ATOM     18  C   UNL     1      13.714  73.906  -4.487  1.00  0.00    -0.000 C 
BRANCH  18  19
ATOM     19  C   UNL     1      14.592  72.944  -3.671  1.00  0.00    -0.003 C 
ATOM     20  C   UNL     1      14.043  72.694  -2.267  1.00  0.00     0.004 C 
ENDBRANCH  18  19
ENDBRANCH  17  18
ENDBRANCH  16  17
ENDBRANCH  15  16
ENDBRANCH  14  15
ENDBRANCH  13  14
ENDBRANCH  12  13
ENDBRANCH   1  12
TORSDOF 16
ENDMDL
MODEL 3
REMARK VINA RESULT:    -5.694      2.952      7.054
REMARK INTER + INTRA:         -13.553
REMARK INTER:                 -11.897
REMARK INTRA:                  -1.657
REMARK UNBOUND:                -2.533
REMARK SMILES CCCCCCCCCCCCCCCCCC(=O)[O-]
REMARK SMILES IDX 10 1 11 2 12 3 13 4 14 5 15 6 16 7 17 8 18 9 19 10 20 11
REMARK SMILES IDX 9 12 8 13 7 14 6 15 5 16 4 17 3 18 2 19 1 20
REMARK H PARENT
REMARK Flexibility Score: inf
ROOT
ATOM      1  C   UNL     1      10.256  72.231  -1.862  1.00  0.00     0.000 C 
ENDROOT
BRANCH   1   2
ATOM      2  C   UNL     1      10.706  71.156  -2.866  1.00  0.00     0.000 C 
BRANCH   2   3
ATOM      3  C   UNL     1       9.870  71.155  -4.154  1.00  0.00     0.000 C 
BRANCH   3   4
ATOM      4  C   UNL     1      10.698  71.495  -5.406  1.00  0.00     0.000 C 
BRANCH   4   5
ATOM      5  C   UNL     1      10.571  72.951  -5.893  1.00  0.00     0.000 C 
BRANCH   5   6
ATOM      6  C   UNL     1      11.882  73.743  -5.759  1.00  0.00     0.000 C 
BRANCH   6   7
ATOM      7  C   UNL     1      12.989  72.940  -5.056  1.00  0.00     0.006 C 
BRANCH   7   8
ATOM      8  C   UNL     1      13.894  73.816  -4.181  1.00  0.00     0.053 C 
BRANCH   8   9
ATOM      9  C   UNL     1      13.740  73.447  -2.739  1.00  0.00     0.041 C 
ATOM     10  O   UNL     1      14.027  72.285  -2.347  1.00  0.00    -0.550 OA
ATOM     11  O   UNL     1      13.243  74.377  -1.833  1.00  0.00    -0.550 OA
ENDBRANCH   8   9
ENDBRANCH   7   8
ENDBRANCH   6   7
ENDBRANCH   5   6
ENDBRANCH   4   5
ENDBRANCH   3   4
ENDBRANCH   2   3
ENDBRANCH   1   2
BRANCH   1  12
ATOM     12  C   UNL     1       9.398  73.347  -2.496  1.00  0.00     0.000 C 
BRANCH  12  13
ATOM     13  C   UNL     1       9.868  74.754  -2.085  1.00  0.00    -0.000 C 
BRANCH  13  14
ATOM     14  C   UNL     1       9.228  75.217  -0.757  1.00  0.00    -0.000 C 
BRANCH  14  15
ATOM     15  C   UNL     1       7.690  75.209  -0.779  1.00  0.00    -0.000 C 
BRANCH  15  16
ATOM     16  C   UNL     1       7.074  75.805   0.498  1.00  0.00    -0.000 C 
BRANCH  16  17
ATOM     17  C   UNL     1       7.651  77.187   0.841  1.00  0.00    -0.000 C 
BRANCH  17  18
ATOM     18  C   UNL     1       6.633  78.090   1.561  1.00  0.00    -0.000 C 
BRANCH  18  19
ATOM     19  C   UNL     1       7.179  78.656   2.881  1.00  0.00    -0.003 C 
ATOM     20  C   UNL     1       8.705  78.608   2.955  1.00  0.00     0.004 C 
ENDBRANCH  18  19
ENDBRANCH  17  18
ENDBRANCH  16  17
ENDBRANCH  15  16
ENDBRANCH  14  15
ENDBRANCH  13  14
ENDBRANCH  12  13
ENDBRANCH   1  12
TORSDOF 16
ENDMDL
MODEL 4
REMARK VINA RESULT:    -5.691      2.763      5.055
REMARK INTER + INTRA:         -13.547
REMARK INTER:                 -10.587
REMARK INTRA:                  -2.960
REMARK UNBOUND:                -2.533
REMARK SMILES CCCCCCCCCCCCCCCCCC(=O)[O-]
REMARK SMILES IDX 10 1 11 2 12 3 13 4 14 5 15 6 16 7 17 8 18 9 19 10 20 11
REMARK SMILES IDX 9 12 8 13 7 14 6 15 5 16 4 17 3 18 2 19 1 20
REMARK H PARENT
REMARK Flexibility Score: inf
ROOT
ATOM      1  C   UNL     1      11.136  73.746  -6.025  1.00  0.00     0.000 C 
ENDROOT
BRANCH   1   2
ATOM      2  C   UNL     1      12.472  72.997  -5.894  1.00  0.00     0.000 C 
BRANCH   2   3
ATOM      3  C   UNL     1      13.338  73.520  -4.737  1.00  0.00     0.000 C 
BRANCH   3   4
ATOM      4  C   UNL     1      12.941  74.936  -4.286  1.00  0.00     0.000 C 
BRANCH   4   5
ATOM      5  C   UNL     1      14.063  75.987  -4.380  1.00  0.00     0.000 C 
BRANCH   5   6
ATOM      6  C   UNL     1      13.606  77.390  -3.947  1.00  0.00     0.000 C 
BRANCH   6   7
ATOM      7  C   UNL     1      12.413  77.351  -2.978  1.00  0.00     0.006 C 
BRANCH   7   8
ATOM      8  C   UNL     1      12.815  77.653  -1.528  1.00  0.00     0.053 C 
BRANCH   8   9
ATOM      9  C   UNL     1      12.457  76.505  -0.638  1.00  0.00     0.041 C 
ATOM     10  O   UNL     1      11.542  76.627   0.219  1.00  0.00    -0.550 OA
ATOM     11  O   UNL     1      13.160  75.310  -0.730  1.00  0.00    -0.550 OA
ENDBRANCH   8   9
ENDBRANCH   7   8
ENDBRANCH   6   7
ENDBRANCH   5   6
ENDBRANCH   4   5
ENDBRANCH   3   4
ENDBRANCH   2   3
ENDBRANCH   1   2
BRANCH   1  12
ATOM     12  C   UNL     1       9.899  72.840  -5.840  1.00  0.00     0.000 C 
BRANCH  12  13
ATOM     13  C   UNL     1      10.278  71.405  -5.432  1.00  0.00    -0.000 C 
BRANCH  13  14
ATOM     14  C   UNL     1       9.895  71.095  -3.969  1.00  0.00    -0.000 C 
BRANCH  14  15
ATOM     15  C   UNL     1      11.055  71.277  -2.976  1.00  0.00    -0.000 C 
BRANCH  15  16
ATOM     16  C   UNL     1      10.940  72.574  -2.157  1.00  0.00    -0.000 C 
BRANCH  16  17
ATOM     17  C   UNL     1       9.502  73.116  -2.110  1.00  0.00    -0.000 C 
BRANCH  17  18
ATOM     18  C   UNL     1       9.452  74.643  -1.923  1.00  0.00    -0.000 C 
BRANCH  18  19
ATOM     19  C   UNL     1       9.355  75.396  -3.259  1.00  0.00    -0.003 C 
ATOM     20  C   UNL     1       7.947  75.365  -3.851  1.00  0.00     0.004 C 
ENDBRANCH  18  19
ENDBRANCH  17  18
ENDBRANCH  16  17
ENDBRANCH  15  16
ENDBRANCH  14  15
ENDBRANCH  13  14
ENDBRANCH  12  13
ENDBRANCH   1  12
TORSDOF 16
ENDMDL
MODEL 5
REMARK VINA RESULT:    -5.686      1.426      2.095
REMARK INTER + INTRA:         -13.538
REMARK INTER:                 -10.740
REMARK INTRA:                  -2.798
REMARK UNBOUND:                -2.533
REMARK SMILES CCCCCCCCCCCCCCCCCC(=O)[O-]
REMARK SMILES IDX 10 1 11 2 12 3 13 4 14 5 15 6 16 7 17 8 18 9 19 10 20 11
REMARK SMILES IDX 9 12 8 13 7 14 6 15 5 16 4 17 3 18 2 19 1 20
REMARK H PARENT
REMARK Flexibility Score: inf
ROOT
ATOM      1  C   UNL     1       9.907  72.867  -2.008  1.00  0.00     0.000 C 
ENDROOT
BRANCH   1   2
ATOM      2  C   UNL     1      10.782  73.944  -1.346  1.00  0.00     0.000 C 
BRANCH   2   3
ATOM      3  C   UNL     1      10.991  75.175  -2.240  1.00  0.00     0.000 C 
BRANCH   3   4
ATOM      4  C   UNL     1       9.812  75.426  -3.198  1.00  0.00     0.000 C 
BRANCH   4   5
ATOM      5  C   UNL     1       9.191  76.833  -3.110  1.00  0.00     0.000 C 
BRANCH   5   6
ATOM      6  C   UNL     1      10.009  77.792  -2.228  1.00  0.00     0.000 C 
BRANCH   6   7
ATOM      7  C   UNL     1       9.195  78.351  -1.049  1.00  0.00     0.006 C 
BRANCH   7   8
ATOM      8  C   UNL     1       9.339  77.506   0.224  1.00  0.00     0.053 C 
BRANCH   8   9
ATOM      9  C   UNL     1       8.093  76.711   0.464  1.00  0.00     0.041 C 
ATOM     10  O   UNL     1       7.968  75.562  -0.035  1.00  0.00    -0.550 OA
ATOM     11  O   UNL     1       7.056  77.256   1.211  1.00  0.00    -0.550 OA
ENDBRANCH   8   9
ENDBRANCH   7   8
ENDBRANCH   6   7
ENDBRANCH   5   6
ENDBRANCH   4   5
ENDBRANCH   3   4
ENDBRANCH   2   3
ENDBRANCH   1   2
BRANCH   1  12
ATOM     12  C   UNL     1      10.651  71.539  -2.266  1.00  0.00     0.000 C 
BRANCH  12  13
ATOM     13  C   UNL     1      10.219  70.870  -3.584  1.00  0.00    -0.000 C 
BRANCH  13  14
ATOM     14  C   UNL     1       9.591  71.879  -4.570  1.00  0.00    -0.000 C 
BRANCH  14  15
ATOM     15  C   UNL     1      10.405  72.067  -5.861  1.00  0.00    -0.000 C 
BRANCH  15  16
ATOM     16  C   UNL     1      11.395  73.241  -5.775  1.00  0.00    -0.000 C 
BRANCH  16  17
ATOM     17  C   UNL     1      12.823  72.784  -5.435  1.00  0.00    -0.000 C 
BRANCH  17  18
ATOM     18  C   UNL     1      13.485  73.666  -4.361  1.00  0.00    -0.000 C 
BRANCH  18  19
ATOM     19  C   UNL     1      14.591  72.925  -3.593  1.00  0.00    -0.003 C 
ATOM     20  C   UNL     1      14.211  72.640  -2.141  1.00  0.00     0.004 C 
ENDBRANCH  18  19
ENDBRANCH  17  18
ENDBRANCH  16  17
ENDBRANCH  15  16
ENDBRANCH  14  15
ENDBRANCH  13  14
ENDBRANCH  12  13
ENDBRANCH   1  12
TORSDOF 16
ENDMDL
MODEL 6
REMARK VINA RESULT:    -5.663      2.149      3.765
REMARK INTER + INTRA:         -13.492
REMARK INTER:                 -10.466
REMARK INTRA:                  -3.026
REMARK UNBOUND:                -2.533
REMARK SMILES CCCCCCCCCCCCCCCCCC(=O)[O-]
REMARK SMILES IDX 10 1 11 2 12 3 13 4 14 5 15 6 16 7 17 8 18 9 19 10 20 11
REMARK SMILES IDX 9 12 8 13 7 14 6 15 5 16 4 17 3 18 2 19 1 20
REMARK H PARENT
REMARK Flexibility Score: inf
ROOT
ATOM      1  C   UNL     1      10.252  71.290  -3.358  1.00  0.00     0.000 C 
ENDROOT
BRANCH   1   2
ATOM      2  C   UNL     1       9.880  71.224  -4.848  1.00  0.00     0.000 C 
BRANCH   2   3
ATOM      3  C   UNL     1      10.816  72.062  -5.733  1.00  0.00     0.000 C 
BRANCH   3   4
ATOM      4  C   UNL     1      10.268  73.472  -6.016  1.00  0.00     0.000 C 
BRANCH   4   5
ATOM      5  C   UNL     1       8.763  73.652  -5.740  1.00  0.00     0.000 C 
BRANCH   5   6
ATOM      6  C   UNL     1       8.463  74.851  -4.825  1.00  0.00     0.000 C 
BRANCH   6   7
ATOM      7  C   UNL     1       9.440  74.954  -3.643  1.00  0.00     0.006 C 
BRANCH   7   8
ATOM      8  C   UNL     1       8.802  74.550  -2.308  1.00  0.00     0.053 C 
BRANCH   8   9
ATOM      9  C   UNL     1       9.302  75.429  -1.204  1.00  0.00     0.041 C 
ATOM     10  O   UNL     1       9.046  76.662  -1.210  1.00  0.00    -0.550 OA
ATOM     11  O   UNL     1      10.083  74.891  -0.188  1.00  0.00    -0.550 OA
ENDBRANCH   8   9
ENDBRANCH   7   8
ENDBRANCH   6   7
ENDBRANCH   5   6
ENDBRANCH   4   5
ENDBRANCH   3   4
ENDBRANCH   2   3
ENDBRANCH   1   2
BRANCH   1  12
ATOM     12  C   UNL     1      11.759  71.508  -3.106  1.00  0.00     0.000 C 
BRANCH  12  13
ATOM     13  C   UNL     1      12.048  72.840  -2.389  1.00  0.00    -0.000 C 
BRANCH  13  14
ATOM     14  C   UNL     1      13.526  73.266  -2.525  1.00  0.00    -0.000 C 
BRANCH  14  15
ATOM     15  C   UNL     1      13.934  73.625  -3.964  1.00  0.00    -0.000 C 
BRANCH  15  16
ATOM     16  C   UNL     1      13.208  74.873  -4.495  1.00  0.00    -0.000 C 
BRANCH  16  17
ATOM     17  C   UNL     1      13.611  76.153  -3.746  1.00  0.00    -0.000 C 
BRANCH  17  18
ATOM     18  C   UNL     1      12.396  76.938  -3.220  1.00  0.00    -0.000 C 
BRANCH  18  19
ATOM     19  C   UNL     1      12.642  77.538  -1.827  1.00  0.00    -0.003 C 
ATOM     20  C   UNL     1      13.182  76.513  -0.831  1.00  0.00     0.004 C 
ENDBRANCH  18  19
ENDBRANCH  17  18
ENDBRANCH  16  17
ENDBRANCH  15  16
ENDBRANCH  14  15
ENDBRANCH  13  14
ENDBRANCH  12  13
ENDBRANCH   1  12
TORSDOF 16
ENDMDL
MODEL 7
REMARK VINA RESULT:    -5.651      1.343      2.822
REMARK INTER + INTRA:         -13.470
REMARK INTER:                 -10.796
REMARK INTRA:                  -2.674
REMARK UNBOUND:                -2.533
REMARK SMILES CCCCCCCCCCCCCCCCCC(=O)[O-]
REMARK SMILES IDX 10 1 11 2 12 3 13 4 14 5 15 6 16 7 17 8 18 9 19 10 20 11
REMARK SMILES IDX 9 12 8 13 7 14 6 15 5 16 4 17 3 18 2 19 1 20
REMARK H PARENT
REMARK Flexibility Score: inf
ROOT
ATOM      1  C   UNL     1      10.614  73.359  -5.875  1.00  0.00     0.000 C 
ENDROOT
BRANCH   1   2
ATOM      2  C   UNL     1       9.128  73.676  -6.110  1.00  0.00     0.000 C 
BRANCH   2   3
ATOM      3  C   UNL     1       8.541  74.610  -5.041  1.00  0.00     0.000 C 
BRANCH   3   4
ATOM      4  C   UNL     1       9.596  75.109  -4.038  1.00  0.00     0.000 C 
BRANCH   4   5
ATOM      5  C   UNL     1       9.049  76.006  -2.912  1.00  0.00     0.000 C 
BRANCH   5   6
ATOM      6  C   UNL     1      10.161  76.642  -2.061  1.00  0.00     0.000 C 
BRANCH   6   7
ATOM      7  C   UNL     1       9.824  76.654  -0.560  1.00  0.00     0.006 C 
BRANCH   7   8
ATOM      8  C   UNL     1       8.851  75.537  -0.161  1.00  0.00     0.053 C 
BRANCH   8   9
ATOM      9  C   UNL     1       7.614  76.118   0.450  1.00  0.00     0.041 C 
ATOM     10  O   UNL     1       7.642  77.265   0.969  1.00  0.00    -0.550 OA
ATOM     11  O   UNL     1       6.440  75.375   0.481  1.00  0.00    -0.550 OA
ENDBRANCH   8   9
ENDBRANCH   7   8
ENDBRANCH   6   7
ENDBRANCH   5   6
ENDBRANCH   4   5
ENDBRANCH   3   4
ENDBRANCH   2   3
ENDBRANCH   1   2
BRANCH   1  12
ATOM     12  C   UNL     1      10.892  71.864  -5.607  1.00  0.00     0.000 C 
BRANCH  12  13
ATOM     13  C   UNL     1       9.820  71.219  -4.709  1.00  0.00    -0.000 C 
BRANCH  13  14
ATOM     14  C   UNL     1      10.354  70.912  -3.293  1.00  0.00    -0.000 C 
BRANCH  14  15
ATOM     15  C   UNL     1      10.145  72.060  -2.293  1.00  0.00    -0.000 C 
BRANCH  15  16
ATOM     16  C   UNL     1      11.403  72.925  -2.106  1.00  0.00    -0.000 C 
BRANCH  16  17
ATOM     17  C   UNL     1      12.687  72.198  -2.539  1.00  0.00    -0.000 C 
BRANCH  17  18
ATOM     18  C   UNL     1      13.643  73.110  -3.329  1.00  0.00    -0.000 C 
BRANCH  18  19
ATOM     19  C   UNL     1      13.156  74.566  -3.384  1.00  0.00    -0.003 C 
ATOM     20  C   UNL     1      13.876  75.388  -4.453  1.00  0.00     0.004 C 
ENDBRANCH  18  19
ENDBRANCH  17  18
ENDBRANCH  16  17
ENDBRANCH  15  16
ENDBRANCH  14  15
ENDBRANCH  13  14
ENDBRANCH  12  13
ENDBRANCH   1  12
TORSDOF 16
ENDMDL
MODEL 8
REMARK VINA RESULT:    -5.608      2.146      3.672
REMARK INTER + INTRA:         -13.387
REMARK INTER:                 -10.755
REMARK INTRA:                  -2.631
REMARK UNBOUND:                -2.533
REMARK SMILES CCCCCCCCCCCCCCCCCC(=O)[O-]
REMARK SMILES IDX 10 1 11 2 12 3 13 4 14 5 15 6 16 7 17 8 18 9 19 10 20 11
REMARK SMILES IDX 9 12 8 13 7 14 6 15 5 16 4 17 3 18 2 19 1 20
REMARK H PARENT
REMARK Flexibility Score: inf
ROOT
ATOM      1  C   UNL     1      13.068  74.045  -2.134  1.00  0.00     0.000 C 
ENDROOT
BRANCH   1   2
ATOM      2  C   UNL     1      12.923  75.389  -2.866  1.00  0.00     0.000 C 
BRANCH   2   3
ATOM      3  C   UNL     1      11.715  76.205  -2.381  1.00  0.00     0.000 C 
BRANCH   3   4
ATOM      4  C   UNL     1      10.390  75.746  -3.015  1.00  0.00     0.000 C 
BRANCH   4   5
ATOM      5  C   UNL     1       9.123  76.165  -2.247  1.00  0.00     0.000 C 
BRANCH   5   6
ATOM      6  C   UNL     1       8.672  75.113  -1.219  1.00  0.00     0.000 C 
BRANCH   6   7
ATOM      7  C   UNL     1       8.211  75.741   0.107  1.00  0.00     0.006 C 
BRANCH   7   8
ATOM      8  C   UNL     1       8.513  77.243   0.189  1.00  0.00     0.053 C 
BRANCH   8   9
ATOM      9  C   UNL     1       9.628  77.497   1.155  1.00  0.00     0.041 C 
ATOM     10  O   UNL     1      10.807  77.162   0.865  1.00  0.00    -0.550 OA
ATOM     11  O   UNL     1       9.359  78.072   2.391  1.00  0.00    -0.550 OA
ENDBRANCH   8   9
ENDBRANCH   7   8
ENDBRANCH   6   7
ENDBRANCH   5   6
ENDBRANCH   4   5
ENDBRANCH   3   4
ENDBRANCH   2   3
ENDBRANCH   1   2
BRANCH   1  12
ATOM     12  C   UNL     1      13.540  72.892  -3.047  1.00  0.00     0.000 C 
BRANCH  12  13
ATOM     13  C   UNL     1      13.777  73.352  -4.497  1.00  0.00    -0.000 C 
BRANCH  13  14
ATOM     14  C   UNL     1      12.774  72.712  -5.482  1.00  0.00    -0.000 C 
BRANCH  14  15
ATOM     15  C   UNL     1      11.664  73.673  -5.941  1.00  0.00    -0.000 C 
BRANCH  15  16
ATOM     16  C   UNL     1      10.253  73.127  -5.666  1.00  0.00    -0.000 C 
BRANCH  16  17
ATOM     17  C   UNL     1      10.208  71.591  -5.647  1.00  0.00    -0.000 C 
BRANCH  17  18
ATOM     18  C   UNL     1       9.962  71.025  -4.237  1.00  0.00    -0.000 C 
BRANCH  18  19
ATOM     19  C   UNL     1       9.914  72.123  -3.163  1.00  0.00    -0.003 C 
ATOM     20  C   UNL     1      10.280  71.604  -1.773  1.00  0.00     0.004 C 
ENDBRANCH  18  19
ENDBRANCH  17  18
ENDBRANCH  16  17
ENDBRANCH  15  16
ENDBRANCH  14  15
ENDBRANCH  13  14
ENDBRANCH  12  13
ENDBRANCH   1  12
TORSDOF 16
ENDMDL
MODEL 9
REMARK VINA RESULT:    -5.594      1.993      4.215
REMARK INTER + INTRA:         -13.360
REMARK INTER:                 -10.444
REMARK INTRA:                  -2.915
REMARK UNBOUND:                -2.533
REMARK SMILES CCCCCCCCCCCCCCCCCC(=O)[O-]
REMARK SMILES IDX 10 1 11 2 12 3 13 4 14 5 15 6 16 7 17 8 18 9 19 10 20 11
REMARK SMILES IDX 9 12 8 13 7 14 6 15 5 16 4 17 3 18 2 19 1 20
REMARK H PARENT
REMARK Flexibility Score: inf
ROOT
ATOM      1  C   UNL     1      13.145  72.838  -5.046  1.00  0.00     0.000 C 
ENDROOT
BRANCH   1   2
ATOM      2  C   UNL     1      14.027  73.533  -3.995  1.00  0.00     0.000 C 
BRANCH   2   3
ATOM      3  C   UNL     1      13.485  73.377  -2.566  1.00  0.00     0.000 C 
BRANCH   3   4
ATOM      4  C   UNL     1      13.038  74.712  -1.946  1.00  0.00     0.000 C 
BRANCH   4   5
ATOM      5  C   UNL     1      13.158  75.933  -2.878  1.00  0.00     0.000 C 
BRANCH   5   6
ATOM      6  C   UNL     1      11.803  76.604  -3.161  1.00  0.00     0.000 C 
BRANCH   6   7
ATOM      7  C   UNL     1      11.307  77.457  -1.982  1.00  0.00     0.006 C 
BRANCH   7   8
ATOM      8  C   UNL     1       9.794  77.705  -2.024  1.00  0.00     0.053 C 
BRANCH   8   9
ATOM      9  C   UNL     1       9.228  77.704  -0.638  1.00  0.00     0.041 C 
ATOM     10  O   UNL     1       8.677  76.669  -0.178  1.00  0.00    -0.550 OA
ATOM     11  O   UNL     1       9.277  78.859   0.133  1.00  0.00    -0.550 OA
ENDBRANCH   8   9
ENDBRANCH   7   8
ENDBRANCH   6   7
ENDBRANCH   5   6
ENDBRANCH   4   5
ENDBRANCH   3   4
ENDBRANCH   2   3
ENDBRANCH   1   2
BRANCH   1  12
ATOM     12  C   UNL     1      12.116  73.780  -5.709  1.00  0.00     0.000 C 
BRANCH  12  13
ATOM     13  C   UNL     1      10.747  73.105  -5.911  1.00  0.00    -0.000 C 
BRANCH  13  14
ATOM     14  C   UNL     1      10.782  71.601  -5.563  1.00  0.00    -0.000 C 
BRANCH  14  15
ATOM     15  C   UNL     1       9.811  71.206  -4.438  1.00  0.00    -0.000 C 
BRANCH  15  16
ATOM     16  C   UNL     1      10.480  71.179  -3.054  1.00  0.00    -0.000 C 
BRANCH  16  17
ATOM     17  C   UNL     1       9.826  72.155  -2.064  1.00  0.00    -0.000 C 
BRANCH  17  18
ATOM     18  C   UNL     1       9.872  73.614  -2.554  1.00  0.00    -0.000 C 
BRANCH  18  19
ATOM     19  C   UNL     1       8.474  74.244  -2.656  1.00  0.00    -0.003 C 
ATOM     20  C   UNL     1       8.253  74.977  -3.978  1.00  0.00     0.004 C 
ENDBRANCH  18  19
ENDBRANCH  17  18
ENDBRANCH  16  17
ENDBRANCH  15  16
ENDBRANCH  14  15
ENDBRANCH  13  14
ENDBRANCH  12  13
ENDBRANCH   1  12
TORSDOF 16
ENDMDL
