MODEL 1
REMARK VINA RESULT:    -5.025      0.000      0.000
REMARK INTER + INTRA:         -10.857
REMARK INTER:                  -9.725
REMARK INTRA:                  -1.132
REMARK UNBOUND:                -1.132
REMARK SMILES CCCCCCCCCCCCCCCCCC(=O)[O-]
REMARK SMILES IDX 10 1 11 2 12 3 13 4 14 5 15 6 16 7 17 8 18 9 19 10 20 11
REMARK SMILES IDX 9 12 8 13 7 14 6 15 5 16 4 17 3 18 2 19 1 20
REMARK H PARENT
REMARK Flexibility Score: inf
ROOT
ATOM      1  C   UNL     1      56.927  -0.891  17.108  1.00  0.00     0.000 C 
ENDROOT
BRANCH   1   2
ATOM      2  C   UNL     1      57.966  -0.568  18.194  1.00  0.00     0.000 C 
BRANCH   2   3
ATOM      3  C   UNL     1      57.374  -0.621  19.612  1.00  0.00     0.000 C 
BRANCH   3   4
ATOM      4  C   UNL     1      56.089  -1.462  19.684  1.00  0.00     0.000 C 
BRANCH   4   5
ATOM      5  C   UNL     1      56.151  -2.552  20.765  1.00  0.00     0.000 C 
BRANCH   5   6
ATOM      6  C   UNL     1      57.586  -2.729  21.284  1.00  0.00     0.000 C 
BRANCH   6   7
ATOM      7  C   UNL     1      58.246  -4.027  20.785  1.00  0.00     0.006 C 
BRANCH   7   8
ATOM      8  C   UNL     1      59.571  -3.817  20.036  1.00  0.00     0.053 C 
BRANCH   8   9
ATOM      9  C   UNL     1      60.757  -4.118  20.900  1.00  0.00     0.041 C 
ATOM     10  O   UNL     1      60.650  -4.093  22.154  1.00  0.00    -0.550 OA
ATOM     11  O   UNL     1      61.972  -4.459  20.320  1.00  0.00    -0.550 OA
ENDBRANCH   8   9
ENDBRANCH   7   8
ENDBRANCH   6   7
ENDBRANCH   5   6
ENDBRANCH   4   5
ENDBRANCH   3   4
ENDBRANCH   2   3
ENDBRANCH   1   2
BRANCH   1  12
ATOM     12  C   UNL     1      57.568  -1.352  15.791  1.00  0.00     0.000 C 
BRANCH  12  13
ATOM     13  C   UNL     1      56.496  -1.693  14.748  1.00  0.00    -0.000 C 
BRANCH  13  14
ATOM     14  C   UNL     1      56.775  -3.054  14.094  1.00  0.00    -0.000 C 
BRANCH  14  15
ATOM     15  C   UNL     1      55.494  -3.851  13.788  1.00  0.00    -0.000 C 
BRANCH  15  16
ATOM     16  C   UNL     1      54.257  -3.000  13.445  1.00  0.00    -0.000 C 
BRANCH  16  17
ATOM     17  C   UNL     1      53.085  -3.835  12.904  1.00  0.00    -0.000 C 
BRANCH  17  18
ATOM     18  C   UNL     1      52.480  -3.252  11.613  1.00  0.00    -0.000 C 
BRANCH  18  19
ATOM     19  C   UNL     1      52.748  -4.070  10.338  1.00  0.00    -0.003 C 
ATOM     20  C   UNL     1      53.975  -3.589   9.564  1.00  0.00     0.004 C 
ENDBRANCH  18  19
ENDBRANCH  17  18
ENDBRANCH  16  17
ENDBRANCH  15  16
ENDBRANCH  14  15
ENDBRANCH  13  14
ENDBRANCH  12  13
ENDBRANCH   1  12
TORSDOF 16
ENDMDL
MODEL 2
REMARK VINA RESULT:    -4.966      2.573      4.080
REMARK INTER + INTRA:         -10.743
REMARK INTER:                  -9.262
REMARK INTRA:                  -1.481
REMARK UNBOUND:                -1.132
REMARK SMILES CCCCCCCCCCCCCCCCCC(=O)[O-]
REMARK SMILES IDX 10 1 11 2 12 3 13 4 14 5 15 6 16 7 17 8 18 9 19 10 20 11
REMARK SMILES IDX 9 12 8 13 7 14 6 15 5 16 4 17 3 18 2 19 1 20
REMARK H PARENT
REMARK Flexibility Score: inf
ROOT
ATOM      1  C   UNL     1      58.622  -1.829  19.158  1.00  0.00     0.000 C 
ENDROOT
BRANCH   1   2
ATOM      2  C   UNL     1      58.027  -1.983  20.567  1.00  0.00     0.000 C 
BRANCH   2   3
ATOM      3  C   UNL     1      57.535  -3.414  20.846  1.00  0.00     0.000 C 
BRANCH   3   4
ATOM      4  C   UNL     1      58.686  -4.431  20.916  1.00  0.00     0.000 C 
BRANCH   4   5
ATOM      5  C   UNL     1      59.398  -4.431  22.277  1.00  0.00     0.000 C 
BRANCH   5   6
ATOM      6  C   UNL     1      60.714  -3.640  22.207  1.00  0.00     0.000 C 
BRANCH   6   7
ATOM      7  C   UNL     1      61.434  -3.798  20.855  1.00  0.00     0.006 C 
BRANCH   7   8
ATOM      8  C   UNL     1      62.596  -4.803  20.870  1.00  0.00     0.053 C 
BRANCH   8   9
ATOM      9  C   UNL     1      63.811  -4.245  21.546  1.00  0.00     0.041 C 
ATOM     10  O   UNL     1      63.991  -4.427  22.779  1.00  0.00    -0.550 OA
ATOM     11  O   UNL     1      64.761  -3.552  20.808  1.00  0.00    -0.550 OA
ENDBRANCH   8   9
ENDBRANCH   7   8
ENDBRANCH   6   7
ENDBRANCH   5   6
ENDBRANCH   4   5
ENDBRANCH   3   4
ENDBRANCH   2   3
ENDBRANCH   1   2
BRANCH   1  12
ATOM     12  C   UNL     1      57.854  -0.816  18.296  1.00  0.00     0.000 C 
BRANCH  12  13
ATOM     13  C   UNL     1      56.813  -0.061  19.132  1.00  0.00    -0.000 C 
BRANCH  13  14
ATOM     14  C   UNL     1      55.578   0.289  18.290  1.00  0.00    -0.000 C 
BRANCH  14  15
ATOM     15  C   UNL     1      55.057  -0.900  17.461  1.00  0.00    -0.000 C 
BRANCH  15  16
ATOM     16  C   UNL     1      54.887  -0.627  15.955  1.00  0.00    -0.000 C 
BRANCH  16  17
ATOM     17  C   UNL     1      56.194  -0.190  15.273  1.00  0.00    -0.000 C 
BRANCH  17  18
ATOM     18  C   UNL     1      56.990  -1.373  14.691  1.00  0.00    -0.000 C 
BRANCH  18  19
ATOM     19  C   UNL     1      56.153  -2.615  14.342  1.00  0.00    -0.003 C 
ATOM     20  C   UNL     1      56.982  -3.748  13.737  1.00  0.00     0.004 C 
ENDBRANCH  18  19
ENDBRANCH  17  18
ENDBRANCH  16  17
ENDBRANCH  15  16
ENDBRANCH  14  15
ENDBRANCH  13  14
ENDBRANCH  12  13
ENDBRANCH   1  12
TORSDOF 16
ENDMDL
MODEL 3
REMARK VINA RESULT:    -4.854      3.268      6.063
REMARK INTER + INTRA:         -10.526
REMARK INTER:                  -8.542
REMARK INTRA:                  -1.983
REMARK UNBOUND:                -1.132
REMARK SMILES CCCCCCCCCCCCCCCCCC(=O)[O-]
REMARK SMILES IDX 10 1 11 2 12 3 13 4 14 5 15 6 16 7 17 8 18 9 19 10 20 11
REMARK SMILES IDX 9 12 8 13 7 14 6 15 5 16 4 17 3 18 2 19 1 20
REMARK H PARENT
REMARK Flexibility Score: inf
ROOT
ATOM      1  C   UNL     1      52.942  -3.523  13.291  1.00  0.00     0.000 C 
ENDROOT
BRANCH   1   2
ATOM      2  C   UNL     1      54.338  -3.472  12.650  1.00  0.00     0.000 C 
BRANCH   2   3
ATOM      3  C   UNL     1      55.467  -3.455  13.694  1.00  0.00     0.000 C 
BRANCH   3   4
ATOM      4  C   UNL     1      55.846  -2.030  14.129  1.00  0.00     0.000 C 
BRANCH   4   5
ATOM      5  C   UNL     1      57.169  -1.978  14.910  1.00  0.00     0.000 C 
BRANCH   5   6
ATOM      6  C   UNL     1      57.167  -0.815  15.914  1.00  0.00     0.000 C 
BRANCH   6   7
ATOM      7  C   UNL     1      55.756  -0.261  16.183  1.00  0.00     0.006 C 
BRANCH   7   8
ATOM      8  C   UNL     1      55.053  -0.882  17.400  1.00  0.00     0.053 C 
BRANCH   8   9
ATOM      9  C   UNL     1      55.785  -0.598  18.676  1.00  0.00     0.041 C 
ATOM     10  O   UNL     1      56.059  -1.534  19.472  1.00  0.00    -0.550 OA
ATOM     11  O   UNL     1      56.196   0.696  18.969  1.00  0.00    -0.550 OA
ENDBRANCH   8   9
ENDBRANCH   7   8
ENDBRANCH   6   7
ENDBRANCH   5   6
ENDBRANCH   4   5
ENDBRANCH   3   4
ENDBRANCH   2   3
ENDBRANCH   1   2
BRANCH   1  12
ATOM     12  C   UNL     1      51.836  -3.866  12.282  1.00  0.00     0.000 C 
BRANCH  12  13
ATOM     13  C   UNL     1      52.421  -4.536  11.032  1.00  0.00    -0.000 C 
BRANCH  13  14
ATOM     14  C   UNL     1      51.991  -3.798   9.757  1.00  0.00    -0.000 C 
BRANCH  14  15
ATOM     15  C   UNL     1      52.747  -2.473   9.543  1.00  0.00    -0.000 C 
BRANCH  15  16
ATOM     16  C   UNL     1      51.890  -1.200   9.663  1.00  0.00    -0.000 C 
BRANCH  16  17
ATOM     17  C   UNL     1      52.570  -0.095  10.489  1.00  0.00    -0.000 C 
BRANCH  17  18
ATOM     18  C   UNL     1      52.175  -0.132  11.977  1.00  0.00    -0.000 C 
BRANCH  18  19
ATOM     19  C   UNL     1      53.304   0.224  12.961  1.00  0.00    -0.003 C 
ATOM     20  C   UNL     1      52.963   1.408  13.864  1.00  0.00     0.004 C 
ENDBRANCH  18  19
ENDBRANCH  17  18
ENDBRANCH  16  17
ENDBRANCH  15  16
ENDBRANCH  14  15
ENDBRANCH  13  14
ENDBRANCH  12  13
ENDBRANCH   1  12
TORSDOF 16
ENDMDL
MODEL 4
REMARK VINA RESULT:    -4.818      5.970      9.687
REMARK INTER + INTRA:         -10.457
REMARK INTER:                  -8.675
REMARK INTRA:                  -1.782
REMARK UNBOUND:                -1.132
REMARK SMILES CCCCCCCCCCCCCCCCCC(=O)[O-]
REMARK SMILES IDX 10 1 11 2 12 3 13 4 14 5 15 6 16 7 17 8 18 9 19 10 20 11
REMARK SMILES IDX 9 12 8 13 7 14 6 15 5 16 4 17 3 18 2 19 1 20
REMARK H PARENT
REMARK Flexibility Score: inf
ROOT
ATOM      1  C   UNL     1      55.634  -3.122  14.109  1.00  0.00     0.000 C 
ENDROOT
BRANCH   1   2
ATOM      2  C   UNL     1      54.723  -1.895  13.945  1.00  0.00     0.000 C 
BRANCH   2   3
ATOM      3  C   UNL     1      53.587  -2.133  12.936  1.00  0.00     0.000 C 
BRANCH   3   4
ATOM      4  C   UNL     1      53.939  -3.208  11.894  1.00  0.00     0.000 C 
BRANCH   4   5
ATOM      5  C   UNL     1      52.759  -4.141  11.579  1.00  0.00     0.000 C 
BRANCH   5   6
ATOM      6  C   UNL     1      52.643  -4.387  10.067  1.00  0.00     0.000 C 
BRANCH   6   7
ATOM      7  C   UNL     1      53.773  -3.716   9.265  1.00  0.00     0.006 C 
BRANCH   7   8
ATOM      8  C   UNL     1      54.083  -4.393   7.921  1.00  0.00     0.053 C 
BRANCH   8   9
ATOM      9  C   UNL     1      53.036  -4.098   6.890  1.00  0.00     0.041 C 
ATOM     10  O   UNL     1      52.732  -2.907   6.618  1.00  0.00    -0.550 OA
ATOM     11  O   UNL     1      52.421  -5.138   6.207  1.00  0.00    -0.550 OA
ENDBRANCH   8   9
ENDBRANCH   7   8
ENDBRANCH   6   7
ENDBRANCH   5   6
ENDBRANCH   4   5
ENDBRANCH   3   4
ENDBRANCH   2   3
ENDBRANCH   1   2
BRANCH   1  12
ATOM     12  C   UNL     1      57.120  -2.749  14.220  1.00  0.00     0.000 C 
BRANCH  12  13
ATOM     13  C   UNL     1      57.292  -1.366  14.859  1.00  0.00    -0.000 C 
BRANCH  13  14
ATOM     14  C   UNL     1      57.610  -1.485  16.357  1.00  0.00    -0.000 C 
BRANCH  14  15
ATOM     15  C   UNL     1      57.126  -0.273  17.174  1.00  0.00    -0.000 C 
BRANCH  15  16
ATOM     16  C   UNL     1      55.898  -0.530  18.066  1.00  0.00    -0.000 C 
BRANCH  16  17
ATOM     17  C   UNL     1      54.578  -0.554  17.277  1.00  0.00    -0.000 C 
BRANCH  17  18
ATOM     18  C   UNL     1      53.983   0.850  17.062  1.00  0.00    -0.000 C 
BRANCH  18  19
ATOM     19  C   UNL     1      53.813   1.269  15.591  1.00  0.00    -0.003 C 
ATOM     20  C   UNL     1      55.115   1.748  14.949  1.00  0.00     0.004 C 
ENDBRANCH  18  19
ENDBRANCH  17  18
ENDBRANCH  16  17
ENDBRANCH  15  16
ENDBRANCH  14  15
ENDBRANCH  13  14
ENDBRANCH  12  13
ENDBRANCH   1  12
TORSDOF 16
ENDMDL
MODEL 5
REMARK VINA RESULT:    -4.818      5.489      9.245
REMARK INTER + INTRA:         -10.456
REMARK INTER:                  -8.448
REMARK INTRA:                  -2.008
REMARK UNBOUND:                -1.132
REMARK SMILES CCCCCCCCCCCCCCCCCC(=O)[O-]
REMARK SMILES IDX 10 1 11 2 12 3 13 4 14 5 15 6 16 7 17 8 18 9 19 10 20 11
REMARK SMILES IDX 9 12 8 13 7 14 6 15 5 16 4 17 3 18 2 19 1 20
REMARK H PARENT
REMARK Flexibility Score: inf
ROOT
ATOM      1  C   UNL     1      55.077  -3.700  13.420  1.00  0.00     0.000 C 
ENDROOT
BRANCH   1   2
ATOM      2  C   UNL     1      53.639  -3.600  12.887  1.00  0.00     0.000 C 
BRANCH   2   3
ATOM      3  C   UNL     1      53.197  -2.147  12.647  1.00  0.00     0.000 C 
BRANCH   3   4
ATOM      4  C   UNL     1      51.914  -2.051  11.804  1.00  0.00     0.000 C 
BRANCH   4   5
ATOM      5  C   UNL     1      52.045  -1.067  10.631  1.00  0.00     0.000 C 
BRANCH   5   6
ATOM      6  C   UNL     1      52.415  -1.805   9.336  1.00  0.00     0.000 C 
BRANCH   6   7
ATOM      7  C   UNL     1      51.687  -3.154   9.188  1.00  0.00     0.006 C 
BRANCH   7   8
ATOM      8  C   UNL     1      52.617  -4.377   9.176  1.00  0.00     0.053 C 
BRANCH   8   9
ATOM      9  C   UNL     1      53.918  -4.085   8.495  1.00  0.00     0.041 C 
ATOM     10  O   UNL     1      53.986  -4.067   7.237  1.00  0.00    -0.550 OA
ATOM     11  O   UNL     1      55.050  -3.799   9.247  1.00  0.00    -0.550 OA
ENDBRANCH   8   9
ENDBRANCH   7   8
ENDBRANCH   6   7
ENDBRANCH   5   6
ENDBRANCH   4   5
ENDBRANCH   3   4
ENDBRANCH   2   3
ENDBRANCH   1   2
BRANCH   1  12
ATOM     12  C   UNL     1      55.470  -2.502  14.297  1.00  0.00     0.000 C 
BRANCH  12  13
ATOM     13  C   UNL     1      56.992  -2.416  14.460  1.00  0.00    -0.000 C 
BRANCH  13  14
ATOM     14  C   UNL     1      57.389  -1.190  15.296  1.00  0.00    -0.000 C 
BRANCH  14  15
ATOM     15  C   UNL     1      56.189  -0.516  15.986  1.00  0.00    -0.000 C 
BRANCH  15  16
ATOM     16  C   UNL     1      55.995   0.976  15.659  1.00  0.00    -0.000 C 
BRANCH  16  17
ATOM     17  C   UNL     1      56.034   1.269  14.150  1.00  0.00    -0.000 C 
BRANCH  17  18
ATOM     18  C   UNL     1      54.716   0.912  13.437  1.00  0.00    -0.000 C 
BRANCH  18  19
ATOM     19  C   UNL     1      53.436   1.285  14.205  1.00  0.00    -0.003 C 
ATOM     20  C   UNL     1      52.271   1.656  13.288  1.00  0.00     0.004 C 
ENDBRANCH  18  19
ENDBRANCH  17  18
ENDBRANCH  16  17
ENDBRANCH  15  16
ENDBRANCH  14  15
ENDBRANCH  13  14
ENDBRANCH  12  13
ENDBRANCH   1  12
TORSDOF 16
ENDMDL
MODEL 6
REMARK VINA RESULT:    -4.804      2.568      4.977
REMARK INTER + INTRA:         -10.428
REMARK INTER:                  -8.686
REMARK INTRA:                  -1.743
REMARK UNBOUND:                -1.132
REMARK SMILES CCCCCCCCCCCCCCCCCC(=O)[O-]
REMARK SMILES IDX 10 1 11 2 12 3 13 4 14 5 15 6 16 7 17 8 18 9 19 10 20 11
REMARK SMILES IDX 9 12 8 13 7 14 6 15 5 16 4 17 3 18 2 19 1 20
REMARK H PARENT
REMARK Flexibility Score: inf
ROOT
ATOM      1  C   UNL     1      54.656  -3.068  13.597  1.00  0.00     0.000 C 
ENDROOT
BRANCH   1   2
ATOM      2  C   UNL     1      56.094  -3.541  13.864  1.00  0.00     0.000 C 
BRANCH   2   3
ATOM      3  C   UNL     1      56.960  -2.455  14.523  1.00  0.00     0.000 C 
BRANCH   3   4
ATOM      4  C   UNL     1      56.192  -1.143  14.749  1.00  0.00     0.000 C 
BRANCH   4   5
ATOM      5  C   UNL     1      56.188  -0.701  16.220  1.00  0.00     0.000 C 
BRANCH   5   6
ATOM      6  C   UNL     1      57.575  -0.890  16.853  1.00  0.00     0.000 C 
BRANCH   6   7
ATOM      7  C   UNL     1      57.509  -1.167  18.366  1.00  0.00     0.006 C 
BRANCH   7   8
ATOM      8  C   UNL     1      56.108  -1.010  18.978  1.00  0.00     0.053 C 
BRANCH   8   9
ATOM      9  C   UNL     1      56.083  -1.392  20.426  1.00  0.00     0.041 C 
ATOM     10  O   UNL     1      56.129  -0.503  21.317  1.00  0.00    -0.550 OA
ATOM     11  O   UNL     1      55.975  -2.727  20.792  1.00  0.00    -0.550 OA
ENDBRANCH   8   9
ENDBRANCH   7   8
ENDBRANCH   6   7
ENDBRANCH   5   6
ENDBRANCH   4   5
ENDBRANCH   3   4
ENDBRANCH   2   3
ENDBRANCH   1   2
BRANCH   1  12
ATOM     12  C   UNL     1      54.207  -3.316  12.149  1.00  0.00     0.000 C 
BRANCH  12  13
ATOM     13  C   UNL     1      52.921  -4.151  12.108  1.00  0.00    -0.000 C 
BRANCH  13  14
ATOM     14  C   UNL     1      52.292  -4.126  10.708  1.00  0.00    -0.000 C 
BRANCH  14  15
ATOM     15  C   UNL     1      53.258  -3.619   9.621  1.00  0.00    -0.000 C 
BRANCH  15  16
ATOM     16  C   UNL     1      52.816  -2.335   8.896  1.00  0.00    -0.000 C 
BRANCH  16  17
ATOM     17  C   UNL     1      51.754  -1.542   9.675  1.00  0.00    -0.000 C 
BRANCH  17  18
ATOM     18  C   UNL     1      52.352  -0.378  10.487  1.00  0.00    -0.000 C 
BRANCH  18  19
ATOM     19  C   UNL     1      52.083  -0.432  12.001  1.00  0.00    -0.003 C 
ATOM     20  C   UNL     1      53.119   0.334  12.823  1.00  0.00     0.004 C 
ENDBRANCH  18  19
ENDBRANCH  17  18
ENDBRANCH  16  17
ENDBRANCH  15  16
ENDBRANCH  14  15
ENDBRANCH  13  14
ENDBRANCH  12  13
ENDBRANCH   1  12
TORSDOF 16
ENDMDL
MODEL 7
REMARK VINA RESULT:    -4.780      6.055      9.672
REMARK INTER + INTRA:         -10.383
REMARK INTER:                  -8.580
REMARK INTRA:                  -1.802
REMARK UNBOUND:                -1.132
REMARK SMILES CCCCCCCCCCCCCCCCCC(=O)[O-]
REMARK SMILES IDX 10 1 11 2 12 3 13 4 14 5 15 6 16 7 17 8 18 9 19 10 20 11
REMARK SMILES IDX 9 12 8 13 7 14 6 15 5 16 4 17 3 18 2 19 1 20
REMARK H PARENT
REMARK Flexibility Score: inf
ROOT
ATOM      1  C   UNL     1      52.406  -0.106  10.816  1.00  0.00     0.000 C 
ENDROOT
BRANCH   1   2
ATOM      2  C   UNL     1      51.968  -1.125  11.880  1.00  0.00     0.000 C 
BRANCH   2   3
ATOM      3  C   UNL     1      53.160  -1.840  12.539  1.00  0.00     0.000 C 
BRANCH   3   4
ATOM      4  C   UNL     1      53.043  -3.371  12.467  1.00  0.00     0.000 C 
BRANCH   4   5
ATOM      5  C   UNL     1      51.913  -3.839  11.535  1.00  0.00     0.000 C 
BRANCH   5   6
ATOM      6  C   UNL     1      52.380  -5.005  10.651  1.00  0.00     0.000 C 
BRANCH   6   7
ATOM      7  C   UNL     1      52.423  -4.641   9.156  1.00  0.00     0.006 C 
BRANCH   7   8
ATOM      8  C   UNL     1      53.492  -3.601   8.788  1.00  0.00     0.053 C 
BRANCH   8   9
ATOM      9  C   UNL     1      54.264  -3.998   7.567  1.00  0.00     0.041 C 
ATOM     10  O   UNL     1      55.351  -4.625   7.680  1.00  0.00    -0.550 OA
ATOM     11  O   UNL     1      53.767  -3.707   6.304  1.00  0.00    -0.550 OA
ENDBRANCH   8   9
ENDBRANCH   7   8
ENDBRANCH   6   7
ENDBRANCH   5   6
ENDBRANCH   4   5
ENDBRANCH   3   4
ENDBRANCH   2   3
ENDBRANCH   1   2
BRANCH   1  12
ATOM     12  C   UNL     1      52.081   1.342  11.210  1.00  0.00     0.000 C 
BRANCH  12  13
ATOM     13  C   UNL     1      53.185   1.929  12.099  1.00  0.00    -0.000 C 
BRANCH  13  14
ATOM     14  C   UNL     1      52.860   1.731  13.586  1.00  0.00    -0.000 C 
BRANCH  14  15
ATOM     15  C   UNL     1      54.117   1.590  14.465  1.00  0.00    -0.000 C 
BRANCH  15  16
ATOM     16  C   UNL     1      55.289   0.832  13.817  1.00  0.00    -0.000 C 
BRANCH  16  17
ATOM     17  C   UNL     1      56.161   0.087  14.842  1.00  0.00    -0.000 C 
BRANCH  17  18
ATOM     18  C   UNL     1      55.813  -1.410  14.948  1.00  0.00    -0.000 C 
BRANCH  18  19
ATOM     19  C   UNL     1      56.990  -2.373  14.711  1.00  0.00    -0.003 C 
ATOM     20  C   UNL     1      56.659  -3.495  13.728  1.00  0.00     0.004 C 
ENDBRANCH  18  19
ENDBRANCH  17  18
ENDBRANCH  16  17
ENDBRANCH  15  16
ENDBRANCH  14  15
ENDBRANCH  13  14
ENDBRANCH  12  13
ENDBRANCH   1  12
TORSDOF 16
ENDMDL
MODEL 8
REMARK VINA RESULT:    -4.778      2.120      3.684
REMARK INTER + INTRA:         -10.378
REMARK INTER:                  -8.522
REMARK INTRA:                  -1.856
REMARK UNBOUND:                -1.132
REMARK SMILES CCCCCCCCCCCCCCCCCC(=O)[O-]
REMARK SMILES IDX 10 1 11 2 12 3 13 4 14 5 15 6 16 7 17 8 18 9 19 10 20 11
REMARK SMILES IDX 9 12 8 13 7 14 6 15 5 16 4 17 3 18 2 19 1 20
REMARK H PARENT
REMARK Flexibility Score: inf
ROOT
ATOM      1  C   UNL     1      58.831   0.461  19.739  1.00  0.00     0.000 C 
ENDROOT
BRANCH   1   2
ATOM      2  C   UNL     1      58.586   0.457  21.257  1.00  0.00     0.000 C 
BRANCH   2   3
ATOM      3  C   UNL     1      57.936  -0.848  21.746  1.00  0.00     0.000 C 
BRANCH   3   4
ATOM      4  C   UNL     1      57.283  -1.646  20.606  1.00  0.00     0.000 C 
BRANCH   4   5
ATOM      5  C   UNL     1      57.269  -3.160  20.871  1.00  0.00     0.000 C 
BRANCH   5   6
ATOM      6  C   UNL     1      58.609  -3.798  20.475  1.00  0.00     0.000 C 
BRANCH   6   7
ATOM      7  C   UNL     1      59.434  -4.259  21.690  1.00  0.00     0.006 C 
BRANCH   7   8
ATOM      8  C   UNL     1      60.696  -3.423  21.953  1.00  0.00     0.053 C 
BRANCH   8   9
ATOM      9  C   UNL     1      61.939  -4.133  21.514  1.00  0.00     0.041 C 
ATOM     10  O   UNL     1      62.060  -4.522  20.322  1.00  0.00    -0.550 OA
ATOM     11  O   UNL     1      62.979  -4.336  22.411  1.00  0.00    -0.550 OA
ENDBRANCH   8   9
ENDBRANCH   7   8
ENDBRANCH   6   7
ENDBRANCH   5   6
ENDBRANCH   4   5
ENDBRANCH   3   4
ENDBRANCH   2   3
ENDBRANCH   1   2
BRANCH   1  12
ATOM     12  C   UNL     1      58.312   1.736  19.057  1.00  0.00     0.000 C 
BRANCH  12  13
ATOM     13  C   UNL     1      57.557   1.400  17.765  1.00  0.00    -0.000 C 
BRANCH  13  14
ATOM     14  C   UNL     1      56.296   0.575  18.061  1.00  0.00    -0.000 C 
BRANCH  14  15
ATOM     15  C   UNL     1      56.217  -0.723  17.236  1.00  0.00    -0.000 C 
BRANCH  15  16
ATOM     16  C   UNL     1      57.534  -1.161  16.572  1.00  0.00    -0.000 C 
BRANCH  16  17
ATOM     17  C   UNL     1      57.392  -1.401  15.060  1.00  0.00    -0.000 C 
BRANCH  17  18
ATOM     18  C   UNL     1      55.927  -1.563  14.613  1.00  0.00    -0.000 C 
BRANCH  18  19
ATOM     19  C   UNL     1      55.622  -2.850  13.828  1.00  0.00    -0.003 C 
ATOM     20  C   UNL     1      56.799  -3.823  13.788  1.00  0.00     0.004 C 
ENDBRANCH  18  19
ENDBRANCH  17  18
ENDBRANCH  16  17
ENDBRANCH  15  16
ENDBRANCH  14  15
ENDBRANCH  13  14
ENDBRANCH  12  13
ENDBRANCH   1  12
TORSDOF 16
ENDMDL
MODEL 9
REMARK VINA RESULT:    -4.704      4.345      7.108
REMARK INTER + INTRA:         -10.235
REMARK INTER:                  -7.922
REMARK INTRA:                  -2.314
REMARK UNBOUND:                -1.132
REMARK SMILES CCCCCCCCCCCCCCCCCC(=O)[O-]
REMARK SMILES IDX 10 1 11 2 12 3 13 4 14 5 15 6 16 7 17 8 18 9 19 10 20 11
REMARK SMILES IDX 9 12 8 13 7 14 6 15 5 16 4 17 3 18 2 19 1 20
REMARK H PARENT
REMARK Flexibility Score: inf
ROOT
ATOM      1  C   UNL     1      60.605  -3.892  20.863  1.00  0.00     0.000 C 
ENDROOT
BRANCH   1   2
ATOM      2  C   UNL     1      60.416  -4.240  22.348  1.00  0.00     0.000 C 
BRANCH   2   3
ATOM      3  C   UNL     1      60.952  -3.143  23.284  1.00  0.00     0.000 C 
BRANCH   3   4
ATOM      4  C   UNL     1      61.414  -3.699  24.640  1.00  0.00     0.000 C 
BRANCH   4   5
ATOM      5  C   UNL     1      60.994  -5.161  24.859  1.00  0.00     0.000 C 
BRANCH   5   6
ATOM      6  C   UNL     1      62.221  -6.051  25.114  1.00  0.00     0.000 C 
BRANCH   6   7
ATOM      7  C   UNL     1      63.546  -5.362  24.739  1.00  0.00     0.006 C 
BRANCH   7   8
ATOM      8  C   UNL     1      64.252  -5.971  23.517  1.00  0.00     0.053 C 
BRANCH   8   9
ATOM      9  C   UNL     1      64.005  -5.173  22.273  1.00  0.00     0.041 C 
ATOM     10  O   UNL     1      63.602  -5.742  21.224  1.00  0.00    -0.550 OA
ATOM     11  O   UNL     1      64.188  -3.796  22.282  1.00  0.00    -0.550 OA
ENDBRANCH   8   9
ENDBRANCH   7   8
ENDBRANCH   6   7
ENDBRANCH   5   6
ENDBRANCH   4   5
ENDBRANCH   3   4
ENDBRANCH   2   3
ENDBRANCH   1   2
BRANCH   1  12
ATOM     12  C   UNL     1      59.366  -4.217  20.014  1.00  0.00     0.000 C 
BRANCH  12  13
ATOM     13  C   UNL     1      58.104  -4.273  20.884  1.00  0.00    -0.000 C 
BRANCH  13  14
ATOM     14  C   UNL     1      57.263  -2.998  20.720  1.00  0.00    -0.000 C 
BRANCH  14  15
ATOM     15  C   UNL     1      57.640  -1.894  21.725  1.00  0.00    -0.000 C 
BRANCH  15  16
ATOM     16  C   UNL     1      58.364  -0.676  21.122  1.00  0.00    -0.000 C 
BRANCH  16  17
ATOM     17  C   UNL     1      58.511  -0.762  19.593  1.00  0.00    -0.000 C 
BRANCH  17  18
ATOM     18  C   UNL     1      57.656   0.282  18.850  1.00  0.00    -0.000 C 
BRANCH  18  19
ATOM     19  C   UNL     1      56.135   0.107  19.000  1.00  0.00    -0.003 C 
ATOM     20  C   UNL     1      55.540  -0.871  17.988  1.00  0.00     0.004 C 
ENDBRANCH  18  19
ENDBRANCH  17  18
ENDBRANCH  16  17
ENDBRANCH  15  16
ENDBRANCH  14  15
ENDBRANCH  13  14
ENDBRANCH  12  13
ENDBRANCH   1  12
TORSDOF 16
ENDMDL
