MODEL 1
REMARK VINA RESULT:    -3.444      0.000      0.000
REMARK INTER + INTRA:          -6.051
REMARK INTER:                  -5.457
REMARK INTRA:                  -0.594
REMARK UNBOUND:                -0.594
REMARK SMILES CCCCCCCCCCCC(=O)[O-]
REMARK SMILES IDX 7 1 8 2 9 3 10 4 11 5 12 6 13 7 14 8 6 9 5 10 4 11 3 12 2 13
REMARK SMILES IDX 1 14
REMARK H PARENT
REMARK Flexibility Score: inf
ROOT
ATOM      1  C   UNL     1      26.339  21.159  16.420  1.00  0.00     0.000 C 
ENDROOT
BRANCH   1   2
ATOM      2  C   UNL     1      27.792  20.757  16.719  1.00  0.00     0.000 C 
BRANCH   2   3
ATOM      3  C   UNL     1      28.485  20.100  15.516  1.00  0.00     0.000 C 
BRANCH   3   4
ATOM      4  C   UNL     1      28.147  20.792  14.186  1.00  0.00     0.006 C 
BRANCH   4   5
ATOM      5  C   UNL     1      29.039  22.014  13.925  1.00  0.00     0.053 C 
BRANCH   5   6
ATOM      6  C   UNL     1      28.887  22.528  12.527  1.00  0.00     0.041 C 
ATOM      7  O   UNL     1      29.600  23.485  12.122  1.00  0.00    -0.550 OA
ATOM      8  O   UNL     1      27.979  21.934  11.661  1.00  0.00    -0.550 OA
ENDBRANCH   5   6
ENDBRANCH   4   5
ENDBRANCH   3   4
ENDBRANCH   2   3
ENDBRANCH   1   2
BRANCH   1   9
ATOM      9  C   UNL     1      25.420  19.932  16.420  1.00  0.00     0.000 C 
BRANCH   9  10
ATOM     10  C   UNL     1      24.463  19.959  15.221  1.00  0.00    -0.000 C 
BRANCH  10  11
ATOM     11  C   UNL     1      23.117  20.582  15.604  1.00  0.00    -0.000 C 
BRANCH  11  12
ATOM     12  C   UNL     1      22.009  20.135  14.639  1.00  0.00    -0.000 C 
BRANCH  12  13
ATOM     13  C   UNL     1      22.532  19.877  13.217  1.00  0.00    -0.003 C 
ATOM     14  C   UNL     1      21.532  20.285  12.136  1.00  0.00     0.004 C 
ENDBRANCH  12  13
ENDBRANCH  11  12
ENDBRANCH  10  11
ENDBRANCH   9  10
ENDBRANCH   1   9
TORSDOF 10
ENDMDL
MODEL 2
REMARK VINA RESULT:    -2.748      3.189      6.131
REMARK INTER + INTRA:          -4.948
REMARK INTER:                  -4.424
REMARK INTRA:                  -0.524
REMARK UNBOUND:                -0.594
REMARK SMILES CCCCCCCCCCCC(=O)[O-]
REMARK SMILES IDX 7 1 8 2 9 3 10 4 11 5 12 6 13 7 14 8 6 9 5 10 4 11 3 12 2 13
REMARK SMILES IDX 1 14
REMARK H PARENT
REMARK Flexibility Score: inf
ROOT
ATOM      1  C   UNL     1      28.665  20.831  14.773  1.00  0.00     0.000 C 
ENDROOT
BRANCH   1   2
ATOM      2  C   UNL     1      27.210  20.335  14.785  1.00  0.00     0.000 C 
BRANCH   2   3
ATOM      3  C   UNL     1      26.452  20.753  16.054  1.00  0.00     0.000 C 
BRANCH   3   4
ATOM      4  C   UNL     1      25.097  20.040  16.196  1.00  0.00     0.006 C 
BRANCH   4   5
ATOM      5  C   UNL     1      24.385  19.875  14.845  1.00  0.00     0.053 C 
BRANCH   5   6
ATOM      6  C   UNL     1      22.965  20.348  14.901  1.00  0.00     0.041 C 
ATOM      7  O   UNL     1      22.577  21.077  15.852  1.00  0.00    -0.550 OA
ATOM      8  O   UNL     1      22.078  20.009  13.888  1.00  0.00    -0.550 OA
ENDBRANCH   5   6
ENDBRANCH   4   5
ENDBRANCH   3   4
ENDBRANCH   2   3
ENDBRANCH   1   2
BRANCH   1   9
ATOM      9  C   UNL     1      28.882  21.868  13.666  1.00  0.00     0.000 C 
BRANCH   9  10
ATOM     10  C   UNL     1      30.019  21.445  12.728  1.00  0.00    -0.000 C 
BRANCH  10  11
ATOM     11  C   UNL     1      29.768  20.046  12.154  1.00  0.00    -0.000 C 
BRANCH  11  12
ATOM     12  C   UNL     1      30.106  19.997  10.657  1.00  0.00    -0.000 C 
BRANCH  12  13
ATOM     13  C   UNL     1      29.250  20.965   9.825  1.00  0.00    -0.003 C 
ATOM     14  C   UNL     1      28.066  20.274   9.150  1.00  0.00     0.004 C 
ENDBRANCH  12  13
ENDBRANCH  11  12
ENDBRANCH  10  11
ENDBRANCH   9  10
ENDBRANCH   1   9
TORSDOF 10
ENDMDL
MODEL 3
REMARK VINA RESULT:    -2.694     12.357     15.341
REMARK INTER + INTRA:          -4.863
REMARK INTER:                  -4.059
REMARK INTRA:                  -0.804
REMARK UNBOUND:                -0.594
REMARK SMILES CCCCCCCCCCCC(=O)[O-]
REMARK SMILES IDX 7 1 8 2 9 3 10 4 11 5 12 6 13 7 14 8 6 9 5 10 4 11 3 12 2 13
REMARK SMILES IDX 1 14
REMARK H PARENT
REMARK Flexibility Score: inf
ROOT
ATOM      1  C   UNL     1       9.940  23.189  16.665  1.00  0.00     0.000 C 
ENDROOT
BRANCH   1   2
ATOM      2  C   UNL     1      10.128  22.013  15.695  1.00  0.00     0.000 C 
BRANCH   2   3
ATOM      3  C   UNL     1      11.201  22.287  14.630  1.00  0.00     0.000 C 
BRANCH   3   4
ATOM      4  C   UNL     1      12.630  22.191  15.191  1.00  0.00     0.006 C 
BRANCH   4   5
ATOM      5  C   UNL     1      12.941  20.795  15.748  1.00  0.00     0.053 C 
BRANCH   5   6
ATOM      6  C   UNL     1      14.210  20.781  16.543  1.00  0.00     0.041 C 
ATOM      7  O   UNL     1      14.292  20.090  17.594  1.00  0.00    -0.550 OA
ATOM      8  O   UNL     1      15.312  21.506  16.110  1.00  0.00    -0.550 OA
ENDBRANCH   5   6
ENDBRANCH   4   5
ENDBRANCH   3   4
ENDBRANCH   2   3
ENDBRANCH   1   2
BRANCH   1   9
ATOM      9  C   UNL     1       9.877  22.700  18.116  1.00  0.00     0.000 C 
BRANCH   9  10
ATOM     10  C   UNL     1      10.707  21.424  18.305  1.00  0.00    -0.000 C 
BRANCH  10  11
ATOM     11  C   UNL     1      11.398  21.413  19.673  1.00  0.00    -0.000 C 
BRANCH  11  12
ATOM     12  C   UNL     1      10.377  21.589  20.806  1.00  0.00    -0.000 C 
BRANCH  12  13
ATOM     13  C   UNL     1      10.970  22.306  22.030  1.00  0.00    -0.003 C 
ATOM     14  C   UNL     1      12.035  21.474  22.743  1.00  0.00     0.004 C 
ENDBRANCH  12  13
ENDBRANCH  11  12
ENDBRANCH  10  11
ENDBRANCH   9  10
ENDBRANCH   1   9
TORSDOF 10
ENDMDL
MODEL 4
REMARK VINA RESULT:    -2.456     15.119     16.452
REMARK INTER + INTRA:          -4.487
REMARK INTER:                  -3.776
REMARK INTRA:                  -0.710
REMARK UNBOUND:                -0.594
REMARK SMILES CCCCCCCCCCCC(=O)[O-]
REMARK SMILES IDX 7 1 8 2 9 3 10 4 11 5 12 6 13 7 14 8 6 9 5 10 4 11 3 12 2 13
REMARK SMILES IDX 1 14
REMARK H PARENT
REMARK Flexibility Score: inf
ROOT
ATOM      1  C   UNL     1      12.287  20.450  18.703  1.00  0.00     0.000 C 
ENDROOT
BRANCH   1   2
ATOM      2  C   UNL     1      12.720  20.043  20.120  1.00  0.00     0.000 C 
BRANCH   2   3
ATOM      3  C   UNL     1      11.531  19.876  21.078  1.00  0.00     0.000 C 
BRANCH   3   4
ATOM      4  C   UNL     1      11.941  19.990  22.556  1.00  0.00     0.006 C 
BRANCH   4   5
ATOM      5  C   UNL     1      11.138  21.067  23.299  1.00  0.00     0.053 C 
BRANCH   5   6
ATOM      6  C   UNL     1      11.101  22.358  22.543  1.00  0.00     0.041 C 
ATOM      7  O   UNL     1      10.064  22.693  21.911  1.00  0.00    -0.550 OA
ATOM      8  O   UNL     1      12.200  23.207  22.559  1.00  0.00    -0.550 OA
ENDBRANCH   5   6
ENDBRANCH   4   5
ENDBRANCH   3   4
ENDBRANCH   2   3
ENDBRANCH   1   2
BRANCH   1   9
ATOM      9  C   UNL     1      11.339  21.654  18.743  1.00  0.00     0.000 C 
BRANCH   9  10
ATOM     10  C   UNL     1       9.947  21.279  18.220  1.00  0.00    -0.000 C 
BRANCH  10  11
ATOM     11  C   UNL     1       9.875  21.415  16.695  1.00  0.00    -0.000 C 
BRANCH  11  12
ATOM     12  C   UNL     1       9.968  22.887  16.269  1.00  0.00    -0.000 C 
BRANCH  12  13
ATOM     13  C   UNL     1      10.902  23.098  15.067  1.00  0.00    -0.003 C 
ATOM     14  C   UNL     1      11.282  21.788  14.378  1.00  0.00     0.004 C 
ENDBRANCH  12  13
ENDBRANCH  11  12
ENDBRANCH  10  11
ENDBRANCH   9  10
ENDBRANCH   1   9
TORSDOF 10
ENDMDL
MODEL 5
REMARK VINA RESULT:    -2.390     13.756     16.018
REMARK INTER + INTRA:          -4.381
REMARK INTER:                  -3.607
REMARK INTRA:                  -0.774
REMARK UNBOUND:                -0.594
REMARK SMILES CCCCCCCCCCCC(=O)[O-]
REMARK SMILES IDX 7 1 8 2 9 3 10 4 11 5 12 6 13 7 14 8 6 9 5 10 4 11 3 12 2 13
REMARK SMILES IDX 1 14
REMARK H PARENT
REMARK Flexibility Score: inf
ROOT
ATOM      1  C   UNL     1      13.097  20.609  18.236  1.00  0.00     0.000 C 
ENDROOT
BRANCH   1   2
ATOM      2  C   UNL     1      11.905  19.994  18.985  1.00  0.00     0.000 C 
BRANCH   2   3
ATOM      3  C   UNL     1      10.741  20.982  19.160  1.00  0.00     0.000 C 
BRANCH   3   4
ATOM      4  C   UNL     1      10.137  20.941  20.574  1.00  0.00     0.006 C 
BRANCH   4   5
ATOM      5  C   UNL     1      10.397  22.238  21.353  1.00  0.00     0.053 C 
BRANCH   5   6
ATOM      6  C   UNL     1      11.236  21.999  22.570  1.00  0.00     0.041 C 
ATOM      7  O   UNL     1      12.356  22.566  22.688  1.00  0.00    -0.550 OA
ATOM      8  O   UNL     1      10.772  21.176  23.587  1.00  0.00    -0.550 OA
ENDBRANCH   5   6
ENDBRANCH   4   5
ENDBRANCH   3   4
ENDBRANCH   2   3
ENDBRANCH   1   2
BRANCH   1   9
ATOM      9  C   UNL     1      13.344  19.885  16.908  1.00  0.00     0.000 C 
BRANCH   9  10
ATOM     10  C   UNL     1      13.620  20.884  15.777  1.00  0.00    -0.000 C 
BRANCH  10  11
ATOM     11  C   UNL     1      12.593  22.021  15.783  1.00  0.00    -0.000 C 
BRANCH  11  12
ATOM     12  C   UNL     1      11.843  22.092  14.445  1.00  0.00    -0.000 C 
BRANCH  12  13
ATOM     13  C   UNL     1      10.333  22.315  14.625  1.00  0.00    -0.003 C 
ATOM     14  C   UNL     1       9.963  22.742  16.045  1.00  0.00     0.004 C 
ENDBRANCH  12  13
ENDBRANCH  11  12
ENDBRANCH  10  11
ENDBRANCH   9  10
ENDBRANCH   1   9
TORSDOF 10
ENDMDL
MODEL 6
REMARK VINA RESULT:    -2.234     13.845     15.754
REMARK INTER + INTRA:          -4.134
REMARK INTER:                  -3.230
REMARK INTRA:                  -0.904
REMARK UNBOUND:                -0.594
REMARK SMILES CCCCCCCCCCCC(=O)[O-]
REMARK SMILES IDX 7 1 8 2 9 3 10 4 11 5 12 6 13 7 14 8 6 9 5 10 4 11 3 12 2 13
REMARK SMILES IDX 1 14
REMARK H PARENT
REMARK Flexibility Score: inf
ROOT
ATOM      1  C   UNL     1      11.161  21.723  18.808  1.00  0.00     0.000 C 
ENDROOT
BRANCH   1   2
ATOM      2  C   UNL     1      12.098  20.551  18.478  1.00  0.00     0.000 C 
BRANCH   2   3
ATOM      3  C   UNL     1      13.262  20.962  17.563  1.00  0.00     0.000 C 
BRANCH   3   4
ATOM      4  C   UNL     1      12.951  20.741  16.073  1.00  0.00     0.006 C 
BRANCH   4   5
ATOM      5  C   UNL     1      12.783  22.065  15.314  1.00  0.00     0.053 C 
BRANCH   5   6
ATOM      6  C   UNL     1      11.368  22.281  14.874  1.00  0.00     0.041 C 
ATOM      7  O   UNL     1      11.025  22.018  13.691  1.00  0.00    -0.550 OA
ATOM      8  O   UNL     1      10.421  22.743  15.778  1.00  0.00    -0.550 OA
ENDBRANCH   5   6
ENDBRANCH   4   5
ENDBRANCH   3   4
ENDBRANCH   2   3
ENDBRANCH   1   2
BRANCH   1   9
ATOM      9  C   UNL     1       9.923  21.238  19.571  1.00  0.00     0.000 C 
BRANCH   9  10
ATOM     10  C   UNL     1      10.178  19.875  20.226  1.00  0.00    -0.000 C 
BRANCH  10  11
ATOM     11  C   UNL     1      10.340  20.014  21.744  1.00  0.00    -0.000 C 
BRANCH  11  12
ATOM     12  C   UNL     1      11.824  20.033  22.139  1.00  0.00    -0.000 C 
BRANCH  12  13
ATOM     13  C   UNL     1      12.255  21.374  22.753  1.00  0.00    -0.003 C 
ATOM     14  C   UNL     1      11.175  22.449  22.643  1.00  0.00     0.004 C 
ENDBRANCH  12  13
ENDBRANCH  11  12
ENDBRANCH  10  11
ENDBRANCH   9  10
ENDBRANCH   1   9
TORSDOF 10
ENDMDL
MODEL 7
REMARK VINA RESULT:    -2.194      2.797      5.834
REMARK INTER + INTRA:          -4.071
REMARK INTER:                  -3.595
REMARK INTRA:                  -0.476
REMARK UNBOUND:                -0.594
REMARK SMILES CCCCCCCCCCCC(=O)[O-]
REMARK SMILES IDX 7 1 8 2 9 3 10 4 11 5 12 6 13 7 14 8 6 9 5 10 4 11 3 12 2 13
REMARK SMILES IDX 1 14
REMARK H PARENT
REMARK Flexibility Score: inf
ROOT
ATOM      1  C   UNL     1      26.042  20.099  16.376  1.00  0.00     0.000 C 
ENDROOT
BRANCH   1   2
ATOM      2  C   UNL     1      24.832  20.055  15.429  1.00  0.00     0.000 C 
BRANCH   2   3
ATOM      3  C   UNL     1      23.531  20.507  16.108  1.00  0.00     0.000 C 
BRANCH   3   4
ATOM      4  C   UNL     1      22.350  20.594  15.126  1.00  0.00     0.006 C 
BRANCH   4   5
ATOM      5  C   UNL     1      22.694  20.002  13.752  1.00  0.00     0.053 C 
BRANCH   5   6
ATOM      6  C   UNL     1      21.864  20.603  12.661  1.00  0.00     0.041 C 
ATOM      7  O   UNL     1      21.102  19.875  11.970  1.00  0.00    -0.550 OA
ATOM      8  O   UNL     1      21.906  21.971  12.426  1.00  0.00    -0.550 OA
ENDBRANCH   5   6
ENDBRANCH   4   5
ENDBRANCH   3   4
ENDBRANCH   2   3
ENDBRANCH   1   2
BRANCH   1   9
ATOM      9  C   UNL     1      26.783  21.435  16.257  1.00  0.00     0.000 C 
BRANCH   9  10
ATOM     10  C   UNL     1      28.051  21.290  15.407  1.00  0.00    -0.000 C 
BRANCH  10  11
ATOM     11  C   UNL     1      28.089  19.929  14.702  1.00  0.00    -0.000 C 
BRANCH  11  12
ATOM     12  C   UNL     1      28.757  20.043  13.324  1.00  0.00    -0.000 C 
BRANCH  12  13
ATOM     13  C   UNL     1      28.411  21.356  12.605  1.00  0.00    -0.003 C 
ATOM     14  C   UNL     1      28.839  21.358  11.138  1.00  0.00     0.004 C 
ENDBRANCH  12  13
ENDBRANCH  11  12
ENDBRANCH  10  11
ENDBRANCH   9  10
ENDBRANCH   1   9
TORSDOF 10
ENDMDL
