MODEL 1
REMARK VINA RESULT:    -6.680      0.000      0.000
REMARK INTER + INTRA:         -10.327
REMARK INTER:                  -8.828
REMARK INTRA:                  -1.499
REMARK UNBOUND:                -1.499
REMARK SMILES CC[C@H](C=C[C@@H](C)[C@H]1CC[C@H]2[C@H]3CC=C4C[C@@H](O)CC[C@@]4(C)[C@H]3CC[C@@]12C)C(C)C
REMARK SMILES IDX 6 1 7 2 5 3 4 4 3 5 2 6 1 7 28 8 29 9 30 10 8 11 9 12 26 13
REMARK SMILES IDX 10 14 11 15 25 16 27 17 12 18 24 19 23 20 13 21 21 22 14 23
REMARK SMILES IDX 15 24 20 25 22 26 16 27 19 28 17 29 18 30
REMARK H PARENT 18 31
REMARK Flexibility Score: inf
ROOT
ATOM      1  C   UNL     1     114.491 123.551 121.936  1.00  0.00     0.012 C 
ATOM      2  C   UNL     1     113.561 124.747 121.634  1.00  0.00     0.012 C 
ENDROOT
BRANCH   1   3
ATOM      3  C   UNL     1     113.958 122.899 123.202  1.00  0.00    -0.028 C 
ATOM      4  C   UNL     1     113.608 121.600 123.242  1.00  0.00    -0.027 C 
BRANCH   4   5
ATOM      5  C   UNL     1     112.836 120.994 124.403  1.00  0.00     0.014 C 
BRANCH   5   6
ATOM      6  C   UNL     1     111.650 120.125 123.908  1.00  0.00     0.004 C 
ATOM      7  C   UNL     1     111.680 119.877 122.399  1.00  0.00     0.004 C 
ENDBRANCH   5   6
BRANCH   5   8
ATOM      8  C   UNL     1     113.796 120.213 125.359  1.00  0.00    -0.011 C 
ATOM      9  C   UNL     1     113.117 118.952 125.928  1.00  0.00     0.008 C 
ATOM     10  C   UNL     1     115.107 119.805 124.662  1.00  0.00     0.008 C 
ENDBRANCH   5   8
ENDBRANCH   4   5
ENDBRANCH   1   3
BRANCH   1  11
ATOM     11  C   UNL     1     115.994 123.970 122.126  1.00  0.00     0.002 C 
ATOM     12  C   UNL     1     116.440 123.778 123.588  1.00  0.00     0.005 C 
ATOM     13  C   UNL     1     117.116 123.243 121.259  1.00  0.00    -0.026 C 
ATOM     14  C   UNL     1     117.252 122.509 123.612  1.00  0.00     0.005 C 
ATOM     15  C   UNL     1     118.036 122.529 122.305  1.00  0.00    -0.001 C 
ATOM     16  C   UNL     1     116.596 122.214 120.219  1.00  0.00     0.007 C 
ATOM     17  C   UNL     1     117.907 124.346 120.502  1.00  0.00     0.012 C 
ATOM     18  C   UNL     1     118.647 121.141 121.897  1.00  0.00     0.000 C 
ATOM     19  C   UNL     1     117.687 121.343 119.554  1.00  0.00     0.005 C 
ATOM     20  C   UNL     1     118.979 121.110 120.389  1.00  0.00     0.003 C 
ATOM     21  C   UNL     1     117.817 119.896 122.295  1.00  0.00     0.031 C 
ATOM     22  C   UNL     1     119.764 119.796 119.994  1.00  0.00    -0.008 C 
ATOM     23  C   UNL     1     118.300 118.614 121.667  1.00  0.00    -0.027 C 
ATOM     24  C   UNL     1     119.071 118.554 120.561  1.00  0.00    -0.065 C 
ATOM     25  C   UNL     1     119.893 119.672 118.436  1.00  0.00     0.014 C 
ATOM     26  C   UNL     1     121.200 119.856 120.586  1.00  0.00     0.016 C 
ATOM     27  C   UNL     1     119.469 117.187 120.032  1.00  0.00     0.063 C 
ATOM     28  C   UNL     1     120.390 118.296 117.957  1.00  0.00     0.033 C 
ATOM     29  C   UNL     1     119.508 117.163 118.499  1.00  0.00     0.118 C 
BRANCH  29  30
ATOM     30  O   UNL     1     118.205 117.280 117.978  1.00  0.00    -0.393 OA
ATOM     31  H   UNL     1     118.280 117.829 117.151  1.00  0.00     0.210 HD
ENDBRANCH  29  30
ENDBRANCH   1  11
TORSDOF 6
ENDMDL
MODEL 2
REMARK VINA RESULT:    -6.677      3.725      6.416
REMARK INTER + INTRA:         -10.323
REMARK INTER:                  -9.328
REMARK INTRA:                  -0.994
REMARK UNBOUND:                -1.499
REMARK SMILES CC[C@H](C=C[C@@H](C)[C@H]1CC[C@H]2[C@H]3CC=C4C[C@@H](O)CC[C@@]4(C)[C@H]3CC[C@@]12C)C(C)C
REMARK SMILES IDX 6 1 7 2 5 3 4 4 3 5 2 6 1 7 28 8 29 9 30 10 8 11 9 12 26 13
REMARK SMILES IDX 10 14 11 15 25 16 27 17 12 18 24 19 23 20 13 21 21 22 14 23
REMARK SMILES IDX 15 24 20 25 22 26 16 27 19 28 17 29 18 30
REMARK H PARENT 18 31
REMARK Flexibility Score: inf
ROOT
ATOM      1  C   UNL     1     113.898 123.595 122.034  1.00  0.00     0.012 C 
ATOM      2  C   UNL     1     113.743 124.754 121.024  1.00  0.00     0.012 C 
ENDROOT
BRANCH   1   3
ATOM      3  C   UNL     1     114.606 124.174 123.250  1.00  0.00    -0.028 C 
ATOM      4  C   UNL     1     114.828 125.495 123.382  1.00  0.00    -0.027 C 
BRANCH   4   5
ATOM      5  C   UNL     1     115.752 126.068 124.445  1.00  0.00     0.014 C 
BRANCH   5   6
ATOM      6  C   UNL     1     117.137 126.444 123.855  1.00  0.00     0.004 C 
ATOM      7  C   UNL     1     117.599 127.844 124.265  1.00  0.00     0.004 C 
ENDBRANCH   5   6
BRANCH   5   8
ATOM      8  C   UNL     1     115.070 127.262 125.188  1.00  0.00    -0.011 C 
ATOM      9  C   UNL     1     113.668 127.551 124.616  1.00  0.00     0.008 C 
ATOM     10  C   UNL     1     114.951 127.013 126.703  1.00  0.00     0.008 C 
ENDBRANCH   5   8
ENDBRANCH   4   5
ENDBRANCH   1   3
BRANCH   1  11
ATOM     11  C   UNL     1     114.707 122.377 121.459  1.00  0.00     0.002 C 
ATOM     12  C   UNL     1     116.050 122.838 120.862  1.00  0.00     0.005 C 
ATOM     13  C   UNL     1     115.084 121.170 122.428  1.00  0.00    -0.026 C 
ATOM     14  C   UNL     1     117.101 122.484 121.882  1.00  0.00     0.005 C 
ATOM     15  C   UNL     1     116.649 121.145 122.452  1.00  0.00    -0.001 C 
ATOM     16  C   UNL     1     114.532 121.277 123.876  1.00  0.00     0.007 C 
ATOM     17  C   UNL     1     114.528 119.867 121.788  1.00  0.00     0.012 C 
ATOM     18  C   UNL     1     117.341 120.752 123.805  1.00  0.00     0.000 C 
ATOM     19  C   UNL     1     115.094 120.237 124.872  1.00  0.00     0.005 C 
ATOM     20  C   UNL     1     116.514 119.684 124.555  1.00  0.00     0.003 C 
ATOM     21  C   UNL     1     117.693 121.928 124.749  1.00  0.00     0.031 C 
ATOM     22  C   UNL     1     117.283 119.140 125.825  1.00  0.00    -0.008 C 
ATOM     23  C   UNL     1     118.114 121.497 126.131  1.00  0.00    -0.027 C 
ATOM     24  C   UNL     1     117.827 120.294 126.671  1.00  0.00    -0.065 C 
ATOM     25  C   UNL     1     116.346 118.233 126.695  1.00  0.00     0.014 C 
ATOM     26  C   UNL     1     118.488 118.273 125.363  1.00  0.00     0.016 C 
ATOM     27  C   UNL     1     118.305 120.004 128.083  1.00  0.00     0.063 C 
ATOM     28  C   UNL     1     116.919 117.892 128.083  1.00  0.00     0.033 C 
ATOM     29  C   UNL     1     117.289 119.162 128.863  1.00  0.00     0.118 C 
BRANCH  29  30
ATOM     30  O   UNL     1     116.130 119.916 129.125  1.00  0.00    -0.393 OA
ATOM     31  H   UNL     1     115.378 119.266 129.188  1.00  0.00     0.210 HD
ENDBRANCH  29  30
ENDBRANCH   1  11
TORSDOF 6
ENDMDL
MODEL 3
REMARK VINA RESULT:    -6.640      3.077      5.684
REMARK INTER + INTRA:         -10.274
REMARK INTER:                  -8.592
REMARK INTRA:                  -1.682
REMARK UNBOUND:                -1.499
REMARK SMILES CC[C@H](C=C[C@@H](C)[C@H]1CC[C@H]2[C@H]3CC=C4C[C@@H](O)CC[C@@]4(C)[C@H]3CC[C@@]12C)C(C)C
REMARK SMILES IDX 6 1 7 2 5 3 4 4 3 5 2 6 1 7 28 8 29 9 30 10 8 11 9 12 26 13
REMARK SMILES IDX 10 14 11 15 25 16 27 17 12 18 24 19 23 20 13 21 21 22 14 23
REMARK SMILES IDX 15 24 20 25 22 26 16 27 19 28 17 29 18 30
REMARK H PARENT 18 31
REMARK Flexibility Score: inf
ROOT
ATOM      1  C   UNL     1     117.905 119.672 127.266  1.00  0.00     0.012 C 
ATOM      2  C   UNL     1     118.509 119.001 128.519  1.00  0.00     0.012 C 
ENDROOT
BRANCH   1   3
ATOM      3  C   UNL     1     116.739 118.800 126.828  1.00  0.00    -0.028 C 
ATOM      4  C   UNL     1     115.552 119.323 126.470  1.00  0.00    -0.027 C 
BRANCH   4   5
ATOM      5  C   UNL     1     114.304 118.475 126.283  1.00  0.00     0.014 C 
BRANCH   5   6
ATOM      6  C   UNL     1     114.021 117.593 127.528  1.00  0.00     0.004 C 
ATOM      7  C   UNL     1     113.552 118.402 128.738  1.00  0.00     0.004 C 
ENDBRANCH   5   6
BRANCH   5   8
ATOM      8  C   UNL     1     113.082 119.366 125.887  1.00  0.00    -0.011 C 
ATOM      9  C   UNL     1     113.525 120.591 125.064  1.00  0.00     0.008 C 
ATOM     10  C   UNL     1     112.026 118.581 125.086  1.00  0.00     0.008 C 
ENDBRANCH   5   8
ENDBRANCH   4   5
ENDBRANCH   1   3
BRANCH   1  11
ATOM     11  C   UNL     1     118.938 119.835 126.093  1.00  0.00     0.002 C 
ATOM     12  C   UNL     1     119.116 118.511 125.326  1.00  0.00     0.005 C 
ATOM     13  C   UNL     1     118.663 120.926 124.965  1.00  0.00    -0.026 C 
ATOM     14  C   UNL     1     118.320 118.657 124.055  1.00  0.00     0.005 C 
ATOM     15  C   UNL     1     118.525 120.109 123.637  1.00  0.00    -0.001 C 
ATOM     16  C   UNL     1     117.402 121.808 125.179  1.00  0.00     0.007 C 
ATOM     17  C   UNL     1     119.906 121.857 124.904  1.00  0.00     0.012 C 
ATOM     18  C   UNL     1     117.491 120.628 122.577  1.00  0.00     0.000 C 
ATOM     19  C   UNL     1     117.006 122.693 123.975  1.00  0.00     0.005 C 
ATOM     20  C   UNL     1     117.436 122.172 122.573  1.00  0.00     0.003 C 
ATOM     21  C   UNL     1     116.063 120.036 122.681  1.00  0.00     0.031 C 
ATOM     22  C   UNL     1     116.543 122.719 121.389  1.00  0.00    -0.008 C 
ATOM     23  C   UNL     1     115.045 120.741 121.822  1.00  0.00    -0.027 C 
ATOM     24  C   UNL     1     115.195 121.994 121.342  1.00  0.00    -0.065 C 
ATOM     25  C   UNL     1     116.314 124.263 121.533  1.00  0.00     0.014 C 
ATOM     26  C   UNL     1     117.270 122.471 120.038  1.00  0.00     0.016 C 
ATOM     27  C   UNL     1     114.076 122.582 120.500  1.00  0.00     0.063 C 
ATOM     28  C   UNL     1     115.233 124.826 120.592  1.00  0.00     0.033 C 
ATOM     29  C   UNL     1     113.901 124.083 120.762  1.00  0.00     0.118 C 
BRANCH  29  30
ATOM     30  O   UNL     1     113.397 124.295 122.059  1.00  0.00    -0.393 OA
ATOM     31  H   UNL     1     113.632 123.485 122.590  1.00  0.00     0.210 HD
ENDBRANCH  29  30
ENDBRANCH   1  11
TORSDOF 6
ENDMDL
MODEL 4
REMARK VINA RESULT:    -6.627      1.348      2.031
REMARK INTER + INTRA:         -10.256
REMARK INTER:                  -8.670
REMARK INTRA:                  -1.586
REMARK UNBOUND:                -1.499
REMARK SMILES CC[C@H](C=C[C@@H](C)[C@H]1CC[C@H]2[C@H]3CC=C4C[C@@H](O)CC[C@@]4(C)[C@H]3CC[C@@]12C)C(C)C
REMARK SMILES IDX 6 1 7 2 5 3 4 4 3 5 2 6 1 7 28 8 29 9 30 10 8 11 9 12 26 13
REMARK SMILES IDX 10 14 11 15 25 16 27 17 12 18 24 19 23 20 13 21 21 22 14 23
REMARK SMILES IDX 15 24 20 25 22 26 16 27 19 28 17 29 18 30
REMARK H PARENT 18 31
REMARK Flexibility Score: inf
ROOT
ATOM      1  C   UNL     1     114.657 124.767 122.788  1.00  0.00     0.012 C 
ATOM      2  C   UNL     1     114.265 125.268 124.196  1.00  0.00     0.012 C 
ENDROOT
BRANCH   1   3
ATOM      3  C   UNL     1     114.178 123.327 122.693  1.00  0.00    -0.028 C 
ATOM      4  C   UNL     1     113.966 122.573 123.788  1.00  0.00    -0.027 C 
BRANCH   4   5
ATOM      5  C   UNL     1     113.742 121.071 123.718  1.00  0.00     0.014 C 
BRANCH   5   6
ATOM      6  C   UNL     1     113.181 120.514 125.053  1.00  0.00     0.004 C 
ATOM      7  C   UNL     1     114.120 119.509 125.722  1.00  0.00     0.004 C 
ENDBRANCH   5   6
BRANCH   5   8
ATOM      8  C   UNL     1     112.851 120.699 122.489  1.00  0.00    -0.011 C 
ATOM      9  C   UNL     1     113.639 119.873 121.454  1.00  0.00     0.008 C 
ATOM     10  C   UNL     1     111.591 119.913 122.901  1.00  0.00     0.008 C 
ENDBRANCH   5   8
ENDBRANCH   4   5
ENDBRANCH   1   3
BRANCH   1  11
ATOM     11  C   UNL     1     116.202 124.850 122.511  1.00  0.00     0.002 C 
ATOM     12  C   UNL     1     117.008 124.655 123.809  1.00  0.00     0.005 C 
ATOM     13  C   UNL     1     116.857 123.838 121.468  1.00  0.00    -0.026 C 
ATOM     14  C   UNL     1     117.525 123.240 123.768  1.00  0.00     0.005 C 
ATOM     15  C   UNL     1     117.882 123.003 122.306  1.00  0.00    -0.001 C 
ATOM     16  C   UNL     1     115.864 122.889 120.744  1.00  0.00     0.007 C 
ATOM     17  C   UNL     1     117.594 124.687 120.395  1.00  0.00     0.012 C 
ATOM     18  C   UNL     1     118.062 121.491 121.922  1.00  0.00     0.000 C 
ATOM     19  C   UNL     1     116.520 121.756 119.921  1.00  0.00     0.005 C 
ATOM     20  C   UNL     1     117.928 121.292 120.396  1.00  0.00     0.003 C 
ATOM     21  C   UNL     1     117.157 120.490 122.681  1.00  0.00     0.031 C 
ATOM     22  C   UNL     1     118.289 119.814 119.968  1.00  0.00    -0.008 C 
ATOM     23  C   UNL     1     117.174 119.096 122.109  1.00  0.00    -0.027 C 
ATOM     24  C   UNL     1     117.561 118.797 120.851  1.00  0.00    -0.065 C 
ATOM     25  C   UNL     1     117.932 119.568 118.462  1.00  0.00     0.014 C 
ATOM     26  C   UNL     1     119.818 119.589 120.137  1.00  0.00     0.016 C 
ATOM     27  C   UNL     1     117.511 117.345 120.407  1.00  0.00     0.063 C 
ATOM     28  C   UNL     1     117.986 118.088 118.040  1.00  0.00     0.033 C 
ATOM     29  C   UNL     1     117.096 117.217 118.937  1.00  0.00     0.118 C 
BRANCH  29  30
ATOM     30  O   UNL     1     115.748 117.589 118.778  1.00  0.00    -0.393 OA
ATOM     31  H   UNL     1     115.315 116.865 118.249  1.00  0.00     0.210 HD
ENDBRANCH  29  30
ENDBRANCH   1  11
TORSDOF 6
ENDMDL
MODEL 5
REMARK VINA RESULT:    -6.532      2.542      3.974
REMARK INTER + INTRA:         -10.131
REMARK INTER:                  -8.846
REMARK INTRA:                  -1.285
REMARK UNBOUND:                -1.499
REMARK SMILES CC[C@H](C=C[C@@H](C)[C@H]1CC[C@H]2[C@H]3CC=C4C[C@@H](O)CC[C@@]4(C)[C@H]3CC[C@@]12C)C(C)C
REMARK SMILES IDX 6 1 7 2 5 3 4 4 3 5 2 6 1 7 28 8 29 9 30 10 8 11 9 12 26 13
REMARK SMILES IDX 10 14 11 15 25 16 27 17 12 18 24 19 23 20 13 21 21 22 14 23
REMARK SMILES IDX 15 24 20 25 22 26 16 27 19 28 17 29 18 30
REMARK H PARENT 18 31
REMARK Flexibility Score: inf
ROOT
ATOM      1  C   UNL     1     114.781 124.093 122.736  1.00  0.00     0.012 C 
ATOM      2  C   UNL     1     113.586 124.586 121.889  1.00  0.00     0.012 C 
ENDROOT
BRANCH   1   3
ATOM      3  C   UNL     1     114.739 124.879 124.038  1.00  0.00    -0.028 C 
ATOM      4  C   UNL     1     114.211 126.114 124.107  1.00  0.00    -0.027 C 
BRANCH   4   5
ATOM      5  C   UNL     1     114.390 127.016 125.319  1.00  0.00     0.014 C 
BRANCH   5   6
ATOM      6  C   UNL     1     113.371 126.675 126.439  1.00  0.00     0.004 C 
ATOM      7  C   UNL     1     112.285 127.740 126.601  1.00  0.00     0.004 C 
ENDBRANCH   5   6
BRANCH   5   8
ATOM      8  C   UNL     1     115.870 126.983 125.821  1.00  0.00    -0.011 C 
ATOM      9  C   UNL     1     116.783 127.847 124.931  1.00  0.00     0.008 C 
ATOM     10  C   UNL     1     115.999 127.457 127.281  1.00  0.00     0.008 C 
ENDBRANCH   5   8
ENDBRANCH   4   5
ENDBRANCH   1   3
BRANCH   1  11
ATOM     11  C   UNL     1     116.168 124.288 122.023  1.00  0.00     0.002 C 
ATOM     12  C   UNL     1     117.256 124.698 123.033  1.00  0.00     0.005 C 
ATOM     13  C   UNL     1     116.800 123.071 121.213  1.00  0.00    -0.026 C 
ATOM     14  C   UNL     1     118.066 123.455 123.297  1.00  0.00     0.005 C 
ATOM     15  C   UNL     1     118.147 122.754 121.946  1.00  0.00    -0.001 C 
ATOM     16  C   UNL     1     115.923 121.791 121.136  1.00  0.00     0.007 C 
ATOM     17  C   UNL     1     117.072 123.565 119.765  1.00  0.00     0.012 C 
ATOM     18  C   UNL     1     118.586 121.249 122.024  1.00  0.00     0.000 C 
ATOM     19  C   UNL     1     116.632 120.542 120.562  1.00  0.00     0.005 C 
ATOM     20  C   UNL     1     118.178 120.490 120.742  1.00  0.00     0.003 C 
ATOM     21  C   UNL     1     118.122 120.476 123.283  1.00  0.00     0.031 C 
ATOM     22  C   UNL     1     118.771 119.025 120.719  1.00  0.00    -0.008 C 
ATOM     23  C   UNL     1     118.339 118.987 123.200  1.00  0.00    -0.027 C 
ATOM     24  C   UNL     1     118.506 118.308 122.045  1.00  0.00    -0.065 C 
ATOM     25  C   UNL     1     118.166 118.198 119.533  1.00  0.00     0.014 C 
ATOM     26  C   UNL     1     120.310 119.098 120.512  1.00  0.00     0.016 C 
ATOM     27  C   UNL     1     118.701 116.802 122.115  1.00  0.00     0.063 C 
ATOM     28  C   UNL     1     118.471 116.691 119.601  1.00  0.00     0.033 C 
ATOM     29  C   UNL     1     118.021 116.090 120.940  1.00  0.00     0.118 C 
BRANCH  29  30
ATOM     30  O   UNL     1     116.621 116.182 121.059  1.00  0.00    -0.393 OA
ATOM     31  H   UNL     1     116.239 115.590 120.355  1.00  0.00     0.210 HD
ENDBRANCH  29  30
ENDBRANCH   1  11
TORSDOF 6
ENDMDL
MODEL 6
REMARK VINA RESULT:    -6.518      2.541      3.869
REMARK INTER + INTRA:         -10.112
REMARK INTER:                  -8.902
REMARK INTRA:                  -1.210
REMARK UNBOUND:                -1.499
REMARK SMILES CC[C@H](C=C[C@@H](C)[C@H]1CC[C@H]2[C@H]3CC=C4C[C@@H](O)CC[C@@]4(C)[C@H]3CC[C@@]12C)C(C)C
REMARK SMILES IDX 6 1 7 2 5 3 4 4 3 5 2 6 1 7 28 8 29 9 30 10 8 11 9 12 26 13
REMARK SMILES IDX 10 14 11 15 25 16 27 17 12 18 24 19 23 20 13 21 21 22 14 23
REMARK SMILES IDX 15 24 20 25 22 26 16 27 19 28 17 29 18 30
REMARK H PARENT 18 31
REMARK Flexibility Score: inf
ROOT
ATOM      1  C   UNL     1     114.873 124.336 122.858  1.00  0.00     0.012 C 
ATOM      2  C   UNL     1     113.867 125.129 121.995  1.00  0.00     0.012 C 
ENDROOT
BRANCH   1   3
ATOM      3  C   UNL     1     114.570 124.689 124.306  1.00  0.00    -0.028 C 
ATOM      4  C   UNL     1     114.082 125.892 124.660  1.00  0.00    -0.027 C 
BRANCH   4   5
ATOM      5  C   UNL     1     114.018 126.359 126.105  1.00  0.00     0.014 C 
BRANCH   5   6
ATOM      6  C   UNL     1     115.316 127.098 126.525  1.00  0.00     0.004 C 
ATOM      7  C   UNL     1     116.139 127.581 125.330  1.00  0.00     0.004 C 
ENDBRANCH   5   6
BRANCH   5   8
ATOM      8  C   UNL     1     112.731 127.211 126.357  1.00  0.00    -0.011 C 
ATOM      9  C   UNL     1     112.884 128.101 127.605  1.00  0.00     0.008 C 
ATOM     10  C   UNL     1     112.378 128.099 125.149  1.00  0.00     0.008 C 
ENDBRANCH   5   8
ENDBRANCH   4   5
ENDBRANCH   1   3
BRANCH   1  11
ATOM     11  C   UNL     1     116.372 124.662 122.518  1.00  0.00     0.002 C 
ATOM     12  C   UNL     1     117.262 124.542 123.769  1.00  0.00     0.005 C 
ATOM     13  C   UNL     1     117.117 123.801 121.403  1.00  0.00    -0.026 C 
ATOM     14  C   UNL     1     117.981 123.224 123.643  1.00  0.00     0.005 C 
ATOM     15  C   UNL     1     118.297 123.099 122.157  1.00  0.00    -0.001 C 
ATOM     16  C   UNL     1     116.243 122.740 120.681  1.00  0.00     0.007 C 
ATOM     17  C   UNL     1     117.665 124.791 120.338  1.00  0.00     0.012 C 
ATOM     18  C   UNL     1     118.681 121.647 121.698  1.00  0.00     0.000 C 
ATOM     19  C   UNL     1     117.019 121.751 119.780  1.00  0.00     0.005 C 
ATOM     20  C   UNL     1     118.502 121.488 120.172  1.00  0.00     0.003 C 
ATOM     21  C   UNL     1     117.973 120.493 122.450  1.00  0.00     0.031 C 
ATOM     22  C   UNL     1     119.057 120.099 119.663  1.00  0.00    -0.008 C 
ATOM     23  C   UNL     1     118.170 119.140 121.816  1.00  0.00    -0.027 C 
ATOM     24  C   UNL     1     118.534 118.951 120.530  1.00  0.00    -0.065 C 
ATOM     25  C   UNL     1     118.666 119.858 118.165  1.00  0.00     0.014 C 
ATOM     26  C   UNL     1     120.609 120.101 119.755  1.00  0.00     0.016 C 
ATOM     27  C   UNL     1     118.679 117.525 120.024  1.00  0.00     0.063 C 
ATOM     28  C   UNL     1     118.920 118.422 117.674  1.00  0.00     0.033 C 
ATOM     29  C   UNL     1     118.215 117.393 118.569  1.00  0.00     0.118 C 
BRANCH  29  30
ATOM     30  O   UNL     1     116.820 117.562 118.486  1.00  0.00    -0.393 OA
ATOM     31  H   UNL     1     116.436 116.663 118.300  1.00  0.00     0.210 HD
ENDBRANCH  29  30
ENDBRANCH   1  11
TORSDOF 6
ENDMDL
MODEL 7
REMARK VINA RESULT:    -6.354      2.396      4.471
REMARK INTER + INTRA:          -9.897
REMARK INTER:                  -8.644
REMARK INTRA:                  -1.253
REMARK UNBOUND:                -1.499
REMARK SMILES CC[C@H](C=C[C@@H](C)[C@H]1CC[C@H]2[C@H]3CC=C4C[C@@H](O)CC[C@@]4(C)[C@H]3CC[C@@]12C)C(C)C
REMARK SMILES IDX 6 1 7 2 5 3 4 4 3 5 2 6 1 7 28 8 29 9 30 10 8 11 9 12 26 13
REMARK SMILES IDX 10 14 11 15 25 16 27 17 12 18 24 19 23 20 13 21 21 22 14 23
REMARK SMILES IDX 15 24 20 25 22 26 16 27 19 28 17 29 18 30
REMARK H PARENT 18 31
REMARK Flexibility Score: inf
ROOT
ATOM      1  C   UNL     1     114.647 122.799 123.997  1.00  0.00     0.012 C 
ATOM      2  C   UNL     1     113.784 121.958 124.964  1.00  0.00     0.012 C 
ENDROOT
BRANCH   1   3
ATOM      3  C   UNL     1     114.476 124.251 124.417  1.00  0.00    -0.028 C 
ATOM      4  C   UNL     1     115.496 124.974 124.913  1.00  0.00    -0.027 C 
BRANCH   4   5
ATOM      5  C   UNL     1     115.295 126.327 125.578  1.00  0.00     0.014 C 
BRANCH   5   6
ATOM      6  C   UNL     1     116.230 127.407 124.969  1.00  0.00     0.004 C 
ATOM      7  C   UNL     1     117.147 126.854 123.877  1.00  0.00     0.004 C 
ENDBRANCH   5   6
BRANCH   5   8
ATOM      8  C   UNL     1     113.789 126.745 125.541  1.00  0.00    -0.011 C 
ATOM      9  C   UNL     1     113.349 127.372 126.878  1.00  0.00     0.008 C 
ATOM     10  C   UNL     1     113.488 127.736 124.401  1.00  0.00     0.008 C 
ENDBRANCH   5   8
ENDBRANCH   4   5
ENDBRANCH   1   3
BRANCH   1  11
ATOM     11  C   UNL     1     114.246 122.614 122.489  1.00  0.00     0.002 C 
ATOM     12  C   UNL     1     114.434 123.925 121.702  1.00  0.00     0.005 C 
ATOM     13  C   UNL     1     114.990 121.506 121.619  1.00  0.00    -0.026 C 
ATOM     14  C   UNL     1     115.713 123.761 120.922  1.00  0.00     0.005 C 
ATOM     15  C   UNL     1     115.710 122.303 120.480  1.00  0.00    -0.001 C 
ATOM     16  C   UNL     1     116.019 120.633 122.388  1.00  0.00     0.007 C 
ATOM     17  C   UNL     1     113.901 120.570 121.025  1.00  0.00     0.012 C 
ATOM     18  C   UNL     1     117.107 121.769 120.001  1.00  0.00     0.000 C 
ATOM     19  C   UNL     1     116.907 119.729 121.501  1.00  0.00     0.005 C 
ATOM     20  C   UNL     1     117.150 120.226 120.046  1.00  0.00     0.003 C 
ATOM     21  C   UNL     1     118.340 122.368 120.721  1.00  0.00     0.031 C 
ATOM     22  C   UNL     1     118.476 119.663 119.395  1.00  0.00    -0.008 C 
ATOM     23  C   UNL     1     119.631 121.652 120.419  1.00  0.00    -0.027 C 
ATOM     24  C   UNL     1     119.706 120.392 119.942  1.00  0.00    -0.065 C 
ATOM     25  C   UNL     1     118.610 118.122 119.650  1.00  0.00     0.014 C 
ATOM     26  C   UNL     1     118.429 119.887 117.857  1.00  0.00     0.016 C 
ATOM     27  C   UNL     1     121.081 119.793 119.698  1.00  0.00     0.063 C 
ATOM     28  C   UNL     1     119.994 117.547 119.299  1.00  0.00     0.033 C 
ATOM     29  C   UNL     1     121.113 118.298 120.034  1.00  0.00     0.118 C 
BRANCH  29  30
ATOM     30  O   UNL     1     120.984 118.108 121.423  1.00  0.00    -0.393 OA
ATOM     31  H   UNL     1     120.558 117.217 121.548  1.00  0.00     0.210 HD
ENDBRANCH  29  30
ENDBRANCH   1  11
TORSDOF 6
ENDMDL
MODEL 8
REMARK VINA RESULT:    -6.271      2.016      2.509
REMARK INTER + INTRA:          -9.786
REMARK INTER:                  -8.594
REMARK INTRA:                  -1.193
REMARK UNBOUND:                -1.499
REMARK SMILES CC[C@H](C=C[C@@H](C)[C@H]1CC[C@H]2[C@H]3CC=C4C[C@@H](O)CC[C@@]4(C)[C@H]3CC[C@@]12C)C(C)C
REMARK SMILES IDX 6 1 7 2 5 3 4 4 3 5 2 6 1 7 28 8 29 9 30 10 8 11 9 12 26 13
REMARK SMILES IDX 10 14 11 15 25 16 27 17 12 18 24 19 23 20 13 21 21 22 14 23
REMARK SMILES IDX 15 24 20 25 22 26 16 27 19 28 17 29 18 30
REMARK H PARENT 18 31
REMARK Flexibility Score: inf
ROOT
ATOM      1  C   UNL     1     114.394 121.254 122.135  1.00  0.00     0.012 C 
ATOM      2  C   UNL     1     113.035 121.155 121.408  1.00  0.00     0.012 C 
ENDROOT
BRANCH   1   3
ATOM      3  C   UNL     1     114.096 121.150 123.623  1.00  0.00    -0.028 C 
ATOM      4  C   UNL     1     114.346 120.028 124.323  1.00  0.00    -0.027 C 
BRANCH   4   5
ATOM      5  C   UNL     1     113.823 119.808 125.734  1.00  0.00     0.014 C 
BRANCH   5   6
ATOM      6  C   UNL     1     112.299 119.516 125.739  1.00  0.00     0.004 C 
ATOM      7  C   UNL     1     111.914 118.340 124.841  1.00  0.00     0.004 C 
ENDBRANCH   5   6
BRANCH   5   8
ATOM      8  C   UNL     1     114.650 118.702 126.466  1.00  0.00    -0.011 C 
ATOM      9  C   UNL     1     116.155 119.031 126.460  1.00  0.00     0.008 C 
ATOM     10  C   UNL     1     114.188 118.497 127.921  1.00  0.00     0.008 C 
ENDBRANCH   5   8
ENDBRANCH   4   5
ENDBRANCH   1   3
BRANCH   1  11
ATOM     11  C   UNL     1     115.167 122.586 121.823  1.00  0.00     0.002 C 
ATOM     12  C   UNL     1     115.485 123.357 123.118  1.00  0.00     0.005 C 
ATOM     13  C   UNL     1     116.553 122.512 121.042  1.00  0.00    -0.026 C 
ATOM     14  C   UNL     1     116.941 123.100 123.408  1.00  0.00     0.005 C 
ATOM     15  C   UNL     1     117.611 123.095 122.038  1.00  0.00    -0.001 C 
ATOM     16  C   UNL     1     116.986 121.094 120.578  1.00  0.00     0.007 C 
ATOM     17  C   UNL     1     116.430 123.420 119.787  1.00  0.00     0.012 C 
ATOM     18  C   UNL     1     119.044 122.454 122.022  1.00  0.00     0.000 C 
ATOM     19  C   UNL     1     118.431 120.991 120.038  1.00  0.00     0.005 C 
ATOM     20  C   UNL     1     119.443 122.037 120.589  1.00  0.00     0.003 C 
ATOM     21  C   UNL     1     119.271 121.284 123.011  1.00  0.00     0.031 C 
ATOM     22  C   UNL     1     120.949 121.563 120.520  1.00  0.00    -0.008 C 
ATOM     23  C   UNL     1     120.560 120.536 122.786  1.00  0.00    -0.027 C 
ATOM     24  C   UNL     1     121.256 120.554 121.630  1.00  0.00    -0.065 C 
ATOM     25  C   UNL     1     121.270 120.933 119.121  1.00  0.00     0.014 C 
ATOM     26  C   UNL     1     121.884 122.790 120.715  1.00  0.00     0.016 C 
ATOM     27  C   UNL     1     122.534 119.737 121.545  1.00  0.00     0.063 C 
ATOM     28  C   UNL     1     122.620 120.196 119.061  1.00  0.00     0.033 C 
ATOM     29  C   UNL     1     122.719 119.121 120.153  1.00  0.00     0.118 C 
BRANCH  29  30
ATOM     30  O   UNL     1     121.751 118.123 119.930  1.00  0.00    -0.393 OA
ATOM     31  H   UNL     1     122.244 117.316 119.619  1.00  0.00     0.210 HD
ENDBRANCH  29  30
ENDBRANCH   1  11
TORSDOF 6
ENDMDL
MODEL 9
REMARK VINA RESULT:    -6.194      1.887      3.322
REMARK INTER + INTRA:          -9.684
REMARK INTER:                  -8.273
REMARK INTRA:                  -1.412
REMARK UNBOUND:                -1.499
REMARK SMILES CC[C@H](C=C[C@@H](C)[C@H]1CC[C@H]2[C@H]3CC=C4C[C@@H](O)CC[C@@]4(C)[C@H]3CC[C@@]12C)C(C)C
REMARK SMILES IDX 6 1 7 2 5 3 4 4 3 5 2 6 1 7 28 8 29 9 30 10 8 11 9 12 26 13
REMARK SMILES IDX 10 14 11 15 25 16 27 17 12 18 24 19 23 20 13 21 21 22 14 23
REMARK SMILES IDX 15 24 20 25 22 26 16 27 19 28 17 29 18 30
REMARK H PARENT 18 31
REMARK Flexibility Score: inf
ROOT
ATOM      1  C   UNL     1     113.302 120.560 123.735  1.00  0.00     0.012 C 
ATOM      2  C   UNL     1     111.767 120.483 123.894  1.00  0.00     0.012 C 
ENDROOT
BRANCH   1   3
ATOM      3  C   UNL     1     113.890 120.370 125.124  1.00  0.00    -0.028 C 
ATOM      4  C   UNL     1     114.833 119.444 125.379  1.00  0.00    -0.027 C 
BRANCH   4   5
ATOM      5  C   UNL     1     115.244 119.058 126.791  1.00  0.00     0.014 C 
BRANCH   5   6
ATOM      6  C   UNL     1     114.195 118.129 127.457  1.00  0.00     0.004 C 
ATOM      7  C   UNL     1     113.104 118.899 128.203  1.00  0.00     0.004 C 
ENDBRANCH   5   6
BRANCH   5   8
ATOM      8  C   UNL     1     116.683 118.447 126.802  1.00  0.00    -0.011 C 
ATOM      9  C   UNL     1     117.758 119.546 126.901  1.00  0.00     0.008 C 
ATOM     10  C   UNL     1     116.881 117.448 127.958  1.00  0.00     0.008 C 
ENDBRANCH   5   8
ENDBRANCH   4   5
ENDBRANCH   1   3
BRANCH   1  11
ATOM     11  C   UNL     1     113.792 121.918 123.113  1.00  0.00     0.002 C 
ATOM     12  C   UNL     1     114.210 122.910 124.214  1.00  0.00     0.005 C 
ATOM     13  C   UNL     1     115.013 121.905 122.090  1.00  0.00    -0.026 C 
ATOM     14  C   UNL     1     115.717 122.889 124.242  1.00  0.00     0.005 C 
ATOM     15  C   UNL     1     116.126 122.764 122.779  1.00  0.00    -0.001 C 
ATOM     16  C   UNL     1     115.571 120.501 121.732  1.00  0.00     0.007 C 
ATOM     17  C   UNL     1     114.532 122.589 120.781  1.00  0.00     0.012 C 
ATOM     18  C   UNL     1     117.616 122.318 122.562  1.00  0.00     0.000 C 
ATOM     19  C   UNL     1     116.897 120.504 120.936  1.00  0.00     0.005 C 
ATOM     20  C   UNL     1     117.816 121.743 121.142  1.00  0.00     0.003 C 
ATOM     21  C   UNL     1     118.192 121.350 123.625  1.00  0.00     0.031 C 
ATOM     22  C   UNL     1     119.341 121.462 120.838  1.00  0.00    -0.008 C 
ATOM     23  C   UNL     1     119.521 120.749 123.247  1.00  0.00    -0.027 C 
ATOM     24  C   UNL     1     119.991 120.680 121.983  1.00  0.00    -0.065 C 
ATOM     25  C   UNL     1     119.504 120.674 119.493  1.00  0.00     0.014 C 
ATOM     26  C   UNL     1     120.094 122.814 120.692  1.00  0.00     0.016 C 
ATOM     27  C   UNL     1     121.345 120.031 121.751  1.00  0.00     0.063 C 
ATOM     28  C   UNL     1     120.920 120.116 119.262  1.00  0.00     0.033 C 
ATOM     29  C   UNL     1     121.375 119.240 120.438  1.00  0.00     0.118 C 
BRANCH  29  30
ATOM     30  O   UNL     1     120.550 118.104 120.536  1.00  0.00    -0.393 OA
ATOM     31  H   UNL     1     120.472 117.893 121.506  1.00  0.00     0.210 HD
ENDBRANCH  29  30
ENDBRANCH   1  11
TORSDOF 6
ENDMDL
