MODEL 1
REMARK VINA RESULT:    -1.065      0.000      0.000
REMARK INTER + INTRA:          -6.297
REMARK INTER:                  -2.311
REMARK INTRA:                  -3.986
REMARK UNBOUND:                -3.986
REMARK SMILES CCCCCCCCCCCCCCCCCCCCCC(=O)[O-]
REMARK SMILES IDX 12 1 11 2 10 3 9 4 8 5 7 6 6 7 5 8 4 9 3 10 2 11 1 12 13 13
REMARK SMILES IDX 14 14 15 15 16 16 17 17 18 18 19 19 20 20 21 21 22 22 23 23
REMARK SMILES IDX 24 24
REMARK H PARENT
REMARK Flexibility Score: inf
ROOT
ATOM      1  C   UNL     1      28.705  -7.163  16.354  1.00  0.00     0.000 C 
ENDROOT
BRANCH   1   2
ATOM      2  C   UNL     1      29.960  -6.500  16.941  1.00  0.00     0.000 C 
BRANCH   2   3
ATOM      3  C   UNL     1      29.785  -6.111  18.420  1.00  0.00     0.000 C 
BRANCH   3   4
ATOM      4  C   UNL     1      28.454  -6.606  19.008  1.00  0.00    -0.000 C 
BRANCH   4   5
ATOM      5  C   UNL     1      28.440  -6.572  20.546  1.00  0.00    -0.000 C 
BRANCH   5   6
ATOM      6  C   UNL     1      27.095  -7.032  21.135  1.00  0.00    -0.000 C 
BRANCH   6   7
ATOM      7  C   UNL     1      27.136  -8.489  21.629  1.00  0.00    -0.000 C 
BRANCH   7   8
ATOM      8  C   UNL     1      26.550  -9.477  20.606  1.00  0.00    -0.000 C 
BRANCH   8   9
ATOM      9  C   UNL     1      25.147  -9.075  20.128  1.00  0.00    -0.000 C 
BRANCH   9  10
ATOM     10  C   UNL     1      24.923  -9.497  18.668  1.00  0.00    -0.000 C 
BRANCH  10  11
ATOM     11  C   UNL     1      26.063 -10.370  18.123  1.00  0.00    -0.003 C 
ATOM     12  C   UNL     1      26.111 -10.397  16.595  1.00  0.00     0.004 C 
ENDBRANCH  10  11
ENDBRANCH   9  10
ENDBRANCH   8   9
ENDBRANCH   7   8
ENDBRANCH   6   7
ENDBRANCH   5   6
ENDBRANCH   4   5
ENDBRANCH   3   4
ENDBRANCH   2   3
ENDBRANCH   1   2
BRANCH   1  13
ATOM     13  C   UNL     1      29.034  -8.147  15.218  1.00  0.00     0.000 C 
BRANCH  13  14
ATOM     14  C   UNL     1      30.515  -8.558  15.205  1.00  0.00     0.000 C 
BRANCH  14  15
ATOM     15  C   UNL     1      30.703 -10.084  15.245  1.00  0.00     0.000 C 
BRANCH  15  16
ATOM     16  C   UNL     1      31.119 -10.590  16.636  1.00  0.00     0.000 C 
BRANCH  16  17
ATOM     17  C   UNL     1      29.911 -10.924  17.528  1.00  0.00     0.000 C 
BRANCH  17  18
ATOM     18  C   UNL     1      29.765  -9.951  18.709  1.00  0.00     0.000 C 
BRANCH  18  19
ATOM     19  C   UNL     1      31.124  -9.467  19.245  1.00  0.00     0.000 C 
BRANCH  19  20
ATOM     20  C   UNL     1      31.064  -9.049  20.725  1.00  0.00     0.006 C 
BRANCH  20  21
ATOM     21  C   UNL     1      30.320 -10.043  21.631  1.00  0.00     0.053 C 
BRANCH  21  22
ATOM     22  C   UNL     1      30.264  -9.572  23.052  1.00  0.00     0.041 C 
ATOM     23  O   UNL     1      30.303  -8.341  23.314  1.00  0.00    -0.550 OA
ATOM     24  O   UNL     1      30.203 -10.495  24.088  1.00  0.00    -0.550 OA
ENDBRANCH  21  22
ENDBRANCH  20  21
ENDBRANCH  19  20
ENDBRANCH  18  19
ENDBRANCH  17  18
ENDBRANCH  16  17
ENDBRANCH  15  16
ENDBRANCH  14  15
ENDBRANCH  13  14
ENDBRANCH   1  13
TORSDOF 20
ENDMDL
MODEL 2
REMARK VINA RESULT:    -1.039      1.906      4.625
REMARK INTER + INTRA:          -6.240
REMARK INTER:                  -2.279
REMARK INTRA:                  -3.961
REMARK UNBOUND:                -3.986
REMARK SMILES CCCCCCCCCCCCCCCCCCCCCC(=O)[O-]
REMARK SMILES IDX 12 1 11 2 10 3 9 4 8 5 7 6 6 7 5 8 4 9 3 10 2 11 1 12 13 13
REMARK SMILES IDX 14 14 15 15 16 16 17 17 18 18 19 19 20 20 21 21 22 22 23 23
REMARK SMILES IDX 24 24
REMARK H PARENT
REMARK Flexibility Score: inf
ROOT
ATOM      1  C   UNL     1      24.555  -8.289  14.716  1.00  0.00     0.000 C 
ENDROOT
BRANCH   1   2
ATOM      2  C   UNL     1      24.315  -8.985  16.064  1.00  0.00     0.000 C 
BRANCH   2   3
ATOM      3  C   UNL     1      25.496  -9.876  16.487  1.00  0.00     0.000 C 
BRANCH   3   4
ATOM      4  C   UNL     1      25.968  -9.592  17.922  1.00  0.00    -0.000 C 
BRANCH   4   5
ATOM      5  C   UNL     1      27.249 -10.362  18.285  1.00  0.00    -0.000 C 
BRANCH   5   6
ATOM      6  C   UNL     1      28.268 -10.389  17.133  1.00  0.00    -0.000 C 
BRANCH   6   7
ATOM      7  C   UNL     1      29.690 -10.729  17.613  1.00  0.00    -0.000 C 
BRANCH   7   8
ATOM      8  C   UNL     1      30.630 -11.108  16.455  1.00  0.00    -0.000 C 
BRANCH   8   9
ATOM      9  C   UNL     1      30.680 -10.037  15.355  1.00  0.00    -0.000 C 
BRANCH   9  10
ATOM     10  C   UNL     1      30.494 -10.667  13.967  1.00  0.00    -0.000 C 
BRANCH  10  11
ATOM     11  C   UNL     1      29.028 -10.659  13.507  1.00  0.00    -0.003 C 
ATOM     12  C   UNL     1      28.822  -9.888  12.202  1.00  0.00     0.004 C 
ENDBRANCH  10  11
ENDBRANCH   9  10
ENDBRANCH   8   9
ENDBRANCH   7   8
ENDBRANCH   6   7
ENDBRANCH   5   6
ENDBRANCH   4   5
ENDBRANCH   3   4
ENDBRANCH   2   3
ENDBRANCH   1   2
BRANCH   1  13
ATOM     13  C   UNL     1      25.984  -8.504  14.187  1.00  0.00     0.000 C 
BRANCH  13  14
ATOM     14  C   UNL     1      26.782  -7.194  14.097  1.00  0.00     0.000 C 
BRANCH  14  15
ATOM     15  C   UNL     1      28.142  -7.281  14.811  1.00  0.00     0.000 C 
BRANCH  15  16
ATOM     16  C   UNL     1      28.070  -6.814  16.274  1.00  0.00     0.000 C 
BRANCH  16  17
ATOM     17  C   UNL     1      29.437  -6.867  16.978  1.00  0.00     0.000 C 
BRANCH  17  18
ATOM     18  C   UNL     1      29.309  -7.098  18.492  1.00  0.00     0.000 C 
BRANCH  18  19
ATOM     19  C   UNL     1      30.638  -7.531  19.136  1.00  0.00     0.000 C 
BRANCH  19  20
ATOM     20  C   UNL     1      30.443  -8.198  20.510  1.00  0.00     0.006 C 
BRANCH  20  21
ATOM     21  C   UNL     1      28.978  -8.496  20.863  1.00  0.00     0.053 C 
BRANCH  21  22
ATOM     22  C   UNL     1      28.853  -9.656  21.803  1.00  0.00     0.041 C 
ATOM     23  O   UNL     1      28.969 -10.835  21.373  1.00  0.00    -0.550 OA
ATOM     24  O   UNL     1      28.577  -9.437  23.146  1.00  0.00    -0.550 OA
ENDBRANCH  21  22
ENDBRANCH  20  21
ENDBRANCH  19  20
ENDBRANCH  18  19
ENDBRANCH  17  18
ENDBRANCH  16  17
ENDBRANCH  15  16
ENDBRANCH  14  15
ENDBRANCH  13  14
ENDBRANCH   1  13
TORSDOF 20
ENDMDL
MODEL 3
REMARK VINA RESULT:    -1.026      3.315      6.669
REMARK INTER + INTRA:          -6.212
REMARK INTER:                  -1.755
REMARK INTRA:                  -4.456
REMARK UNBOUND:                -3.986
REMARK SMILES CCCCCCCCCCCCCCCCCCCCCC(=O)[O-]
REMARK SMILES IDX 12 1 11 2 10 3 9 4 8 5 7 6 6 7 5 8 4 9 3 10 2 11 1 12 13 13
REMARK SMILES IDX 14 14 15 15 16 16 17 17 18 18 19 19 20 20 21 21 22 22 23 23
REMARK SMILES IDX 24 24
REMARK H PARENT
REMARK Flexibility Score: inf
ROOT
ATOM      1  C   UNL     1      26.877  -9.508  19.471  1.00  0.00     0.000 C 
ENDROOT
BRANCH   1   2
ATOM      2  C   UNL     1      28.262  -9.247  20.083  1.00  0.00     0.000 C 
BRANCH   2   3
ATOM      3  C   UNL     1      29.332 -10.219  19.555  1.00  0.00     0.000 C 
BRANCH   3   4
ATOM      4  C   UNL     1      30.655  -9.515  19.213  1.00  0.00    -0.000 C 
BRANCH   4   5
ATOM      5  C   UNL     1      31.123  -9.806  17.777  1.00  0.00    -0.000 C 
BRANCH   5   6
ATOM      6  C   UNL     1      30.361 -10.976  17.133  1.00  0.00    -0.000 C 
BRANCH   6   7
ATOM      7  C   UNL     1      29.694 -10.583  15.802  1.00  0.00    -0.000 C 
BRANCH   7   8
ATOM      8  C   UNL     1      29.767  -9.071  15.530  1.00  0.00    -0.000 C 
BRANCH   8   9
ATOM      9  C   UNL     1      28.385  -8.401  15.517  1.00  0.00    -0.000 C 
BRANCH   9  10
ATOM     10  C   UNL     1      28.194  -7.515  16.758  1.00  0.00    -0.000 C 
BRANCH  10  11
ATOM     11  C   UNL     1      29.332  -6.499  16.939  1.00  0.00    -0.003 C 
ATOM     12  C   UNL     1      29.544  -6.103  18.400  1.00  0.00     0.004 C 
ENDBRANCH  10  11
ENDBRANCH   9  10
ENDBRANCH   8   9
ENDBRANCH   7   8
ENDBRANCH   6   7
ENDBRANCH   5   6
ENDBRANCH   4   5
ENDBRANCH   3   4
ENDBRANCH   2   3
ENDBRANCH   1   2
BRANCH   1  13
ATOM     13  C   UNL     1      26.895 -10.641  18.430  1.00  0.00     0.000 C 
BRANCH  13  14
ATOM     14  C   UNL     1      25.877 -10.419  17.300  1.00  0.00     0.000 C 
BRANCH  14  15
ATOM     15  C   UNL     1      24.741  -9.468  17.709  1.00  0.00     0.000 C 
BRANCH  15  16
ATOM     16  C   UNL     1      24.556  -8.310  16.715  1.00  0.00     0.000 C 
BRANCH  16  17
ATOM     17  C   UNL     1      24.626  -8.773  15.250  1.00  0.00     0.000 C 
BRANCH  17  18
ATOM     18  C   UNL     1      25.031  -7.641  14.293  1.00  0.00     0.000 C 
BRANCH  18  19
ATOM     19  C   UNL     1      24.933  -6.252  14.948  1.00  0.00     0.000 C 
BRANCH  19  20
ATOM     20  C   UNL     1      26.185  -5.390  14.704  1.00  0.00     0.006 C 
BRANCH  20  21
ATOM     21  C   UNL     1      26.129  -4.001  15.358  1.00  0.00     0.053 C 
BRANCH  21  22
ATOM     22  C   UNL     1      25.589  -4.060  16.754  1.00  0.00     0.041 C 
ATOM     23  O   UNL     1      24.492  -3.506  17.034  1.00  0.00    -0.550 OA
ATOM     24  O   UNL     1      26.312  -4.698  17.753  1.00  0.00    -0.550 OA
ENDBRANCH  21  22
ENDBRANCH  20  21
ENDBRANCH  19  20
ENDBRANCH  18  19
ENDBRANCH  17  18
ENDBRANCH  16  17
ENDBRANCH  15  16
ENDBRANCH  14  15
ENDBRANCH  13  14
ENDBRANCH   1  13
TORSDOF 20
ENDMDL
MODEL 4
REMARK VINA RESULT:    -0.965      3.320      6.284
REMARK INTER + INTRA:          -6.079
REMARK INTER:                  -1.575
REMARK INTRA:                  -4.504
REMARK UNBOUND:                -3.986
REMARK SMILES CCCCCCCCCCCCCCCCCCCCCC(=O)[O-]
REMARK SMILES IDX 12 1 11 2 10 3 9 4 8 5 7 6 6 7 5 8 4 9 3 10 2 11 1 12 13 13
REMARK SMILES IDX 14 14 15 15 16 16 17 17 18 18 19 19 20 20 21 21 22 22 23 23
REMARK SMILES IDX 24 24
REMARK H PARENT
REMARK Flexibility Score: inf
ROOT
ATOM      1  C   UNL     1      26.607  -5.477  17.270  1.00  0.00     0.000 C 
ENDROOT
BRANCH   1   2
ATOM      2  C   UNL     1      26.188  -5.243  15.810  1.00  0.00     0.000 C 
BRANCH   2   3
ATOM      3  C   UNL     1      24.868  -5.951  15.455  1.00  0.00     0.000 C 
BRANCH   3   4
ATOM      4  C   UNL     1      25.087  -7.370  14.905  1.00  0.00    -0.000 C 
BRANCH   4   5
ATOM      5  C   UNL     1      26.472  -7.546  14.260  1.00  0.00    -0.000 C 
BRANCH   5   6
ATOM      6  C   UNL     1      26.806  -9.020  13.973  1.00  0.00    -0.000 C 
BRANCH   6   7
ATOM      7  C   UNL     1      28.319  -9.262  13.826  1.00  0.00    -0.000 C 
BRANCH   7   8
ATOM      8  C   UNL     1      29.152  -8.386  14.776  1.00  0.00    -0.000 C 
BRANCH   8   9
ATOM      9  C   UNL     1      30.204  -9.188  15.557  1.00  0.00    -0.000 C 
BRANCH   9  10
ATOM     10  C   UNL     1      29.638 -10.545  16.003  1.00  0.00    -0.000 C 
BRANCH  10  11
ATOM     11  C   UNL     1      30.145 -10.969  17.390  1.00  0.00    -0.003 C 
ATOM     12  C   UNL     1      30.900  -9.853  18.111  1.00  0.00     0.004 C 
ENDBRANCH  10  11
ENDBRANCH   9  10
ENDBRANCH   8   9
ENDBRANCH   7   8
ENDBRANCH   6   7
ENDBRANCH   5   6
ENDBRANCH   4   5
ENDBRANCH   3   4
ENDBRANCH   2   3
ENDBRANCH   1   2
BRANCH   1  13
ATOM     13  C   UNL     1      28.105  -5.800  17.409  1.00  0.00     0.000 C 
BRANCH  13  14
ATOM     14  C   UNL     1      28.356  -7.110  18.173  1.00  0.00     0.000 C 
BRANCH  14  15
ATOM     15  C   UNL     1      27.199  -8.112  18.021  1.00  0.00     0.000 C 
BRANCH  15  16
ATOM     16  C   UNL     1      27.222  -9.205  19.101  1.00  0.00     0.000 C 
BRANCH  16  17
ATOM     17  C   UNL     1      26.743 -10.568  18.572  1.00  0.00     0.000 C 
BRANCH  17  18
ATOM     18  C   UNL     1      26.183 -10.480  17.143  1.00  0.00     0.000 C 
BRANCH  18  19
ATOM     19  C   UNL     1      24.784 -11.106  17.019  1.00  0.00     0.000 C 
BRANCH  19  20
ATOM     20  C   UNL     1      23.663 -10.052  16.968  1.00  0.00     0.006 C 
BRANCH  20  21
ATOM     21  C   UNL     1      23.379  -9.371  18.316  1.00  0.00     0.053 C 
BRANCH  21  22
ATOM     22  C   UNL     1      23.194  -7.892  18.169  1.00  0.00     0.041 C 
ATOM     23  O   UNL     1      23.902  -7.094  18.839  1.00  0.00    -0.550 OA
ATOM     24  O   UNL     1      22.219  -7.395  17.315  1.00  0.00    -0.550 OA
ENDBRANCH  21  22
ENDBRANCH  20  21
ENDBRANCH  19  20
ENDBRANCH  18  19
ENDBRANCH  17  18
ENDBRANCH  16  17
ENDBRANCH  15  16
ENDBRANCH  14  15
ENDBRANCH  13  14
ENDBRANCH   1  13
TORSDOF 20
ENDMDL
MODEL 5
REMARK VINA RESULT:    -0.964      2.444      4.592
REMARK INTER + INTRA:          -6.077
REMARK INTER:                  -1.954
REMARK INTRA:                  -4.123
REMARK UNBOUND:                -3.986
REMARK SMILES CCCCCCCCCCCCCCCCCCCCCC(=O)[O-]
REMARK SMILES IDX 12 1 11 2 10 3 9 4 8 5 7 6 6 7 5 8 4 9 3 10 2 11 1 12 13 13
REMARK SMILES IDX 14 14 15 15 16 16 17 17 18 18 19 19 20 20 21 21 22 22 23 23
REMARK SMILES IDX 24 24
REMARK H PARENT
REMARK Flexibility Score: inf
ROOT
ATOM      1  C   UNL     1      26.134  -6.724  17.159  1.00  0.00     0.000 C 
ENDROOT
BRANCH   1   2
ATOM      2  C   UNL     1      27.356  -6.710  18.091  1.00  0.00     0.000 C 
BRANCH   2   3
ATOM      3  C   UNL     1      28.183  -5.419  17.960  1.00  0.00     0.000 C 
BRANCH   3   4
ATOM      4  C   UNL     1      29.689  -5.693  17.821  1.00  0.00    -0.000 C 
BRANCH   4   5
ATOM      5  C   UNL     1      30.047  -6.356  16.480  1.00  0.00    -0.000 C 
BRANCH   5   6
ATOM      6  C   UNL     1      29.792  -5.431  15.278  1.00  0.00    -0.000 C 
BRANCH   6   7
ATOM      7  C   UNL     1      28.745  -6.004  14.306  1.00  0.00    -0.000 C 
BRANCH   7   8
ATOM      8  C   UNL     1      27.544  -5.063  14.110  1.00  0.00    -0.000 C 
BRANCH   8   9
ATOM      9  C   UNL     1      26.310  -5.782  13.545  1.00  0.00    -0.000 C 
BRANCH   9  10
ATOM     10  C   UNL     1      26.588  -6.323  12.135  1.00  0.00    -0.000 C 
BRANCH  10  11
ATOM     11  C   UNL     1      26.450  -7.851  12.050  1.00  0.00    -0.003 C 
ATOM     12  C   UNL     1      27.729  -8.535  11.565  1.00  0.00     0.004 C 
ENDBRANCH  10  11
ENDBRANCH   9  10
ENDBRANCH   8   9
ENDBRANCH   7   8
ENDBRANCH   6   7
ENDBRANCH   5   6
ENDBRANCH   4   5
ENDBRANCH   3   4
ENDBRANCH   2   3
ENDBRANCH   1   2
BRANCH   1  13
ATOM     13  C   UNL     1      26.085  -7.978  16.269  1.00  0.00     0.000 C 
BRANCH  13  14
ATOM     14  C   UNL     1      27.346  -8.847  16.405  1.00  0.00     0.000 C 
BRANCH  14  15
ATOM     15  C   UNL     1      27.712  -9.562  15.094  1.00  0.00     0.000 C 
BRANCH  15  16
ATOM     16  C   UNL     1      29.224  -9.537  14.812  1.00  0.00     0.000 C 
BRANCH  16  17
ATOM     17  C   UNL     1      29.847 -10.943  14.810  1.00  0.00     0.000 C 
BRANCH  17  18
ATOM     18  C   UNL     1      30.892 -11.125  15.923  1.00  0.00     0.000 C 
BRANCH  18  19
ATOM     19  C   UNL     1      30.282 -10.995  17.330  1.00  0.00     0.000 C 
BRANCH  19  20
ATOM     20  C   UNL     1      30.858  -9.806  18.119  1.00  0.00     0.006 C 
BRANCH  20  21
ATOM     21  C   UNL     1      29.874  -9.179  19.120  1.00  0.00     0.053 C 
BRANCH  21  22
ATOM     22  C   UNL     1      29.753  -9.994  20.371  1.00  0.00     0.041 C 
ATOM     23  O   UNL     1      28.746 -10.728  20.556  1.00  0.00    -0.550 OA
ATOM     24  O   UNL     1      30.737  -9.918  21.348  1.00  0.00    -0.550 OA
ENDBRANCH  21  22
ENDBRANCH  20  21
ENDBRANCH  19  20
ENDBRANCH  18  19
ENDBRANCH  17  18
ENDBRANCH  16  17
ENDBRANCH  15  16
ENDBRANCH  14  15
ENDBRANCH  13  14
ENDBRANCH   1  13
TORSDOF 20
ENDMDL
MODEL 6
REMARK VINA RESULT:    -0.951      1.622      4.611
REMARK INTER + INTRA:          -6.048
REMARK INTER:                  -2.724
REMARK INTRA:                  -3.324
REMARK UNBOUND:                -3.986
REMARK SMILES CCCCCCCCCCCCCCCCCCCCCC(=O)[O-]
REMARK SMILES IDX 12 1 11 2 10 3 9 4 8 5 7 6 6 7 5 8 4 9 3 10 2 11 1 12 13 13
REMARK SMILES IDX 14 14 15 15 16 16 17 17 18 18 19 19 20 20 21 21 22 22 23 23
REMARK SMILES IDX 24 24
REMARK H PARENT
REMARK Flexibility Score: inf
ROOT
ATOM      1  C   UNL     1      26.994  -7.842  17.693  1.00  0.00     0.000 C 
ENDROOT
BRANCH   1   2
ATOM      2  C   UNL     1      26.895  -9.048  16.746  1.00  0.00     0.000 C 
BRANCH   2   3
ATOM      3  C   UNL     1      26.696 -10.375  17.500  1.00  0.00     0.000 C 
BRANCH   3   4
ATOM      4  C   UNL     1      27.214 -10.318  18.946  1.00  0.00    -0.000 C 
BRANCH   4   5
ATOM      5  C   UNL     1      28.619 -10.927  19.094  1.00  0.00    -0.000 C 
BRANCH   5   6
ATOM      6  C   UNL     1      29.723  -9.857  19.150  1.00  0.00    -0.000 C 
BRANCH   6   7
ATOM      7  C   UNL     1      30.669  -9.924  17.937  1.00  0.00    -0.000 C 
BRANCH   7   8
ATOM      8  C   UNL     1      30.373 -11.125  17.023  1.00  0.00    -0.000 C 
BRANCH   8   9
ATOM      9  C   UNL     1      31.035 -10.999  15.643  1.00  0.00    -0.000 C 
BRANCH   9  10
ATOM     10  C   UNL     1      29.977 -10.924  14.532  1.00  0.00    -0.000 C 
BRANCH  10  11
ATOM     11  C   UNL     1      30.011  -9.588  13.773  1.00  0.00    -0.003 C 
ATOM     12  C   UNL     1      31.116  -8.654  14.268  1.00  0.00     0.004 C 
ENDBRANCH  10  11
ENDBRANCH   9  10
ENDBRANCH   8   9
ENDBRANCH   7   8
ENDBRANCH   6   7
ENDBRANCH   5   6
ENDBRANCH   4   5
ENDBRANCH   3   4
ENDBRANCH   2   3
ENDBRANCH   1   2
BRANCH   1  13
ATOM     13  C   UNL     1      27.657  -6.623  17.028  1.00  0.00     0.000 C 
BRANCH  13  14
ATOM     14  C   UNL     1      29.151  -6.845  16.746  1.00  0.00     0.000 C 
BRANCH  14  15
ATOM     15  C   UNL     1      30.055  -6.185  17.801  1.00  0.00     0.000 C 
BRANCH  15  16
ATOM     16  C   UNL     1      29.262  -5.659  19.009  1.00  0.00     0.000 C 
BRANCH  16  17
ATOM     17  C   UNL     1      29.396  -6.568  20.243  1.00  0.00     0.000 C 
BRANCH  17  18
ATOM     18  C   UNL     1      28.938  -5.875  21.536  1.00  0.00     0.000 C 
BRANCH  18  19
ATOM     19  C   UNL     1      29.262  -6.700  22.794  1.00  0.00     0.000 C 
BRANCH  19  20
ATOM     20  C   UNL     1      29.614  -8.163  22.470  1.00  0.00     0.006 C 
BRANCH  20  21
ATOM     21  C   UNL     1      28.424  -9.131  22.557  1.00  0.00     0.053 C 
BRANCH  21  22
ATOM     22  C   UNL     1      28.841 -10.490  23.031  1.00  0.00     0.041 C 
ATOM     23  O   UNL     1      28.123 -11.125  23.849  1.00  0.00    -0.550 OA
ATOM     24  O   UNL     1      30.038 -11.041  22.595  1.00  0.00    -0.550 OA
ENDBRANCH  21  22
ENDBRANCH  20  21
ENDBRANCH  19  20
ENDBRANCH  18  19
ENDBRANCH  17  18
ENDBRANCH  16  17
ENDBRANCH  15  16
ENDBRANCH  14  15
ENDBRANCH  13  14
ENDBRANCH   1  13
TORSDOF 20
ENDMDL
MODEL 7
REMARK VINA RESULT:    -0.942      2.226      5.316
REMARK INTER + INTRA:          -6.029
REMARK INTER:                  -1.818
REMARK INTRA:                  -4.211
REMARK UNBOUND:                -3.986
REMARK SMILES CCCCCCCCCCCCCCCCCCCCCC(=O)[O-]
REMARK SMILES IDX 12 1 11 2 10 3 9 4 8 5 7 6 6 7 5 8 4 9 3 10 2 11 1 12 13 13
REMARK SMILES IDX 14 14 15 15 16 16 17 17 18 18 19 19 20 20 21 21 22 22 23 23
REMARK SMILES IDX 24 24
REMARK H PARENT
REMARK Flexibility Score: inf
ROOT
ATOM      1  C   UNL     1      27.153  -9.085  19.975  1.00  0.00     0.000 C 
ENDROOT
BRANCH   1   2
ATOM      2  C   UNL     1      26.964 -10.157  18.892  1.00  0.00     0.000 C 
BRANCH   2   3
ATOM      3  C   UNL     1      26.970  -9.567  17.470  1.00  0.00     0.000 C 
BRANCH   3   4
ATOM      4  C   UNL     1      26.061  -8.336  17.337  1.00  0.00    -0.000 C 
BRANCH   4   5
ATOM      5  C   UNL     1      26.847  -7.053  17.017  1.00  0.00    -0.000 C 
BRANCH   5   6
ATOM      6  C   UNL     1      28.349  -7.318  16.812  1.00  0.00    -0.000 C 
BRANCH   6   7
ATOM      7  C   UNL     1      29.213  -6.695  17.923  1.00  0.00    -0.000 C 
BRANCH   7   8
ATOM      8  C   UNL     1      30.208  -7.699  18.529  1.00  0.00    -0.000 C 
BRANCH   8   9
ATOM      9  C   UNL     1      30.765  -8.686  17.492  1.00  0.00    -0.000 C 
BRANCH   9  10
ATOM     10  C   UNL     1      30.584 -10.136  17.963  1.00  0.00    -0.000 C 
BRANCH  10  11
ATOM     11  C   UNL     1      30.439 -11.124  16.794  1.00  0.00    -0.003 C 
ATOM     12  C   UNL     1      29.958 -10.451  15.508  1.00  0.00     0.004 C 
ENDBRANCH  10  11
ENDBRANCH   9  10
ENDBRANCH   8   9
ENDBRANCH   7   8
ENDBRANCH   6   7
ENDBRANCH   5   6
ENDBRANCH   4   5
ENDBRANCH   3   4
ENDBRANCH   2   3
ENDBRANCH   1   2
BRANCH   1  13
ATOM     13  C   UNL     1      27.456  -9.689  21.358  1.00  0.00     0.000 C 
BRANCH  13  14
ATOM     14  C   UNL     1      28.593 -10.722  21.313  1.00  0.00     0.000 C 
BRANCH  14  15
ATOM     15  C   UNL     1      29.980 -10.078  21.478  1.00  0.00     0.000 C 
BRANCH  15  16
ATOM     16  C   UNL     1      30.001  -8.995  22.569  1.00  0.00     0.000 C 
BRANCH  16  17
ATOM     17  C   UNL     1      30.808  -7.753  22.152  1.00  0.00     0.000 C 
BRANCH  17  18
ATOM     18  C   UNL     1      30.194  -6.448  22.682  1.00  0.00     0.000 C 
BRANCH  18  19
ATOM     19  C   UNL     1      29.585  -5.587  21.562  1.00  0.00     0.000 C 
BRANCH  19  20
ATOM     20  C   UNL     1      28.083  -5.853  21.358  1.00  0.00     0.006 C 
BRANCH  20  21
ATOM     21  C   UNL     1      27.324  -6.201  22.648  1.00  0.00     0.053 C 
BRANCH  21  22
ATOM     22  C   UNL     1      26.806  -4.977  23.340  1.00  0.00     0.041 C 
ATOM     23  O   UNL     1      26.684  -4.960  24.594  1.00  0.00    -0.550 OA
ATOM     24  O   UNL     1      26.427  -3.867  22.597  1.00  0.00    -0.550 OA
ENDBRANCH  21  22
ENDBRANCH  20  21
ENDBRANCH  19  20
ENDBRANCH  18  19
ENDBRANCH  17  18
ENDBRANCH  16  17
ENDBRANCH  15  16
ENDBRANCH  14  15
ENDBRANCH  13  14
ENDBRANCH   1  13
TORSDOF 20
ENDMDL
MODEL 8
REMARK VINA RESULT:    -0.904      2.189      5.319
REMARK INTER + INTRA:          -5.947
REMARK INTER:                  -1.555
REMARK INTRA:                  -4.392
REMARK UNBOUND:                -3.986
REMARK SMILES CCCCCCCCCCCCCCCCCCCCCC(=O)[O-]
REMARK SMILES IDX 12 1 11 2 10 3 9 4 8 5 7 6 6 7 5 8 4 9 3 10 2 11 1 12 13 13
REMARK SMILES IDX 14 14 15 15 16 16 17 17 18 18 19 19 20 20 21 21 22 22 23 23
REMARK SMILES IDX 24 24
REMARK H PARENT
REMARK Flexibility Score: inf
ROOT
ATOM      1  C   UNL     1      23.680  -5.847  18.558  1.00  0.00     0.000 C 
ENDROOT
BRANCH   1   2
ATOM      2  C   UNL     1      24.208  -6.436  19.875  1.00  0.00     0.000 C 
BRANCH   2   3
ATOM      3  C   UNL     1      25.710  -6.763  19.815  1.00  0.00     0.000 C 
BRANCH   3   4
ATOM      4  C   UNL     1      26.337  -6.421  18.454  1.00  0.00    -0.000 C 
BRANCH   4   5
ATOM      5  C   UNL     1      26.675  -7.674  17.629  1.00  0.00    -0.000 C 
BRANCH   5   6
ATOM      6  C   UNL     1      26.353  -7.502  16.134  1.00  0.00    -0.000 C 
BRANCH   6   7
ATOM      7  C   UNL     1      25.711  -8.759  15.522  1.00  0.00    -0.000 C 
BRANCH   7   8
ATOM      8  C   UNL     1      26.698  -9.934  15.415  1.00  0.00    -0.000 C 
BRANCH   8   9
ATOM      9  C   UNL     1      27.914  -9.610  14.533  1.00  0.00    -0.000 C 
BRANCH   9  10
ATOM     10  C   UNL     1      29.163 -10.354  15.028  1.00  0.00    -0.000 C 
BRANCH  10  11
ATOM     11  C   UNL     1      29.551  -9.968  16.464  1.00  0.00    -0.003 C 
ATOM     12  C   UNL     1      30.110  -8.549  16.564  1.00  0.00     0.004 C 
ENDBRANCH  10  11
ENDBRANCH   9  10
ENDBRANCH   8   9
ENDBRANCH   7   8
ENDBRANCH   6   7
ENDBRANCH   5   6
ENDBRANCH   4   5
ENDBRANCH   3   4
ENDBRANCH   2   3
ENDBRANCH   1   2
BRANCH   1  13
ATOM     13  C   UNL     1      22.807  -6.843  17.774  1.00  0.00     0.000 C 
BRANCH  13  14
ATOM     14  C   UNL     1      22.526  -8.130  18.565  1.00  0.00     0.000 C 
BRANCH  14  15
ATOM     15  C   UNL     1      22.778  -9.400  17.734  1.00  0.00     0.000 C 
BRANCH  15  16
ATOM     16  C   UNL     1      23.965 -10.223  18.262  1.00  0.00     0.000 C 
BRANCH  16  17
ATOM     17  C   UNL     1      24.130 -10.108  19.787  1.00  0.00     0.000 C 
BRANCH  17  18
ATOM     18  C   UNL     1      25.536 -10.511  20.259  1.00  0.00     0.000 C 
BRANCH  18  19
ATOM     19  C   UNL     1      26.418 -11.028  19.109  1.00  0.00     0.000 C 
BRANCH  19  20
ATOM     20  C   UNL     1      27.913 -11.062  19.475  1.00  0.00     0.006 C 
BRANCH  20  21
ATOM     21  C   UNL     1      28.431  -9.771  20.127  1.00  0.00     0.053 C 
BRANCH  21  22
ATOM     22  C   UNL     1      29.213 -10.050  21.375  1.00  0.00     0.041 C 
ATOM     23  O   UNL     1      28.616 -10.261  22.464  1.00  0.00    -0.550 OA
ATOM     24  O   UNL     1      30.601 -10.044  21.340  1.00  0.00    -0.550 OA
ENDBRANCH  21  22
ENDBRANCH  20  21
ENDBRANCH  19  20
ENDBRANCH  18  19
ENDBRANCH  17  18
ENDBRANCH  16  17
ENDBRANCH  15  16
ENDBRANCH  14  15
ENDBRANCH  13  14
ENDBRANCH   1  13
TORSDOF 20
ENDMDL
