MODEL 1
REMARK VINA RESULT:    -2.497      0.000      0.000
REMARK INTER + INTRA:         -11.406
REMARK INTER:                  -6.293
REMARK INTRA:                  -5.113
REMARK UNBOUND:                -5.113
REMARK SMILES CCCCCCCCCCCCCCCCCCCCCCCCCCCC(=O)[O-]
REMARK SMILES IDX 15 1 16 2 17 3 18 4 19 5 20 6 21 7 22 8 23 9 24 10 25 11
REMARK SMILES IDX 26 12 27 13 28 14 29 15 30 16 14 17 13 18 12 19 11 20 10 21
REMARK SMILES IDX 9 22 8 23 7 24 6 25 5 26 4 27 3 28 2 29 1 30
REMARK H PARENT
REMARK Flexibility Score: inf
ROOT
ATOM      1  C   UNL     1     -20.732  16.218 -17.724  1.00  0.00     0.000 C 
ENDROOT
BRANCH   1   2
ATOM      2  C   UNL     1     -21.712  15.066 -18.013  1.00  0.00     0.000 C 
BRANCH   2   3
ATOM      3  C   UNL     1     -21.058  13.782 -18.557  1.00  0.00     0.000 C 
BRANCH   3   4
ATOM      4  C   UNL     1     -19.539  13.910 -18.805  1.00  0.00     0.000 C 
BRANCH   4   5
ATOM      5  C   UNL     1     -18.738  12.697 -18.300  1.00  0.00     0.000 C 
BRANCH   5   6
ATOM      6  C   UNL     1     -17.642  13.080 -17.288  1.00  0.00     0.000 C 
BRANCH   6   7
ATOM      7  C   UNL     1     -17.577  14.576 -16.929  1.00  0.00     0.000 C 
BRANCH   7   8
ATOM      8  C   UNL     1     -18.068  14.874 -15.500  1.00  0.00     0.000 C 
BRANCH   8   9
ATOM      9  C   UNL     1     -18.695  13.641 -14.827  1.00  0.00     0.000 C 
BRANCH   9  10
ATOM     10  C   UNL     1     -20.230  13.651 -14.889  1.00  0.00     0.000 C 
BRANCH  10  11
ATOM     11  C   UNL     1     -20.838  12.238 -14.844  1.00  0.00     0.000 C 
BRANCH  11  12
ATOM     12  C   UNL     1     -22.158  12.107 -15.634  1.00  0.00     0.006 C 
BRANCH  12  13
ATOM     13  C   UNL     1     -23.391  12.360 -14.749  1.00  0.00     0.053 C 
BRANCH  13  14
ATOM     14  C   UNL     1     -24.102  13.634 -15.104  1.00  0.00     0.041 C 
ATOM     15  O   UNL     1     -23.785  14.703 -14.518  1.00  0.00    -0.550 OA
ATOM     16  O   UNL     1     -25.125  13.651 -16.044  1.00  0.00    -0.550 OA
ENDBRANCH  13  14
ENDBRANCH  12  13
ENDBRANCH  11  12
ENDBRANCH  10  11
ENDBRANCH   9  10
ENDBRANCH   8   9
ENDBRANCH   7   8
ENDBRANCH   6   7
ENDBRANCH   5   6
ENDBRANCH   4   5
ENDBRANCH   3   4
ENDBRANCH   2   3
ENDBRANCH   1   2
BRANCH   1  17
ATOM     17  C   UNL     1     -21.020  17.491 -18.550  1.00  0.00     0.000 C 
BRANCH  17  18
ATOM     18  C   UNL     1     -21.486  17.176 -19.983  1.00  0.00     0.000 C 
BRANCH  18  19
ATOM     19  C   UNL     1     -20.332  17.210 -20.998  1.00  0.00     0.000 C 
BRANCH  19  20
ATOM     20  C   UNL     1     -20.200  15.903 -21.793  1.00  0.00     0.000 C 
BRANCH  20  21
ATOM     21  C   UNL     1     -21.563  15.218 -21.953  1.00  0.00     0.000 C 
BRANCH  21  22
ATOM     22  C   UNL     1     -21.402  13.780 -22.464  1.00  0.00    -0.000 C 
BRANCH  22  23
ATOM     23  C   UNL     1     -21.943  13.640 -23.895  1.00  0.00    -0.000 C 
BRANCH  23  24
ATOM     24  C   UNL     1     -20.905  13.075 -24.884  1.00  0.00    -0.000 C 
BRANCH  24  25
ATOM     25  C   UNL     1     -19.502  13.709 -24.790  1.00  0.00    -0.000 C 
BRANCH  25  26
ATOM     26  C   UNL     1     -18.386  12.717 -24.388  1.00  0.00    -0.000 C 
BRANCH  26  27
ATOM     27  C   UNL     1     -16.994  13.366 -24.272  1.00  0.00    -0.000 C 
BRANCH  27  28
ATOM     28  C   UNL     1     -16.850  14.374 -23.118  1.00  0.00    -0.000 C 
BRANCH  28  29
ATOM     29  C   UNL     1     -17.274  13.788 -21.762  1.00  0.00    -0.003 C 
ATOM     30  C   UNL     1     -16.212  14.049 -20.697  1.00  0.00     0.004 C 
ENDBRANCH  28  29
ENDBRANCH  27  28
ENDBRANCH  26  27
ENDBRANCH  25  26
ENDBRANCH  24  25
ENDBRANCH  23  24
ENDBRANCH  22  23
ENDBRANCH  21  22
ENDBRANCH  20  21
ENDBRANCH  19  20
ENDBRANCH  18  19
ENDBRANCH  17  18
ENDBRANCH   1  17
TORSDOF 26
ENDMDL
MODEL 2
REMARK VINA RESULT:    -2.322      2.459      6.936
REMARK INTER + INTRA:         -10.963
REMARK INTER:                  -6.039
REMARK INTRA:                  -4.924
REMARK UNBOUND:                -5.113
REMARK SMILES CCCCCCCCCCCCCCCCCCCCCCCCCCCC(=O)[O-]
REMARK SMILES IDX 15 1 16 2 17 3 18 4 19 5 20 6 21 7 22 8 23 9 24 10 25 11
REMARK SMILES IDX 26 12 27 13 28 14 29 15 30 16 14 17 13 18 12 19 11 20 10 21
REMARK SMILES IDX 9 22 8 23 7 24 6 25 5 26 4 27 3 28 2 29 1 30
REMARK H PARENT
REMARK Flexibility Score: inf
ROOT
ATOM      1  C   UNL     1     -20.633  18.232 -18.695  1.00  0.00     0.000 C 
ENDROOT
BRANCH   1   2
ATOM      2  C   UNL     1     -19.670  17.942 -19.860  1.00  0.00     0.000 C 
BRANCH   2   3
ATOM      3  C   UNL     1     -20.338  17.368 -21.124  1.00  0.00     0.000 C 
BRANCH   3   4
ATOM      4  C   UNL     1     -19.415  16.454 -21.960  1.00  0.00     0.000 C 
BRANCH   4   5
ATOM      5  C   UNL     1     -17.942  16.516 -21.519  1.00  0.00     0.000 C 
BRANCH   5   6
ATOM      6  C   UNL     1     -17.237  15.148 -21.588  1.00  0.00     0.000 C 
BRANCH   6   7
ATOM      7  C   UNL     1     -18.119  13.979 -22.064  1.00  0.00     0.000 C 
BRANCH   7   8
ATOM      8  C   UNL     1     -17.529  13.234 -23.275  1.00  0.00     0.000 C 
BRANCH   8   9
ATOM      9  C   UNL     1     -18.545  13.077 -24.420  1.00  0.00     0.000 C 
BRANCH   9  10
ATOM     10  C   UNL     1     -19.998  13.216 -23.941  1.00  0.00     0.000 C 
BRANCH  10  11
ATOM     11  C   UNL     1     -20.785  14.282 -24.724  1.00  0.00     0.000 C 
BRANCH  11  12
ATOM     12  C   UNL     1     -22.297  14.287 -24.415  1.00  0.00     0.006 C 
BRANCH  12  13
ATOM     13  C   UNL     1     -22.652  15.251 -23.270  1.00  0.00     0.053 C 
BRANCH  13  14
ATOM     14  C   UNL     1     -24.099  15.650 -23.281  1.00  0.00     0.041 C 
ATOM     15  O   UNL     1     -24.510  16.509 -22.458  1.00  0.00    -0.550 OA
ATOM     16  O   UNL     1     -25.001  15.066 -24.162  1.00  0.00    -0.550 OA
ENDBRANCH  13  14
ENDBRANCH  12  13
ENDBRANCH  11  12
ENDBRANCH  10  11
ENDBRANCH   9  10
ENDBRANCH   8   9
ENDBRANCH   7   8
ENDBRANCH   6   7
ENDBRANCH   5   6
ENDBRANCH   4   5
ENDBRANCH   3   4
ENDBRANCH   2   3
ENDBRANCH   1   2
BRANCH   1  17
ATOM     17  C   UNL     1     -22.123  18.160 -19.096  1.00  0.00     0.000 C 
BRANCH  17  18
ATOM     18  C   UNL     1     -22.841  16.939 -18.493  1.00  0.00     0.000 C 
BRANCH  18  19
ATOM     19  C   UNL     1     -22.760  16.908 -16.958  1.00  0.00     0.000 C 
BRANCH  19  20
ATOM     20  C   UNL     1     -23.708  15.875 -16.333  1.00  0.00     0.000 C 
BRANCH  20  21
ATOM     21  C   UNL     1     -22.921  14.734 -15.676  1.00  0.00     0.000 C 
BRANCH  21  22
ATOM     22  C   UNL     1     -23.030  13.444 -16.499  1.00  0.00    -0.000 C 
BRANCH  22  23
ATOM     23  C   UNL     1     -22.348  12.271 -15.778  1.00  0.00    -0.000 C 
BRANCH  23  24
ATOM     24  C   UNL     1     -21.185  11.658 -16.583  1.00  0.00    -0.000 C 
BRANCH  24  25
ATOM     25  C   UNL     1     -19.797  11.783 -15.922  1.00  0.00    -0.000 C 
BRANCH  25  26
ATOM     26  C   UNL     1     -19.503  13.178 -15.325  1.00  0.00    -0.000 C 
BRANCH  26  27
ATOM     27  C   UNL     1     -18.683  14.090 -16.255  1.00  0.00    -0.000 C 
BRANCH  27  28
ATOM     28  C   UNL     1     -19.524  14.975 -17.191  1.00  0.00    -0.000 C 
BRANCH  28  29
ATOM     29  C   UNL     1     -19.335  14.618 -18.675  1.00  0.00    -0.003 C 
ATOM     30  C   UNL     1     -20.632  14.085 -19.279  1.00  0.00     0.004 C 
ENDBRANCH  28  29
ENDBRANCH  27  28
ENDBRANCH  26  27
ENDBRANCH  25  26
ENDBRANCH  24  25
ENDBRANCH  23  24
ENDBRANCH  22  23
ENDBRANCH  21  22
ENDBRANCH  20  21
ENDBRANCH  19  20
ENDBRANCH  18  19
ENDBRANCH  17  18
ENDBRANCH   1  17
TORSDOF 26
ENDMDL
MODEL 3
REMARK VINA RESULT:    -2.300      3.594      5.436
REMARK INTER + INTRA:         -10.909
REMARK INTER:                  -5.772
REMARK INTRA:                  -5.137
REMARK UNBOUND:                -5.113
REMARK SMILES CCCCCCCCCCCCCCCCCCCCCCCCCCCC(=O)[O-]
REMARK SMILES IDX 15 1 16 2 17 3 18 4 19 5 20 6 21 7 22 8 23 9 24 10 25 11
REMARK SMILES IDX 26 12 27 13 28 14 29 15 30 16 14 17 13 18 12 19 11 20 10 21
REMARK SMILES IDX 9 22 8 23 7 24 6 25 5 26 4 27 3 28 2 29 1 30
REMARK H PARENT
REMARK Flexibility Score: inf
ROOT
ATOM      1  C   UNL     1     -21.659  14.861 -17.900  1.00  0.00     0.000 C 
ENDROOT
BRANCH   1   2
ATOM      2  C   UNL     1     -22.179  14.323 -16.555  1.00  0.00     0.000 C 
BRANCH   2   3
ATOM      3  C   UNL     1     -22.562  12.830 -16.560  1.00  0.00     0.000 C 
BRANCH   3   4
ATOM      4  C   UNL     1     -21.662  11.951 -15.663  1.00  0.00     0.000 C 
BRANCH   4   5
ATOM      5  C   UNL     1     -20.374  11.489 -16.366  1.00  0.00     0.000 C 
BRANCH   5   6
ATOM      6  C   UNL     1     -19.105  11.766 -15.537  1.00  0.00     0.000 C 
BRANCH   6   7
ATOM      7  C   UNL     1     -18.655  13.239 -15.503  1.00  0.00     0.000 C 
BRANCH   7   8
ATOM      8  C   UNL     1     -18.274  13.784 -16.891  1.00  0.00     0.000 C 
BRANCH   8   9
ATOM      9  C   UNL     1     -17.210  12.919 -17.589  1.00  0.00     0.000 C 
BRANCH   9  10
ATOM     10  C   UNL     1     -17.495  12.729 -19.087  1.00  0.00     0.000 C 
BRANCH  10  11
ATOM     11  C   UNL     1     -16.301  13.123 -19.975  1.00  0.00     0.000 C 
BRANCH  11  12
ATOM     12  C   UNL     1     -15.090  12.176 -19.840  1.00  0.00     0.006 C 
BRANCH  12  13
ATOM     13  C   UNL     1     -14.929  11.260 -21.065  1.00  0.00     0.053 C 
BRANCH  13  14
ATOM     14  C   UNL     1     -14.836  12.029 -22.351  1.00  0.00     0.041 C 
ATOM     15  O   UNL     1     -13.888  12.842 -22.518  1.00  0.00    -0.550 OA
ATOM     16  O   UNL     1     -15.793  11.885 -23.348  1.00  0.00    -0.550 OA
ENDBRANCH  13  14
ENDBRANCH  12  13
ENDBRANCH  11  12
ENDBRANCH  10  11
ENDBRANCH   9  10
ENDBRANCH   8   9
ENDBRANCH   7   8
ENDBRANCH   6   7
ENDBRANCH   5   6
ENDBRANCH   4   5
ENDBRANCH   3   4
ENDBRANCH   2   3
ENDBRANCH   1   2
BRANCH   1  17
ATOM     17  C   UNL     1     -21.342  13.749 -18.926  1.00  0.00     0.000 C 
BRANCH  17  18
ATOM     18  C   UNL     1     -20.660  14.291 -20.195  1.00  0.00     0.000 C 
BRANCH  18  19
ATOM     19  C   UNL     1     -21.346  15.557 -20.737  1.00  0.00     0.000 C 
BRANCH  19  20
ATOM     20  C   UNL     1     -21.866  15.383 -22.170  1.00  0.00     0.000 C 
BRANCH  20  21
ATOM     21  C   UNL     1     -21.543  13.982 -22.706  1.00  0.00     0.000 C 
BRANCH  21  22
ATOM     22  C   UNL     1     -21.429  13.989 -24.236  1.00  0.00    -0.000 C 
BRANCH  22  23
ATOM     23  C   UNL     1     -20.188  13.211 -24.700  1.00  0.00    -0.000 C 
BRANCH  23  24
ATOM     24  C   UNL     1     -19.013  13.292 -23.705  1.00  0.00    -0.000 C 
BRANCH  24  25
ATOM     25  C   UNL     1     -18.147  14.563 -23.820  1.00  0.00    -0.000 C 
BRANCH  25  26
ATOM     26  C   UNL     1     -17.872  15.266 -22.471  1.00  0.00    -0.000 C 
BRANCH  26  27
ATOM     27  C   UNL     1     -18.268  16.754 -22.457  1.00  0.00    -0.000 C 
BRANCH  27  28
ATOM     28  C   UNL     1     -18.053  17.463 -21.108  1.00  0.00    -0.000 C 
BRANCH  28  29
ATOM     29  C   UNL     1     -17.788  16.479 -19.957  1.00  0.00    -0.003 C 
ATOM     30  C   UNL     1     -18.280  17.046 -18.628  1.00  0.00     0.004 C 
ENDBRANCH  28  29
ENDBRANCH  27  28
ENDBRANCH  26  27
ENDBRANCH  25  26
ENDBRANCH  24  25
ENDBRANCH  23  24
ENDBRANCH  22  23
ENDBRANCH  21  22
ENDBRANCH  20  21
ENDBRANCH  19  20
ENDBRANCH  18  19
ENDBRANCH  17  18
ENDBRANCH   1  17
TORSDOF 26
ENDMDL
MODEL 4
REMARK VINA RESULT:    -2.277      1.822      4.766
REMARK INTER + INTRA:         -10.850
REMARK INTER:                  -6.173
REMARK INTRA:                  -4.677
REMARK UNBOUND:                -5.113
REMARK SMILES CCCCCCCCCCCCCCCCCCCCCCCCCCCC(=O)[O-]
REMARK SMILES IDX 15 1 16 2 17 3 18 4 19 5 20 6 21 7 22 8 23 9 24 10 25 11
REMARK SMILES IDX 26 12 27 13 28 14 29 15 30 16 14 17 13 18 12 19 11 20 10 21
REMARK SMILES IDX 9 22 8 23 7 24 6 25 5 26 4 27 3 28 2 29 1 30
REMARK H PARENT
REMARK Flexibility Score: inf
ROOT
ATOM      1  C   UNL     1     -16.863  14.843 -20.743  1.00  0.00     0.000 C 
ENDROOT
BRANCH   1   2
ATOM      2  C   UNL     1     -17.241  13.424 -20.281  1.00  0.00     0.000 C 
BRANCH   2   3
ATOM      3  C   UNL     1     -18.471  13.351 -19.357  1.00  0.00     0.000 C 
BRANCH   3   4
ATOM      4  C   UNL     1     -18.471  14.407 -18.229  1.00  0.00     0.000 C 
BRANCH   4   5
ATOM      5  C   UNL     1     -17.898  13.876 -16.903  1.00  0.00     0.000 C 
BRANCH   5   6
ATOM      6  C   UNL     1     -18.988  13.386 -15.931  1.00  0.00     0.000 C 
BRANCH   6   7
ATOM      7  C   UNL     1     -19.385  11.906 -16.085  1.00  0.00     0.000 C 
BRANCH   7   8
ATOM      8  C   UNL     1     -20.683  11.712 -16.891  1.00  0.00     0.000 C 
BRANCH   8   9
ATOM      9  C   UNL     1     -21.932  12.145 -16.104  1.00  0.00     0.000 C 
BRANCH   9  10
ATOM     10  C   UNL     1     -22.845  13.078 -16.916  1.00  0.00     0.000 C 
BRANCH  10  11
ATOM     11  C   UNL     1     -22.060  14.121 -17.730  1.00  0.00     0.000 C 
BRANCH  11  12
ATOM     12  C   UNL     1     -21.889  15.472 -17.005  1.00  0.00     0.006 C 
BRANCH  12  13
ATOM     13  C   UNL     1     -23.154  15.881 -16.232  1.00  0.00     0.053 C 
BRANCH  13  14
ATOM     14  C   UNL     1     -23.277  17.369 -16.075  1.00  0.00     0.041 C 
ATOM     15  O   UNL     1     -22.290  18.030 -15.655  1.00  0.00    -0.550 OA
ATOM     16  O   UNL     1     -24.468  18.028 -16.354  1.00  0.00    -0.550 OA
ENDBRANCH  13  14
ENDBRANCH  12  13
ENDBRANCH  11  12
ENDBRANCH  10  11
ENDBRANCH   9  10
ENDBRANCH   8   9
ENDBRANCH   7   8
ENDBRANCH   6   7
ENDBRANCH   5   6
ENDBRANCH   4   5
ENDBRANCH   3   4
ENDBRANCH   2   3
ENDBRANCH   1   2
BRANCH   1  17
ATOM     17  C   UNL     1     -16.997  15.048 -22.269  1.00  0.00     0.000 C 
BRANCH  17  18
ATOM     18  C   UNL     1     -17.388  13.756 -23.008  1.00  0.00     0.000 C 
BRANCH  18  19
ATOM     19  C   UNL     1     -18.147  14.033 -24.316  1.00  0.00     0.000 C 
BRANCH  19  20
ATOM     20  C   UNL     1     -19.436  13.208 -24.442  1.00  0.00     0.000 C 
BRANCH  20  21
ATOM     21  C   UNL     1     -20.551  14.028 -25.104  1.00  0.00     0.000 C 
BRANCH  21  22
ATOM     22  C   UNL     1     -21.600  14.464 -24.073  1.00  0.00    -0.000 C 
BRANCH  22  23
ATOM     23  C   UNL     1     -21.602  13.525 -22.857  1.00  0.00    -0.000 C 
BRANCH  23  24
ATOM     24  C   UNL     1     -21.249  14.239 -21.537  1.00  0.00    -0.000 C 
BRANCH  24  25
ATOM     25  C   UNL     1     -20.468  15.559 -21.698  1.00  0.00    -0.000 C 
BRANCH  25  26
ATOM     26  C   UNL     1     -20.878  16.663 -20.696  1.00  0.00    -0.000 C 
BRANCH  26  27
ATOM     27  C   UNL     1     -22.401  16.799 -20.513  1.00  0.00    -0.000 C 
BRANCH  27  28
ATOM     28  C   UNL     1     -22.837  17.959 -19.602  1.00  0.00    -0.000 C 
BRANCH  28  29
ATOM     29  C   UNL     1     -23.897  18.862 -20.255  1.00  0.00    -0.003 C 
ATOM     30  C   UNL     1     -24.087  18.507 -21.727  1.00  0.00     0.004 C 
ENDBRANCH  28  29
ENDBRANCH  27  28
ENDBRANCH  26  27
ENDBRANCH  25  26
ENDBRANCH  24  25
ENDBRANCH  23  24
ENDBRANCH  22  23
ENDBRANCH  21  22
ENDBRANCH  20  21
ENDBRANCH  19  20
ENDBRANCH  18  19
ENDBRANCH  17  18
ENDBRANCH   1  17
TORSDOF 26
ENDMDL
MODEL 5
REMARK VINA RESULT:    -2.260      2.900      7.911
REMARK INTER + INTRA:         -10.808
REMARK INTER:                  -5.335
REMARK INTRA:                  -5.473
REMARK UNBOUND:                -5.113
REMARK SMILES CCCCCCCCCCCCCCCCCCCCCCCCCCCC(=O)[O-]
REMARK SMILES IDX 15 1 16 2 17 3 18 4 19 5 20 6 21 7 22 8 23 9 24 10 25 11
REMARK SMILES IDX 26 12 27 13 28 14 29 15 30 16 14 17 13 18 12 19 11 20 10 21
REMARK SMILES IDX 9 22 8 23 7 24 6 25 5 26 4 27 3 28 2 29 1 30
REMARK H PARENT
REMARK Flexibility Score: inf
ROOT
ATOM      1  C   UNL     1     -19.693  14.911 -14.119  1.00  0.00     0.000 C 
ENDROOT
BRANCH   1   2
ATOM      2  C   UNL     1     -19.234  13.490 -13.746  1.00  0.00     0.000 C 
BRANCH   2   3
ATOM      3  C   UNL     1     -18.012  12.978 -14.533  1.00  0.00     0.000 C 
BRANCH   3   4
ATOM      4  C   UNL     1     -18.354  11.906 -15.592  1.00  0.00     0.000 C 
BRANCH   4   5
ATOM      5  C   UNL     1     -19.777  11.340 -15.442  1.00  0.00     0.000 C 
BRANCH   5   6
ATOM      6  C   UNL     1     -20.672  11.634 -16.661  1.00  0.00     0.000 C 
BRANCH   6   7
ATOM      7  C   UNL     1     -20.229  12.831 -17.524  1.00  0.00     0.000 C 
BRANCH   7   8
ATOM      8  C   UNL     1     -21.327  13.317 -18.487  1.00  0.00     0.000 C 
BRANCH   8   9
ATOM      9  C   UNL     1     -20.859  14.490 -19.366  1.00  0.00     0.000 C 
BRANCH   9  10
ATOM     10  C   UNL     1     -19.341  14.477 -19.607  1.00  0.00     0.000 C 
BRANCH  10  11
ATOM     11  C   UNL     1     -18.959  14.918 -21.031  1.00  0.00     0.000 C 
BRANCH  11  12
ATOM     12  C   UNL     1     -19.638  14.086 -22.140  1.00  0.00     0.006 C 
BRANCH  12  13
ATOM     13  C   UNL     1     -20.569  14.940 -23.018  1.00  0.00     0.053 C 
BRANCH  13  14
ATOM     14  C   UNL     1     -21.900  14.286 -23.251  1.00  0.00     0.041 C 
ATOM     15  O   UNL     1     -22.002  13.035 -23.141  1.00  0.00    -0.550 OA
ATOM     16  O   UNL     1     -23.015  15.030 -23.615  1.00  0.00    -0.550 OA
ENDBRANCH  13  14
ENDBRANCH  12  13
ENDBRANCH  11  12
ENDBRANCH  10  11
ENDBRANCH   9  10
ENDBRANCH   8   9
ENDBRANCH   7   8
ENDBRANCH   6   7
ENDBRANCH   5   6
ENDBRANCH   4   5
ENDBRANCH   3   4
ENDBRANCH   2   3
ENDBRANCH   1   2
BRANCH   1  17
ATOM     17  C   UNL     1     -18.874  15.540 -15.268  1.00  0.00     0.000 C 
BRANCH  17  18
ATOM     18  C   UNL     1     -19.751  16.318 -16.265  1.00  0.00     0.000 C 
BRANCH  18  19
ATOM     19  C   UNL     1     -21.185  16.525 -15.749  1.00  0.00     0.000 C 
BRANCH  19  20
ATOM     20  C   UNL     1     -22.168  16.908 -16.864  1.00  0.00     0.000 C 
BRANCH  20  21
ATOM     21  C   UNL     1     -23.371  15.955 -16.887  1.00  0.00     0.000 C 
BRANCH  21  22
ATOM     22  C   UNL     1     -23.293  14.942 -15.738  1.00  0.00    -0.000 C 
BRANCH  22  23
ATOM     23  C   UNL     1     -24.087  13.669 -16.071  1.00  0.00    -0.000 C 
BRANCH  23  24
ATOM     24  C   UNL     1     -23.897  12.546 -15.032  1.00  0.00    -0.000 C 
BRANCH  24  25
ATOM     25  C   UNL     1     -22.833  12.829 -13.952  1.00  0.00    -0.000 C 
BRANCH  25  26
ATOM     26  C   UNL     1     -23.284  12.485 -12.514  1.00  0.00    -0.000 C 
BRANCH  26  27
ATOM     27  C   UNL     1     -23.655  13.719 -11.670  1.00  0.00    -0.000 C 
BRANCH  27  28
ATOM     28  C   UNL     1     -24.658  14.676 -12.338  1.00  0.00    -0.000 C 
BRANCH  28  29
ATOM     29  C   UNL     1     -24.302  16.156 -12.121  1.00  0.00    -0.003 C 
ATOM     30  C   UNL     1     -22.818  16.406 -12.377  1.00  0.00     0.004 C 
ENDBRANCH  28  29
ENDBRANCH  27  28
ENDBRANCH  26  27
ENDBRANCH  25  26
ENDBRANCH  24  25
ENDBRANCH  23  24
ENDBRANCH  22  23
ENDBRANCH  21  22
ENDBRANCH  20  21
ENDBRANCH  19  20
ENDBRANCH  18  19
ENDBRANCH  17  18
ENDBRANCH   1  17
TORSDOF 26
ENDMDL
MODEL 6
REMARK VINA RESULT:    -2.256      3.461      7.502
REMARK INTER + INTRA:         -10.799
REMARK INTER:                  -5.744
REMARK INTRA:                  -5.055
REMARK UNBOUND:                -5.113
REMARK SMILES CCCCCCCCCCCCCCCCCCCCCCCCCCCC(=O)[O-]
REMARK SMILES IDX 15 1 16 2 17 3 18 4 19 5 20 6 21 7 22 8 23 9 24 10 25 11
REMARK SMILES IDX 26 12 27 13 28 14 29 15 30 16 14 17 13 18 12 19 11 20 10 21
REMARK SMILES IDX 9 22 8 23 7 24 6 25 5 26 4 27 3 28 2 29 1 30
REMARK H PARENT
REMARK Flexibility Score: inf
ROOT
ATOM      1  C   UNL     1     -21.300  15.145 -18.856  1.00  0.00     0.000 C 
ENDROOT
BRANCH   1   2
ATOM      2  C   UNL     1     -21.517  16.257 -19.898  1.00  0.00     0.000 C 
BRANCH   2   3
ATOM      3  C   UNL     1     -21.409  15.800 -21.365  1.00  0.00     0.000 C 
BRANCH   3   4
ATOM      4  C   UNL     1     -20.998  14.319 -21.530  1.00  0.00     0.000 C 
BRANCH   4   5
ATOM      5  C   UNL     1     -21.852  13.566 -22.565  1.00  0.00     0.000 C 
BRANCH   5   6
ATOM      6  C   UNL     1     -22.083  14.374 -23.856  1.00  0.00     0.000 C 
BRANCH   6   7
ATOM      7  C   UNL     1     -21.124  14.044 -25.016  1.00  0.00     0.000 C 
BRANCH   7   8
ATOM      8  C   UNL     1     -20.315  12.756 -24.778  1.00  0.00     0.000 C 
BRANCH   8   9
ATOM      9  C   UNL     1     -18.825  13.039 -24.520  1.00  0.00     0.000 C 
BRANCH   9  10
ATOM     10  C   UNL     1     -18.473  14.527 -24.665  1.00  0.00     0.000 C 
BRANCH  10  11
ATOM     11  C   UNL     1     -17.856  15.122 -23.387  1.00  0.00     0.000 C 
BRANCH  11  12
ATOM     12  C   UNL     1     -16.313  15.155 -23.402  1.00  0.00     0.006 C 
BRANCH  12  13
ATOM     13  C   UNL     1     -15.699  13.957 -22.656  1.00  0.00     0.053 C 
BRANCH  13  14
ATOM     14  C   UNL     1     -14.533  14.351 -21.798  1.00  0.00     0.041 C 
ATOM     15  O   UNL     1     -13.946  15.444 -22.014  1.00  0.00    -0.550 OA
ATOM     16  O   UNL     1     -14.067  13.517 -20.788  1.00  0.00    -0.550 OA
ENDBRANCH  13  14
ENDBRANCH  12  13
ENDBRANCH  11  12
ENDBRANCH  10  11
ENDBRANCH   9  10
ENDBRANCH   8   9
ENDBRANCH   7   8
ENDBRANCH   6   7
ENDBRANCH   5   6
ENDBRANCH   4   5
ENDBRANCH   3   4
ENDBRANCH   2   3
ENDBRANCH   1   2
BRANCH   1  17
ATOM     17  C   UNL     1     -21.691  15.562 -17.421  1.00  0.00     0.000 C 
BRANCH  17  18
ATOM     18  C   UNL     1     -22.683  14.581 -16.769  1.00  0.00     0.000 C 
BRANCH  18  19
ATOM     19  C   UNL     1     -22.464  13.131 -17.229  1.00  0.00     0.000 C 
BRANCH  19  20
ATOM     20  C   UNL     1     -21.696  12.290 -16.200  1.00  0.00     0.000 C 
BRANCH  20  21
ATOM     21  C   UNL     1     -20.473  11.621 -16.840  1.00  0.00     0.000 C 
BRANCH  21  22
ATOM     22  C   UNL     1     -19.170  12.225 -16.302  1.00  0.00    -0.000 C 
BRANCH  22  23
ATOM     23  C   UNL     1     -18.614  13.284 -17.267  1.00  0.00    -0.000 C 
BRANCH  23  24
ATOM     24  C   UNL     1     -18.396  12.750 -18.696  1.00  0.00    -0.000 C 
BRANCH  24  25
ATOM     25  C   UNL     1     -17.541  13.653 -19.607  1.00  0.00    -0.000 C 
BRANCH  25  26
ATOM     26  C   UNL     1     -17.956  15.142 -19.592  1.00  0.00    -0.000 C 
BRANCH  26  27
ATOM     27  C   UNL     1     -16.778  16.112 -19.387  1.00  0.00    -0.000 C 
BRANCH  27  28
ATOM     28  C   UNL     1     -16.705  17.259 -20.411  1.00  0.00    -0.000 C 
BRANCH  28  29
ATOM     29  C   UNL     1     -18.092  17.792 -20.805  1.00  0.00    -0.003 C 
ATOM     30  C   UNL     1     -18.653  18.712 -19.724  1.00  0.00     0.004 C 
ENDBRANCH  28  29
ENDBRANCH  27  28
ENDBRANCH  26  27
ENDBRANCH  25  26
ENDBRANCH  24  25
ENDBRANCH  23  24
ENDBRANCH  22  23
ENDBRANCH  21  22
ENDBRANCH  20  21
ENDBRANCH  19  20
ENDBRANCH  18  19
ENDBRANCH  17  18
ENDBRANCH   1  17
TORSDOF 26
ENDMDL
MODEL 7
REMARK VINA RESULT:    -2.217     10.465     13.774
REMARK INTER + INTRA:         -10.698
REMARK INTER:                  -5.271
REMARK INTRA:                  -5.427
REMARK UNBOUND:                -5.113
REMARK SMILES CCCCCCCCCCCCCCCCCCCCCCCCCCCC(=O)[O-]
REMARK SMILES IDX 15 1 16 2 17 3 18 4 19 5 20 6 21 7 22 8 23 9 24 10 25 11
REMARK SMILES IDX 26 12 27 13 28 14 29 15 30 16 14 17 13 18 12 19 11 20 10 21
REMARK SMILES IDX 9 22 8 23 7 24 6 25 5 26 4 27 3 28 2 29 1 30
REMARK H PARENT
REMARK Flexibility Score: inf
ROOT
ATOM      1  C   UNL     1     -20.226  24.838 -18.337  1.00  0.00     0.000 C 
ENDROOT
BRANCH   1   2
ATOM      2  C   UNL     1     -20.717  26.247 -17.959  1.00  0.00     0.000 C 
BRANCH   2   3
ATOM      3  C   UNL     1     -22.223  26.487 -18.176  1.00  0.00     0.000 C 
BRANCH   3   4
ATOM      4  C   UNL     1     -22.683  27.923 -17.839  1.00  0.00     0.000 C 
BRANCH   4   5
ATOM      5  C   UNL     1     -24.123  28.219 -18.291  1.00  0.00     0.000 C 
BRANCH   5   6
ATOM      6  C   UNL     1     -24.257  29.566 -19.027  1.00  0.00     0.000 C 
BRANCH   6   7
ATOM      7  C   UNL     1     -24.863  29.483 -20.440  1.00  0.00     0.000 C 
BRANCH   7   8
ATOM      8  C   UNL     1     -23.814  29.645 -21.555  1.00  0.00     0.000 C 
BRANCH   8   9
ATOM      9  C   UNL     1     -23.476  28.309 -22.240  1.00  0.00     0.000 C 
BRANCH   9  10
ATOM     10  C   UNL     1     -22.169  27.693 -21.717  1.00  0.00     0.000 C 
BRANCH  10  11
ATOM     11  C   UNL     1     -21.230  28.734 -21.083  1.00  0.00     0.000 C 
BRANCH  11  12
ATOM     12  C   UNL     1     -19.772  28.247 -20.939  1.00  0.00     0.006 C 
BRANCH  12  13
ATOM     13  C   UNL     1     -18.759  29.304 -21.409  1.00  0.00     0.053 C 
BRANCH  13  14
ATOM     14  C   UNL     1     -17.726  29.615 -20.366  1.00  0.00     0.041 C 
ATOM     15  O   UNL     1     -16.656  28.951 -20.337  1.00  0.00    -0.550 OA
ATOM     16  O   UNL     1     -17.940  30.601 -19.411  1.00  0.00    -0.550 OA
ENDBRANCH  13  14
ENDBRANCH  12  13
ENDBRANCH  11  12
ENDBRANCH  10  11
ENDBRANCH   9  10
ENDBRANCH   8   9
ENDBRANCH   7   8
ENDBRANCH   6   7
ENDBRANCH   5   6
ENDBRANCH   4   5
ENDBRANCH   3   4
ENDBRANCH   2   3
ENDBRANCH   1   2
BRANCH   1  17
ATOM     17  C   UNL     1     -20.970  24.233 -19.549  1.00  0.00     0.000 C 
BRANCH  17  18
ATOM     18  C   UNL     1     -20.356  24.659 -20.894  1.00  0.00     0.000 C 
BRANCH  18  19
ATOM     19  C   UNL     1     -20.611  23.631 -22.009  1.00  0.00     0.000 C 
BRANCH  19  20
ATOM     20  C   UNL     1     -21.130  24.274 -23.303  1.00  0.00     0.000 C 
BRANCH  20  21
ATOM     21  C   UNL     1     -20.121  25.290 -23.854  1.00  0.00     0.000 C 
BRANCH  21  22
ATOM     22  C   UNL     1     -19.006  24.588 -24.641  1.00  0.00    -0.000 C 
BRANCH  22  23
ATOM     23  C   UNL     1     -17.674  25.339 -24.499  1.00  0.00    -0.000 C 
BRANCH  23  24
ATOM     24  C   UNL     1     -17.661  26.336 -23.324  1.00  0.00    -0.000 C 
BRANCH  24  25
ATOM     25  C   UNL     1     -16.477  26.181 -22.349  1.00  0.00    -0.000 C 
BRANCH  25  26
ATOM     26  C   UNL     1     -16.824  25.422 -21.047  1.00  0.00    -0.000 C 
BRANCH  26  27
ATOM     27  C   UNL     1     -16.256  23.992 -20.995  1.00  0.00    -0.000 C 
BRANCH  27  28
ATOM     28  C   UNL     1     -17.187  22.910 -21.570  1.00  0.00    -0.000 C 
BRANCH  28  29
ATOM     29  C   UNL     1     -16.488  22.015 -22.606  1.00  0.00    -0.003 C 
ATOM     30  C   UNL     1     -15.330  22.751 -23.274  1.00  0.00     0.004 C 
ENDBRANCH  28  29
ENDBRANCH  27  28
ENDBRANCH  26  27
ENDBRANCH  25  26
ENDBRANCH  24  25
ENDBRANCH  23  24
ENDBRANCH  22  23
ENDBRANCH  21  22
ENDBRANCH  20  21
ENDBRANCH  19  20
ENDBRANCH  18  19
ENDBRANCH  17  18
ENDBRANCH   1  17
TORSDOF 26
ENDMDL
MODEL 8
REMARK VINA RESULT:    -2.189      2.142      3.913
REMARK INTER + INTRA:         -10.630
REMARK INTER:                  -5.668
REMARK INTRA:                  -4.962
REMARK UNBOUND:                -5.113
REMARK SMILES CCCCCCCCCCCCCCCCCCCCCCCCCCCC(=O)[O-]
REMARK SMILES IDX 15 1 16 2 17 3 18 4 19 5 20 6 21 7 22 8 23 9 24 10 25 11
REMARK SMILES IDX 26 12 27 13 28 14 29 15 30 16 14 17 13 18 12 19 11 20 10 21
REMARK SMILES IDX 9 22 8 23 7 24 6 25 5 26 4 27 3 28 2 29 1 30
REMARK H PARENT
REMARK Flexibility Score: inf
ROOT
ATOM      1  C   UNL     1     -17.518  16.064 -17.270  1.00  0.00     0.000 C 
ENDROOT
BRANCH   1   2
ATOM      2  C   UNL     1     -18.805  16.610 -17.915  1.00  0.00     0.000 C 
BRANCH   2   3
ATOM      3  C   UNL     1     -19.971  15.605 -17.981  1.00  0.00     0.000 C 
BRANCH   3   4
ATOM      4  C   UNL     1     -19.627  14.209 -17.415  1.00  0.00     0.000 C 
BRANCH   4   5
ATOM      5  C   UNL     1     -20.524  13.091 -17.975  1.00  0.00     0.000 C 
BRANCH   5   6
ATOM      6  C   UNL     1     -20.876  12.020 -16.925  1.00  0.00     0.000 C 
BRANCH   6   7
ATOM      7  C   UNL     1     -22.120  12.326 -16.071  1.00  0.00     0.000 C 
BRANCH   7   8
ATOM      8  C   UNL     1     -23.190  13.130 -16.832  1.00  0.00     0.000 C 
BRANCH   8   9
ATOM      9  C   UNL     1     -24.367  13.541 -15.930  1.00  0.00     0.000 C 
BRANCH   9  10
ATOM     10  C   UNL     1     -24.557  15.064 -15.865  1.00  0.00     0.000 C 
BRANCH  10  11
ATOM     11  C   UNL     1     -23.422  15.837 -16.559  1.00  0.00     0.000 C 
BRANCH  11  12
ATOM     12  C   UNL     1     -22.593  16.716 -15.599  1.00  0.00     0.006 C 
BRANCH  12  13
ATOM     13  C   UNL     1     -21.742  15.877 -14.631  1.00  0.00     0.053 C 
BRANCH  13  14
ATOM     14  C   UNL     1     -20.407  16.503 -14.349  1.00  0.00     0.041 C 
ATOM     15  O   UNL     1     -19.380  15.774 -14.299  1.00  0.00    -0.550 OA
ATOM     16  O   UNL     1     -20.285  17.866 -14.111  1.00  0.00    -0.550 OA
ENDBRANCH  13  14
ENDBRANCH  12  13
ENDBRANCH  11  12
ENDBRANCH  10  11
ENDBRANCH   9  10
ENDBRANCH   8   9
ENDBRANCH   7   8
ENDBRANCH   6   7
ENDBRANCH   5   6
ENDBRANCH   4   5
ENDBRANCH   3   4
ENDBRANCH   2   3
ENDBRANCH   1   2
BRANCH   1  17
ATOM     17  C   UNL     1     -16.345  15.920 -18.266  1.00  0.00     0.000 C 
BRANCH  17  18
ATOM     18  C   UNL     1     -16.751  15.186 -19.557  1.00  0.00     0.000 C 
BRANCH  18  19
ATOM     19  C   UNL     1     -16.432  16.000 -20.822  1.00  0.00     0.000 C 
BRANCH  19  20
ATOM     20  C   UNL     1     -17.671  16.258 -21.690  1.00  0.00     0.000 C 
BRANCH  20  21
ATOM     21  C   UNL     1     -18.729  15.168 -21.475  1.00  0.00     0.000 C 
BRANCH  21  22
ATOM     22  C   UNL     1     -20.143  15.723 -21.690  1.00  0.00    -0.000 C 
BRANCH  22  23
ATOM     23  C   UNL     1     -21.205  14.643 -21.430  1.00  0.00    -0.000 C 
BRANCH  23  24
ATOM     24  C   UNL     1     -21.443  13.722 -22.643  1.00  0.00    -0.000 C 
BRANCH  24  25
ATOM     25  C   UNL     1     -21.501  14.441 -24.007  1.00  0.00    -0.000 C 
BRANCH  25  26
ATOM     26  C   UNL     1     -20.451  13.948 -25.028  1.00  0.00    -0.000 C 
BRANCH  26  27
ATOM     27  C   UNL     1     -19.454  12.927 -24.448  1.00  0.00    -0.000 C 
BRANCH  27  28
ATOM     28  C   UNL     1     -17.973  13.269 -24.687  1.00  0.00    -0.000 C 
BRANCH  28  29
ATOM     29  C   UNL     1     -17.762  14.732 -25.110  1.00  0.00    -0.003 C 
ATOM     30  C   UNL     1     -16.294  15.131 -24.987  1.00  0.00     0.004 C 
ENDBRANCH  28  29
ENDBRANCH  27  28
ENDBRANCH  26  27
ENDBRANCH  25  26
ENDBRANCH  24  25
ENDBRANCH  23  24
ENDBRANCH  22  23
ENDBRANCH  21  22
ENDBRANCH  20  21
ENDBRANCH  19  20
ENDBRANCH  18  19
ENDBRANCH  17  18
ENDBRANCH   1  17
TORSDOF 26
ENDMDL
MODEL 9
REMARK VINA RESULT:    -2.178      1.883      6.009
REMARK INTER + INTRA:         -10.601
REMARK INTER:                  -5.249
REMARK INTRA:                  -5.352
REMARK UNBOUND:                -5.113
REMARK SMILES CCCCCCCCCCCCCCCCCCCCCCCCCCCC(=O)[O-]
REMARK SMILES IDX 15 1 16 2 17 3 18 4 19 5 20 6 21 7 22 8 23 9 24 10 25 11
REMARK SMILES IDX 26 12 27 13 28 14 29 15 30 16 14 17 13 18 12 19 11 20 10 21
REMARK SMILES IDX 9 22 8 23 7 24 6 25 5 26 4 27 3 28 2 29 1 30
REMARK H PARENT
REMARK Flexibility Score: inf
ROOT
ATOM      1  C   UNL     1     -21.667  14.373 -22.830  1.00  0.00     0.000 C 
ENDROOT
BRANCH   1   2
ATOM      2  C   UNL     1     -21.834  13.111 -23.695  1.00  0.00     0.000 C 
BRANCH   2   3
ATOM      3  C   UNL     1     -20.989  13.094 -24.984  1.00  0.00     0.000 C 
BRANCH   3   4
ATOM      4  C   UNL     1     -19.713  13.962 -24.907  1.00  0.00     0.000 C 
BRANCH   4   5
ATOM      5  C   UNL     1     -18.535  13.248 -24.222  1.00  0.00     0.000 C 
BRANCH   5   6
ATOM      6  C   UNL     1     -17.758  14.161 -23.255  1.00  0.00     0.000 C 
BRANCH   6   7
ATOM      7  C   UNL     1     -17.773  13.717 -21.781  1.00  0.00     0.000 C 
BRANCH   7   8
ATOM      8  C   UNL     1     -16.555  14.222 -20.987  1.00  0.00     0.000 C 
BRANCH   8   9
ATOM      9  C   UNL     1     -16.454  13.578 -19.594  1.00  0.00     0.000 C 
BRANCH   9  10
ATOM     10  C   UNL     1     -17.818  13.470 -18.893  1.00  0.00     0.000 C 
BRANCH  10  11
ATOM     11  C   UNL     1     -18.228  14.772 -18.183  1.00  0.00     0.000 C 
BRANCH  11  12
ATOM     12  C   UNL     1     -19.519  14.642 -17.348  1.00  0.00     0.006 C 
BRANCH  12  13
ATOM     13  C   UNL     1     -20.147  13.243 -17.465  1.00  0.00     0.053 C 
BRANCH  13  14
ATOM     14  C   UNL     1     -21.605  13.235 -17.106  1.00  0.00     0.041 C 
ATOM     15  O   UNL     1     -22.323  14.223 -17.415  1.00  0.00    -0.550 OA
ATOM     16  O   UNL     1     -22.171  12.173 -16.413  1.00  0.00    -0.550 OA
ENDBRANCH  13  14
ENDBRANCH  12  13
ENDBRANCH  11  12
ENDBRANCH  10  11
ENDBRANCH   9  10
ENDBRANCH   8   9
ENDBRANCH   7   8
ENDBRANCH   6   7
ENDBRANCH   5   6
ENDBRANCH   4   5
ENDBRANCH   3   4
ENDBRANCH   2   3
ENDBRANCH   1   2
BRANCH   1  17
ATOM     17  C   UNL     1     -21.292  14.067 -21.362  1.00  0.00     0.000 C 
BRANCH  17  18
ATOM     18  C   UNL     1     -20.896  15.330 -20.577  1.00  0.00     0.000 C 
BRANCH  18  19
ATOM     19  C   UNL     1     -20.276  16.412 -21.476  1.00  0.00     0.000 C 
BRANCH  19  20
ATOM     20  C   UNL     1     -19.134  17.174 -20.788  1.00  0.00     0.000 C 
BRANCH  20  21
ATOM     21  C   UNL     1     -19.651  17.962 -19.578  1.00  0.00     0.000 C 
BRANCH  21  22
ATOM     22  C   UNL     1     -20.119  19.363 -19.991  1.00  0.00    -0.000 C 
BRANCH  22  23
ATOM     23  C   UNL     1     -21.583  19.597 -19.587  1.00  0.00    -0.000 C 
BRANCH  23  24
ATOM     24  C   UNL     1     -22.590  19.148 -20.664  1.00  0.00    -0.000 C 
BRANCH  24  25
ATOM     25  C   UNL     1     -23.670  18.161 -20.177  1.00  0.00    -0.000 C 
BRANCH  25  26
ATOM     26  C   UNL     1     -23.238  17.293 -18.972  1.00  0.00    -0.000 C 
BRANCH  26  27
ATOM     27  C   UNL     1     -24.073  17.538 -17.702  1.00  0.00    -0.000 C 
BRANCH  27  28
ATOM     28  C   UNL     1     -23.302  18.194 -16.544  1.00  0.00    -0.000 C 
BRANCH  28  29
ATOM     29  C   UNL     1     -21.976  17.482 -16.234  1.00  0.00    -0.003 C 
ATOM     30  C   UNL     1     -20.837  18.486 -16.078  1.00  0.00     0.004 C 
ENDBRANCH  28  29
ENDBRANCH  27  28
ENDBRANCH  26  27
ENDBRANCH  25  26
ENDBRANCH  24  25
ENDBRANCH  23  24
ENDBRANCH  22  23
ENDBRANCH  21  22
ENDBRANCH  20  21
ENDBRANCH  19  20
ENDBRANCH  18  19
ENDBRANCH  17  18
ENDBRANCH   1  17
TORSDOF 26
ENDMDL
