MODEL 1
REMARK VINA RESULT:    -4.827      0.000      0.000
REMARK INTER + INTRA:          -5.410
REMARK INTER:                  -5.814
REMARK INTRA:                   0.404
REMARK UNBOUND:                 0.404
REMARK SMILES O=c1c(O)c(-c2ccc(O)c(O)c2)oc2cc(O)cc(O)c12
REMARK SMILES IDX 5 1 3 2 2 3 1 4 22 5 20 6 19 7 17 8 16 9 15 10 14 11 6 12
REMARK SMILES IDX 7 13 8 14 9 15 13 16 11 17 10 18 12 20 4 22 21 24 18 26
REMARK H PARENT 10 19 12 21 4 23 21 25 18 27
REMARK Flexibility Score: inf
ROOT
ATOM      1  C   UNL     1      10.947 -15.684  10.683  1.00  0.00     0.180 A 
ATOM      2  C   UNL     1      10.309 -14.996   9.637  1.00  0.00     0.208 A 
ATOM      3  C   UNL     1      10.053 -15.670   8.432  1.00  0.00     0.238 A 
ATOM      4  O   UNL     1       9.433 -15.064   7.520  1.00  0.00    -0.285 OA
ATOM      5  C   UNL     1      10.454 -17.020   8.282  1.00  0.00     0.111 A 
ATOM      6  C   UNL     1      10.282 -17.789   7.092  1.00  0.00     0.134 A 
ATOM      7  C   UNL     1      10.596 -19.153   7.100  1.00  0.00     0.093 A 
ATOM      8  C   UNL     1      11.137 -19.761   8.232  1.00  0.00     0.123 A 
ATOM      9  C   UNL     1      11.366 -19.005   9.382  1.00  0.00     0.094 A 
ATOM     10  C   UNL     1      11.028 -17.650   9.417  1.00  0.00     0.146 A 
ATOM     11  O   UNL     1      11.251 -16.968  10.535  1.00  0.00    -0.452 OA
ENDROOT
BRANCH   1  12
ATOM     12  C   UNL     1      11.273 -15.034  11.973  1.00  0.00     0.025 A 
ATOM     13  C   UNL     1      11.427 -15.784  13.150  1.00  0.00     0.016 A 
ATOM     14  C   UNL     1      11.711 -15.147  14.359  1.00  0.00     0.051 A 
ATOM     15  C   UNL     1      11.834 -13.754  14.422  1.00  0.00     0.157 A 
ATOM     16  C   UNL     1      11.373 -13.636  12.037  1.00  0.00     0.062 A 
ATOM     17  C   UNL     1      11.659 -12.988  13.245  1.00  0.00     0.158 A 
BRANCH  15  18
ATOM     18  O   UNL     1      12.123 -13.179  15.661  1.00  0.00    -0.504 OA
ATOM     19  H   UNL     1      11.600 -13.364  16.505  1.00  0.00     0.293 HD
ENDBRANCH  15  18
BRANCH  17  20
ATOM     20  O   UNL     1      11.756 -11.595  13.231  1.00  0.00    -0.504 OA
ATOM     21  H   UNL     1      10.996 -10.974  13.467  1.00  0.00     0.293 HD
ENDBRANCH  17  20
ENDBRANCH   1  12
BRANCH   2  22
ATOM     22  O   UNL     1       9.903 -13.670   9.815  1.00  0.00    -0.502 OA
ATOM     23  H   UNL     1       9.439 -13.351  10.658  1.00  0.00     0.293 HD
ENDBRANCH   2  22
BRANCH   6  24
ATOM     24  O   UNL     1       9.834 -17.258   5.878  1.00  0.00    -0.507 OA
ATOM     25  H   UNL     1       9.792 -16.274   5.663  1.00  0.00     0.293 HD
ENDBRANCH   6  24
BRANCH   8  26
ATOM     26  O   UNL     1      11.454 -21.117   8.198  1.00  0.00    -0.508 OA
ATOM     27  H   UNL     1      10.825 -21.817   8.574  1.00  0.00     0.293 HD
ENDBRANCH   8  26
TORSDOF 6
ENDMDL
MODEL 2
REMARK VINA RESULT:    -4.510     20.472     22.297
REMARK INTER + INTRA:          -5.029
REMARK INTER:                  -4.765
REMARK INTRA:                  -0.265
REMARK UNBOUND:                 0.404
REMARK SMILES O=c1c(O)c(-c2ccc(O)c(O)c2)oc2cc(O)cc(O)c12
REMARK SMILES IDX 5 1 3 2 2 3 1 4 22 5 20 6 19 7 17 8 16 9 15 10 14 11 6 12
REMARK SMILES IDX 7 13 8 14 9 15 13 16 11 17 10 18 12 20 4 22 21 24 18 26
REMARK H PARENT 10 19 12 21 4 23 21 25 18 27
REMARK Flexibility Score: inf
ROOT
ATOM      1  C   UNL     1      -5.815 -11.852  23.826  1.00  0.00     0.180 A 
ATOM      2  C   UNL     1      -6.721 -11.080  24.573  1.00  0.00     0.208 A 
ATOM      3  C   UNL     1      -7.271  -9.925  23.995  1.00  0.00     0.238 A 
ATOM      4  O   UNL     1      -8.123  -9.269  24.650  1.00  0.00    -0.285 OA
ATOM      5  C   UNL     1      -6.897  -9.547  22.684  1.00  0.00     0.111 A 
ATOM      6  C   UNL     1      -7.361  -8.375  22.014  1.00  0.00     0.134 A 
ATOM      7  C   UNL     1      -7.027  -8.170  20.669  1.00  0.00     0.093 A 
ATOM      8  C   UNL     1      -6.194  -9.058  19.991  1.00  0.00     0.123 A 
ATOM      9  C   UNL     1      -5.685 -10.175  20.654  1.00  0.00     0.094 A 
ATOM     10  C   UNL     1      -6.030 -10.427  21.984  1.00  0.00     0.146 A 
ATOM     11  O   UNL     1      -5.534 -11.508  22.575  1.00  0.00    -0.452 OA
ENDROOT
BRANCH   1  12
ATOM     12  C   UNL     1      -5.173 -13.068  24.376  1.00  0.00     0.025 A 
ATOM     13  C   UNL     1      -5.882 -14.273  24.505  1.00  0.00     0.016 A 
ATOM     14  C   UNL     1      -5.263 -15.400  25.048  1.00  0.00     0.051 A 
ATOM     15  C   UNL     1      -3.934 -15.347  25.483  1.00  0.00     0.157 A 
ATOM     16  C   UNL     1      -3.847 -13.005  24.832  1.00  0.00     0.062 A 
ATOM     17  C   UNL     1      -3.218 -14.131  25.378  1.00  0.00     0.158 A 
BRANCH  15  18
ATOM     18  O   UNL     1      -3.373 -16.510  26.013  1.00  0.00    -0.504 OA
ATOM     19  H   UNL     1      -2.380 -16.664  26.110  1.00  0.00     0.293 HD
ENDBRANCH  15  18
BRANCH  17  20
ATOM     20  O   UNL     1      -1.893 -13.997  25.800  1.00  0.00    -0.504 OA
ATOM     21  H   UNL     1      -1.094 -14.107  25.193  1.00  0.00     0.293 HD
ENDBRANCH  17  20
ENDBRANCH   1  12
BRANCH   2  22
ATOM     22  O   UNL     1      -7.092 -11.484  25.859  1.00  0.00    -0.502 OA
ATOM     23  H   UNL     1      -7.968 -11.201  26.286  1.00  0.00     0.293 HD
ENDBRANCH   2  22
BRANCH   6  24
ATOM     24  O   UNL     1      -8.125  -7.377  22.627  1.00  0.00    -0.507 OA
ATOM     25  H   UNL     1      -9.000  -7.535  23.104  1.00  0.00     0.293 HD
ENDBRANCH   6  24
BRANCH   8  26
ATOM     26  O   UNL     1      -5.869  -8.813  18.659  1.00  0.00    -0.508 OA
ATOM     27  H   UNL     1      -6.094  -7.932  18.212  1.00  0.00     0.293 HD
ENDBRANCH   8  26
TORSDOF 6
ENDMDL
MODEL 3
REMARK VINA RESULT:    -4.500     18.418     20.409
REMARK INTER + INTRA:          -5.017
REMARK INTER:                  -4.806
REMARK INTRA:                  -0.211
REMARK UNBOUND:                 0.404
REMARK SMILES O=c1c(O)c(-c2ccc(O)c(O)c2)oc2cc(O)cc(O)c12
REMARK SMILES IDX 5 1 3 2 2 3 1 4 22 5 20 6 19 7 17 8 16 9 15 10 14 11 6 12
REMARK SMILES IDX 7 13 8 14 9 15 13 16 11 17 10 18 12 20 4 22 21 24 18 26
REMARK H PARENT 10 19 12 21 4 23 21 25 18 27
REMARK Flexibility Score: inf
ROOT
ATOM      1  C   UNL     1      -3.692  -3.394   8.381  1.00  0.00     0.180 A 
ATOM      2  C   UNL     1      -4.451  -2.350   7.826  1.00  0.00     0.208 A 
ATOM      3  C   UNL     1      -5.595  -1.902   8.505  1.00  0.00     0.238 A 
ATOM      4  O   UNL     1      -6.239  -0.931   8.030  1.00  0.00    -0.285 OA
ATOM      5  C   UNL     1      -5.976  -2.515   9.723  1.00  0.00     0.111 A 
ATOM      6  C   UNL     1      -7.138  -2.169  10.476  1.00  0.00     0.134 A 
ATOM      7  C   UNL     1      -7.345  -2.750  11.733  1.00  0.00     0.093 A 
ATOM      8  C   UNL     1      -6.469  -3.712  12.234  1.00  0.00     0.123 A 
ATOM      9  C   UNL     1      -5.362  -4.102  11.480  1.00  0.00     0.094 A 
ATOM     10  C   UNL     1      -5.109  -3.513  10.239  1.00  0.00     0.146 A 
ATOM     11  O   UNL     1      -4.038  -3.904   9.558  1.00  0.00    -0.452 OA
ENDROOT
BRANCH   1  12
ATOM     12  C   UNL     1      -2.488  -3.938   7.712  1.00  0.00     0.025 A 
ATOM     13  C   UNL     1      -2.477  -5.232   7.167  1.00  0.00     0.016 A 
ATOM     14  C   UNL     1      -1.323  -5.732   6.561  1.00  0.00     0.051 A 
ATOM     15  C   UNL     1      -0.157  -4.960   6.498  1.00  0.00     0.157 A 
ATOM     16  C   UNL     1      -1.314  -3.170   7.670  1.00  0.00     0.062 A 
ATOM     17  C   UNL     1      -0.151  -3.663   7.063  1.00  0.00     0.158 A 
BRANCH  15  18
ATOM     18  O   UNL     1       0.962  -5.517   5.875  1.00  0.00    -0.504 OA
ATOM     19  H   UNL     1       1.030  -5.684   4.882  1.00  0.00     0.293 HD
ENDBRANCH  15  18
BRANCH  17  20
ATOM     20  O   UNL     1       0.976  -2.839   7.048  1.00  0.00    -0.504 OA
ATOM     21  H   UNL     1       1.158  -2.120   7.733  1.00  0.00     0.293 HD
ENDBRANCH  17  20
ENDBRANCH   1  12
BRANCH   2  22
ATOM     22  O   UNL     1      -4.045  -1.746   6.632  1.00  0.00    -0.502 OA
ATOM     23  H   UNL     1      -3.100  -1.407   6.488  1.00  0.00     0.293 HD
ENDBRANCH   2  22
BRANCH   6  24
ATOM     24  O   UNL     1      -8.125  -1.286  10.026  1.00  0.00    -0.507 OA
ATOM     25  H   UNL     1      -8.831  -0.869  10.613  1.00  0.00     0.293 HD
ENDBRANCH   6  24
BRANCH   8  26
ATOM     26  O   UNL     1      -6.715  -4.282  13.482  1.00  0.00    -0.508 OA
ATOM     27  H   UNL     1      -7.481  -4.930  13.627  1.00  0.00     0.293 HD
ENDBRANCH   8  26
TORSDOF 6
ENDMDL
MODEL 4
REMARK VINA RESULT:    -4.117     17.880     19.868
REMARK INTER + INTRA:          -4.555
REMARK INTER:                  -4.560
REMARK INTRA:                   0.004
REMARK UNBOUND:                 0.404
REMARK SMILES O=c1c(O)c(-c2ccc(O)c(O)c2)oc2cc(O)cc(O)c12
REMARK SMILES IDX 5 1 3 2 2 3 1 4 22 5 20 6 19 7 17 8 16 9 15 10 14 11 6 12
REMARK SMILES IDX 7 13 8 14 9 15 13 16 11 17 10 18 12 20 4 22 21 24 18 26
REMARK H PARENT 10 19 12 21 4 23 21 25 18 27
REMARK Flexibility Score: inf
ROOT
ATOM      1  C   UNL     1      -3.169  -3.938   7.834  1.00  0.00     0.180 A 
ATOM      2  C   UNL     1      -4.231  -4.538   7.136  1.00  0.00     0.208 A 
ATOM      3  C   UNL     1      -5.514  -4.527   7.705  1.00  0.00     0.238 A 
ATOM      4  O   UNL     1      -6.470  -5.017   7.049  1.00  0.00    -0.285 OA
ATOM      5  C   UNL     1      -5.717  -3.931   8.972  1.00  0.00     0.111 A 
ATOM      6  C   UNL     1      -6.967  -3.898   9.662  1.00  0.00     0.134 A 
ATOM      7  C   UNL     1      -7.080  -3.167  10.851  1.00  0.00     0.093 A 
ATOM      8  C   UNL     1      -5.976  -2.524  11.408  1.00  0.00     0.123 A 
ATOM      9  C   UNL     1      -4.737  -2.600  10.774  1.00  0.00     0.094 A 
ATOM     10  C   UNL     1      -4.599  -3.291   9.568  1.00  0.00     0.146 A 
ATOM     11  O   UNL     1      -3.404  -3.330   8.991  1.00  0.00    -0.452 OA
ENDROOT
BRANCH   1  12
ATOM     12  C   UNL     1      -1.784  -3.932   7.311  1.00  0.00     0.025 A 
ATOM     13  C   UNL     1      -1.184  -5.101   6.816  1.00  0.00     0.016 A 
ATOM     14  C   UNL     1       0.131  -5.076   6.349  1.00  0.00     0.051 A 
ATOM     15  C   UNL     1       0.878  -3.892   6.379  1.00  0.00     0.157 A 
ATOM     16  C   UNL     1      -1.030  -2.749   7.363  1.00  0.00     0.062 A 
ATOM     17  C   UNL     1       0.290  -2.714   6.897  1.00  0.00     0.158 A 
BRANCH  15  18
ATOM     18  O   UNL     1       2.186  -3.934   5.894  1.00  0.00    -0.504 OA
ATOM     19  H   UNL     1       2.451  -4.365   5.020  1.00  0.00     0.293 HD
ENDBRANCH  15  18
BRANCH  17  20
ATOM     20  O   UNL     1       0.975  -1.499   6.968  1.00  0.00    -0.504 OA
ATOM     21  H   UNL     1       1.556  -1.224   7.746  1.00  0.00     0.293 HD
ENDBRANCH  17  20
ENDBRANCH   1  12
BRANCH   2  22
ATOM     22  O   UNL     1      -4.012  -5.102   5.875  1.00  0.00    -0.502 OA
ATOM     23  H   UNL     1      -3.974  -4.545   5.029  1.00  0.00     0.293 HD
ENDBRANCH   2  22
BRANCH   6  24
ATOM     24  O   UNL     1      -8.110  -4.582   9.238  1.00  0.00    -0.507 OA
ATOM     25  H   UNL     1      -9.014  -4.157   9.095  1.00  0.00     0.293 HD
ENDBRANCH   6  24
BRANCH   8  26
ATOM     26  O   UNL     1      -6.123  -1.819  12.601  1.00  0.00    -0.508 OA
ATOM     27  H   UNL     1      -6.910  -1.979  13.218  1.00  0.00     0.293 HD
ENDBRANCH   8  26
TORSDOF 6
ENDMDL
MODEL 5
REMARK VINA RESULT:    -3.981     20.763     23.070
REMARK INTER + INTRA:          -4.391
REMARK INTER:                  -4.068
REMARK INTRA:                  -0.323
REMARK UNBOUND:                 0.404
REMARK SMILES O=c1c(O)c(-c2ccc(O)c(O)c2)oc2cc(O)cc(O)c12
REMARK SMILES IDX 5 1 3 2 2 3 1 4 22 5 20 6 19 7 17 8 16 9 15 10 14 11 6 12
REMARK SMILES IDX 7 13 8 14 9 15 13 16 11 17 10 18 12 20 4 22 21 24 18 26
REMARK H PARENT 10 19 12 21 4 23 21 25 18 27
REMARK Flexibility Score: inf
ROOT
ATOM      1  C   UNL     1      -5.757 -11.969  24.014  1.00  0.00     0.180 A 
ATOM      2  C   UNL     1      -5.900 -11.766  22.631  1.00  0.00     0.208 A 
ATOM      3  C   UNL     1      -6.531 -10.598  22.175  1.00  0.00     0.238 A 
ATOM      4  O   UNL     1      -6.606 -10.397  20.935  1.00  0.00    -0.285 OA
ATOM      5  C   UNL     1      -7.026  -9.655  23.107  1.00  0.00     0.111 A 
ATOM      6  C   UNL     1      -7.718  -8.456  22.758  1.00  0.00     0.134 A 
ATOM      7  C   UNL     1      -8.046  -7.532  23.758  1.00  0.00     0.093 A 
ATOM      8  C   UNL     1      -7.768  -7.793  25.099  1.00  0.00     0.123 A 
ATOM      9  C   UNL     1      -7.147  -8.989  25.457  1.00  0.00     0.094 A 
ATOM     10  C   UNL     1      -6.773  -9.914  24.480  1.00  0.00     0.146 A 
ATOM     11  O   UNL     1      -6.173 -11.036  24.862  1.00  0.00    -0.452 OA
ENDROOT
BRANCH   1  12
ATOM     12  C   UNL     1      -5.126 -13.187  24.573  1.00  0.00     0.025 A 
ATOM     13  C   UNL     1      -3.740 -13.262  24.782  1.00  0.00     0.016 A 
ATOM     14  C   UNL     1      -3.165 -14.429  25.288  1.00  0.00     0.051 A 
ATOM     15  C   UNL     1      -3.955 -15.546  25.582  1.00  0.00     0.157 A 
ATOM     16  C   UNL     1      -5.918 -14.313  24.846  1.00  0.00     0.062 A 
ATOM     17  C   UNL     1      -5.350 -15.489  25.354  1.00  0.00     0.158 A 
BRANCH  15  18
ATOM     18  O   UNL     1      -3.318 -16.680  26.089  1.00  0.00    -0.504 OA
ATOM     19  H   UNL     1      -2.356 -16.920  25.898  1.00  0.00     0.293 HD
ENDBRANCH  15  18
BRANCH  17  20
ATOM     20  O   UNL     1      -6.201 -16.565  25.613  1.00  0.00    -0.504 OA
ATOM     21  H   UNL     1      -5.881 -17.487  25.871  1.00  0.00     0.293 HD
ENDBRANCH  17  20
ENDBRANCH   1  12
BRANCH   2  22
ATOM     22  O   UNL     1      -5.385 -12.701  21.728  1.00  0.00    -0.502 OA
ATOM     23  H   UNL     1      -4.582 -13.281  21.944  1.00  0.00     0.293 HD
ENDBRANCH   2  22
BRANCH   6  24
ATOM     24  O   UNL     1      -8.125  -8.140  21.458  1.00  0.00    -0.507 OA
ATOM     25  H   UNL     1      -7.689  -7.443  20.874  1.00  0.00     0.293 HD
ENDBRANCH   6  24
BRANCH   8  26
ATOM     26  O   UNL     1      -8.124  -6.859  26.068  1.00  0.00    -0.508 OA
ATOM     27  H   UNL     1      -8.904  -7.016  26.695  1.00  0.00     0.293 HD
ENDBRANCH   8  26
TORSDOF 6
ENDMDL
MODEL 6
REMARK VINA RESULT:    -3.891     16.658     18.261
REMARK INTER + INTRA:          -4.283
REMARK INTER:                  -4.443
REMARK INTRA:                   0.160
REMARK UNBOUND:                 0.404
REMARK SMILES O=c1c(O)c(-c2ccc(O)c(O)c2)oc2cc(O)cc(O)c12
REMARK SMILES IDX 5 1 3 2 2 3 1 4 22 5 20 6 19 7 17 8 16 9 15 10 14 11 6 12
REMARK SMILES IDX 7 13 8 14 9 15 13 16 11 17 10 18 12 20 4 22 21 24 18 26
REMARK H PARENT 10 19 12 21 4 23 21 25 18 27
REMARK Flexibility Score: inf
ROOT
ATOM      1  C   UNL     1      -2.527  -4.498   6.477  1.00  0.00     0.180 A 
ATOM      2  C   UNL     1      -3.790  -3.922   6.693  1.00  0.00     0.208 A 
ATOM      3  C   UNL     1      -4.930  -4.741   6.653  1.00  0.00     0.238 A 
ATOM      4  O   UNL     1      -6.052  -4.228   6.902  1.00  0.00    -0.285 OA
ATOM      5  C   UNL     1      -4.793  -6.124   6.382  1.00  0.00     0.111 A 
ATOM      6  C   UNL     1      -5.882  -7.041   6.279  1.00  0.00     0.134 A 
ATOM      7  C   UNL     1      -5.621  -8.410   6.138  1.00  0.00     0.093 A 
ATOM      8  C   UNL     1      -4.316  -8.886   6.031  1.00  0.00     0.123 A 
ATOM      9  C   UNL     1      -3.246  -7.992   6.070  1.00  0.00     0.094 A 
ATOM     10  C   UNL     1      -3.472  -6.625   6.247  1.00  0.00     0.146 A 
ATOM     11  O   UNL     1      -2.426  -5.808   6.290  1.00  0.00    -0.452 OA
ENDROOT
BRANCH   1  12
ATOM     12  C   UNL     1      -1.283  -3.695   6.477  1.00  0.00     0.025 A 
ATOM     13  C   UNL     1      -1.254  -2.390   5.958  1.00  0.00     0.016 A 
ATOM     14  C   UNL     1      -0.064  -1.661   5.948  1.00  0.00     0.051 A 
ATOM     15  C   UNL     1       1.121  -2.220   6.442  1.00  0.00     0.157 A 
ATOM     16  C   UNL     1      -0.092  -4.265   6.952  1.00  0.00     0.062 A 
ATOM     17  C   UNL     1       1.107  -3.541   6.947  1.00  0.00     0.158 A 
BRANCH  15  18
ATOM     18  O   UNL     1       2.275  -1.436   6.407  1.00  0.00    -0.504 OA
ATOM     19  H   UNL     1       2.401  -0.643   5.794  1.00  0.00     0.293 HD
ENDBRANCH  15  18
BRANCH  17  20
ATOM     20  O   UNL     1       2.251  -4.168   7.446  1.00  0.00    -0.504 OA
ATOM     21  H   UNL     1       2.576  -5.074   7.141  1.00  0.00     0.293 HD
ENDBRANCH  17  20
ENDBRANCH   1  12
BRANCH   2  22
ATOM     22  O   UNL     1      -3.900  -2.558   6.980  1.00  0.00    -0.502 OA
ATOM     23  H   UNL     1      -3.110  -2.001   7.286  1.00  0.00     0.293 HD
ENDBRANCH   2  22
BRANCH   6  24
ATOM     24  O   UNL     1      -7.227  -6.659   6.283  1.00  0.00    -0.507 OA
ATOM     25  H   UNL     1      -7.585  -5.821   6.716  1.00  0.00     0.293 HD
ENDBRANCH   6  24
BRANCH   8  26
ATOM     26  O   UNL     1      -4.094 -10.253   5.875  1.00  0.00    -0.508 OA
ATOM     27  H   UNL     1      -4.262 -10.907   6.631  1.00  0.00     0.293 HD
ENDBRANCH   8  26
TORSDOF 6
ENDMDL
MODEL 7
REMARK VINA RESULT:    -3.505     20.185     22.317
REMARK INTER + INTRA:          -3.818
REMARK INTER:                  -3.787
REMARK INTRA:                  -0.032
REMARK UNBOUND:                 0.404
REMARK SMILES O=c1c(O)c(-c2ccc(O)c(O)c2)oc2cc(O)cc(O)c12
REMARK SMILES IDX 5 1 3 2 2 3 1 4 22 5 20 6 19 7 17 8 16 9 15 10 14 11 6 12
REMARK SMILES IDX 7 13 8 14 9 15 13 16 11 17 10 18 12 20 4 22 21 24 18 26
REMARK H PARENT 10 19 12 21 4 23 21 25 18 27
REMARK Flexibility Score: inf
ROOT
ATOM      1  C   UNL     1      -6.285  -8.577  20.948  1.00  0.00     0.180 A 
ATOM      2  C   UNL     1      -5.377  -9.554  20.507  1.00  0.00     0.208 A 
ATOM      3  C   UNL     1      -5.136 -10.675  21.317  1.00  0.00     0.238 A 
ATOM      4  O   UNL     1      -4.363 -11.573  20.892  1.00  0.00    -0.285 OA
ATOM      5  C   UNL     1      -5.793 -10.797  22.565  1.00  0.00     0.111 A 
ATOM      6  C   UNL     1      -5.595 -11.871  23.484  1.00  0.00     0.134 A 
ATOM      7  C   UNL     1      -6.397 -11.957  24.630  1.00  0.00     0.093 A 
ATOM      8  C   UNL     1      -7.342 -10.975  24.921  1.00  0.00     0.123 A 
ATOM      9  C   UNL     1      -7.503  -9.890  24.060  1.00  0.00     0.094 A 
ATOM     10  C   UNL     1      -6.744  -9.795  22.891  1.00  0.00     0.146 A 
ATOM     11  O   UNL     1      -6.936  -8.752  22.092  1.00  0.00    -0.452 OA
ENDROOT
BRANCH   1  12
ATOM     12  C   UNL     1      -6.573  -7.355  20.162  1.00  0.00     0.025 A 
ATOM     13  C   UNL     1      -7.881  -7.027  19.772  1.00  0.00     0.016 A 
ATOM     14  C   UNL     1      -8.125  -5.883  19.012  1.00  0.00     0.051 A 
ATOM     15  C   UNL     1      -7.072  -5.051  18.614  1.00  0.00     0.157 A 
ATOM     16  C   UNL     1      -5.513  -6.535  19.746  1.00  0.00     0.062 A 
ATOM     17  C   UNL     1      -5.747  -5.383  18.983  1.00  0.00     0.158 A 
BRANCH  15  18
ATOM     18  O   UNL     1      -7.384  -3.919  17.858  1.00  0.00    -0.504 OA
ATOM     19  H   UNL     1      -7.512  -3.927  16.857  1.00  0.00     0.293 HD
ENDBRANCH  15  18
BRANCH  17  20
ATOM     20  O   UNL     1      -4.645  -4.608  18.615  1.00  0.00    -0.504 OA
ATOM     21  H   UNL     1      -4.169  -3.973  19.239  1.00  0.00     0.293 HD
ENDBRANCH  17  20
ENDBRANCH   1  12
BRANCH   2  22
ATOM     22  O   UNL     1      -4.754  -9.424  19.262  1.00  0.00    -0.502 OA
ATOM     23  H   UNL     1      -3.846  -8.987  19.151  1.00  0.00     0.293 HD
ENDBRANCH   2  22
BRANCH   6  24
ATOM     24  O   UNL     1      -4.613 -12.856  23.334  1.00  0.00    -0.507 OA
ATOM     25  H   UNL     1      -3.626 -12.672  23.244  1.00  0.00     0.293 HD
ENDBRANCH   6  24
BRANCH   8  26
ATOM     26  O   UNL     1      -8.111 -11.084  26.078  1.00  0.00    -0.508 OA
ATOM     27  H   UNL     1      -8.443 -10.265  26.573  1.00  0.00     0.293 HD
ENDBRANCH   8  26
TORSDOF 6
ENDMDL
