MODEL 1
REMARK VINA RESULT:    -4.149      0.000      0.000
REMARK INTER + INTRA:         -11.203
REMARK INTER:                  -8.999
REMARK INTRA:                  -2.204
REMARK UNBOUND:                -2.204
REMARK SMILES CCCCCCCCCCCCCCCCCCCCCC(=O)[O-]
REMARK SMILES IDX 12 1 11 2 10 3 9 4 8 5 7 6 6 7 5 8 4 9 3 10 2 11 1 12 13 13
REMARK SMILES IDX 14 14 15 15 16 16 17 17 18 18 19 19 20 20 21 21 22 22 23 23
REMARK SMILES IDX 24 24
REMARK H PARENT
REMARK Flexibility Score: inf
ROOT
ATOM      1  C   UNL     1      34.361  10.421  44.792  1.00  0.00     0.000 C 
ENDROOT
BRANCH   1   2
ATOM      2  C   UNL     1      34.867   9.414  45.842  1.00  0.00     0.000 C 
BRANCH   2   3
ATOM      3  C   UNL     1      33.735   8.832  46.707  1.00  0.00     0.000 C 
BRANCH   3   4
ATOM      4  C   UNL     1      33.940   9.116  48.204  1.00  0.00    -0.000 C 
BRANCH   4   5
ATOM      5  C   UNL     1      33.282  10.434  48.644  1.00  0.00    -0.000 C 
BRANCH   5   6
ATOM      6  C   UNL     1      31.779  10.285  48.937  1.00  0.00    -0.000 C 
BRANCH   6   7
ATOM      7  C   UNL     1      31.415   8.966  49.652  1.00  0.00    -0.000 C 
BRANCH   7   8
ATOM      8  C   UNL     1      30.145   8.321  49.072  1.00  0.00    -0.000 C 
BRANCH   8   9
ATOM      9  C   UNL     1      29.989   6.845  49.501  1.00  0.00    -0.000 C 
BRANCH   9  10
ATOM     10  C   UNL     1      29.957   5.860  48.320  1.00  0.00    -0.000 C 
BRANCH  10  11
ATOM     11  C   UNL     1      31.083   6.105  47.307  1.00  0.00    -0.003 C 
ATOM     12  C   UNL     1      32.399   5.505  47.794  1.00  0.00     0.004 C 
ENDBRANCH  10  11
ENDBRANCH   9  10
ENDBRANCH   8   9
ENDBRANCH   7   8
ENDBRANCH   6   7
ENDBRANCH   5   6
ENDBRANCH   4   5
ENDBRANCH   3   4
ENDBRANCH   2   3
ENDBRANCH   1   2
BRANCH   1  13
ATOM     13  C   UNL     1      34.862  11.864  44.982  1.00  0.00     0.000 C 
BRANCH  13  14
ATOM     14  C   UNL     1      35.565  12.082  46.333  1.00  0.00     0.000 C 
BRANCH  14  15
ATOM     15  C   UNL     1      36.092  13.516  46.496  1.00  0.00     0.000 C 
BRANCH  15  16
ATOM     16  C   UNL     1      35.733  14.413  45.297  1.00  0.00     0.000 C 
BRANCH  16  17
ATOM     17  C   UNL     1      36.547  15.717  45.268  1.00  0.00     0.000 C 
BRANCH  17  18
ATOM     18  C   UNL     1      35.708  16.945  45.666  1.00  0.00     0.000 C 
BRANCH  18  19
ATOM     19  C   UNL     1      36.321  17.721  46.842  1.00  0.00     0.000 C 
BRANCH  19  20
ATOM     20  C   UNL     1      35.702  17.329  48.196  1.00  0.00     0.006 C 
BRANCH  20  21
ATOM     21  C   UNL     1      34.347  16.627  48.031  1.00  0.00     0.053 C 
BRANCH  21  22
ATOM     22  C   UNL     1      33.242  17.389  48.694  1.00  0.00     0.041 C 
ATOM     23  O   UNL     1      32.092  16.883  48.792  1.00  0.00    -0.550 OA
ATOM     24  O   UNL     1      33.473  18.669  49.181  1.00  0.00    -0.550 OA
ENDBRANCH  21  22
ENDBRANCH  20  21
ENDBRANCH  19  20
ENDBRANCH  18  19
ENDBRANCH  17  18
ENDBRANCH  16  17
ENDBRANCH  15  16
ENDBRANCH  14  15
ENDBRANCH  13  14
ENDBRANCH   1  13
TORSDOF 20
ENDMDL
MODEL 2
REMARK VINA RESULT:    -4.024      3.501      9.649
REMARK INTER + INTRA:         -10.933
REMARK INTER:                  -8.787
REMARK INTRA:                  -2.146
REMARK UNBOUND:                -2.204
REMARK SMILES CCCCCCCCCCCCCCCCCCCCCC(=O)[O-]
REMARK SMILES IDX 12 1 11 2 10 3 9 4 8 5 7 6 6 7 5 8 4 9 3 10 2 11 1 12 13 13
REMARK SMILES IDX 14 14 15 15 16 16 17 17 18 18 19 19 20 20 21 21 22 22 23 23
REMARK SMILES IDX 24 24
REMARK H PARENT
REMARK Flexibility Score: inf
ROOT
ATOM      1  C   UNL     1      35.072  11.407  47.367  1.00  0.00     0.000 C 
ENDROOT
BRANCH   1   2
ATOM      2  C   UNL     1      36.567  11.768  47.292  1.00  0.00     0.000 C 
BRANCH   2   3
ATOM      3  C   UNL     1      36.827  13.089  46.546  1.00  0.00     0.000 C 
BRANCH   3   4
ATOM      4  C   UNL     1      35.685  13.450  45.581  1.00  0.00    -0.000 C 
BRANCH   4   5
ATOM      5  C   UNL     1      35.823  14.876  45.022  1.00  0.00    -0.000 C 
BRANCH   5   6
ATOM      6  C   UNL     1      37.223  15.473  45.244  1.00  0.00    -0.000 C 
BRANCH   6   7
ATOM      7  C   UNL     1      37.257  17.015  45.179  1.00  0.00    -0.000 C 
BRANCH   7   8
ATOM      8  C   UNL     1      36.005  17.652  45.806  1.00  0.00    -0.000 C 
BRANCH   8   9
ATOM      9  C   UNL     1      36.272  18.190  47.229  1.00  0.00    -0.000 C 
BRANCH   9  10
ATOM     10  C   UNL     1      35.093  17.989  48.196  1.00  0.00    -0.000 C 
BRANCH  10  11
ATOM     11  C   UNL     1      34.262  16.740  47.871  1.00  0.00    -0.003 C 
ATOM     12  C   UNL     1      34.817  15.510  48.584  1.00  0.00     0.004 C 
ENDBRANCH  10  11
ENDBRANCH   9  10
ENDBRANCH   8   9
ENDBRANCH   7   8
ENDBRANCH   6   7
ENDBRANCH   5   6
ENDBRANCH   4   5
ENDBRANCH   3   4
ENDBRANCH   2   3
ENDBRANCH   1   2
BRANCH   1  13
ATOM     13  C   UNL     1      34.756   9.909  47.204  1.00  0.00     0.000 C 
BRANCH  13  14
ATOM     14  C   UNL     1      34.127   9.289  48.464  1.00  0.00     0.000 C 
BRANCH  14  15
ATOM     15  C   UNL     1      32.864  10.037  48.919  1.00  0.00     0.000 C 
BRANCH  15  16
ATOM     16  C   UNL     1      31.918   9.145  49.742  1.00  0.00     0.000 C 
BRANCH  16  17
ATOM     17  C   UNL     1      30.624   8.798  48.988  1.00  0.00     0.000 C 
BRANCH  17  18
ATOM     18  C   UNL     1      29.634   7.996  49.852  1.00  0.00     0.000 C 
BRANCH  18  19
ATOM     19  C   UNL     1      29.526   6.526  49.414  1.00  0.00     0.000 C 
BRANCH  19  20
ATOM     20  C   UNL     1      29.939   6.315  47.946  1.00  0.00     0.006 C 
BRANCH  20  21
ATOM     21  C   UNL     1      31.082   5.301  47.807  1.00  0.00     0.053 C 
BRANCH  21  22
ATOM     22  C   UNL     1      32.418   5.976  47.738  1.00  0.00     0.041 C 
ATOM     23  O   UNL     1      32.815   6.489  46.658  1.00  0.00    -0.550 OA
ATOM     24  O   UNL     1      33.236   6.015  48.859  1.00  0.00    -0.550 OA
ENDBRANCH  21  22
ENDBRANCH  20  21
ENDBRANCH  19  20
ENDBRANCH  18  19
ENDBRANCH  17  18
ENDBRANCH  16  17
ENDBRANCH  15  16
ENDBRANCH  14  15
ENDBRANCH  13  14
ENDBRANCH   1  13
TORSDOF 20
ENDMDL
MODEL 3
REMARK VINA RESULT:    -3.882      3.486      9.247
REMARK INTER + INTRA:         -10.626
REMARK INTER:                  -8.441
REMARK INTRA:                  -2.184
REMARK UNBOUND:                -2.204
REMARK SMILES CCCCCCCCCCCCCCCCCCCCCC(=O)[O-]
REMARK SMILES IDX 12 1 11 2 10 3 9 4 8 5 7 6 6 7 5 8 4 9 3 10 2 11 1 12 13 13
REMARK SMILES IDX 14 14 15 15 16 16 17 17 18 18 19 19 20 20 21 21 22 22 23 23
REMARK SMILES IDX 24 24
REMARK H PARENT
REMARK Flexibility Score: inf
ROOT
ATOM      1  C   UNL     1      34.686  10.031  45.904  1.00  0.00     0.000 C 
ENDROOT
BRANCH   1   2
ATOM      2  C   UNL     1      36.077   9.372  45.860  1.00  0.00     0.000 C 
BRANCH   2   3
ATOM      3  C   UNL     1      37.057   9.971  46.884  1.00  0.00     0.000 C 
BRANCH   3   4
ATOM      4  C   UNL     1      37.281  11.476  46.666  1.00  0.00    -0.000 C 
BRANCH   4   5
ATOM      5  C   UNL     1      36.646  12.328  47.778  1.00  0.00    -0.000 C 
BRANCH   5   6
ATOM      6  C   UNL     1      35.889  13.552  47.235  1.00  0.00    -0.000 C 
BRANCH   6   7
ATOM      7  C   UNL     1      35.530  13.446  45.738  1.00  0.00    -0.000 C 
BRANCH   7   8
ATOM      8  C   UNL     1      35.911  14.715  44.957  1.00  0.00    -0.000 C 
BRANCH   8   9
ATOM      9  C   UNL     1      37.007  15.535  45.673  1.00  0.00    -0.000 C 
BRANCH   9  10
ATOM     10  C   UNL     1      37.018  17.023  45.282  1.00  0.00    -0.000 C 
BRANCH  10  11
ATOM     11  C   UNL     1      35.888  17.822  45.944  1.00  0.00    -0.003 C 
ATOM     12  C   UNL     1      35.729  17.435  47.412  1.00  0.00     0.004 C 
ENDBRANCH  10  11
ENDBRANCH   9  10
ENDBRANCH   8   9
ENDBRANCH   7   8
ENDBRANCH   6   7
ENDBRANCH   5   6
ENDBRANCH   4   5
ENDBRANCH   3   4
ENDBRANCH   2   3
ENDBRANCH   1   2
BRANCH   1  13
ATOM     13  C   UNL     1      33.696   9.395  46.898  1.00  0.00     0.000 C 
BRANCH  13  14
ATOM     14  C   UNL     1      34.107   9.600  48.366  1.00  0.00     0.000 C 
BRANCH  14  15
ATOM     15  C   UNL     1      33.305  10.720  49.048  1.00  0.00     0.000 C 
BRANCH  15  16
ATOM     16  C   UNL     1      31.786  10.486  48.970  1.00  0.00     0.000 C 
BRANCH  16  17
ATOM     17  C   UNL     1      31.355   9.162  49.620  1.00  0.00     0.000 C 
BRANCH  17  18
ATOM     18  C   UNL     1      30.195   8.485  48.869  1.00  0.00     0.000 C 
BRANCH  18  19
ATOM     19  C   UNL     1      29.720   7.195  49.557  1.00  0.00     0.000 C 
BRANCH  19  20
ATOM     20  C   UNL     1      29.866   5.956  48.657  1.00  0.00     0.006 C 
BRANCH  20  21
ATOM     21  C   UNL     1      30.895   6.172  47.538  1.00  0.00     0.053 C 
BRANCH  21  22
ATOM     22  C   UNL     1      32.228   5.588  47.888  1.00  0.00     0.041 C 
ATOM     23  O   UNL     1      32.549   4.444  47.471  1.00  0.00    -0.550 OA
ATOM     24  O   UNL     1      33.107   6.296  48.698  1.00  0.00    -0.550 OA
ENDBRANCH  21  22
ENDBRANCH  20  21
ENDBRANCH  19  20
ENDBRANCH  18  19
ENDBRANCH  17  18
ENDBRANCH  16  17
ENDBRANCH  15  16
ENDBRANCH  14  15
ENDBRANCH  13  14
ENDBRANCH   1  13
TORSDOF 20
ENDMDL
MODEL 4
REMARK VINA RESULT:    -3.873      3.546      8.555
REMARK INTER + INTRA:         -10.605
REMARK INTER:                  -7.767
REMARK INTRA:                  -2.838
REMARK UNBOUND:                -2.204
REMARK SMILES CCCCCCCCCCCCCCCCCCCCCC(=O)[O-]
REMARK SMILES IDX 12 1 11 2 10 3 9 4 8 5 7 6 6 7 5 8 4 9 3 10 2 11 1 12 13 13
REMARK SMILES IDX 14 14 15 15 16 16 17 17 18 18 19 19 20 20 21 21 22 22 23 23
REMARK SMILES IDX 24 24
REMARK H PARENT
REMARK Flexibility Score: inf
ROOT
ATOM      1  C   UNL     1      34.131  11.718  44.875  1.00  0.00     0.000 C 
ENDROOT
BRANCH   1   2
ATOM      2  C   UNL     1      34.841  12.949  44.283  1.00  0.00     0.000 C 
BRANCH   2   3
ATOM      3  C   UNL     1      35.457  13.860  45.359  1.00  0.00     0.000 C 
BRANCH   3   4
ATOM      4  C   UNL     1      36.383  13.091  46.316  1.00  0.00    -0.000 C 
BRANCH   4   5
ATOM      5  C   UNL     1      35.938  13.214  47.783  1.00  0.00    -0.000 C 
BRANCH   5   6
ATOM      6  C   UNL     1      36.849  14.139  48.609  1.00  0.00    -0.000 C 
BRANCH   6   7
ATOM      7  C   UNL     1      36.285  15.565  48.789  1.00  0.00    -0.000 C 
BRANCH   7   8
ATOM      8  C   UNL     1      34.764  15.621  48.569  1.00  0.00    -0.000 C 
BRANCH   8   9
ATOM      9  C   UNL     1      34.354  16.751  47.598  1.00  0.00    -0.000 C 
BRANCH   9  10
ATOM     10  C   UNL     1      35.531  17.632  47.146  1.00  0.00    -0.000 C 
BRANCH  10  11
ATOM     11  C   UNL     1      35.798  17.544  45.637  1.00  0.00    -0.003 C 
ATOM     12  C   UNL     1      37.235  17.113  45.359  1.00  0.00     0.004 C 
ENDBRANCH  10  11
ENDBRANCH   9  10
ENDBRANCH   8   9
ENDBRANCH   7   8
ENDBRANCH   6   7
ENDBRANCH   5   6
ENDBRANCH   4   5
ENDBRANCH   3   4
ENDBRANCH   2   3
ENDBRANCH   1   2
BRANCH   1  13
ATOM     13  C   UNL     1      34.358  10.404  44.106  1.00  0.00     0.000 C 
BRANCH  13  14
ATOM     14  C   UNL     1      34.702   9.221  45.028  1.00  0.00     0.000 C 
BRANCH  14  15
ATOM     15  C   UNL     1      35.826   9.559  46.020  1.00  0.00     0.000 C 
BRANCH  15  16
ATOM     16  C   UNL     1      35.342   9.549  47.482  1.00  0.00     0.000 C 
BRANCH  16  17
ATOM     17  C   UNL     1      33.844   9.227  47.607  1.00  0.00     0.000 C 
BRANCH  17  18
ATOM     18  C   UNL     1      33.051  10.362  48.279  1.00  0.00     0.000 C 
BRANCH  18  19
ATOM     19  C   UNL     1      31.628   9.934  48.672  1.00  0.00     0.000 C 
BRANCH  19  20
ATOM     20  C   UNL     1      31.522   8.427  48.964  1.00  0.00     0.006 C 
BRANCH  20  21
ATOM     21  C   UNL     1      30.073   7.926  48.908  1.00  0.00     0.053 C 
BRANCH  21  22
ATOM     22  C   UNL     1      29.939   6.704  48.053  1.00  0.00     0.041 C 
ATOM     23  O   UNL     1      30.844   6.403  47.229  1.00  0.00    -0.550 OA
ATOM     24  O   UNL     1      28.804   5.909  48.147  1.00  0.00    -0.550 OA
ENDBRANCH  21  22
ENDBRANCH  20  21
ENDBRANCH  19  20
ENDBRANCH  18  19
ENDBRANCH  17  18
ENDBRANCH  16  17
ENDBRANCH  15  16
ENDBRANCH  14  15
ENDBRANCH  13  14
ENDBRANCH   1  13
TORSDOF 20
ENDMDL
MODEL 5
REMARK VINA RESULT:    -3.854      2.073      4.944
REMARK INTER + INTRA:         -10.565
REMARK INTER:                  -7.874
REMARK INTRA:                  -2.691
REMARK UNBOUND:                -2.204
REMARK SMILES CCCCCCCCCCCCCCCCCCCCCC(=O)[O-]
REMARK SMILES IDX 12 1 11 2 10 3 9 4 8 5 7 6 6 7 5 8 4 9 3 10 2 11 1 12 13 13
REMARK SMILES IDX 14 14 15 15 16 16 17 17 18 18 19 19 20 20 21 21 22 22 23 23
REMARK SMILES IDX 24 24
REMARK H PARENT
REMARK Flexibility Score: inf
ROOT
ATOM      1  C   UNL     1      31.387  10.161  48.842  1.00  0.00     0.000 C 
ENDROOT
BRANCH   1   2
ATOM      2  C   UNL     1      31.152   8.856  49.625  1.00  0.00     0.000 C 
BRANCH   2   3
ATOM      3  C   UNL     1      29.886   8.105  49.173  1.00  0.00     0.000 C 
BRANCH   3   4
ATOM      4  C   UNL     1      30.215   6.843  48.358  1.00  0.00    -0.000 C 
BRANCH   4   5
ATOM      5  C   UNL     1      31.668   6.381  48.559  1.00  0.00    -0.000 C 
BRANCH   5   6
ATOM      6  C   UNL     1      32.319   5.874  47.261  1.00  0.00    -0.000 C 
BRANCH   6   7
ATOM      7  C   UNL     1      32.958   6.993  46.410  1.00  0.00    -0.000 C 
BRANCH   7   8
ATOM      8  C   UNL     1      33.667   8.049  47.274  1.00  0.00    -0.000 C 
BRANCH   8   9
ATOM      9  C   UNL     1      34.115   9.276  46.449  1.00  0.00    -0.000 C 
BRANCH   9  10
ATOM     10  C   UNL     1      35.092   8.931  45.312  1.00  0.00    -0.000 C 
BRANCH  10  11
ATOM     11  C   UNL     1      34.486   9.147  43.919  1.00  0.00    -0.003 C 
ATOM     12  C   UNL     1      34.032  10.593  43.737  1.00  0.00     0.004 C 
ENDBRANCH  10  11
ENDBRANCH   9  10
ENDBRANCH   8   9
ENDBRANCH   7   8
ENDBRANCH   6   7
ENDBRANCH   5   6
ENDBRANCH   4   5
ENDBRANCH   3   4
ENDBRANCH   2   3
ENDBRANCH   1   2
BRANCH   1  13
ATOM     13  C   UNL     1      32.351  11.156  49.513  1.00  0.00     0.000 C 
BRANCH  13  14
ATOM     14  C   UNL     1      33.657  10.497  49.989  1.00  0.00     0.000 C 
BRANCH  14  15
ATOM     15  C   UNL     1      34.850  11.465  49.953  1.00  0.00     0.000 C 
BRANCH  15  16
ATOM     16  C   UNL     1      35.089  12.050  48.549  1.00  0.00     0.000 C 
BRANCH  16  17
ATOM     17  C   UNL     1      36.566  11.996  48.127  1.00  0.00     0.000 C 
BRANCH  17  18
ATOM     18  C   UNL     1      36.769  12.351  46.643  1.00  0.00     0.000 C 
BRANCH  18  19
ATOM     19  C   UNL     1      35.536  13.029  46.025  1.00  0.00     0.000 C 
BRANCH  19  20
ATOM     20  C   UNL     1      35.881  14.350  45.315  1.00  0.00     0.006 C 
BRANCH  20  21
ATOM     21  C   UNL     1      36.915  15.173  46.096  1.00  0.00     0.053 C 
BRANCH  21  22
ATOM     22  C   UNL     1      36.823  16.632  45.772  1.00  0.00     0.041 C 
ATOM     23  O   UNL     1      37.870  17.325  45.659  1.00  0.00    -0.550 OA
ATOM     24  O   UNL     1      35.581  17.235  45.621  1.00  0.00    -0.550 OA
ENDBRANCH  21  22
ENDBRANCH  20  21
ENDBRANCH  19  20
ENDBRANCH  18  19
ENDBRANCH  17  18
ENDBRANCH  16  17
ENDBRANCH  15  16
ENDBRANCH  14  15
ENDBRANCH  13  14
ENDBRANCH   1  13
TORSDOF 20
ENDMDL
MODEL 6
REMARK VINA RESULT:    -3.804      3.714      8.689
REMARK INTER + INTRA:         -10.456
REMARK INTER:                  -7.633
REMARK INTRA:                  -2.823
REMARK UNBOUND:                -2.204
REMARK SMILES CCCCCCCCCCCCCCCCCCCCCC(=O)[O-]
REMARK SMILES IDX 12 1 11 2 10 3 9 4 8 5 7 6 6 7 5 8 4 9 3 10 2 11 1 12 13 13
REMARK SMILES IDX 14 14 15 15 16 16 17 17 18 18 19 19 20 20 21 21 22 22 23 23
REMARK SMILES IDX 24 24
REMARK H PARENT
REMARK Flexibility Score: inf
ROOT
ATOM      1  C   UNL     1      34.611   9.676  45.944  1.00  0.00     0.000 C 
ENDROOT
BRANCH   1   2
ATOM      2  C   UNL     1      36.149   9.594  45.949  1.00  0.00     0.000 C 
BRANCH   2   3
ATOM      3  C   UNL     1      36.802  10.648  46.861  1.00  0.00     0.000 C 
BRANCH   3   4
ATOM      4  C   UNL     1      37.168  10.080  48.242  1.00  0.00    -0.000 C 
BRANCH   4   5
ATOM      5  C   UNL     1      36.721  11.001  49.389  1.00  0.00    -0.000 C 
BRANCH   5   6
ATOM      6  C   UNL     1      36.552  12.466  48.950  1.00  0.00    -0.000 C 
BRANCH   6   7
ATOM      7  C   UNL     1      35.083  12.940  48.922  1.00  0.00    -0.000 C 
BRANCH   7   8
ATOM      8  C   UNL     1      34.967  14.473  48.902  1.00  0.00    -0.000 C 
BRANCH   8   9
ATOM      9  C   UNL     1      36.047  15.130  48.013  1.00  0.00    -0.000 C 
BRANCH   9  10
ATOM     10  C   UNL     1      35.626  15.279  46.541  1.00  0.00    -0.000 C 
BRANCH  10  11
ATOM     11  C   UNL     1      36.244  14.207  45.632  1.00  0.00    -0.003 C 
ATOM     12  C   UNL     1      35.164  13.330  45.005  1.00  0.00     0.004 C 
ENDBRANCH  10  11
ENDBRANCH   9  10
ENDBRANCH   8   9
ENDBRANCH   7   8
ENDBRANCH   6   7
ENDBRANCH   5   6
ENDBRANCH   4   5
ENDBRANCH   3   4
ENDBRANCH   2   3
ENDBRANCH   1   2
BRANCH   1  13
ATOM     13  C   UNL     1      33.921   9.016  47.152  1.00  0.00     0.000 C 
BRANCH  13  14
ATOM     14  C   UNL     1      32.993   9.979  47.913  1.00  0.00     0.000 C 
BRANCH  14  15
ATOM     15  C   UNL     1      33.106   9.822  49.438  1.00  0.00     0.000 C 
BRANCH  15  16
ATOM     16  C   UNL     1      31.933   9.022  50.033  1.00  0.00     0.000 C 
BRANCH  16  17
ATOM     17  C   UNL     1      30.750   8.891  49.060  1.00  0.00     0.000 C 
BRANCH  17  18
ATOM     18  C   UNL     1      29.552   8.154  49.683  1.00  0.00     0.000 C 
BRANCH  18  19
ATOM     19  C   UNL     1      29.701   6.626  49.619  1.00  0.00     0.000 C 
BRANCH  19  20
ATOM     20  C   UNL     1      29.696   6.092  48.175  1.00  0.00     0.006 C 
BRANCH  20  21
ATOM     21  C   UNL     1      30.839   5.100  47.921  1.00  0.00     0.053 C 
BRANCH  21  22
ATOM     22  C   UNL     1      32.136   5.801  47.654  1.00  0.00     0.041 C 
ATOM     23  O   UNL     1      32.422   6.184  46.489  1.00  0.00    -0.550 OA
ATOM     24  O   UNL     1      33.040   6.007  48.687  1.00  0.00    -0.550 OA
ENDBRANCH  21  22
ENDBRANCH  20  21
ENDBRANCH  19  20
ENDBRANCH  18  19
ENDBRANCH  17  18
ENDBRANCH  16  17
ENDBRANCH  15  16
ENDBRANCH  14  15
ENDBRANCH  13  14
ENDBRANCH   1  13
TORSDOF 20
ENDMDL
MODEL 7
REMARK VINA RESULT:    -3.738      2.803      4.280
REMARK INTER + INTRA:         -10.314
REMARK INTER:                  -7.196
REMARK INTRA:                  -3.118
REMARK UNBOUND:                -2.204
REMARK SMILES CCCCCCCCCCCCCCCCCCCCCC(=O)[O-]
REMARK SMILES IDX 12 1 11 2 10 3 9 4 8 5 7 6 6 7 5 8 4 9 3 10 2 11 1 12 13 13
REMARK SMILES IDX 14 14 15 15 16 16 17 17 18 18 19 19 20 20 21 21 22 22 23 23
REMARK SMILES IDX 24 24
REMARK H PARENT
REMARK Flexibility Score: inf
ROOT
ATOM      1  C   UNL     1      35.865  13.588  46.437  1.00  0.00     0.000 C 
ENDROOT
BRANCH   1   2
ATOM      2  C   UNL     1      36.891  13.734  47.576  1.00  0.00     0.000 C 
BRANCH   2   3
ATOM      3  C   UNL     1      36.240  14.077  48.928  1.00  0.00     0.000 C 
BRANCH   3   4
ATOM      4  C   UNL     1      34.913  13.330  49.144  1.00  0.00    -0.000 C 
BRANCH   4   5
ATOM      5  C   UNL     1      35.114  11.970  49.834  1.00  0.00    -0.000 C 
BRANCH   5   6
ATOM      6  C   UNL     1      34.102  10.909  49.370  1.00  0.00    -0.000 C 
BRANCH   6   7
ATOM      7  C   UNL     1      34.752   9.689  48.685  1.00  0.00    -0.000 C 
BRANCH   7   8
ATOM      8  C   UNL     1      36.079  10.048  47.994  1.00  0.00    -0.000 C 
BRANCH   8   9
ATOM      9  C   UNL     1      35.965  10.012  46.453  1.00  0.00    -0.000 C 
BRANCH   9  10
ATOM     10  C   UNL     1      34.515   9.944  45.944  1.00  0.00    -0.000 C 
BRANCH  10  11
ATOM     11  C   UNL     1      34.399  10.210  44.437  1.00  0.00    -0.003 C 
ATOM     12  C   UNL     1      34.392   8.903  43.648  1.00  0.00     0.004 C 
ENDBRANCH  10  11
ENDBRANCH   9  10
ENDBRANCH   8   9
ENDBRANCH   7   8
ENDBRANCH   6   7
ENDBRANCH   5   6
ENDBRANCH   4   5
ENDBRANCH   3   4
ENDBRANCH   2   3
ENDBRANCH   1   2
BRANCH   1  13
ATOM     13  C   UNL     1      35.989  14.632  45.313  1.00  0.00     0.000 C 
BRANCH  13  14
ATOM     14  C   UNL     1      37.306  15.426  45.374  1.00  0.00     0.000 C 
BRANCH  14  15
ATOM     15  C   UNL     1      37.151  16.860  44.843  1.00  0.00     0.000 C 
BRANCH  15  16
ATOM     16  C   UNL     1      36.178  17.699  45.691  1.00  0.00     0.000 C 
BRANCH  16  17
ATOM     17  C   UNL     1      36.677  17.911  47.129  1.00  0.00     0.000 C 
BRANCH  17  18
ATOM     18  C   UNL     1      35.548  17.790  48.169  1.00  0.00     0.000 C 
BRANCH  18  19
ATOM     19  C   UNL     1      34.366  16.950  47.660  1.00  0.00     0.000 C 
BRANCH  19  20
ATOM     20  C   UNL     1      33.308  16.698  48.749  1.00  0.00     0.006 C 
BRANCH  20  21
ATOM     21  C   UNL     1      32.505  17.964  49.080  1.00  0.00     0.053 C 
BRANCH  21  22
ATOM     22  C   UNL     1      31.031  17.737  48.948  1.00  0.00     0.041 C 
ATOM     23  O   UNL     1      30.285  18.650  48.505  1.00  0.00    -0.550 OA
ATOM     24  O   UNL     1      30.475  16.525  49.339  1.00  0.00    -0.550 OA
ENDBRANCH  21  22
ENDBRANCH  20  21
ENDBRANCH  19  20
ENDBRANCH  18  19
ENDBRANCH  17  18
ENDBRANCH  16  17
ENDBRANCH  15  16
ENDBRANCH  14  15
ENDBRANCH  13  14
ENDBRANCH   1  13
TORSDOF 20
ENDMDL
MODEL 8
REMARK VINA RESULT:    -3.737      3.353      8.688
REMARK INTER + INTRA:         -10.309
REMARK INTER:                  -7.807
REMARK INTRA:                  -2.503
REMARK UNBOUND:                -2.204
REMARK SMILES CCCCCCCCCCCCCCCCCCCCCC(=O)[O-]
REMARK SMILES IDX 12 1 11 2 10 3 9 4 8 5 7 6 6 7 5 8 4 9 3 10 2 11 1 12 13 13
REMARK SMILES IDX 14 14 15 15 16 16 17 17 18 18 19 19 20 20 21 21 22 22 23 23
REMARK SMILES IDX 24 24
REMARK H PARENT
REMARK Flexibility Score: inf
ROOT
ATOM      1  C   UNL     1      35.595  12.228  46.254  1.00  0.00     0.000 C 
ENDROOT
BRANCH   1   2
ATOM      2  C   UNL     1      36.094  13.672  46.443  1.00  0.00     0.000 C 
BRANCH   2   3
ATOM      3  C   UNL     1      35.802  14.570  45.227  1.00  0.00     0.000 C 
BRANCH   3   4
ATOM      4  C   UNL     1      36.690  15.825  45.201  1.00  0.00    -0.000 C 
BRANCH   4   5
ATOM      5  C   UNL     1      35.914  17.098  45.575  1.00  0.00    -0.000 C 
BRANCH   5   6
ATOM      6  C   UNL     1      36.686  18.007  46.546  1.00  0.00    -0.000 C 
BRANCH   6   7
ATOM      7  C   UNL     1      36.123  17.999  47.983  1.00  0.00    -0.000 C 
BRANCH   7   8
ATOM      8  C   UNL     1      36.561  16.754  48.773  1.00  0.00    -0.000 C 
BRANCH   8   9
ATOM      9  C   UNL     1      35.373  16.061  49.477  1.00  0.00    -0.000 C 
BRANCH   9  10
ATOM     10  C   UNL     1      34.105  15.978  48.610  1.00  0.00    -0.000 C 
BRANCH  10  11
ATOM     11  C   UNL     1      32.840  16.413  49.361  1.00  0.00    -0.003 C 
ATOM     12  C   UNL     1      32.434  17.833  48.978  1.00  0.00     0.004 C 
ENDBRANCH  10  11
ENDBRANCH   9  10
ENDBRANCH   8   9
ENDBRANCH   7   8
ENDBRANCH   6   7
ENDBRANCH   5   6
ENDBRANCH   4   5
ENDBRANCH   3   4
ENDBRANCH   2   3
ENDBRANCH   1   2
BRANCH   1  13
ATOM     13  C   UNL     1      34.772  11.986  44.976  1.00  0.00     0.000 C 
BRANCH  13  14
ATOM     14  C   UNL     1      34.408  10.505  44.769  1.00  0.00     0.000 C 
BRANCH  14  15
ATOM     15  C   UNL     1      35.033   9.592  45.835  1.00  0.00     0.000 C 
BRANCH  15  16
ATOM     16  C   UNL     1      33.975   8.942  46.745  1.00  0.00     0.000 C 
BRANCH  16  17
ATOM     17  C   UNL     1      34.171   9.293  48.228  1.00  0.00     0.000 C 
BRANCH  17  18
ATOM     18  C   UNL     1      33.360  10.529  48.654  1.00  0.00     0.000 C 
BRANCH  18  19
ATOM     19  C   UNL     1      31.845  10.267  48.657  1.00  0.00     0.000 C 
BRANCH  19  20
ATOM     20  C   UNL     1      31.449   9.098  49.576  1.00  0.00     0.006 C 
BRANCH  20  21
ATOM     21  C   UNL     1      30.287   8.277  49.001  1.00  0.00     0.053 C 
BRANCH  21  22
ATOM     22  C   UNL     1      30.756   6.980  48.419  1.00  0.00     0.041 C 
ATOM     23  O   UNL     1      31.926   6.569  48.644  1.00  0.00    -0.550 OA
ATOM     24  O   UNL     1      29.912   6.237  47.605  1.00  0.00    -0.550 OA
ENDBRANCH  21  22
ENDBRANCH  20  21
ENDBRANCH  19  20
ENDBRANCH  18  19
ENDBRANCH  17  18
ENDBRANCH  16  17
ENDBRANCH  15  16
ENDBRANCH  14  15
ENDBRANCH  13  14
ENDBRANCH   1  13
TORSDOF 20
ENDMDL
MODEL 9
REMARK VINA RESULT:    -3.717      3.587      8.733
REMARK INTER + INTRA:         -10.268
REMARK INTER:                  -7.484
REMARK INTRA:                  -2.784
REMARK UNBOUND:                -2.204
REMARK SMILES CCCCCCCCCCCCCCCCCCCCCC(=O)[O-]
REMARK SMILES IDX 12 1 11 2 10 3 9 4 8 5 7 6 6 7 5 8 4 9 3 10 2 11 1 12 13 13
REMARK SMILES IDX 14 14 15 15 16 16 17 17 18 18 19 19 20 20 21 21 22 22 23 23
REMARK SMILES IDX 24 24
REMARK H PARENT
REMARK Flexibility Score: inf
ROOT
ATOM      1  C   UNL     1      35.094  10.690  46.005  1.00  0.00     0.000 C 
ENDROOT
BRANCH   1   2
ATOM      2  C   UNL     1      36.126  11.770  46.381  1.00  0.00     0.000 C 
BRANCH   2   3
ATOM      3  C   UNL     1      35.494  13.159  46.579  1.00  0.00     0.000 C 
BRANCH   3   4
ATOM      4  C   UNL     1      35.892  14.146  45.469  1.00  0.00    -0.000 C 
BRANCH   4   5
ATOM      5  C   UNL     1      37.034  15.081  45.901  1.00  0.00    -0.000 C 
BRANCH   5   6
ATOM      6  C   UNL     1      36.982  16.450  45.202  1.00  0.00    -0.000 C 
BRANCH   6   7
ATOM      7  C   UNL     1      35.807  17.339  45.664  1.00  0.00    -0.000 C 
BRANCH   7   8
ATOM      8  C   UNL     1      35.684  17.390  47.197  1.00  0.00    -0.000 C 
BRANCH   8   9
ATOM      9  C   UNL     1      34.307  16.892  47.690  1.00  0.00    -0.000 C 
BRANCH   9  10
ATOM     10  C   UNL     1      34.395  15.843  48.811  1.00  0.00    -0.000 C 
BRANCH  10  11
ATOM     11  C   UNL     1      35.778  15.795  49.475  1.00  0.00    -0.003 C 
ATOM     12  C   UNL     1      36.152  14.367  49.863  1.00  0.00     0.004 C 
ENDBRANCH  10  11
ENDBRANCH   9  10
ENDBRANCH   8   9
ENDBRANCH   7   8
ENDBRANCH   6   7
ENDBRANCH   5   6
ENDBRANCH   4   5
ENDBRANCH   3   4
ENDBRANCH   2   3
ENDBRANCH   1   2
BRANCH   1  13
ATOM     13  C   UNL     1      34.853   9.618  47.084  1.00  0.00     0.000 C 
BRANCH  13  14
ATOM     14  C   UNL     1      35.753   9.798  48.319  1.00  0.00     0.000 C 
BRANCH  14  15
ATOM     15  C   UNL     1      34.944  10.009  49.609  1.00  0.00     0.000 C 
BRANCH  15  16
ATOM     16  C   UNL     1      34.035  11.249  49.535  1.00  0.00     0.000 C 
BRANCH  16  17
ATOM     17  C   UNL     1      32.569  10.930  49.870  1.00  0.00     0.000 C 
BRANCH  17  18
ATOM     18  C   UNL     1      31.789  10.395  48.656  1.00  0.00     0.000 C 
BRANCH  18  19
ATOM     19  C   UNL     1      30.871   9.216  49.017  1.00  0.00     0.000 C 
BRANCH  19  20
ATOM     20  C   UNL     1      31.655   7.926  49.315  1.00  0.00     0.006 C 
BRANCH  20  21
ATOM     21  C   UNL     1      30.737   6.700  49.408  1.00  0.00     0.053 C 
BRANCH  21  22
ATOM     22  C   UNL     1      30.189   6.313  48.069  1.00  0.00     0.041 C 
ATOM     23  O   UNL     1      30.937   6.305  47.055  1.00  0.00    -0.550 OA
ATOM     24  O   UNL     1      28.846   5.987  47.935  1.00  0.00    -0.550 OA
ENDBRANCH  21  22
ENDBRANCH  20  21
ENDBRANCH  19  20
ENDBRANCH  18  19
ENDBRANCH  17  18
ENDBRANCH  16  17
ENDBRANCH  15  16
ENDBRANCH  14  15
ENDBRANCH  13  14
ENDBRANCH   1  13
TORSDOF 20
ENDMDL
