MODEL 1
REMARK VINA RESULT:    -4.657      0.000      0.000
REMARK INTER + INTRA:          -9.543
REMARK INTER:                  -7.924
REMARK INTRA:                  -1.620
REMARK UNBOUND:                -1.620
REMARK SMILES CCCCCCCCCCCCCC(=O)[O-]
REMARK SMILES IDX 8 1 9 2 10 3 11 4 12 5 13 6 14 7 15 8 16 9 7 10 6 11 5 12
REMARK SMILES IDX 4 13 3 14 2 15 1 16
REMARK H PARENT
REMARK Flexibility Score: inf
ROOT
ATOM      1  C   UNL     1     -10.479  36.546   9.130  1.00  0.00     0.000 C 
ENDROOT
BRANCH   1   2
ATOM      2  C   UNL     1     -11.041  35.743   7.940  1.00  0.00     0.000 C 
BRANCH   2   3
ATOM      3  C   UNL     1     -10.023  34.835   7.222  1.00  0.00     0.000 C 
BRANCH   3   4
ATOM      4  C   UNL     1      -9.729  35.216   5.760  1.00  0.00     0.000 C 
BRANCH   4   5
ATOM      5  C   UNL     1      -8.277  34.922   5.348  1.00  0.00     0.006 C 
BRANCH   5   6
ATOM      6  C   UNL     1      -8.043  33.430   5.074  1.00  0.00     0.053 C 
BRANCH   6   7
ATOM      7  C   UNL     1      -7.079  32.829   6.050  1.00  0.00     0.041 C 
ATOM      8  O   UNL     1      -5.842  33.013   5.915  1.00  0.00    -0.550 OA
ATOM      9  O   UNL     1      -7.552  32.090   7.128  1.00  0.00    -0.550 OA
ENDBRANCH   6   7
ENDBRANCH   5   6
ENDBRANCH   4   5
ENDBRANCH   3   4
ENDBRANCH   2   3
ENDBRANCH   1   2
BRANCH   1  10
ATOM     10  C   UNL     1     -11.469  37.534   9.773  1.00  0.00     0.000 C 
BRANCH  10  11
ATOM     11  C   UNL     1     -12.317  38.289   8.737  1.00  0.00    -0.000 C 
BRANCH  11  12
ATOM     12  C   UNL     1     -11.476  39.346   8.006  1.00  0.00    -0.000 C 
BRANCH  12  13
ATOM     13  C   UNL     1     -11.619  39.261   6.479  1.00  0.00    -0.000 C 
BRANCH  13  14
ATOM     14  C   UNL     1     -10.295  38.906   5.780  1.00  0.00    -0.000 C 
BRANCH  14  15
ATOM     15  C   UNL     1      -9.085  39.023   6.719  1.00  0.00    -0.003 C 
ATOM     16  C   UNL     1      -7.835  38.344   6.159  1.00  0.00     0.004 C 
ENDBRANCH  14  15
ENDBRANCH  13  14
ENDBRANCH  12  13
ENDBRANCH  11  12
ENDBRANCH  10  11
ENDBRANCH   1  10
TORSDOF 12
ENDMDL
MODEL 2
REMARK VINA RESULT:    -4.570      0.906      2.753
REMARK INTER + INTRA:          -9.395
REMARK INTER:                  -7.696
REMARK INTRA:                  -1.699
REMARK UNBOUND:                -1.620
REMARK SMILES CCCCCCCCCCCCCC(=O)[O-]
REMARK SMILES IDX 8 1 9 2 10 3 11 4 12 5 13 6 14 7 15 8 16 9 7 10 6 11 5 12
REMARK SMILES IDX 4 13 3 14 2 15 1 16
REMARK H PARENT
REMARK Flexibility Score: inf
ROOT
ATOM      1  C   UNL     1      -8.519  37.507   6.336  1.00  0.00     0.000 C 
ENDROOT
BRANCH   1   2
ATOM      2  C   UNL     1      -9.201  36.669   5.236  1.00  0.00     0.000 C 
BRANCH   2   3
ATOM      3  C   UNL     1     -10.134  35.552   5.745  1.00  0.00     0.000 C 
BRANCH   3   4
ATOM      4  C   UNL     1      -9.419  34.356   6.397  1.00  0.00     0.000 C 
BRANCH   4   5
ATOM      5  C   UNL     1      -8.556  33.561   5.401  1.00  0.00     0.006 C 
BRANCH   5   6
ATOM      6  C   UNL     1      -7.063  33.631   5.746  1.00  0.00     0.053 C 
BRANCH   6   7
ATOM      7  C   UNL     1      -6.544  32.317   6.243  1.00  0.00     0.041 C 
ATOM      8  O   UNL     1      -5.310  32.070   6.213  1.00  0.00    -0.550 OA
ATOM      9  O   UNL     1      -7.422  31.376   6.767  1.00  0.00    -0.550 OA
ENDBRANCH   6   7
ENDBRANCH   5   6
ENDBRANCH   4   5
ENDBRANCH   3   4
ENDBRANCH   2   3
ENDBRANCH   1   2
BRANCH   1  10
ATOM     10  C   UNL     1      -9.195  38.857   6.638  1.00  0.00     0.000 C 
BRANCH  10  11
ATOM     11  C   UNL     1     -10.410  39.130   5.739  1.00  0.00    -0.000 C 
BRANCH  11  12
ATOM     12  C   UNL     1     -11.666  39.397   6.582  1.00  0.00    -0.000 C 
BRANCH  12  13
ATOM     13  C   UNL     1     -11.610  38.714   7.957  1.00  0.00    -0.000 C 
BRANCH  13  14
ATOM     14  C   UNL     1     -12.552  37.500   8.053  1.00  0.00    -0.000 C 
BRANCH  14  15
ATOM     15  C   UNL     1     -11.940  36.343   8.858  1.00  0.00    -0.003 C 
ATOM     16  C   UNL     1     -10.541  36.666   9.383  1.00  0.00     0.004 C 
ENDBRANCH  14  15
ENDBRANCH  13  14
ENDBRANCH  12  13
ENDBRANCH  11  12
ENDBRANCH  10  11
ENDBRANCH   1  10
TORSDOF 12
ENDMDL
MODEL 3
REMARK VINA RESULT:    -4.561      0.913      3.091
REMARK INTER + INTRA:          -9.381
REMARK INTER:                  -7.704
REMARK INTRA:                  -1.677
REMARK UNBOUND:                -1.620
REMARK SMILES CCCCCCCCCCCCCC(=O)[O-]
REMARK SMILES IDX 8 1 9 2 10 3 11 4 12 5 13 6 14 7 15 8 16 9 7 10 6 11 5 12
REMARK SMILES IDX 4 13 3 14 2 15 1 16
REMARK H PARENT
REMARK Flexibility Score: inf
ROOT
ATOM      1  C   UNL     1     -10.571  38.894   5.727  1.00  0.00     0.000 C 
ENDROOT
BRANCH   1   2
ATOM      2  C   UNL     1      -9.184  38.907   6.401  1.00  0.00     0.000 C 
BRANCH   2   3
ATOM      3  C   UNL     1      -8.215  37.805   5.928  1.00  0.00     0.000 C 
BRANCH   3   4
ATOM      4  C   UNL     1      -8.889  36.505   5.454  1.00  0.00     0.000 C 
BRANCH   4   5
ATOM      5  C   UNL     1      -8.002  35.265   5.659  1.00  0.00     0.006 C 
BRANCH   5   6
ATOM      6  C   UNL     1      -8.769  33.958   5.417  1.00  0.00     0.053 C 
BRANCH   6   7
ATOM      7  C   UNL     1      -7.876  32.760   5.522  1.00  0.00     0.041 C 
ATOM      8  O   UNL     1      -6.744  32.857   6.063  1.00  0.00    -0.550 OA
ATOM      9  O   UNL     1      -8.309  31.528   5.046  1.00  0.00    -0.550 OA
ENDBRANCH   6   7
ENDBRANCH   5   6
ENDBRANCH   4   5
ENDBRANCH   3   4
ENDBRANCH   2   3
ENDBRANCH   1   2
BRANCH   1  10
ATOM     10  C   UNL     1     -11.716  39.456   6.588  1.00  0.00     0.000 C 
BRANCH  10  11
ATOM     11  C   UNL     1     -11.408  39.417   8.092  1.00  0.00    -0.000 C 
BRANCH  11  12
ATOM     12  C   UNL     1     -12.241  38.336   8.795  1.00  0.00    -0.000 C 
BRANCH  12  13
ATOM     13  C   UNL     1     -11.386  37.413   9.678  1.00  0.00    -0.000 C 
BRANCH  13  14
ATOM     14  C   UNL     1     -10.369  36.593   8.865  1.00  0.00    -0.000 C 
BRANCH  14  15
ATOM     15  C   UNL     1     -10.874  35.176   8.550  1.00  0.00    -0.003 C 
ATOM     16  C   UNL     1     -11.740  35.126   7.291  1.00  0.00     0.004 C 
ENDBRANCH  14  15
ENDBRANCH  13  14
ENDBRANCH  12  13
ENDBRANCH  11  12
ENDBRANCH  10  11
ENDBRANCH   1  10
TORSDOF 12
ENDMDL
MODEL 4
REMARK VINA RESULT:    -4.369      2.126      5.614
REMARK INTER + INTRA:          -9.053
REMARK INTER:                  -7.890
REMARK INTRA:                  -1.163
REMARK UNBOUND:                -1.620
REMARK SMILES CCCCCCCCCCCCCC(=O)[O-]
REMARK SMILES IDX 8 1 9 2 10 3 11 4 12 5 13 6 14 7 15 8 16 9 7 10 6 11 5 12
REMARK SMILES IDX 4 13 3 14 2 15 1 16
REMARK H PARENT
REMARK Flexibility Score: inf
ROOT
ATOM      1  C   UNL     1      -9.036  38.989   6.245  1.00  0.00     0.000 C 
ENDROOT
BRANCH   1   2
ATOM      2  C   UNL     1     -10.458  38.881   5.660  1.00  0.00     0.000 C 
BRANCH   2   3
ATOM      3  C   UNL     1     -11.600  38.941   6.695  1.00  0.00     0.000 C 
BRANCH   3   4
ATOM      4  C   UNL     1     -11.146  39.139   8.152  1.00  0.00     0.000 C 
BRANCH   4   5
ATOM      5  C   UNL     1     -11.703  38.064   9.101  1.00  0.00     0.006 C 
BRANCH   5   6
ATOM      6  C   UNL     1     -10.716  36.908   9.308  1.00  0.00     0.053 C 
BRANCH   6   7
ATOM      7  C   UNL     1     -11.254  35.614   8.777  1.00  0.00     0.041 C 
ATOM      8  O   UNL     1     -10.885  34.520   9.278  1.00  0.00    -0.550 OA
ATOM      9  O   UNL     1     -12.188  35.620   7.748  1.00  0.00    -0.550 OA
ENDBRANCH   6   7
ENDBRANCH   5   6
ENDBRANCH   4   5
ENDBRANCH   3   4
ENDBRANCH   2   3
ENDBRANCH   1   2
BRANCH   1  10
ATOM     10  C   UNL     1      -8.154  37.744   6.041  1.00  0.00     0.000 C 
BRANCH  10  11
ATOM     11  C   UNL     1      -8.962  36.438   6.005  1.00  0.00    -0.000 C 
BRANCH  11  12
ATOM     12  C   UNL     1      -8.116  35.286   5.444  1.00  0.00    -0.000 C 
BRANCH  12  13
ATOM     13  C   UNL     1      -8.784  33.915   5.637  1.00  0.00    -0.000 C 
BRANCH  13  14
ATOM     14  C   UNL     1      -7.781  32.751   5.541  1.00  0.00    -0.000 C 
BRANCH  14  15
ATOM     15  C   UNL     1      -6.355  33.170   5.928  1.00  0.00    -0.003 C 
ATOM     16  C   UNL     1      -5.535  32.013   6.499  1.00  0.00     0.004 C 
ENDBRANCH  14  15
ENDBRANCH  13  14
ENDBRANCH  12  13
ENDBRANCH  11  12
ENDBRANCH  10  11
ENDBRANCH   1  10
TORSDOF 12
ENDMDL
MODEL 5
REMARK VINA RESULT:    -4.330      2.971      6.367
REMARK INTER + INTRA:          -8.988
REMARK INTER:                  -7.979
REMARK INTRA:                  -1.009
REMARK UNBOUND:                -1.620
REMARK SMILES CCCCCCCCCCCCCC(=O)[O-]
REMARK SMILES IDX 8 1 9 2 10 3 11 4 12 5 13 6 14 7 15 8 16 9 7 10 6 11 5 12
REMARK SMILES IDX 4 13 3 14 2 15 1 16
REMARK H PARENT
REMARK Flexibility Score: inf
ROOT
ATOM      1  C   UNL     1      -8.445  36.678   5.755  1.00  0.00     0.000 C 
ENDROOT
BRANCH   1   2
ATOM      2  C   UNL     1      -7.940  38.104   6.057  1.00  0.00     0.000 C 
BRANCH   2   3
ATOM      3  C   UNL     1      -9.024  39.099   6.518  1.00  0.00     0.000 C 
BRANCH   3   4
ATOM      4  C   UNL     1     -10.351  39.021   5.743  1.00  0.00     0.000 C 
BRANCH   4   5
ATOM      5  C   UNL     1     -11.577  38.934   6.668  1.00  0.00     0.006 C 
BRANCH   5   6
ATOM      6  C   UNL     1     -11.256  39.385   8.099  1.00  0.00     0.053 C 
BRANCH   6   7
ATOM      7  C   UNL     1     -11.844  38.460   9.120  1.00  0.00     0.041 C 
ATOM      8  O   UNL     1     -12.999  38.669   9.575  1.00  0.00    -0.550 OA
ATOM      9  O   UNL     1     -11.127  37.348   9.545  1.00  0.00    -0.550 OA
ENDBRANCH   6   7
ENDBRANCH   5   6
ENDBRANCH   4   5
ENDBRANCH   3   4
ENDBRANCH   2   3
ENDBRANCH   1   2
BRANCH   1  10
ATOM     10  C   UNL     1      -9.150  35.977   6.931  1.00  0.00     0.000 C 
BRANCH  10  11
ATOM     11  C   UNL     1      -9.480  34.506   6.638  1.00  0.00    -0.000 C 
BRANCH  11  12
ATOM     12  C   UNL     1      -9.172  34.155   5.175  1.00  0.00    -0.000 C 
BRANCH  12  13
ATOM     13  C   UNL     1      -8.177  32.992   5.043  1.00  0.00    -0.000 C 
BRANCH  13  14
ATOM     14  C   UNL     1      -6.878  33.232   5.833  1.00  0.00    -0.000 C 
BRANCH  14  15
ATOM     15  C   UNL     1      -6.538  32.066   6.774  1.00  0.00    -0.003 C 
ATOM     16  C   UNL     1      -5.151  31.480   6.510  1.00  0.00     0.004 C 
ENDBRANCH  14  15
ENDBRANCH  13  14
ENDBRANCH  12  13
ENDBRANCH  11  12
ENDBRANCH  10  11
ENDBRANCH   1  10
TORSDOF 12
ENDMDL
MODEL 6
REMARK VINA RESULT:    -4.230      3.591      6.079
REMARK INTER + INTRA:          -8.818
REMARK INTER:                  -8.035
REMARK INTRA:                  -0.783
REMARK UNBOUND:                -1.620
REMARK SMILES CCCCCCCCCCCCCC(=O)[O-]
REMARK SMILES IDX 8 1 9 2 10 3 11 4 12 5 13 6 14 7 15 8 16 9 7 10 6 11 5 12
REMARK SMILES IDX 4 13 3 14 2 15 1 16
REMARK H PARENT
REMARK Flexibility Score: inf
ROOT
ATOM      1  C   UNL     1      -6.777  32.085   6.731  1.00  0.00     0.000 C 
ENDROOT
BRANCH   1   2
ATOM      2  C   UNL     1      -5.729  31.165   6.074  1.00  0.00     0.000 C 
BRANCH   2   3
ATOM      3  C   UNL     1      -6.175  29.703   5.870  1.00  0.00     0.000 C 
BRANCH   3   4
ATOM      4  C   UNL     1      -5.288  28.879   4.921  1.00  0.00     0.000 C 
BRANCH   4   5
ATOM      5  C   UNL     1      -3.855  28.697   5.451  1.00  0.00     0.006 C 
BRANCH   5   6
ATOM      6  C   UNL     1      -3.830  28.053   6.844  1.00  0.00     0.053 C 
BRANCH   6   7
ATOM      7  C   UNL     1      -2.930  28.794   7.784  1.00  0.00     0.041 C 
ATOM      8  O   UNL     1      -2.085  28.170   8.477  1.00  0.00    -0.550 OA
ATOM      9  O   UNL     1      -3.005  30.179   7.872  1.00  0.00    -0.550 OA
ENDBRANCH   6   7
ENDBRANCH   5   6
ENDBRANCH   4   5
ENDBRANCH   3   4
ENDBRANCH   2   3
ENDBRANCH   1   2
BRANCH   1  10
ATOM     10  C   UNL     1      -7.052  33.399   5.977  1.00  0.00     0.000 C 
BRANCH  10  11
ATOM     11  C   UNL     1      -8.251  33.300   5.023  1.00  0.00    -0.000 C 
BRANCH  11  12
ATOM     12  C   UNL     1      -9.193  34.500   5.201  1.00  0.00    -0.000 C 
BRANCH  12  13
ATOM     13  C   UNL     1      -9.502  34.795   6.677  1.00  0.00    -0.000 C 
BRANCH  13  14
ATOM     14  C   UNL     1      -9.356  36.287   7.025  1.00  0.00    -0.000 C 
BRANCH  14  15
ATOM     15  C   UNL     1      -8.594  37.070   5.945  1.00  0.00    -0.003 C 
ATOM     16  C   UNL     1      -8.699  38.584   6.130  1.00  0.00     0.004 C 
ENDBRANCH  14  15
ENDBRANCH  13  14
ENDBRANCH  12  13
ENDBRANCH  11  12
ENDBRANCH  10  11
ENDBRANCH   1  10
TORSDOF 12
ENDMDL
MODEL 7
REMARK VINA RESULT:    -4.197      4.475      8.694
REMARK INTER + INTRA:          -8.762
REMARK INTER:                  -8.310
REMARK INTRA:                  -0.452
REMARK UNBOUND:                -1.620
REMARK SMILES CCCCCCCCCCCCCC(=O)[O-]
REMARK SMILES IDX 8 1 9 2 10 3 11 4 12 5 13 6 14 7 15 8 16 9 7 10 6 11 5 12
REMARK SMILES IDX 4 13 3 14 2 15 1 16
REMARK H PARENT
REMARK Flexibility Score: inf
ROOT
ATOM      1  C   UNL     1      -7.094  32.125   7.236  1.00  0.00     0.000 C 
ENDROOT
BRANCH   1   2
ATOM      2  C   UNL     1      -8.481  32.219   6.568  1.00  0.00     0.000 C 
BRANCH   2   3
ATOM      3  C   UNL     1      -9.087  33.636   6.515  1.00  0.00     0.000 C 
BRANCH   3   4
ATOM      4  C   UNL     1      -8.874  34.385   5.188  1.00  0.00     0.000 C 
BRANCH   4   5
ATOM      5  C   UNL     1      -8.246  35.776   5.382  1.00  0.00     0.006 C 
BRANCH   5   6
ATOM      6  C   UNL     1      -9.051  36.643   6.359  1.00  0.00     0.053 C 
BRANCH   6   7
ATOM      7  C   UNL     1      -8.754  38.101   6.184  1.00  0.00     0.041 C 
ATOM      8  O   UNL     1      -7.574  38.525   6.285  1.00  0.00    -0.550 OA
ATOM      9  O   UNL     1      -9.780  38.987   5.879  1.00  0.00    -0.550 OA
ENDBRANCH   6   7
ENDBRANCH   5   6
ENDBRANCH   4   5
ENDBRANCH   3   4
ENDBRANCH   2   3
ENDBRANCH   1   2
BRANCH   1  10
ATOM     10  C   UNL     1      -5.906  32.056   6.259  1.00  0.00     0.000 C 
BRANCH  10  11
ATOM     11  C   UNL     1      -5.334  30.639   6.112  1.00  0.00    -0.000 C 
BRANCH  11  12
ATOM     12  C   UNL     1      -4.012  30.499   6.882  1.00  0.00    -0.000 C 
BRANCH  12  13
ATOM     13  C   UNL     1      -3.498  29.052   6.915  1.00  0.00    -0.000 C 
BRANCH  13  14
ATOM     14  C   UNL     1      -2.554  28.786   8.102  1.00  0.00    -0.000 C 
BRANCH  14  15
ATOM     15  C   UNL     1      -2.460  27.294   8.456  1.00  0.00    -0.003 C 
ATOM     16  C   UNL     1      -2.340  27.051   9.960  1.00  0.00     0.004 C 
ENDBRANCH  14  15
ENDBRANCH  13  14
ENDBRANCH  12  13
ENDBRANCH  11  12
ENDBRANCH  10  11
ENDBRANCH   1  10
TORSDOF 12
ENDMDL
MODEL 8
REMARK VINA RESULT:    -4.197      1.445      3.139
REMARK INTER + INTRA:          -8.761
REMARK INTER:                  -7.991
REMARK INTRA:                  -0.770
REMARK UNBOUND:                -1.620
REMARK SMILES CCCCCCCCCCCCCC(=O)[O-]
REMARK SMILES IDX 8 1 9 2 10 3 11 4 12 5 13 6 14 7 15 8 16 9 7 10 6 11 5 12
REMARK SMILES IDX 4 13 3 14 2 15 1 16
REMARK H PARENT
REMARK Flexibility Score: inf
ROOT
ATOM      1  C   UNL     1      -8.464  36.785   5.610  1.00  0.00     0.000 C 
ENDROOT
BRANCH   1   2
ATOM      2  C   UNL     1      -9.174  35.936   6.684  1.00  0.00     0.000 C 
BRANCH   2   3
ATOM      3  C   UNL     1      -9.350  34.445   6.332  1.00  0.00     0.000 C 
BRANCH   3   4
ATOM      4  C   UNL     1      -8.467  33.941   5.177  1.00  0.00     0.000 C 
BRANCH   4   5
ATOM      5  C   UNL     1      -8.291  32.413   5.184  1.00  0.00     0.006 C 
BRANCH   5   6
ATOM      6  C   UNL     1      -7.635  31.912   6.478  1.00  0.00     0.053 C 
BRANCH   6   7
ATOM      7  C   UNL     1      -6.266  31.358   6.229  1.00  0.00     0.041 C 
ATOM      8  O   UNL     1      -5.246  32.054   6.474  1.00  0.00    -0.550 OA
ATOM      9  O   UNL     1      -6.116  30.060   5.756  1.00  0.00    -0.550 OA
ENDBRANCH   6   7
ENDBRANCH   5   6
ENDBRANCH   4   5
ENDBRANCH   3   4
ENDBRANCH   2   3
ENDBRANCH   1   2
BRANCH   1  10
ATOM     10  C   UNL     1      -8.146  38.231   6.030  1.00  0.00     0.000 C 
BRANCH  10  11
ATOM     11  C   UNL     1      -9.303  38.902   6.785  1.00  0.00    -0.000 C 
BRANCH  11  12
ATOM     12  C   UNL     1     -10.500  39.142   5.854  1.00  0.00    -0.000 C 
BRANCH  12  13
ATOM     13  C   UNL     1     -11.818  39.324   6.621  1.00  0.00    -0.000 C 
BRANCH  13  14
ATOM     14  C   UNL     1     -11.634  39.221   8.146  1.00  0.00    -0.000 C 
BRANCH  14  15
ATOM     15  C   UNL     1     -12.442  40.282   8.909  1.00  0.00    -0.003 C 
ATOM     16  C   UNL     1     -12.824  41.475   8.033  1.00  0.00     0.004 C 
ENDBRANCH  14  15
ENDBRANCH  13  14
ENDBRANCH  12  13
ENDBRANCH  11  12
ENDBRANCH  10  11
ENDBRANCH   1  10
TORSDOF 12
ENDMDL
MODEL 9
REMARK VINA RESULT:    -4.161      3.249      5.065
REMARK INTER + INTRA:          -8.699
REMARK INTER:                  -8.329
REMARK INTRA:                  -0.370
REMARK UNBOUND:                -1.620
REMARK SMILES CCCCCCCCCCCCCC(=O)[O-]
REMARK SMILES IDX 8 1 9 2 10 3 11 4 12 5 13 6 14 7 15 8 16 9 7 10 6 11 5 12
REMARK SMILES IDX 4 13 3 14 2 15 1 16
REMARK H PARENT
REMARK Flexibility Score: inf
ROOT
ATOM      1  C   UNL     1      -8.703  33.204   6.338  1.00  0.00     0.000 C 
ENDROOT
BRANCH   1   2
ATOM      2  C   UNL     1      -7.276  32.965   5.804  1.00  0.00     0.000 C 
BRANCH   2   3
ATOM      3  C   UNL     1      -6.656  31.603   6.176  1.00  0.00     0.000 C 
BRANCH   3   4
ATOM      4  C   UNL     1      -5.171  31.651   6.576  1.00  0.00     0.000 C 
BRANCH   4   5
ATOM      5  C   UNL     1      -4.481  30.279   6.471  1.00  0.00     0.006 C 
BRANCH   5   6
ATOM      6  C   UNL     1      -3.382  30.103   7.526  1.00  0.00     0.053 C 
BRANCH   6   7
ATOM      7  C   UNL     1      -3.028  28.661   7.727  1.00  0.00     0.041 C 
ATOM      8  O   UNL     1      -2.304  28.314   8.696  1.00  0.00    -0.550 OA
ATOM      9  O   UNL     1      -3.525  27.697   6.859  1.00  0.00    -0.550 OA
ENDBRANCH   6   7
ENDBRANCH   5   6
ENDBRANCH   4   5
ENDBRANCH   3   4
ENDBRANCH   2   3
ENDBRANCH   1   2
BRANCH   1  10
ATOM     10  C   UNL     1      -9.090  34.683   6.517  1.00  0.00     0.000 C 
BRANCH  10  11
ATOM     11  C   UNL     1      -8.361  35.614   5.537  1.00  0.00    -0.000 C 
BRANCH  11  12
ATOM     12  C   UNL     1      -8.609  37.087   5.893  1.00  0.00    -0.000 C 
BRANCH  12  13
ATOM     13  C   UNL     1     -10.026  37.334   6.432  1.00  0.00    -0.000 C 
BRANCH  13  14
ATOM     14  C   UNL     1     -10.694  38.566   5.797  1.00  0.00    -0.000 C 
BRANCH  14  15
ATOM     15  C   UNL     1     -11.700  39.242   6.741  1.00  0.00    -0.003 C 
ATOM     16  C   UNL     1     -12.474  40.375   6.066  1.00  0.00     0.004 C 
ENDBRANCH  14  15
ENDBRANCH  13  14
ENDBRANCH  12  13
ENDBRANCH  11  12
ENDBRANCH  10  11
ENDBRANCH   1  10
TORSDOF 12
ENDMDL
