MODEL 1
REMARK VINA RESULT:    -6.707      0.000      0.000
REMARK INTER + INTRA:          -8.141
REMARK INTER:                  -8.080
REMARK INTRA:                  -0.061
REMARK UNBOUND:                -0.061
REMARK SMILES O=c1c(O)c(-c2ccc(O)c(O)c2)oc2cc(O)cc(O)c12
REMARK SMILES IDX 5 1 3 2 2 3 1 4 22 5 20 6 19 7 17 8 16 9 15 10 14 11 6 12
REMARK SMILES IDX 7 13 8 14 9 15 13 16 11 17 10 18 12 20 4 22 21 24 18 26
REMARK H PARENT 10 19 12 21 4 23 21 25 18 27
REMARK Flexibility Score: inf
ROOT
ATOM      1  C   UNL     1      45.303  45.495   9.855  1.00  0.00     0.180 A 
ATOM      2  C   UNL     1      45.686  44.698  10.947  1.00  0.00     0.208 A 
ATOM      3  C   UNL     1      45.661  43.301  10.813  1.00  0.00     0.238 A 
ATOM      4  O   UNL     1      45.953  42.593  11.812  1.00  0.00    -0.285 OA
ATOM      5  C   UNL     1      45.269  42.718   9.584  1.00  0.00     0.111 A 
ATOM      6  C   UNL     1      45.246  41.315   9.323  1.00  0.00     0.134 A 
ATOM      7  C   UNL     1      44.716  40.845   8.115  1.00  0.00     0.093 A 
ATOM      8  C   UNL     1      44.271  41.729   7.133  1.00  0.00     0.123 A 
ATOM      9  C   UNL     1      44.344  43.105   7.353  1.00  0.00     0.094 A 
ATOM     10  C   UNL     1      44.834  43.603   8.563  1.00  0.00     0.146 A 
ATOM     11  O   UNL     1      44.877  44.918   8.737  1.00  0.00    -0.452 OA
ENDROOT
BRANCH   1  12
ATOM     12  C   UNL     1      45.326  46.974   9.912  1.00  0.00     0.025 A 
ATOM     13  C   UNL     1      44.164  47.733   9.683  1.00  0.00     0.016 A 
ATOM     14  C   UNL     1      44.204  49.128   9.766  1.00  0.00     0.051 A 
ATOM     15  C   UNL     1      45.399  49.783  10.092  1.00  0.00     0.157 A 
ATOM     16  C   UNL     1      46.515  47.635  10.258  1.00  0.00     0.062 A 
ATOM     17  C   UNL     1      46.559  49.032  10.342  1.00  0.00     0.158 A 
BRANCH  15  18
ATOM     18  O   UNL     1      45.436  51.175  10.172  1.00  0.00    -0.504 OA
ATOM     19  H   UNL     1      45.756  51.742   9.396  1.00  0.00     0.293 HD
ENDBRANCH  15  18
BRANCH  17  20
ATOM     20  O   UNL     1      47.762  49.653  10.674  1.00  0.00    -0.504 OA
ATOM     21  H   UNL     1      48.104  50.466  10.175  1.00  0.00     0.293 HD
ENDBRANCH  17  20
ENDBRANCH   1  12
BRANCH   2  22
ATOM     22  O   UNL     1      46.048  45.294  12.159  1.00  0.00    -0.502 OA
ATOM     23  H   UNL     1      45.531  46.066  12.561  1.00  0.00     0.293 HD
ENDBRANCH   2  22
BRANCH   6  24
ATOM     24  O   UNL     1      45.751  40.350  10.199  1.00  0.00    -0.507 OA
ATOM     25  H   UNL     1      45.823  39.366   9.990  1.00  0.00     0.293 HD
ENDBRANCH   6  24
BRANCH   8  26
ATOM     26  O   UNL     1      43.765  41.228   5.936  1.00  0.00    -0.508 OA
ATOM     27  H   UNL     1      44.370  40.812   5.236  1.00  0.00     0.293 HD
ENDBRANCH   8  26
TORSDOF 6
ENDMDL
MODEL 2
REMARK VINA RESULT:    -6.580      5.778      9.055
REMARK INTER + INTRA:          -7.988
REMARK INTER:                  -7.971
REMARK INTRA:                  -0.017
REMARK UNBOUND:                -0.061
REMARK SMILES O=c1c(O)c(-c2ccc(O)c(O)c2)oc2cc(O)cc(O)c12
REMARK SMILES IDX 5 1 3 2 2 3 1 4 22 5 20 6 19 7 17 8 16 9 15 10 14 11 6 12
REMARK SMILES IDX 7 13 8 14 9 15 13 16 11 17 10 18 12 20 4 22 21 24 18 26
REMARK H PARENT 10 19 12 21 4 23 21 25 18 27
REMARK Flexibility Score: inf
ROOT
ATOM      1  C   UNL     1      51.500  47.369  12.052  1.00  0.00     0.180 A 
ATOM      2  C   UNL     1      51.904  48.528  12.737  1.00  0.00     0.208 A 
ATOM      3  C   UNL     1      50.947  49.509  13.040  1.00  0.00     0.238 A 
ATOM      4  O   UNL     1      51.326  50.568  13.605  1.00  0.00    -0.285 OA
ATOM      5  C   UNL     1      49.595  49.312  12.669  1.00  0.00     0.111 A 
ATOM      6  C   UNL     1      48.535  50.222  12.959  1.00  0.00     0.134 A 
ATOM      7  C   UNL     1      47.259  49.989  12.430  1.00  0.00     0.093 A 
ATOM      8  C   UNL     1      46.991  48.847  11.676  1.00  0.00     0.123 A 
ATOM      9  C   UNL     1      48.006  47.921  11.435  1.00  0.00     0.094 A 
ATOM     10  C   UNL     1      49.297  48.145  11.920  1.00  0.00     0.146 A 
ATOM     11  O   UNL     1      50.237  47.244  11.660  1.00  0.00    -0.452 OA
ENDROOT
BRANCH   1  12
ATOM     12  C   UNL     1      52.445  46.279  11.719  1.00  0.00     0.025 A 
ATOM     13  C   UNL     1      52.605  45.828  10.398  1.00  0.00     0.016 A 
ATOM     14  C   UNL     1      53.521  44.815  10.103  1.00  0.00     0.051 A 
ATOM     15  C   UNL     1      54.301  44.249  11.120  1.00  0.00     0.157 A 
ATOM     16  C   UNL     1      53.244  45.723  12.732  1.00  0.00     0.062 A 
ATOM     17  C   UNL     1      54.162  44.708  12.441  1.00  0.00     0.158 A 
BRANCH  15  18
ATOM     18  O   UNL     1      55.214  43.236  10.824  1.00  0.00    -0.504 OA
ATOM     19  H   UNL     1      54.968  42.463  10.217  1.00  0.00     0.293 HD
ENDBRANCH  15  18
BRANCH  17  20
ATOM     20  O   UNL     1      54.928  44.170  13.475  1.00  0.00    -0.504 OA
ATOM     21  H   UNL     1      54.760  43.239  13.840  1.00  0.00     0.293 HD
ENDBRANCH  17  20
ENDBRANCH   1  12
BRANCH   2  22
ATOM     22  O   UNL     1      53.248  48.711  13.075  1.00  0.00    -0.502 OA
ATOM     23  H   UNL     1      53.714  48.149  13.777  1.00  0.00     0.293 HD
ENDBRANCH   2  22
BRANCH   6  24
ATOM     24  O   UNL     1      48.673  51.346  13.780  1.00  0.00    -0.507 OA
ATOM     25  H   UNL     1      48.938  52.264  13.457  1.00  0.00     0.293 HD
ENDBRANCH   6  24
BRANCH   8  26
ATOM     26  O   UNL     1      45.707  48.639  11.178  1.00  0.00    -0.508 OA
ATOM     27  H   UNL     1      45.548  48.379  10.211  1.00  0.00     0.293 HD
ENDBRANCH   8  26
TORSDOF 6
ENDMDL
MODEL 3
REMARK VINA RESULT:    -6.405      5.550      7.808
REMARK INTER + INTRA:          -7.776
REMARK INTER:                  -7.730
REMARK INTRA:                  -0.047
REMARK UNBOUND:                -0.061
REMARK SMILES O=c1c(O)c(-c2ccc(O)c(O)c2)oc2cc(O)cc(O)c12
REMARK SMILES IDX 5 1 3 2 2 3 1 4 22 5 20 6 19 7 17 8 16 9 15 10 14 11 6 12
REMARK SMILES IDX 7 13 8 14 9 15 13 16 11 17 10 18 12 20 4 22 21 24 18 26
REMARK H PARENT 10 19 12 21 4 23 21 25 18 27
REMARK Flexibility Score: inf
ROOT
ATOM      1  C   UNL     1      45.053  39.047   9.628  1.00  0.00     0.180 A 
ATOM      2  C   UNL     1      44.261  37.951   9.244  1.00  0.00     0.208 A 
ATOM      3  C   UNL     1      43.435  38.070   8.115  1.00  0.00     0.238 A 
ATOM      4  O   UNL     1      42.689  37.104   7.808  1.00  0.00    -0.285 OA
ATOM      5  C   UNL     1      43.424  39.276   7.374  1.00  0.00     0.111 A 
ATOM      6  C   UNL     1      42.657  39.493   6.191  1.00  0.00     0.134 A 
ATOM      7  C   UNL     1      42.622  40.769   5.614  1.00  0.00     0.093 A 
ATOM      8  C   UNL     1      43.377  41.817   6.139  1.00  0.00     0.123 A 
ATOM      9  C   UNL     1      44.177  41.600   7.262  1.00  0.00     0.094 A 
ATOM     10  C   UNL     1      44.204  40.348   7.880  1.00  0.00     0.146 A 
ATOM     11  O   UNL     1      44.971  40.187   8.952  1.00  0.00    -0.452 OA
ENDROOT
BRANCH   1  12
ATOM     12  C   UNL     1      45.966  38.990  10.792  1.00  0.00     0.025 A 
ATOM     13  C   UNL     1      45.853  39.903  11.856  1.00  0.00     0.016 A 
ATOM     14  C   UNL     1      46.710  39.815  12.956  1.00  0.00     0.051 A 
ATOM     15  C   UNL     1      47.682  38.807  13.017  1.00  0.00     0.157 A 
ATOM     16  C   UNL     1      46.928  37.970  10.868  1.00  0.00     0.062 A 
ATOM     17  C   UNL     1      47.788  37.879  11.968  1.00  0.00     0.158 A 
BRANCH  15  18
ATOM     18  O   UNL     1      48.537  38.723  14.116  1.00  0.00    -0.504 OA
ATOM     19  H   UNL     1      48.377  39.268  14.955  1.00  0.00     0.293 HD
ENDBRANCH  15  18
BRANCH  17  20
ATOM     20  O   UNL     1      48.740  36.861  12.001  1.00  0.00    -0.504 OA
ATOM     21  H   UNL     1      49.356  36.674  11.218  1.00  0.00     0.293 HD
ENDBRANCH  17  20
ENDBRANCH   1  12
BRANCH   2  22
ATOM     22  O   UNL     1      44.271  36.776  10.002  1.00  0.00    -0.502 OA
ATOM     23  H   UNL     1      44.928  36.024   9.832  1.00  0.00     0.293 HD
ENDBRANCH   2  22
BRANCH   6  24
ATOM     24  O   UNL     1      41.939  38.491   5.531  1.00  0.00    -0.507 OA
ATOM     25  H   UNL     1      40.944  38.349   5.611  1.00  0.00     0.293 HD
ENDBRANCH   6  24
BRANCH   8  26
ATOM     26  O   UNL     1      43.331  43.069   5.531  1.00  0.00    -0.508 OA
ATOM     27  H   UNL     1      42.571  43.717   5.707  1.00  0.00     0.293 HD
ENDBRANCH   8  26
TORSDOF 6
ENDMDL
MODEL 4
REMARK VINA RESULT:    -6.341      5.113     10.902
REMARK INTER + INTRA:          -7.699
REMARK INTER:                  -7.638
REMARK INTRA:                  -0.061
REMARK UNBOUND:                -0.061
REMARK SMILES O=c1c(O)c(-c2ccc(O)c(O)c2)oc2cc(O)cc(O)c12
REMARK SMILES IDX 5 1 3 2 2 3 1 4 22 5 20 6 19 7 17 8 16 9 15 10 14 11 6 12
REMARK SMILES IDX 7 13 8 14 9 15 13 16 11 17 10 18 12 20 4 22 21 24 18 26
REMARK H PARENT 10 19 12 21 4 23 21 25 18 27
REMARK Flexibility Score: inf
ROOT
ATOM      1  C   UNL     1      41.530  38.890   5.079  1.00  0.00     0.180 A 
ATOM      2  C   UNL     1      40.567  39.733   4.497  1.00  0.00     0.208 A 
ATOM      3  C   UNL     1      40.734  41.124   4.590  1.00  0.00     0.238 A 
ATOM      4  O   UNL     1      39.841  41.873   4.114  1.00  0.00    -0.285 OA
ATOM      5  C   UNL     1      41.869  41.654   5.249  1.00  0.00     0.111 A 
ATOM      6  C   UNL     1      42.160  43.047   5.368  1.00  0.00     0.134 A 
ATOM      7  C   UNL     1      43.241  43.462   6.154  1.00  0.00     0.093 A 
ATOM      8  C   UNL     1      44.080  42.535   6.771  1.00  0.00     0.123 A 
ATOM      9  C   UNL     1      43.840  41.170   6.613  1.00  0.00     0.094 A 
ATOM     10  C   UNL     1      42.747  40.726   5.865  1.00  0.00     0.146 A 
ATOM     11  O   UNL     1      42.548  39.419   5.748  1.00  0.00    -0.452 OA
ENDROOT
BRANCH   1  12
ATOM     12  C   UNL     1      41.435  37.415   5.002  1.00  0.00     0.025 A 
ATOM     13  C   UNL     1      41.388  36.623   6.163  1.00  0.00     0.016 A 
ATOM     14  C   UNL     1      41.274  35.234   6.067  1.00  0.00     0.051 A 
ATOM     15  C   UNL     1      41.192  34.616   4.811  1.00  0.00     0.157 A 
ATOM     16  C   UNL     1      41.332  36.793   3.748  1.00  0.00     0.062 A 
ATOM     17  C   UNL     1      41.219  35.401   3.647  1.00  0.00     0.158 A 
BRANCH  15  18
ATOM     18  O   UNL     1      41.081  33.229   4.718  1.00  0.00    -0.504 OA
ATOM     19  H   UNL     1      40.443  32.791   4.064  1.00  0.00     0.293 HD
ENDBRANCH  15  18
BRANCH  17  20
ATOM     20  O   UNL     1      41.133  34.818   2.383  1.00  0.00    -0.504 OA
ATOM     21  H   UNL     1      41.694  34.015   2.121  1.00  0.00     0.293 HD
ENDBRANCH  17  20
ENDBRANCH   1  12
BRANCH   2  22
ATOM     22  O   UNL     1      39.443  39.188   3.870  1.00  0.00    -0.502 OA
ATOM     23  H   UNL     1      39.309  39.223   2.866  1.00  0.00     0.293 HD
ENDBRANCH   2  22
BRANCH   6  24
ATOM     24  O   UNL     1      41.439  44.053   4.716  1.00  0.00    -0.507 OA
ATOM     25  H   UNL     1      41.849  44.768   4.135  1.00  0.00     0.293 HD
ENDBRANCH   6  24
BRANCH   8  26
ATOM     26  O   UNL     1      45.157  42.984   7.533  1.00  0.00    -0.508 OA
ATOM     27  H   UNL     1      45.022  43.414   8.441  1.00  0.00     0.293 HD
ENDBRANCH   8  26
TORSDOF 6
ENDMDL
MODEL 5
REMARK VINA RESULT:    -6.336      3.658      8.655
REMARK INTER + INTRA:          -7.693
REMARK INTER:                  -7.686
REMARK INTRA:                  -0.006
REMARK UNBOUND:                -0.061
REMARK SMILES O=c1c(O)c(-c2ccc(O)c(O)c2)oc2cc(O)cc(O)c12
REMARK SMILES IDX 5 1 3 2 2 3 1 4 22 5 20 6 19 7 17 8 16 9 15 10 14 11 6 12
REMARK SMILES IDX 7 13 8 14 9 15 13 16 11 17 10 18 12 20 4 22 21 24 18 26
REMARK H PARENT 10 19 12 21 4 23 21 25 18 27
REMARK Flexibility Score: inf
ROOT
ATOM      1  C   UNL     1      45.336  38.973  10.128  1.00  0.00     0.180 A 
ATOM      2  C   UNL     1      45.773  39.832  11.151  1.00  0.00     0.208 A 
ATOM      3  C   UNL     1      45.727  41.219  10.943  1.00  0.00     0.238 A 
ATOM      4  O   UNL     1      46.170  41.980  11.842  1.00  0.00    -0.285 OA
ATOM      5  C   UNL     1      45.229  41.731   9.720  1.00  0.00     0.111 A 
ATOM      6  C   UNL     1      45.100  43.120   9.417  1.00  0.00     0.134 A 
ATOM      7  C   UNL     1      44.718  43.513   8.128  1.00  0.00     0.093 A 
ATOM      8  C   UNL     1      44.399  42.568   7.153  1.00  0.00     0.123 A 
ATOM      9  C   UNL     1      44.466  41.208   7.457  1.00  0.00     0.094 A 
ATOM     10  C   UNL     1      44.878  40.786   8.723  1.00  0.00     0.146 A 
ATOM     11  O   UNL     1      44.936  39.483   8.968  1.00  0.00    -0.452 OA
ENDROOT
BRANCH   1  12
ATOM     12  C   UNL     1      45.331  37.501  10.282  1.00  0.00     0.025 A 
ATOM     13  C   UNL     1      44.178  36.741  10.021  1.00  0.00     0.016 A 
ATOM     14  C   UNL     1      44.203  35.350  10.150  1.00  0.00     0.051 A 
ATOM     15  C   UNL     1      45.384  34.696  10.528  1.00  0.00     0.157 A 
ATOM     16  C   UNL     1      46.517  36.839  10.641  1.00  0.00     0.062 A 
ATOM     17  C   UNL     1      46.547  35.446  10.772  1.00  0.00     0.158 A 
BRANCH  15  18
ATOM     18  O   UNL     1      45.406  33.308  10.658  1.00  0.00    -0.504 OA
ATOM     19  H   UNL     1      45.232  32.699   9.867  1.00  0.00     0.293 HD
ENDBRANCH  15  18
BRANCH  17  20
ATOM     20  O   UNL     1      47.739  34.826  11.144  1.00  0.00    -0.504 OA
ATOM     21  H   UNL     1      48.493  34.669  10.484  1.00  0.00     0.293 HD
ENDBRANCH  17  20
ENDBRANCH   1  12
BRANCH   2  22
ATOM     22  O   UNL     1      46.281  39.304  12.342  1.00  0.00    -0.502 OA
ATOM     23  H   UNL     1      45.711  38.770  12.987  1.00  0.00     0.293 HD
ENDBRANCH   2  22
BRANCH   6  24
ATOM     24  O   UNL     1      45.305  44.145  10.346  1.00  0.00    -0.507 OA
ATOM     25  H   UNL     1      45.813  44.996  10.159  1.00  0.00     0.293 HD
ENDBRANCH   6  24
BRANCH   8  26
ATOM     26  O   UNL     1      44.008  42.995   5.886  1.00  0.00    -0.508 OA
ATOM     27  H   UNL     1      43.250  42.544   5.385  1.00  0.00     0.293 HD
ENDBRANCH   8  26
TORSDOF 6
ENDMDL
MODEL 6
REMARK VINA RESULT:    -6.206      3.893      9.490
REMARK INTER + INTRA:          -7.536
REMARK INTER:                  -7.250
REMARK INTRA:                  -0.286
REMARK UNBOUND:                -0.061
REMARK SMILES O=c1c(O)c(-c2ccc(O)c(O)c2)oc2cc(O)cc(O)c12
REMARK SMILES IDX 5 1 3 2 2 3 1 4 22 5 20 6 19 7 17 8 16 9 15 10 14 11 6 12
REMARK SMILES IDX 7 13 8 14 9 15 13 16 11 17 10 18 12 20 4 22 21 24 18 26
REMARK H PARENT 10 19 12 21 4 23 21 25 18 27
REMARK Flexibility Score: inf
ROOT
ATOM      1  C   UNL     1      43.728  38.460   8.756  1.00  0.00     0.180 A 
ATOM      2  C   UNL     1      43.323  38.723   7.436  1.00  0.00     0.208 A 
ATOM      3  C   UNL     1      43.512  40.011   6.909  1.00  0.00     0.238 A 
ATOM      4  O   UNL     1      43.098  40.254   5.745  1.00  0.00    -0.285 OA
ATOM      5  C   UNL     1      44.118  41.014   7.703  1.00  0.00     0.111 A 
ATOM      6  C   UNL     1      44.395  42.342   7.258  1.00  0.00     0.134 A 
ATOM      7  C   UNL     1      44.877  43.289   8.169  1.00  0.00     0.093 A 
ATOM      8  C   UNL     1      45.154  42.941   9.491  1.00  0.00     0.123 A 
ATOM      9  C   UNL     1      44.943  41.631   9.921  1.00  0.00     0.094 A 
ATOM     10  C   UNL     1      44.428  40.672   9.044  1.00  0.00     0.146 A 
ATOM     11  O   UNL     1      44.233  39.440   9.496  1.00  0.00    -0.452 OA
ENDROOT
BRANCH   1  12
ATOM     12  C   UNL     1      43.584  37.122   9.372  1.00  0.00     0.025 A 
ATOM     13  C   UNL     1      42.345  36.671   9.861  1.00  0.00     0.016 A 
ATOM     14  C   UNL     1      42.226  35.395  10.417  1.00  0.00     0.051 A 
ATOM     15  C   UNL     1      43.339  34.545  10.480  1.00  0.00     0.157 A 
ATOM     16  C   UNL     1      44.690  36.259   9.420  1.00  0.00     0.062 A 
ATOM     17  C   UNL     1      44.576  34.980   9.977  1.00  0.00     0.158 A 
BRANCH  15  18
ATOM     18  O   UNL     1      43.218  33.272  11.038  1.00  0.00    -0.504 OA
ATOM     19  H   UNL     1      44.012  32.647  11.108  1.00  0.00     0.293 HD
ENDBRANCH  15  18
BRANCH  17  20
ATOM     20  O   UNL     1      45.701  34.156  10.019  1.00  0.00    -0.504 OA
ATOM     21  H   UNL     1      45.649  33.190  10.323  1.00  0.00     0.293 HD
ENDBRANCH  17  20
ENDBRANCH   1  12
BRANCH   2  22
ATOM     22  O   UNL     1      42.707  37.724   6.677  1.00  0.00    -0.502 OA
ATOM     23  H   UNL     1      43.046  37.446   5.764  1.00  0.00     0.293 HD
ENDBRANCH   2  22
BRANCH   6  24
ATOM     24  O   UNL     1      44.241  42.770   5.936  1.00  0.00    -0.507 OA
ATOM     25  H   UNL     1      43.497  42.478   5.320  1.00  0.00     0.293 HD
ENDBRANCH   6  24
BRANCH   8  26
ATOM     26  O   UNL     1      45.649  43.905  10.366  1.00  0.00    -0.508 OA
ATOM     27  H   UNL     1      45.226  44.064  11.274  1.00  0.00     0.293 HD
ENDBRANCH   8  26
TORSDOF 6
ENDMDL
MODEL 7
REMARK VINA RESULT:    -6.190      5.231      7.109
REMARK INTER + INTRA:          -7.517
REMARK INTER:                  -7.194
REMARK INTRA:                  -0.323
REMARK UNBOUND:                -0.061
REMARK SMILES O=c1c(O)c(-c2ccc(O)c(O)c2)oc2cc(O)cc(O)c12
REMARK SMILES IDX 5 1 3 2 2 3 1 4 22 5 20 6 19 7 17 8 16 9 15 10 14 11 6 12
REMARK SMILES IDX 7 13 8 14 9 15 13 16 11 17 10 18 12 20 4 22 21 24 18 26
REMARK H PARENT 10 19 12 21 4 23 21 25 18 27
REMARK Flexibility Score: inf
ROOT
ATOM      1  C   UNL     1      45.113  39.282   9.969  1.00  0.00     0.180 A 
ATOM      2  C   UNL     1      45.908  39.715  11.044  1.00  0.00     0.208 A 
ATOM      3  C   UNL     1      46.618  38.764  11.794  1.00  0.00     0.238 A 
ATOM      4  O   UNL     1      47.285  39.154  12.788  1.00  0.00    -0.285 OA
ATOM      5  C   UNL     1      46.537  37.393  11.450  1.00  0.00     0.111 A 
ATOM      6  C   UNL     1      47.245  36.348  12.115  1.00  0.00     0.134 A 
ATOM      7  C   UNL     1      46.989  35.014  11.774  1.00  0.00     0.093 A 
ATOM      8  C   UNL     1      46.099  34.691  10.750  1.00  0.00     0.123 A 
ATOM      9  C   UNL     1      45.446  35.708  10.053  1.00  0.00     0.094 A 
ATOM     10  C   UNL     1      45.654  37.047  10.395  1.00  0.00     0.146 A 
ATOM     11  O   UNL     1      45.006  37.983   9.713  1.00  0.00    -0.452 OA
ENDROOT
BRANCH   1  12
ATOM     12  C   UNL     1      44.355  40.227   9.118  1.00  0.00     0.025 A 
ATOM     13  C   UNL     1      43.042  40.611   9.443  1.00  0.00     0.016 A 
ATOM     14  C   UNL     1      42.354  41.524   8.638  1.00  0.00     0.051 A 
ATOM     15  C   UNL     1      42.971  42.075   7.507  1.00  0.00     0.157 A 
ATOM     16  C   UNL     1      44.975  40.798   7.996  1.00  0.00     0.062 A 
ATOM     17  C   UNL     1      44.290  41.711   7.187  1.00  0.00     0.158 A 
BRANCH  15  18
ATOM     18  O   UNL     1      42.281  42.984   6.705  1.00  0.00    -0.504 OA
ATOM     19  H   UNL     1      41.943  43.865   7.073  1.00  0.00     0.293 HD
ENDBRANCH  15  18
BRANCH  17  20
ATOM     20  O   UNL     1      44.934  42.247   6.073  1.00  0.00    -0.504 OA
ATOM     21  H   UNL     1      44.564  43.044   5.568  1.00  0.00     0.293 HD
ENDBRANCH  17  20
ENDBRANCH   1  12
BRANCH   2  22
ATOM     22  O   UNL     1      45.957  41.072  11.380  1.00  0.00    -0.502 OA
ATOM     23  H   UNL     1      45.260  41.735  11.065  1.00  0.00     0.293 HD
ENDBRANCH   2  22
BRANCH   6  24
ATOM     24  O   UNL     1      48.223  36.565  13.090  1.00  0.00    -0.507 OA
ATOM     25  H   UNL     1      48.949  35.908  13.332  1.00  0.00     0.293 HD
ENDBRANCH   6  24
BRANCH   8  26
ATOM     26  O   UNL     1      45.880  33.354  10.426  1.00  0.00    -0.508 OA
ATOM     27  H   UNL     1      45.143  32.815  10.868  1.00  0.00     0.293 HD
ENDBRANCH   8  26
TORSDOF 6
ENDMDL
MODEL 8
REMARK VINA RESULT:    -6.169      4.017      8.624
REMARK INTER + INTRA:          -7.492
REMARK INTER:                  -7.319
REMARK INTRA:                  -0.173
REMARK UNBOUND:                -0.061
REMARK SMILES O=c1c(O)c(-c2ccc(O)c(O)c2)oc2cc(O)cc(O)c12
REMARK SMILES IDX 5 1 3 2 2 3 1 4 22 5 20 6 19 7 17 8 16 9 15 10 14 11 6 12
REMARK SMILES IDX 7 13 8 14 9 15 13 16 11 17 10 18 12 20 4 22 21 24 18 26
REMARK H PARENT 10 19 12 21 4 23 21 25 18 27
REMARK Flexibility Score: inf
ROOT
ATOM      1  C   UNL     1      44.905  38.675   9.862  1.00  0.00     0.180 A 
ATOM      2  C   UNL     1      44.146  38.133   8.809  1.00  0.00     0.208 A 
ATOM      3  C   UNL     1      43.738  38.973   7.761  1.00  0.00     0.238 A 
ATOM      4  O   UNL     1      43.013  38.493   6.850  1.00  0.00    -0.285 OA
ATOM      5  C   UNL     1      44.107  40.340   7.769  1.00  0.00     0.111 A 
ATOM      6  C   UNL     1      43.783  41.272   6.739  1.00  0.00     0.134 A 
ATOM      7  C   UNL     1      44.086  42.628   6.914  1.00  0.00     0.093 A 
ATOM      8  C   UNL     1      44.760  43.074   8.051  1.00  0.00     0.123 A 
ATOM      9  C   UNL     1      45.134  42.161   9.037  1.00  0.00     0.094 A 
ATOM     10  C   UNL     1      44.813  40.808   8.907  1.00  0.00     0.146 A 
ATOM     11  O   UNL     1      45.179  39.974   9.873  1.00  0.00    -0.452 OA
ENDROOT
BRANCH   1  12
ATOM     12  C   UNL     1      45.392  37.848  10.989  1.00  0.00     0.025 A 
ATOM     13  C   UNL     1      44.500  37.257  11.901  1.00  0.00     0.016 A 
ATOM     14  C   UNL     1      44.981  36.460  12.944  1.00  0.00     0.051 A 
ATOM     15  C   UNL     1      46.357  36.231  13.082  1.00  0.00     0.157 A 
ATOM     16  C   UNL     1      46.767  37.598  11.120  1.00  0.00     0.062 A 
ATOM     17  C   UNL     1      47.253  36.801  12.163  1.00  0.00     0.158 A 
BRANCH  15  18
ATOM     18  O   UNL     1      46.833  35.437  14.125  1.00  0.00    -0.504 OA
ATOM     19  H   UNL     1      47.291  34.550  13.949  1.00  0.00     0.293 HD
ENDBRANCH  15  18
BRANCH  17  20
ATOM     20  O   UNL     1      48.627  36.587  12.270  1.00  0.00    -0.504 OA
ATOM     21  H   UNL     1      49.079  35.777  11.860  1.00  0.00     0.293 HD
ENDBRANCH  17  20
ENDBRANCH   1  12
BRANCH   2  22
ATOM     22  O   UNL     1      43.774  36.785   8.832  1.00  0.00    -0.502 OA
ATOM     23  H   UNL     1      43.424  36.332   9.668  1.00  0.00     0.293 HD
ENDBRANCH   2  22
BRANCH   6  24
ATOM     24  O   UNL     1      43.192  40.918   5.522  1.00  0.00    -0.507 OA
ATOM     25  H   UNL     1      42.279  41.219   5.218  1.00  0.00     0.293 HD
ENDBRANCH   6  24
BRANCH   8  26
ATOM     26  O   UNL     1      45.060  44.427   8.185  1.00  0.00    -0.508 OA
ATOM     27  H   UNL     1      44.397  45.081   8.585  1.00  0.00     0.293 HD
ENDBRANCH   8  26
TORSDOF 6
ENDMDL
MODEL 9
REMARK VINA RESULT:    -6.043      5.180     10.375
REMARK INTER + INTRA:          -7.341
REMARK INTER:                  -7.141
REMARK INTRA:                  -0.200
REMARK UNBOUND:                -0.061
REMARK SMILES O=c1c(O)c(-c2ccc(O)c(O)c2)oc2cc(O)cc(O)c12
REMARK SMILES IDX 5 1 3 2 2 3 1 4 22 5 20 6 19 7 17 8 16 9 15 10 14 11 6 12
REMARK SMILES IDX 7 13 8 14 9 15 13 16 11 17 10 18 12 20 4 22 21 24 18 26
REMARK H PARENT 10 19 12 21 4 23 21 25 18 27
REMARK Flexibility Score: inf
ROOT
ATOM      1  C   UNL     1      42.369  37.579   7.050  1.00  0.00     0.180 A 
ATOM      2  C   UNL     1      43.258  37.403   8.125  1.00  0.00     0.208 A 
ATOM      3  C   UNL     1      44.068  38.479   8.522  1.00  0.00     0.238 A 
ATOM      4  O   UNL     1      44.900  38.298   9.450  1.00  0.00    -0.285 OA
ATOM      5  C   UNL     1      43.968  39.721   7.852  1.00  0.00     0.111 A 
ATOM      6  C   UNL     1      44.711  40.890   8.196  1.00  0.00     0.134 A 
ATOM      7  C   UNL     1      44.628  42.027   7.382  1.00  0.00     0.093 A 
ATOM      8  C   UNL     1      43.781  42.059   6.275  1.00  0.00     0.123 A 
ATOM      9  C   UNL     1      43.005  40.941   5.964  1.00  0.00     0.094 A 
ATOM     10  C   UNL     1      43.093  39.781   6.736  1.00  0.00     0.146 A 
ATOM     11  O   UNL     1      42.346  38.737   6.400  1.00  0.00    -0.452 OA
ENDROOT
BRANCH   1  12
ATOM     12  C   UNL     1      41.466  36.501   6.589  1.00  0.00     0.025 A 
ATOM     13  C   UNL     1      40.434  36.011   7.408  1.00  0.00     0.016 A 
ATOM     14  C   UNL     1      39.578  35.009   6.943  1.00  0.00     0.051 A 
ATOM     15  C   UNL     1      39.732  34.492   5.650  1.00  0.00     0.157 A 
ATOM     16  C   UNL     1      41.603  35.994   5.287  1.00  0.00     0.062 A 
ATOM     17  C   UNL     1      40.748  34.990   4.817  1.00  0.00     0.158 A 
BRANCH  15  18
ATOM     18  O   UNL     1      38.877  33.490   5.189  1.00  0.00    -0.504 OA
ATOM     19  H   UNL     1      37.871  33.577   5.263  1.00  0.00     0.293 HD
ENDBRANCH  15  18
BRANCH  17  20
ATOM     20  O   UNL     1      40.923  34.501   3.523  1.00  0.00    -0.504 OA
ATOM     21  H   UNL     1      40.845  35.098   2.708  1.00  0.00     0.293 HD
ENDBRANCH  17  20
ENDBRANCH   1  12
BRANCH   2  22
ATOM     22  O   UNL     1      43.357  36.161   8.759  1.00  0.00    -0.502 OA
ATOM     23  H   UNL     1      43.547  36.070   9.749  1.00  0.00     0.293 HD
ENDBRANCH   2  22
BRANCH   6  24
ATOM     24  O   UNL     1      45.517  40.996   9.334  1.00  0.00    -0.507 OA
ATOM     25  H   UNL     1      46.433  40.584   9.429  1.00  0.00     0.293 HD
ENDBRANCH   6  24
BRANCH   8  26
ATOM     26  O   UNL     1      43.711  43.211   5.496  1.00  0.00    -0.508 OA
ATOM     27  H   UNL     1      44.535  43.770   5.300  1.00  0.00     0.293 HD
ENDBRANCH   8  26
TORSDOF 6
ENDMDL
