MODEL 1
REMARK VINA RESULT:    -5.423      0.000      0.000
REMARK INTER + INTRA:          -6.865
REMARK INTER:                  -6.532
REMARK INTRA:                  -0.332
REMARK UNBOUND:                -0.332
REMARK SMILES Oc1cc(O)c2cc(O)c(-c3ccc(O)c(O)c3)[o+]c2c1
REMARK SMILES IDX 10 1 19 2 20 3 21 4 2 5 3 6 4 7 6 8 7 9 8 10 11 11 12 12
REMARK SMILES IDX 13 13 14 14 18 15 16 16 15 17 17 19 9 21 1 23 5 25
REMARK H PARENT 15 18 17 20 9 22 1 24 5 26
REMARK Flexibility Score: inf
ROOT
ATOM      1  C   UNL     1       3.019 109.123 181.795  1.00  0.00     0.402 A 
ATOM      2  O   UNL     1       3.929 110.006 181.389  1.00  0.00    -0.202 OA
ATOM      3  C   UNL     1       4.204 111.126 182.048  1.00  0.00     0.368 A 
ATOM      4  C   UNL     1       5.179 111.990 181.542  1.00  0.00     0.162 A 
ATOM      5  C   UNL     1       5.491 113.174 182.218  1.00  0.00     0.128 A 
ATOM      6  C   UNL     1       4.827 113.493 183.404  1.00  0.00     0.093 A 
ATOM      7  C   UNL     1       3.847 112.644 183.932  1.00  0.00     0.136 A 
ATOM      8  C   UNL     1       3.525 111.442 183.249  1.00  0.00     0.125 A 
ATOM      9  C   UNL     1       2.547 110.538 183.696  1.00  0.00     0.078 A 
ATOM     10  C   UNL     1       2.281 109.376 182.966  1.00  0.00     0.223 A 
ENDROOT
BRANCH   1  11
ATOM     11  C   UNL     1       2.810 107.907 180.978  1.00  0.00     0.087 A 
ATOM     12  C   UNL     1       3.627 106.784 181.188  1.00  0.00     0.022 A 
ATOM     13  C   UNL     1       3.434 105.619 180.442  1.00  0.00     0.051 A 
ATOM     14  C   UNL     1       2.411 105.553 179.487  1.00  0.00     0.157 A 
ATOM     15  C   UNL     1       1.771 107.829 180.032  1.00  0.00     0.068 A 
ATOM     16  C   UNL     1       1.573 106.662 179.285  1.00  0.00     0.158 A 
BRANCH  14  17
ATOM     17  O   UNL     1       2.222 104.389 178.742  1.00  0.00    -0.504 OA
ATOM     18  H   UNL     1       1.321 103.926 178.702  1.00  0.00     0.293 HD
ENDBRANCH  14  17
BRANCH  16  19
ATOM     19  O   UNL     1       0.538 106.623 178.352  1.00  0.00    -0.504 OA
ATOM     20  H   UNL     1       0.413 107.347 177.655  1.00  0.00     0.293 HD
ENDBRANCH  16  19
ENDBRANCH   1  11
BRANCH  10  21
ATOM     21  O   UNL     1       1.276 108.503 183.383  1.00  0.00    -0.500 OA
ATOM     22  H   UNL     1       1.361 107.960 184.234  1.00  0.00     0.294 HD
ENDBRANCH  10  21
BRANCH   5  23
ATOM     23  O   UNL     1       6.461 114.040 181.719  1.00  0.00    -0.507 OA
ATOM     24  H   UNL     1       7.378 114.110 182.143  1.00  0.00     0.293 HD
ENDBRANCH   5  23
BRANCH   7  25
ATOM     25  O   UNL     1       3.232 113.034 185.125  1.00  0.00    -0.507 OA
ATOM     26  H   UNL     1       3.104 112.431 185.925  1.00  0.00     0.293 HD
ENDBRANCH   7  25
TORSDOF 6
ENDMDL
MODEL 2
REMARK VINA RESULT:    -5.410      1.590      7.246
REMARK INTER + INTRA:          -6.849
REMARK INTER:                  -6.553
REMARK INTRA:                  -0.296
REMARK UNBOUND:                -0.332
REMARK SMILES Oc1cc(O)c2cc(O)c(-c3ccc(O)c(O)c3)[o+]c2c1
REMARK SMILES IDX 10 1 19 2 20 3 21 4 2 5 3 6 4 7 6 8 7 9 8 10 11 11 12 12
REMARK SMILES IDX 13 13 14 14 18 15 16 16 15 17 17 19 9 21 1 23 5 25
REMARK H PARENT 15 18 17 20 9 22 1 24 5 26
REMARK Flexibility Score: inf
ROOT
ATOM      1  C   UNL     1       3.009 108.051 181.251  1.00  0.00     0.402 A 
ATOM      2  O   UNL     1       2.118 107.993 180.264  1.00  0.00    -0.202 OA
ATOM      3  C   UNL     1       2.023 106.966 179.426  1.00  0.00     0.368 A 
ATOM      4  C   UNL     1       1.052 106.996 178.421  1.00  0.00     0.162 A 
ATOM      5  C   UNL     1       0.928 105.928 177.528  1.00  0.00     0.128 A 
ATOM      6  C   UNL     1       1.777 104.825 177.640  1.00  0.00     0.093 A 
ATOM      7  C   UNL     1       2.758 104.770 178.638  1.00  0.00     0.136 A 
ATOM      8  C   UNL     1       2.890 105.854 179.546  1.00  0.00     0.125 A 
ATOM      9  C   UNL     1       3.852 105.892 180.568  1.00  0.00     0.078 A 
ATOM     10  C   UNL     1       3.924 106.996 181.422  1.00  0.00     0.223 A 
ENDROOT
BRANCH   1  11
ATOM     11  C   UNL     1       3.009 109.245 182.125  1.00  0.00     0.087 A 
ATOM     12  C   UNL     1       2.056 109.351 183.150  1.00  0.00     0.022 A 
ATOM     13  C   UNL     1       2.050 110.460 184.000  1.00  0.00     0.051 A 
ATOM     14  C   UNL     1       3.006 111.472 183.847  1.00  0.00     0.157 A 
ATOM     15  C   UNL     1       3.980 110.254 181.988  1.00  0.00     0.068 A 
ATOM     16  C   UNL     1       3.978 111.365 182.839  1.00  0.00     0.158 A 
BRANCH  14  17
ATOM     17  O   UNL     1       2.997 112.579 184.695  1.00  0.00    -0.504 OA
ATOM     18  H   UNL     1       3.478 113.437 184.452  1.00  0.00     0.293 HD
ENDBRANCH  14  17
BRANCH  16  19
ATOM     19  O   UNL     1       4.952 112.349 182.670  1.00  0.00    -0.504 OA
ATOM     20  H   UNL     1       5.898 112.127 182.381  1.00  0.00     0.293 HD
ENDBRANCH  16  19
ENDBRANCH   1  11
BRANCH  10  21
ATOM     21  O   UNL     1       4.913 107.056 182.405  1.00  0.00    -0.500 OA
ATOM     22  H   UNL     1       5.278 106.220 182.845  1.00  0.00     0.294 HD
ENDBRANCH  10  21
BRANCH   5  23
ATOM     23  O   UNL     1      -0.038 105.951 176.524  1.00  0.00    -0.507 OA
ATOM     24  H   UNL     1       0.058 105.396 175.682  1.00  0.00     0.293 HD
ENDBRANCH   5  23
BRANCH   7  25
ATOM     25  O   UNL     1       3.566 103.631 178.685  1.00  0.00    -0.507 OA
ATOM     26  H   UNL     1       3.348 102.798 179.215  1.00  0.00     0.293 HD
ENDBRANCH   7  25
TORSDOF 6
ENDMDL
MODEL 3
REMARK VINA RESULT:    -5.381      1.537      6.879
REMARK INTER + INTRA:          -6.814
REMARK INTER:                  -6.508
REMARK INTRA:                  -0.306
REMARK UNBOUND:                -0.332
REMARK SMILES Oc1cc(O)c2cc(O)c(-c3ccc(O)c(O)c3)[o+]c2c1
REMARK SMILES IDX 10 1 19 2 20 3 21 4 2 5 3 6 4 7 6 8 7 9 8 10 11 11 12 12
REMARK SMILES IDX 13 13 14 14 18 15 16 16 15 17 17 19 9 21 1 23 5 25
REMARK H PARENT 15 18 17 20 9 22 1 24 5 26
REMARK Flexibility Score: inf
ROOT
ATOM      1  C   UNL     1       3.773 109.000 181.897  1.00  0.00     0.402 A 
ATOM      2  O   UNL     1       3.199 109.136 180.704  1.00  0.00    -0.202 OA
ATOM      3  C   UNL     1       2.825 108.107 179.953  1.00  0.00     0.368 A 
ATOM      4  C   UNL     1       2.227 108.352 178.713  1.00  0.00     0.162 A 
ATOM      5  C   UNL     1       1.819 107.287 177.904  1.00  0.00     0.128 A 
ATOM      6  C   UNL     1       2.010 105.973 178.336  1.00  0.00     0.093 A 
ATOM      7  C   UNL     1       2.606 105.701 179.573  1.00  0.00     0.136 A 
ATOM      8  C   UNL     1       3.024 106.778 180.398  1.00  0.00     0.125 A 
ATOM      9  C   UNL     1       3.642 106.600 181.646  1.00  0.00     0.078 A 
ATOM     10  C   UNL     1       4.030 107.711 182.400  1.00  0.00     0.223 A 
ENDROOT
BRANCH   1  11
ATOM     11  C   UNL     1       4.137 110.225 182.644  1.00  0.00     0.087 A 
ATOM     12  C   UNL     1       5.469 110.668 182.636  1.00  0.00     0.022 A 
ATOM     13  C   UNL     1       5.832 111.833 183.317  1.00  0.00     0.051 A 
ATOM     14  C   UNL     1       4.866 112.581 184.002  1.00  0.00     0.157 A 
ATOM     15  C   UNL     1       3.166 110.990 183.315  1.00  0.00     0.068 A 
ATOM     16  C   UNL     1       3.526 112.159 183.996  1.00  0.00     0.158 A 
BRANCH  14  17
ATOM     17  O   UNL     1       5.230 113.742 184.682  1.00  0.00    -0.504 OA
ATOM     18  H   UNL     1       6.018 113.758 185.319  1.00  0.00     0.293 HD
ENDBRANCH  14  17
BRANCH  16  19
ATOM     19  O   UNL     1       2.538 112.889 184.656  1.00  0.00    -0.504 OA
ATOM     20  H   UNL     1       2.275 112.695 185.615  1.00  0.00     0.293 HD
ENDBRANCH  16  19
ENDBRANCH   1  11
BRANCH  10  21
ATOM     21  O   UNL     1       4.689 107.534 183.617  1.00  0.00    -0.500 OA
ATOM     22  H   UNL     1       5.143 106.661 183.856  1.00  0.00     0.294 HD
ENDBRANCH  10  21
BRANCH   5  23
ATOM     23  O   UNL     1       1.223 107.524 176.667  1.00  0.00    -0.507 OA
ATOM     24  H   UNL     1       0.327 107.118 176.424  1.00  0.00     0.293 HD
ENDBRANCH   5  23
BRANCH   7  25
ATOM     25  O   UNL     1       2.758 104.358 179.933  1.00  0.00    -0.507 OA
ATOM     26  H   UNL     1       3.313 104.036 180.713  1.00  0.00     0.293 HD
ENDBRANCH   7  25
TORSDOF 6
ENDMDL
MODEL 4
REMARK VINA RESULT:    -5.316      2.237      7.305
REMARK INTER + INTRA:          -6.736
REMARK INTER:                  -6.415
REMARK INTRA:                  -0.321
REMARK UNBOUND:                -0.332
REMARK SMILES Oc1cc(O)c2cc(O)c(-c3ccc(O)c(O)c3)[o+]c2c1
REMARK SMILES IDX 10 1 19 2 20 3 21 4 2 5 3 6 4 7 6 8 7 9 8 10 11 11 12 12
REMARK SMILES IDX 13 13 14 14 18 15 16 16 15 17 17 19 9 21 1 23 5 25
REMARK H PARENT 15 18 17 20 9 22 1 24 5 26
REMARK Flexibility Score: inf
ROOT
ATOM      1  C   UNL     1       3.799 107.474 180.467  1.00  0.00     0.402 A 
ATOM      2  O   UNL     1       3.102 107.406 179.336  1.00  0.00    -0.202 OA
ATOM      3  C   UNL     1       3.282 106.457 178.424  1.00  0.00     0.368 A 
ATOM      4  C   UNL     1       2.497 106.469 177.267  1.00  0.00     0.162 A 
ATOM      5  C   UNL     1       2.663 105.480 176.292  1.00  0.00     0.128 A 
ATOM      6  C   UNL     1       3.616 104.476 176.476  1.00  0.00     0.093 A 
ATOM      7  C   UNL     1       4.414 104.441 177.626  1.00  0.00     0.136 A 
ATOM      8  C   UNL     1       4.251 105.444 178.617  1.00  0.00     0.125 A 
ATOM      9  C   UNL     1       5.015 105.497 179.795  1.00  0.00     0.078 A 
ATOM     10  C   UNL     1       4.800 106.519 180.724  1.00  0.00     0.223 A 
ENDROOT
BRANCH   1  11
ATOM     11  C   UNL     1       3.499 108.575 181.410  1.00  0.00     0.087 A 
ATOM     12  C   UNL     1       4.295 109.731 181.397  1.00  0.00     0.022 A 
ATOM     13  C   UNL     1       4.018 110.791 182.264  1.00  0.00     0.051 A 
ATOM     14  C   UNL     1       2.932 110.718 183.145  1.00  0.00     0.157 A 
ATOM     15  C   UNL     1       2.396 108.514 182.282  1.00  0.00     0.068 A 
ATOM     16  C   UNL     1       2.115 109.575 183.150  1.00  0.00     0.158 A 
BRANCH  14  17
ATOM     17  O   UNL     1       2.658 111.776 184.011  1.00  0.00    -0.504 OA
ATOM     18  H   UNL     1       3.401 112.319 184.436  1.00  0.00     0.293 HD
ENDBRANCH  14  17
BRANCH  16  19
ATOM     19  O   UNL     1       1.018 109.477 184.005  1.00  0.00    -0.504 OA
ATOM     20  H   UNL     1       0.113 109.152 183.686  1.00  0.00     0.293 HD
ENDBRANCH  16  19
ENDBRANCH   1  11
BRANCH  10  21
ATOM     21  O   UNL     1       5.593 106.601 181.869  1.00  0.00    -0.500 OA
ATOM     22  H   UNL     1       5.402 107.273 182.602  1.00  0.00     0.294 HD
ENDBRANCH  10  21
BRANCH   5  23
ATOM     23  O   UNL     1       1.885 105.486 175.137  1.00  0.00    -0.507 OA
ATOM     24  H   UNL     1       0.971 105.050 175.111  1.00  0.00     0.293 HD
ENDBRANCH   5  23
BRANCH   7  25
ATOM     25  O   UNL     1       5.342 103.402 177.735  1.00  0.00    -0.507 OA
ATOM     26  H   UNL     1       5.571 102.761 176.989  1.00  0.00     0.293 HD
ENDBRANCH   7  25
TORSDOF 6
ENDMDL
MODEL 5
REMARK VINA RESULT:    -5.311      4.100      6.345
REMARK INTER + INTRA:          -6.730
REMARK INTER:                  -6.389
REMARK INTRA:                  -0.342
REMARK UNBOUND:                -0.332
REMARK SMILES Oc1cc(O)c2cc(O)c(-c3ccc(O)c(O)c3)[o+]c2c1
REMARK SMILES IDX 10 1 19 2 20 3 21 4 2 5 3 6 4 7 6 8 7 9 8 10 11 11 12 12
REMARK SMILES IDX 13 13 14 14 18 15 16 16 15 17 17 19 9 21 1 23 5 25
REMARK H PARENT 15 18 17 20 9 22 1 24 5 26
REMARK Flexibility Score: inf
ROOT
ATOM      1  C   UNL     1       4.614 104.746 178.336  1.00  0.00     0.402 A 
ATOM      2  O   UNL     1       5.703 105.265 178.899  1.00  0.00    -0.202 OA
ATOM      3  C   UNL     1       5.689 105.897 180.068  1.00  0.00     0.368 A 
ATOM      4  C   UNL     1       6.886 106.406 180.579  1.00  0.00     0.162 A 
ATOM      5  C   UNL     1       6.901 107.072 181.809  1.00  0.00     0.128 A 
ATOM      6  C   UNL     1       5.714 107.228 182.529  1.00  0.00     0.093 A 
ATOM      7  C   UNL     1       4.503 106.726 182.039  1.00  0.00     0.136 A 
ATOM      8  C   UNL     1       4.482 106.052 180.790  1.00  0.00     0.125 A 
ATOM      9  C   UNL     1       3.312 105.529 180.215  1.00  0.00     0.078 A 
ATOM     10  C   UNL     1       3.370 104.881 178.978  1.00  0.00     0.223 A 
ENDROOT
BRANCH   1  11
ATOM     11  C   UNL     1       4.760 104.057 177.034  1.00  0.00     0.087 A 
ATOM     12  C   UNL     1       4.571 104.780 175.845  1.00  0.00     0.022 A 
ATOM     13  C   UNL     1       4.723 104.155 174.605  1.00  0.00     0.051 A 
ATOM     14  C   UNL     1       5.082 102.803 174.534  1.00  0.00     0.157 A 
ATOM     15  C   UNL     1       5.141 102.705 176.958  1.00  0.00     0.068 A 
ATOM     16  C   UNL     1       5.297 102.077 175.718  1.00  0.00     0.158 A 
BRANCH  14  17
ATOM     17  O   UNL     1       5.232 102.181 173.295  1.00  0.00    -0.504 OA
ATOM     18  H   UNL     1       4.983 102.651 172.432  1.00  0.00     0.293 HD
ENDBRANCH  14  17
BRANCH  16  19
ATOM     19  O   UNL     1       5.669 100.733 175.681  1.00  0.00    -0.504 OA
ATOM     20  H   UNL     1       6.528 100.424 175.241  1.00  0.00     0.293 HD
ENDBRANCH  16  19
ENDBRANCH   1  11
BRANCH  10  21
ATOM     21  O   UNL     1       2.200 104.405 178.383  1.00  0.00    -0.500 OA
ATOM     22  H   UNL     1       1.570 103.781 178.871  1.00  0.00     0.294 HD
ENDBRANCH  10  21
BRANCH   5  23
ATOM     23  O   UNL     1       8.090 107.583 182.324  1.00  0.00    -0.507 OA
ATOM     24  H   UNL     1       8.907 106.998 182.450  1.00  0.00     0.293 HD
ENDBRANCH   5  23
BRANCH   7  25
ATOM     25  O   UNL     1       3.361 106.922 182.822  1.00  0.00    -0.507 OA
ATOM     26  H   UNL     1       2.726 106.186 183.097  1.00  0.00     0.293 HD
ENDBRANCH   7  25
TORSDOF 6
ENDMDL
MODEL 6
REMARK VINA RESULT:    -5.071      4.506      6.903
REMARK INTER + INTRA:          -6.441
REMARK INTER:                  -6.172
REMARK INTRA:                  -0.269
REMARK UNBOUND:                -0.332
REMARK SMILES Oc1cc(O)c2cc(O)c(-c3ccc(O)c(O)c3)[o+]c2c1
REMARK SMILES IDX 10 1 19 2 20 3 21 4 2 5 3 6 4 7 6 8 7 9 8 10 11 11 12 12
REMARK SMILES IDX 13 13 14 14 18 15 16 16 15 17 17 19 9 21 1 23 5 25
REMARK H PARENT 15 18 17 20 9 22 1 24 5 26
REMARK Flexibility Score: inf
ROOT
ATOM      1  C   UNL     1       6.258 106.576 182.461  1.00  0.00     0.402 A 
ATOM      2  O   UNL     1       5.381 107.378 183.060  1.00  0.00    -0.202 OA
ATOM      3  C   UNL     1       4.213 107.714 182.521  1.00  0.00     0.368 A 
ATOM      4  C   UNL     1       3.356 108.562 183.229  1.00  0.00     0.162 A 
ATOM      5  C   UNL     1       2.121 108.927 182.687  1.00  0.00     0.128 A 
ATOM      6  C   UNL     1       1.740 108.444 181.434  1.00  0.00     0.093 A 
ATOM      7  C   UNL     1       2.579 107.593 180.705  1.00  0.00     0.136 A 
ATOM      8  C   UNL     1       3.837 107.220 181.249  1.00  0.00     0.125 A 
ATOM      9  C   UNL     1       4.748 106.383 180.584  1.00  0.00     0.078 A 
ATOM     10  C   UNL     1       5.970 106.064 181.183  1.00  0.00     0.223 A 
ENDROOT
BRANCH   1  11
ATOM     11  C   UNL     1       7.522 106.269 183.168  1.00  0.00     0.087 A 
ATOM     12  C   UNL     1       7.729 104.979 183.683  1.00  0.00     0.022 A 
ATOM     13  C   UNL     1       8.922 104.661 184.337  1.00  0.00     0.051 A 
ATOM     14  C   UNL     1       9.932 105.622 184.471  1.00  0.00     0.157 A 
ATOM     15  C   UNL     1       8.547 107.225 183.287  1.00  0.00     0.068 A 
ATOM     16  C   UNL     1       9.744 106.909 183.939  1.00  0.00     0.158 A 
BRANCH  14  17
ATOM     17  O   UNL     1      11.121 105.303 185.125  1.00  0.00    -0.504 OA
ATOM     18  H   UNL     1      11.818 104.704 184.697  1.00  0.00     0.293 HD
ENDBRANCH  14  17
BRANCH  16  19
ATOM     19  O   UNL     1      10.736 107.883 184.044  1.00  0.00    -0.504 OA
ATOM     20  H   UNL     1      11.562 107.752 184.615  1.00  0.00     0.293 HD
ENDBRANCH  16  19
ENDBRANCH   1  11
BRANCH  10  21
ATOM     21  O   UNL     1       6.897 105.274 180.501  1.00  0.00    -0.500 OA
ATOM     22  H   UNL     1       6.613 104.621 179.780  1.00  0.00     0.294 HD
ENDBRANCH  10  21
BRANCH   5  23
ATOM     23  O   UNL     1       1.262 109.772 183.388  1.00  0.00    -0.507 OA
ATOM     24  H   UNL     1       1.609 110.426 184.079  1.00  0.00     0.293 HD
ENDBRANCH   5  23
BRANCH   7  25
ATOM     25  O   UNL     1       2.123 107.150 179.460  1.00  0.00    -0.507 OA
ATOM     26  H   UNL     1       1.906 107.758 178.683  1.00  0.00     0.293 HD
ENDBRANCH   7  25
TORSDOF 6
ENDMDL
MODEL 7
REMARK VINA RESULT:    -5.067      3.042      5.256
REMARK INTER + INTRA:          -6.436
REMARK INTER:                  -6.175
REMARK INTRA:                  -0.261
REMARK UNBOUND:                -0.332
REMARK SMILES Oc1cc(O)c2cc(O)c(-c3ccc(O)c(O)c3)[o+]c2c1
REMARK SMILES IDX 10 1 19 2 20 3 21 4 2 5 3 6 4 7 6 8 7 9 8 10 11 11 12 12
REMARK SMILES IDX 13 13 14 14 18 15 16 16 15 17 17 19 9 21 1 23 5 25
REMARK H PARENT 15 18 17 20 9 22 1 24 5 26
REMARK Flexibility Score: inf
ROOT
ATOM      1  C   UNL     1       2.738 106.347 178.696  1.00  0.00     0.402 A 
ATOM      2  O   UNL     1       2.178 107.299 179.438  1.00  0.00    -0.202 OA
ATOM      3  C   UNL     1       2.588 107.603 180.665  1.00  0.00     0.368 A 
ATOM      4  C   UNL     1       1.937 108.622 181.367  1.00  0.00     0.162 A 
ATOM      5  C   UNL     1       2.350 108.965 182.658  1.00  0.00     0.128 A 
ATOM      6  C   UNL     1       3.418 108.287 183.249  1.00  0.00     0.093 A 
ATOM      7  C   UNL     1       4.087 107.263 182.567  1.00  0.00     0.136 A 
ATOM      8  C   UNL     1       3.670 106.910 181.257  1.00  0.00     0.125 A 
ATOM      9  C   UNL     1       4.273 105.888 180.505  1.00  0.00     0.078 A 
ATOM     10  C   UNL     1       3.803 105.593 179.221  1.00  0.00     0.223 A 
ENDROOT
BRANCH   1  11
ATOM     11  C   UNL     1       2.197 106.109 177.339  1.00  0.00     0.087 A 
ATOM     12  C   UNL     1       0.889 105.620 177.193  1.00  0.00     0.022 A 
ATOM     13  C   UNL     1       0.350 105.407 175.921  1.00  0.00     0.051 A 
ATOM     14  C   UNL     1       1.105 105.693 174.777  1.00  0.00     0.157 A 
ATOM     15  C   UNL     1       2.945 106.414 176.187  1.00  0.00     0.068 A 
ATOM     16  C   UNL     1       2.407 106.204 174.912  1.00  0.00     0.158 A 
BRANCH  14  17
ATOM     17  O   UNL     1       0.566 105.478 173.509  1.00  0.00    -0.504 OA
ATOM     18  H   UNL     1      -0.355 105.817 173.260  1.00  0.00     0.293 HD
ENDBRANCH  14  17
BRANCH  16  19
ATOM     19  O   UNL     1       3.179 106.512 173.792  1.00  0.00    -0.504 OA
ATOM     20  H   UNL     1       3.053 106.041 172.904  1.00  0.00     0.293 HD
ENDBRANCH  16  19
ENDBRANCH   1  11
BRANCH  10  21
ATOM     21  O   UNL     1       4.369 104.546 178.493  1.00  0.00    -0.500 OA
ATOM     22  H   UNL     1       4.753 103.727 178.949  1.00  0.00     0.294 HD
ENDBRANCH  10  21
BRANCH   5  23
ATOM     23  O   UNL     1       1.705 109.979 183.362  1.00  0.00    -0.507 OA
ATOM     24  H   UNL     1       0.774 110.290 183.111  1.00  0.00     0.293 HD
ENDBRANCH   5  23
BRANCH   7  25
ATOM     25  O   UNL     1       5.148 106.637 183.227  1.00  0.00    -0.507 OA
ATOM     26  H   UNL     1       6.123 106.857 183.078  1.00  0.00     0.293 HD
ENDBRANCH   7  25
TORSDOF 6
ENDMDL
MODEL 8
REMARK VINA RESULT:    -5.015      2.186      7.127
REMARK INTER + INTRA:          -6.374
REMARK INTER:                  -6.032
REMARK INTRA:                  -0.342
REMARK UNBOUND:                -0.332
REMARK SMILES Oc1cc(O)c2cc(O)c(-c3ccc(O)c(O)c3)[o+]c2c1
REMARK SMILES IDX 10 1 19 2 20 3 21 4 2 5 3 6 4 7 6 8 7 9 8 10 11 11 12 12
REMARK SMILES IDX 13 13 14 14 18 15 16 16 15 17 17 19 9 21 1 23 5 25
REMARK H PARENT 15 18 17 20 9 22 1 24 5 26
REMARK Flexibility Score: inf
ROOT
ATOM      1  C   UNL     1       4.413 110.960 183.149  1.00  0.00     0.402 A 
ATOM      2  O   UNL     1       3.715 110.244 182.271  1.00  0.00    -0.202 OA
ATOM      3  C   UNL     1       3.939 108.955 182.039  1.00  0.00     0.368 A 
ATOM      4  C   UNL     1       3.149 108.286 181.099  1.00  0.00     0.162 A 
ATOM      5  C   UNL     1       3.361 106.929 180.837  1.00  0.00     0.128 A 
ATOM      6  C   UNL     1       4.366 106.239 181.519  1.00  0.00     0.093 A 
ATOM      7  C   UNL     1       5.169 106.885 182.465  1.00  0.00     0.136 A 
ATOM      8  C   UNL     1       4.960 108.264 182.733  1.00  0.00     0.125 A 
ATOM      9  C   UNL     1       5.726 108.996 183.654  1.00  0.00     0.078 A 
ATOM     10  C   UNL     1       5.464 110.353 183.861  1.00  0.00     0.223 A 
ENDROOT
BRANCH   1  11
ATOM     11  C   UNL     1       4.061 112.387 183.325  1.00  0.00     0.087 A 
ATOM     12  C   UNL     1       3.213 112.764 184.379  1.00  0.00     0.022 A 
ATOM     13  C   UNL     1       2.883 114.107 184.577  1.00  0.00     0.051 A 
ATOM     14  C   UNL     1       3.410 115.095 183.734  1.00  0.00     0.157 A 
ATOM     15  C   UNL     1       4.604 113.385 182.495  1.00  0.00     0.068 A 
ATOM     16  C   UNL     1       4.278 114.731 182.692  1.00  0.00     0.158 A 
BRANCH  14  17
ATOM     17  O   UNL     1       3.078 116.435 183.933  1.00  0.00    -0.504 OA
ATOM     18  H   UNL     1       2.153 116.790 183.719  1.00  0.00     0.293 HD
ENDBRANCH  14  17
BRANCH  16  19
ATOM     19  O   UNL     1       4.829 115.693 181.845  1.00  0.00    -0.504 OA
ATOM     20  H   UNL     1       4.392 115.955 180.970  1.00  0.00     0.293 HD
ENDBRANCH  16  19
ENDBRANCH   1  11
BRANCH  10  21
ATOM     21  O   UNL     1       6.257 111.093 184.739  1.00  0.00    -0.500 OA
ATOM     22  H   UNL     1       5.927 111.955 185.157  1.00  0.00     0.294 HD
ENDBRANCH  10  21
BRANCH   5  23
ATOM     23  O   UNL     1       2.578 106.257 179.901  1.00  0.00    -0.507 OA
ATOM     24  H   UNL     1       2.681 105.262 179.741  1.00  0.00     0.293 HD
ENDBRANCH   5  23
BRANCH   7  25
ATOM     25  O   UNL     1       6.150 106.122 183.106  1.00  0.00    -0.507 OA
ATOM     26  H   UNL     1       5.986 105.219 183.527  1.00  0.00     0.293 HD
ENDBRANCH   7  25
TORSDOF 6
ENDMDL
MODEL 9
REMARK VINA RESULT:    -4.982      3.830      6.192
REMARK INTER + INTRA:          -6.334
REMARK INTER:                  -6.067
REMARK INTRA:                  -0.266
REMARK UNBOUND:                -0.332
REMARK SMILES Oc1cc(O)c2cc(O)c(-c3ccc(O)c(O)c3)[o+]c2c1
REMARK SMILES IDX 10 1 19 2 20 3 21 4 2 5 3 6 4 7 6 8 7 9 8 10 11 11 12 12
REMARK SMILES IDX 13 13 14 14 18 15 16 16 15 17 17 19 9 21 1 23 5 25
REMARK H PARENT 15 18 17 20 9 22 1 24 5 26
REMARK Flexibility Score: inf
ROOT
ATOM      1  C   UNL     1       4.802 105.343 178.435  1.00  0.00     0.402 A 
ATOM      2  O   UNL     1       5.182 105.583 179.688  1.00  0.00    -0.202 OA
ATOM      3  C   UNL     1       4.516 106.386 180.510  1.00  0.00     0.368 A 
ATOM      4  C   UNL     1       4.993 106.573 181.811  1.00  0.00     0.162 A 
ATOM      5  C   UNL     1       4.310 107.410 182.699  1.00  0.00     0.128 A 
ATOM      6  C   UNL     1       3.146 108.061 182.285  1.00  0.00     0.093 A 
ATOM      7  C   UNL     1       2.647 107.889 180.988  1.00  0.00     0.136 A 
ATOM      8  C   UNL     1       3.338 107.043 180.082  1.00  0.00     0.125 A 
ATOM      9  C   UNL     1       2.920 106.823 178.759  1.00  0.00     0.078 A 
ATOM     10  C   UNL     1       3.656 105.978 177.923  1.00  0.00     0.223 A 
ENDROOT
BRANCH   1  11
ATOM     11  C   UNL     1       5.624 104.420 177.619  1.00  0.00     0.087 A 
ATOM     12  C   UNL     1       6.932 104.788 177.268  1.00  0.00     0.022 A 
ATOM     13  C   UNL     1       7.733 103.924 176.516  1.00  0.00     0.051 A 
ATOM     14  C   UNL     1       7.242 102.675 176.116  1.00  0.00     0.157 A 
ATOM     15  C   UNL     1       5.142 103.156 177.233  1.00  0.00     0.068 A 
ATOM     16  C   UNL     1       5.942 102.288 176.482  1.00  0.00     0.158 A 
BRANCH  14  17
ATOM     17  O   UNL     1       8.042 101.816 175.364  1.00  0.00    -0.504 OA
ATOM     18  H   UNL     1       7.716 101.414 174.493  1.00  0.00     0.293 HD
ENDBRANCH  14  17
BRANCH  16  19
ATOM     19  O   UNL     1       5.430 101.045 176.112  1.00  0.00    -0.504 OA
ATOM     20  H   UNL     1       4.814 100.931 175.315  1.00  0.00     0.293 HD
ENDBRANCH  16  19
ENDBRANCH   1  11
BRANCH  10  21
ATOM     21  O   UNL     1       3.269 105.799 176.595  1.00  0.00    -0.500 OA
ATOM     22  H   UNL     1       3.416 104.921 176.111  1.00  0.00     0.294 HD
ENDBRANCH  10  21
BRANCH   5  23
ATOM     23  O   UNL     1       4.779 107.602 183.996  1.00  0.00    -0.507 OA
ATOM     24  H   UNL     1       4.191 107.434 184.803  1.00  0.00     0.293 HD
ENDBRANCH   5  23
BRANCH   7  25
ATOM     25  O   UNL     1       1.475 108.574 180.653  1.00  0.00    -0.507 OA
ATOM     26  H   UNL     1       0.770 108.857 181.318  1.00  0.00     0.293 HD
ENDBRANCH   7  25
TORSDOF 6
ENDMDL
