MODEL 1
REMARK VINA RESULT:    -5.434      0.000      0.000
REMARK INTER + INTRA:         -11.256
REMARK INTER:                  -9.881
REMARK INTRA:                  -1.375
REMARK UNBOUND:                -1.375
REMARK SMILES CCCCCCCCCCCCCCCC(=O)[O-]
REMARK SMILES IDX 9 1 10 2 11 3 12 4 13 5 14 6 15 7 16 8 17 9 18 10 8 11 7 12
REMARK SMILES IDX 6 13 5 14 4 15 3 16 2 17 1 18
REMARK H PARENT
REMARK Flexibility Score: inf
ROOT
ATOM      1  C   UNL     1     -14.612  -0.746 -10.288  1.00  0.00     0.000 C 
ENDROOT
BRANCH   1   2
ATOM      2  C   UNL     1     -15.125  -2.192 -10.171  1.00  0.00     0.000 C 
BRANCH   2   3
ATOM      3  C   UNL     1     -14.065  -3.236 -10.553  1.00  0.00     0.000 C 
BRANCH   3   4
ATOM      4  C   UNL     1     -12.758  -2.558 -10.981  1.00  0.00     0.000 C 
BRANCH   4   5
ATOM      5  C   UNL     1     -11.589  -3.000 -10.088  1.00  0.00     0.000 C 
BRANCH   5   6
ATOM      6  C   UNL     1     -10.643  -1.844  -9.718  1.00  0.00     0.006 C 
BRANCH   6   7
ATOM      7  C   UNL     1      -9.906  -2.043  -8.382  1.00  0.00     0.053 C 
BRANCH   7   8
ATOM      8  C   UNL     1      -9.510  -3.470  -8.150  1.00  0.00     0.041 C 
ATOM      9  O   UNL     1     -10.061  -4.140  -7.238  1.00  0.00    -0.550 OA
ATOM     10  O   UNL     1      -8.507  -4.050  -8.916  1.00  0.00    -0.550 OA
ENDBRANCH   7   8
ENDBRANCH   6   7
ENDBRANCH   5   6
ENDBRANCH   4   5
ENDBRANCH   3   4
ENDBRANCH   2   3
ENDBRANCH   1   2
BRANCH   1  11
ATOM     11  C   UNL     1     -15.125   0.222  -9.201  1.00  0.00     0.000 C 
BRANCH  11  12
ATOM     12  C   UNL     1     -14.336   1.538  -9.080  1.00  0.00    -0.000 C 
BRANCH  12  13
ATOM     13  C   UNL     1     -13.108   1.585 -10.003  1.00  0.00    -0.000 C 
BRANCH  13  14
ATOM     14  C   UNL     1     -11.779   1.510  -9.231  1.00  0.00    -0.000 C 
BRANCH  14  15
ATOM     15  C   UNL     1     -11.220   2.871  -8.768  1.00  0.00    -0.000 C 
BRANCH  15  16
ATOM     16  C   UNL     1     -11.715   4.091  -9.572  1.00  0.00    -0.000 C 
BRANCH  16  17
ATOM     17  C   UNL     1     -12.755   4.963  -8.848  1.00  0.00    -0.003 C 
ATOM     18  C   UNL     1     -13.109   4.437  -7.457  1.00  0.00     0.004 C 
ENDBRANCH  16  17
ENDBRANCH  15  16
ENDBRANCH  14  15
ENDBRANCH  13  14
ENDBRANCH  12  13
ENDBRANCH  11  12
ENDBRANCH   1  11
TORSDOF 14
ENDMDL
MODEL 2
REMARK VINA RESULT:    -4.987      3.286      6.382
REMARK INTER + INTRA:         -10.445
REMARK INTER:                  -9.417
REMARK INTRA:                  -1.028
REMARK UNBOUND:                -1.375
REMARK SMILES CCCCCCCCCCCCCCCC(=O)[O-]
REMARK SMILES IDX 9 1 10 2 11 3 12 4 13 5 14 6 15 7 16 8 17 9 18 10 8 11 7 12
REMARK SMILES IDX 6 13 5 14 4 15 3 16 2 17 1 18
REMARK H PARENT
REMARK Flexibility Score: inf
ROOT
ATOM      1  C   UNL     1     -14.481  -1.243 -10.508  1.00  0.00     0.000 C 
ENDROOT
BRANCH   1   2
ATOM      2  C   UNL     1     -15.125  -0.420  -9.380  1.00  0.00     0.000 C 
BRANCH   2   3
ATOM      3  C   UNL     1     -14.555   1.003  -9.276  1.00  0.00     0.000 C 
BRANCH   3   4
ATOM      4  C   UNL     1     -13.432   1.219 -10.298  1.00  0.00     0.000 C 
BRANCH   4   5
ATOM      5  C   UNL     1     -12.146   1.700  -9.610  1.00  0.00     0.000 C 
BRANCH   5   6
ATOM      6  C   UNL     1     -11.985   3.231  -9.638  1.00  0.00     0.006 C 
BRANCH   6   7
ATOM      7  C   UNL     1     -11.405   3.822  -8.341  1.00  0.00     0.053 C 
BRANCH   7   8
ATOM      8  C   UNL     1     -12.470   4.303  -7.403  1.00  0.00     0.041 C 
ATOM      9  O   UNL     1     -13.663   4.398  -7.794  1.00  0.00    -0.550 OA
ATOM     10  O   UNL     1     -12.141   4.683  -6.107  1.00  0.00    -0.550 OA
ENDBRANCH   7   8
ENDBRANCH   6   7
ENDBRANCH   5   6
ENDBRANCH   4   5
ENDBRANCH   3   4
ENDBRANCH   2   3
ENDBRANCH   1   2
BRANCH   1  11
ATOM     11  C   UNL     1     -14.212  -2.724 -10.169  1.00  0.00     0.000 C 
BRANCH  11  12
ATOM     12  C   UNL     1     -12.730  -3.139 -10.201  1.00  0.00    -0.000 C 
BRANCH  12  13
ATOM     13  C   UNL     1     -11.782  -1.948 -10.418  1.00  0.00    -0.000 C 
BRANCH  13  14
ATOM     14  C   UNL     1     -10.524  -2.020  -9.535  1.00  0.00    -0.000 C 
BRANCH  14  15
ATOM     15  C   UNL     1      -9.521  -3.125  -9.922  1.00  0.00    -0.000 C 
BRANCH  15  16
ATOM     16  C   UNL     1      -8.552  -3.554  -8.801  1.00  0.00    -0.000 C 
BRANCH  16  17
ATOM     17  C   UNL     1      -9.162  -4.487  -7.742  1.00  0.00    -0.003 C 
ATOM     18  C   UNL     1     -10.283  -3.826  -6.941  1.00  0.00     0.004 C 
ENDBRANCH  16  17
ENDBRANCH  15  16
ENDBRANCH  14  15
ENDBRANCH  13  14
ENDBRANCH  12  13
ENDBRANCH  11  12
ENDBRANCH   1  11
TORSDOF 14
ENDMDL
MODEL 3
REMARK VINA RESULT:    -4.933      3.008      6.448
REMARK INTER + INTRA:         -10.347
REMARK INTER:                  -9.427
REMARK INTRA:                  -0.920
REMARK UNBOUND:                -1.375
REMARK SMILES CCCCCCCCCCCCCCCC(=O)[O-]
REMARK SMILES IDX 9 1 10 2 11 3 12 4 13 5 14 6 15 7 16 8 17 9 18 10 8 11 7 12
REMARK SMILES IDX 6 13 5 14 4 15 3 16 2 17 1 18
REMARK H PARENT
REMARK Flexibility Score: inf
ROOT
ATOM      1  C   UNL     1     -13.157  -1.236 -10.723  1.00  0.00     0.000 C 
ENDROOT
BRANCH   1   2
ATOM      2  C   UNL     1     -14.284  -0.374 -10.127  1.00  0.00     0.000 C 
BRANCH   2   3
ATOM      3  C   UNL     1     -14.097   1.126 -10.396  1.00  0.00     0.000 C 
BRANCH   3   4
ATOM      4  C   UNL     1     -14.899   1.967  -9.395  1.00  0.00     0.000 C 
BRANCH   4   5
ATOM      5  C   UNL     1     -14.017   2.413  -8.220  1.00  0.00     0.000 C 
BRANCH   5   6
ATOM      6  C   UNL     1     -13.901   3.944  -8.101  1.00  0.00     0.006 C 
BRANCH   6   7
ATOM      7  C   UNL     1     -12.492   4.436  -7.726  1.00  0.00     0.053 C 
BRANCH   7   8
ATOM      8  C   UNL     1     -11.449   3.992  -8.704  1.00  0.00     0.041 C 
ATOM      9  O   UNL     1     -11.666   4.071  -9.942  1.00  0.00    -0.550 OA
ATOM     10  O   UNL     1     -10.249   3.454  -8.252  1.00  0.00    -0.550 OA
ENDBRANCH   7   8
ENDBRANCH   6   7
ENDBRANCH   5   6
ENDBRANCH   4   5
ENDBRANCH   3   4
ENDBRANCH   2   3
ENDBRANCH   1   2
BRANCH   1  11
ATOM     11  C   UNL     1     -11.871  -0.469 -11.092  1.00  0.00     0.000 C 
BRANCH  11  12
ATOM     12  C   UNL     1     -11.121   0.156  -9.901  1.00  0.00    -0.000 C 
BRANCH  12  13
ATOM     13  C   UNL     1     -10.253  -0.862  -9.144  1.00  0.00    -0.000 C 
BRANCH  13  14
ATOM     14  C   UNL     1      -9.641  -1.928 -10.070  1.00  0.00    -0.000 C 
BRANCH  14  15
ATOM     15  C   UNL     1     -10.062  -3.378  -9.758  1.00  0.00    -0.000 C 
BRANCH  15  16
ATOM     16  C   UNL     1      -8.937  -4.287  -9.221  1.00  0.00    -0.000 C 
BRANCH  16  17
ATOM     17  C   UNL     1      -8.992  -4.556  -7.707  1.00  0.00    -0.003 C 
ATOM     18  C   UNL     1     -10.221  -3.942  -7.037  1.00  0.00     0.004 C 
ENDBRANCH  16  17
ENDBRANCH  15  16
ENDBRANCH  14  15
ENDBRANCH  13  14
ENDBRANCH  12  13
ENDBRANCH  11  12
ENDBRANCH   1  11
TORSDOF 14
ENDMDL
MODEL 4
REMARK VINA RESULT:    -4.856      1.445      2.376
REMARK INTER + INTRA:         -10.205
REMARK INTER:                  -8.748
REMARK INTRA:                  -1.457
REMARK UNBOUND:                -1.375
REMARK SMILES CCCCCCCCCCCCCCCC(=O)[O-]
REMARK SMILES IDX 9 1 10 2 11 3 12 4 13 5 14 6 15 7 16 8 17 9 18 10 8 11 7 12
REMARK SMILES IDX 6 13 5 14 4 15 3 16 2 17 1 18
REMARK H PARENT
REMARK Flexibility Score: inf
ROOT
ATOM      1  C   UNL     1     -12.112   0.676 -10.093  1.00  0.00     0.000 C 
ENDROOT
BRANCH   1   2
ATOM      2  C   UNL     1     -11.397  -0.482 -10.810  1.00  0.00     0.000 C 
BRANCH   2   3
ATOM      3  C   UNL     1     -12.298  -1.710 -11.010  1.00  0.00     0.000 C 
BRANCH   3   4
ATOM      4  C   UNL     1     -11.783  -2.905 -10.200  1.00  0.00     0.000 C 
BRANCH   4   5
ATOM      5  C   UNL     1     -10.367  -3.302 -10.642  1.00  0.00     0.000 C 
BRANCH   5   6
ATOM      6  C   UNL     1      -9.302  -3.035  -9.563  1.00  0.00     0.006 C 
BRANCH   6   7
ATOM      7  C   UNL     1      -9.877  -2.871  -8.145  1.00  0.00     0.053 C 
BRANCH   7   8
ATOM      8  C   UNL     1      -9.717  -4.108  -7.314  1.00  0.00     0.041 C 
ATOM      9  O   UNL     1      -8.981  -5.049  -7.713  1.00  0.00    -0.550 OA
ATOM     10  O   UNL     1     -10.409  -4.240  -6.116  1.00  0.00    -0.550 OA
ENDBRANCH   7   8
ENDBRANCH   6   7
ENDBRANCH   5   6
ENDBRANCH   4   5
ENDBRANCH   3   4
ENDBRANCH   2   3
ENDBRANCH   1   2
BRANCH   1  11
ATOM     11  C   UNL     1     -13.650   0.676 -10.218  1.00  0.00     0.000 C 
BRANCH  11  12
ATOM     12  C   UNL     1     -14.327   2.025  -9.913  1.00  0.00    -0.000 C 
BRANCH  12  13
ATOM     13  C   UNL     1     -15.070   2.027  -8.567  1.00  0.00    -0.000 C 
BRANCH  13  14
ATOM     14  C   UNL     1     -14.429   2.972  -7.534  1.00  0.00    -0.000 C 
BRANCH  14  15
ATOM     15  C   UNL     1     -13.633   4.147  -8.136  1.00  0.00    -0.000 C 
BRANCH  15  16
ATOM     16  C   UNL     1     -12.196   4.308  -7.599  1.00  0.00    -0.000 C 
BRANCH  16  17
ATOM     17  C   UNL     1     -11.087   3.917  -8.590  1.00  0.00    -0.003 C 
ATOM     18  C   UNL     1     -11.415   4.302 -10.033  1.00  0.00     0.004 C 
ENDBRANCH  16  17
ENDBRANCH  15  16
ENDBRANCH  14  15
ENDBRANCH  13  14
ENDBRANCH  12  13
ENDBRANCH  11  12
ENDBRANCH   1  11
TORSDOF 14
ENDMDL
MODEL 5
REMARK VINA RESULT:    -4.543      2.511      6.084
REMARK INTER + INTRA:          -9.636
REMARK INTER:                  -8.642
REMARK INTRA:                  -0.994
REMARK UNBOUND:                -1.375
REMARK SMILES CCCCCCCCCCCCCCCC(=O)[O-]
REMARK SMILES IDX 9 1 10 2 11 3 12 4 13 5 14 6 15 7 16 8 17 9 18 10 8 11 7 12
REMARK SMILES IDX 6 13 5 14 4 15 3 16 2 17 1 18
REMARK H PARENT
REMARK Flexibility Score: inf
ROOT
ATOM      1  C   UNL     1     -14.533  -0.123  -9.592  1.00  0.00     0.000 C 
ENDROOT
BRANCH   1   2
ATOM      2  C   UNL     1     -13.871   1.017 -10.385  1.00  0.00     0.000 C 
BRANCH   2   3
ATOM      3  C   UNL     1     -14.360   2.408  -9.955  1.00  0.00     0.000 C 
BRANCH   3   4
ATOM      4  C   UNL     1     -14.538   2.480  -8.434  1.00  0.00     0.000 C 
BRANCH   4   5
ATOM      5  C   UNL     1     -13.630   3.558  -7.823  1.00  0.00     0.000 C 
BRANCH   5   6
ATOM      6  C   UNL     1     -13.116   4.571  -8.861  1.00  0.00     0.006 C 
BRANCH   6   7
ATOM      7  C   UNL     1     -11.779   4.174  -9.513  1.00  0.00     0.053 C 
BRANCH   7   8
ATOM      8  C   UNL     1     -10.965   3.262  -8.646  1.00  0.00     0.041 C 
ATOM      9  O   UNL     1     -10.244   3.737  -7.729  1.00  0.00    -0.550 OA
ATOM     10  O   UNL     1     -10.972   1.891  -8.871  1.00  0.00    -0.550 OA
ENDBRANCH   7   8
ENDBRANCH   6   7
ENDBRANCH   5   6
ENDBRANCH   4   5
ENDBRANCH   3   4
ENDBRANCH   2   3
ENDBRANCH   1   2
BRANCH   1  11
ATOM     11  C   UNL     1     -15.125  -1.262 -10.448  1.00  0.00     0.000 C 
BRANCH  11  12
ATOM     12  C   UNL     1     -14.086  -2.192 -11.100  1.00  0.00    -0.000 C 
BRANCH  12  13
ATOM     13  C   UNL     1     -13.251  -2.967 -10.069  1.00  0.00    -0.000 C 
BRANCH  13  14
ATOM     14  C   UNL     1     -11.745  -2.951 -10.389  1.00  0.00    -0.000 C 
BRANCH  14  15
ATOM     15  C   UNL     1     -10.995  -1.688  -9.919  1.00  0.00    -0.000 C 
BRANCH  15  16
ATOM     16  C   UNL     1     -10.221  -1.840  -8.593  1.00  0.00    -0.000 C 
BRANCH  16  17
ATOM     17  C   UNL     1      -9.883  -3.290  -8.205  1.00  0.00    -0.003 C 
ATOM     18  C   UNL     1      -8.570  -3.779  -8.816  1.00  0.00     0.004 C 
ENDBRANCH  16  17
ENDBRANCH  15  16
ENDBRANCH  14  15
ENDBRANCH  13  14
ENDBRANCH  12  13
ENDBRANCH  11  12
ENDBRANCH   1  11
TORSDOF 14
ENDMDL
MODEL 6
REMARK VINA RESULT:    -4.523     15.392     18.353
REMARK INTER + INTRA:          -9.600
REMARK INTER:                  -8.481
REMARK INTRA:                  -1.118
REMARK UNBOUND:                -1.375
REMARK SMILES CCCCCCCCCCCCCCCC(=O)[O-]
REMARK SMILES IDX 9 1 10 2 11 3 12 4 13 5 14 6 15 7 16 8 17 9 18 10 8 11 7 12
REMARK SMILES IDX 6 13 5 14 4 15 3 16 2 17 1 18
REMARK H PARENT
REMARK Flexibility Score: inf
ROOT
ATOM      1  C   UNL     1     -10.034   5.975   8.010  1.00  0.00     0.000 C 
ENDROOT
BRANCH   1   2
ATOM      2  C   UNL     1      -8.860   6.119   7.025  1.00  0.00     0.000 C 
BRANCH   2   3
ATOM      3  C   UNL     1      -9.289   6.682   5.662  1.00  0.00     0.000 C 
BRANCH   3   4
ATOM      4  C   UNL     1      -9.349   8.214   5.695  1.00  0.00     0.000 C 
BRANCH   4   5
ATOM      5  C   UNL     1      -8.047   8.828   5.159  1.00  0.00     0.000 C 
BRANCH   5   6
ATOM      6  C   UNL     1      -7.415   9.842   6.130  1.00  0.00     0.006 C 
BRANCH   6   7
ATOM      7  C   UNL     1      -6.276  10.672   5.511  1.00  0.00     0.053 C 
BRANCH   7   8
ATOM      8  C   UNL     1      -5.206  11.010   6.504  1.00  0.00     0.041 C 
ATOM      9  O   UNL     1      -4.007  10.701   6.273  1.00  0.00    -0.550 OA
ATOM     10  O   UNL     1      -5.534  11.633   7.702  1.00  0.00    -0.550 OA
ENDBRANCH   7   8
ENDBRANCH   6   7
ENDBRANCH   5   6
ENDBRANCH   4   5
ENDBRANCH   3   4
ENDBRANCH   2   3
ENDBRANCH   1   2
BRANCH   1  11
ATOM     11  C   UNL     1     -10.342   4.531   8.456  1.00  0.00     0.000 C 
BRANCH  11  12
ATOM     12  C   UNL     1     -11.729   4.005   8.043  1.00  0.00    -0.000 C 
BRANCH  12  13
ATOM     13  C   UNL     1     -12.027   4.221   6.551  1.00  0.00    -0.000 C 
BRANCH  13  14
ATOM     14  C   UNL     1     -13.255   5.118   6.312  1.00  0.00    -0.000 C 
BRANCH  14  15
ATOM     15  C   UNL     1     -12.981   6.385   5.478  1.00  0.00    -0.000 C 
BRANCH  15  16
ATOM     16  C   UNL     1     -14.228   7.036   4.845  1.00  0.00    -0.000 C 
BRANCH  16  17
ATOM     17  C   UNL     1     -14.850   6.245   3.682  1.00  0.00    -0.003 C 
ATOM     18  C   UNL     1     -14.099   6.435   2.364  1.00  0.00     0.004 C 
ENDBRANCH  16  17
ENDBRANCH  15  16
ENDBRANCH  14  15
ENDBRANCH  13  14
ENDBRANCH  12  13
ENDBRANCH  11  12
ENDBRANCH   1  11
TORSDOF 14
ENDMDL
MODEL 7
REMARK VINA RESULT:    -4.515     16.278     18.523
REMARK INTER + INTRA:          -9.585
REMARK INTER:                  -8.360
REMARK INTRA:                  -1.225
REMARK UNBOUND:                -1.375
REMARK SMILES CCCCCCCCCCCCCCCC(=O)[O-]
REMARK SMILES IDX 9 1 10 2 11 3 12 4 13 5 14 6 15 7 16 8 17 9 18 10 8 11 7 12
REMARK SMILES IDX 6 13 5 14 4 15 3 16 2 17 1 18
REMARK H PARENT
REMARK Flexibility Score: inf
ROOT
ATOM      1  C   UNL     1      -9.312   7.024   5.757  1.00  0.00     0.000 C 
ENDROOT
BRANCH   1   2
ATOM      2  C   UNL     1      -9.187   5.702   6.534  1.00  0.00     0.000 C 
BRANCH   2   3
ATOM      3  C   UNL     1      -9.909   5.734   7.890  1.00  0.00     0.000 C 
BRANCH   3   4
ATOM      4  C   UNL     1     -10.572   4.385   8.189  1.00  0.00     0.000 C 
BRANCH   4   5
ATOM      5  C   UNL     1     -11.460   3.935   7.019  1.00  0.00     0.000 C 
BRANCH   5   6
ATOM      6  C   UNL     1     -12.681   4.847   6.804  1.00  0.00     0.006 C 
BRANCH   6   7
ATOM      7  C   UNL     1     -12.782   5.432   5.384  1.00  0.00     0.053 C 
BRANCH   7   8
ATOM      8  C   UNL     1     -13.190   6.873   5.383  1.00  0.00     0.041 C 
ATOM      9  O   UNL     1     -12.606   7.698   6.135  1.00  0.00    -0.550 OA
ATOM     10  O   UNL     1     -14.240   7.303   4.580  1.00  0.00    -0.550 OA
ENDBRANCH   7   8
ENDBRANCH   6   7
ENDBRANCH   5   6
ENDBRANCH   4   5
ENDBRANCH   3   4
ENDBRANCH   2   3
ENDBRANCH   1   2
BRANCH   1  11
ATOM     11  C   UNL     1      -8.340   8.139   6.196  1.00  0.00     0.000 C 
BRANCH  11  12
ATOM     12  C   UNL     1      -8.053   9.209   5.127  1.00  0.00    -0.000 C 
BRANCH  12  13
ATOM     13  C   UNL     1      -8.739  10.551   5.428  1.00  0.00    -0.000 C 
BRANCH  13  14
ATOM     14  C   UNL     1      -7.754  11.625   5.922  1.00  0.00    -0.000 C 
BRANCH  14  15
ATOM     15  C   UNL     1      -7.248  11.429   7.366  1.00  0.00    -0.000 C 
BRANCH  15  16
ATOM     16  C   UNL     1      -5.716  11.481   7.537  1.00  0.00    -0.000 C 
BRANCH  16  17
ATOM     17  C   UNL     1      -4.925  10.613   6.545  1.00  0.00    -0.003 C 
ATOM     18  C   UNL     1      -3.810  11.382   5.837  1.00  0.00     0.004 C 
ENDBRANCH  16  17
ENDBRANCH  15  16
ENDBRANCH  14  15
ENDBRANCH  13  14
ENDBRANCH  12  13
ENDBRANCH  11  12
ENDBRANCH   1  11
TORSDOF 14
ENDMDL
MODEL 8
REMARK VINA RESULT:    -4.381     15.664     17.753
REMARK INTER + INTRA:          -9.341
REMARK INTER:                  -7.762
REMARK INTRA:                  -1.580
REMARK UNBOUND:                -1.375
REMARK SMILES CCCCCCCCCCCCCCCC(=O)[O-]
REMARK SMILES IDX 9 1 10 2 11 3 12 4 13 5 14 6 15 7 16 8 17 9 18 10 8 11 7 12
REMARK SMILES IDX 6 13 5 14 4 15 3 16 2 17 1 18
REMARK H PARENT
REMARK Flexibility Score: inf
ROOT
ATOM      1  C   UNL     1     -10.925   3.995   7.669  1.00  0.00     0.000 C 
ENDROOT
BRANCH   1   2
ATOM      2  C   UNL     1     -10.770   5.322   8.432  1.00  0.00     0.000 C 
BRANCH   2   3
ATOM      3  C   UNL     1      -9.521   6.112   8.011  1.00  0.00     0.000 C 
BRANCH   3   4
ATOM      4  C   UNL     1      -9.134   5.792   6.562  1.00  0.00     0.000 C 
BRANCH   4   5
ATOM      5  C   UNL     1      -9.273   7.033   5.668  1.00  0.00     0.000 C 
BRANCH   5   6
ATOM      6  C   UNL     1      -8.393   8.210   6.129  1.00  0.00     0.006 C 
BRANCH   6   7
ATOM      7  C   UNL     1      -7.947   9.140   4.987  1.00  0.00     0.053 C 
BRANCH   7   8
ATOM      8  C   UNL     1      -7.559  10.503   5.474  1.00  0.00     0.041 C 
ATOM      9  O   UNL     1      -8.335  11.152   6.225  1.00  0.00    -0.550 OA
ATOM     10  O   UNL     1      -6.359  11.075   5.071  1.00  0.00    -0.550 OA
ENDBRANCH   7   8
ENDBRANCH   6   7
ENDBRANCH   5   6
ENDBRANCH   4   5
ENDBRANCH   3   4
ENDBRANCH   2   3
ENDBRANCH   1   2
BRANCH   1  11
ATOM     11  C   UNL     1     -12.213   3.867   6.829  1.00  0.00     0.000 C 
BRANCH  11  12
ATOM     12  C   UNL     1     -12.853   5.204   6.414  1.00  0.00    -0.000 C 
BRANCH  12  13
ATOM     13  C   UNL     1     -12.484   5.621   4.981  1.00  0.00    -0.000 C 
BRANCH  13  14
ATOM     14  C   UNL     1     -13.707   5.699   4.050  1.00  0.00    -0.000 C 
BRANCH  14  15
ATOM     15  C   UNL     1     -14.127   7.127   3.648  1.00  0.00    -0.000 C 
BRANCH  15  16
ATOM     16  C   UNL     1     -14.365   8.096   4.825  1.00  0.00    -0.000 C 
BRANCH  16  17
ATOM     17  C   UNL     1     -13.362   9.258   4.917  1.00  0.00    -0.003 C 
ATOM     18  C   UNL     1     -12.397   9.119   6.094  1.00  0.00     0.004 C 
ENDBRANCH  16  17
ENDBRANCH  15  16
ENDBRANCH  14  15
ENDBRANCH  13  14
ENDBRANCH  12  13
ENDBRANCH  11  12
ENDBRANCH   1  11
TORSDOF 14
ENDMDL
MODEL 9
REMARK VINA RESULT:    -4.340     16.352     18.259
REMARK INTER + INTRA:          -9.267
REMARK INTER:                  -7.773
REMARK INTRA:                  -1.494
REMARK UNBOUND:                -1.375
REMARK SMILES CCCCCCCCCCCCCCCC(=O)[O-]
REMARK SMILES IDX 9 1 10 2 11 3 12 4 13 5 14 6 15 7 16 8 17 9 18 10 8 11 7 12
REMARK SMILES IDX 6 13 5 14 4 15 3 16 2 17 1 18
REMARK H PARENT
REMARK Flexibility Score: inf
ROOT
ATOM      1  C   UNL     1      -9.950   5.577   7.822  1.00  0.00     0.000 C 
ENDROOT
BRANCH   1   2
ATOM      2  C   UNL     1     -10.902   4.370   7.879  1.00  0.00     0.000 C 
BRANCH   2   3
ATOM      3  C   UNL     1     -11.588   4.083   6.536  1.00  0.00     0.000 C 
BRANCH   3   4
ATOM      4  C   UNL     1     -12.825   4.970   6.352  1.00  0.00     0.000 C 
BRANCH   4   5
ATOM      5  C   UNL     1     -12.718   5.807   5.069  1.00  0.00     0.000 C 
BRANCH   5   6
ATOM      6  C   UNL     1     -13.373   7.194   5.197  1.00  0.00     0.006 C 
BRANCH   6   7
ATOM      7  C   UNL     1     -12.641   8.143   6.163  1.00  0.00     0.053 C 
BRANCH   7   8
ATOM      8  C   UNL     1     -12.385   9.491   5.560  1.00  0.00     0.041 C 
ATOM      9  O   UNL     1     -11.372  10.156   5.904  1.00  0.00    -0.550 OA
ATOM     10  O   UNL     1     -13.281  10.031   4.646  1.00  0.00    -0.550 OA
ENDBRANCH   7   8
ENDBRANCH   6   7
ENDBRANCH   5   6
ENDBRANCH   4   5
ENDBRANCH   3   4
ENDBRANCH   2   3
ENDBRANCH   1   2
BRANCH   1  11
ATOM     11  C   UNL     1      -9.134   5.709   6.519  1.00  0.00     0.000 C 
BRANCH  11  12
ATOM     12  C   UNL     1      -9.342   7.027   5.752  1.00  0.00    -0.000 C 
BRANCH  12  13
ATOM     13  C   UNL     1      -8.307   8.102   6.124  1.00  0.00    -0.000 C 
BRANCH  13  14
ATOM     14  C   UNL     1      -8.033   9.087   4.974  1.00  0.00    -0.000 C 
BRANCH  14  15
ATOM     15  C   UNL     1      -7.697  10.525   5.417  1.00  0.00    -0.000 C 
BRANCH  15  16
ATOM     16  C   UNL     1      -6.192  10.845   5.519  1.00  0.00    -0.000 C 
BRANCH  16  17
ATOM     17  C   UNL     1      -5.593  10.692   6.928  1.00  0.00    -0.003 C 
ATOM     18  C   UNL     1      -6.532  11.180   8.030  1.00  0.00     0.004 C 
ENDBRANCH  16  17
ENDBRANCH  15  16
ENDBRANCH  14  15
ENDBRANCH  13  14
ENDBRANCH  12  13
ENDBRANCH  11  12
ENDBRANCH   1  11
TORSDOF 14
ENDMDL
