MODEL 1
REMARK VINA RESULT:    -4.996      0.000      0.000
REMARK INTER + INTRA:          -6.177
REMARK INTER:                  -5.872
REMARK INTRA:                  -0.305
REMARK UNBOUND:                -0.305
REMARK SMILES O=c1cc(-c2ccc(O)c(O)c2)oc2cc(O)cc(O)c12
REMARK SMILES IDX 4 1 3 2 2 3 1 4 21 5 19 6 18 7 16 8 15 9 14 10 13 11 5 12
REMARK SMILES IDX 6 13 7 14 8 15 12 16 10 17 9 18 11 20 20 22 17 24
REMARK H PARENT 9 19 11 21 20 23 17 25
REMARK Flexibility Score: inf
ROOT
ATOM      1  C   UNL     1       4.037  14.530  73.208  1.00  0.00     0.138 A 
ATOM      2  C   UNL     1       4.691  15.724  72.879  1.00  0.00     0.100 A 
ATOM      3  C   UNL     1       6.043  15.697  72.529  1.00  0.00     0.197 A 
ATOM      4  O   UNL     1       6.586  16.777  72.177  1.00  0.00    -0.289 OA
ATOM      5  C   UNL     1       6.747  14.470  72.540  1.00  0.00     0.107 A 
ATOM      6  C   UNL     1       8.135  14.329  72.241  1.00  0.00     0.134 A 
ATOM      7  C   UNL     1       8.698  13.048  72.172  1.00  0.00     0.093 A 
ATOM      8  C   UNL     1       7.937  11.909  72.449  1.00  0.00     0.123 A 
ATOM      9  C   UNL     1       6.595  12.042  72.794  1.00  0.00     0.094 A 
ATOM     10  C   UNL     1       5.996  13.303  72.839  1.00  0.00     0.146 A 
ATOM     11  O   UNL     1       4.708  13.384  73.158  1.00  0.00    -0.456 OA
ENDROOT
BRANCH   1  12
ATOM     12  C   UNL     1       2.602  14.501  73.590  1.00  0.00     0.021 A 
ATOM     13  C   UNL     1       1.681  15.433  73.075  1.00  0.00     0.016 A 
ATOM     14  C   UNL     1       0.338  15.388  73.458  1.00  0.00     0.051 A 
ATOM     15  C   UNL     1      -0.107  14.419  74.366  1.00  0.00     0.157 A 
ATOM     16  C   UNL     1       2.149  13.540  74.511  1.00  0.00     0.062 A 
ATOM     17  C   UNL     1       0.805  13.492  74.896  1.00  0.00     0.158 A 
BRANCH  15  18
ATOM     18  O   UNL     1      -1.448  14.377  74.745  1.00  0.00    -0.504 OA
ATOM     19  H   UNL     1      -2.191  14.605  74.095  1.00  0.00     0.293 HD
ENDBRANCH  15  18
BRANCH  17  20
ATOM     20  O   UNL     1       0.394  12.518  75.805  1.00  0.00    -0.504 OA
ATOM     21  H   UNL     1      -0.578  12.251  75.906  1.00  0.00     0.293 HD
ENDBRANCH  17  20
ENDBRANCH   1  12
BRANCH   6  22
ATOM     22  O   UNL     1       9.004  15.404  72.032  1.00  0.00    -0.507 OA
ATOM     23  H   UNL     1       9.815  15.382  71.435  1.00  0.00     0.293 HD
ENDBRANCH   6  22
BRANCH   8  24
ATOM     24  O   UNL     1       8.510  10.641  72.391  1.00  0.00    -0.508 OA
ATOM     25  H   UNL     1       8.597  10.059  73.216  1.00  0.00     0.293 HD
ENDBRANCH   8  24
TORSDOF 5
ENDMDL
MODEL 2
REMARK VINA RESULT:    -4.907     12.393     15.424
REMARK INTER + INTRA:          -6.072
REMARK INTER:                  -5.809
REMARK INTRA:                  -0.263
REMARK UNBOUND:                -0.305
REMARK SMILES O=c1cc(-c2ccc(O)c(O)c2)oc2cc(O)cc(O)c12
REMARK SMILES IDX 4 1 3 2 2 3 1 4 21 5 19 6 18 7 16 8 15 9 14 10 13 11 5 12
REMARK SMILES IDX 6 13 7 14 8 15 12 16 10 17 9 18 11 20 20 22 17 24
REMARK H PARENT 9 19 11 21 20 23 17 25
REMARK Flexibility Score: inf
ROOT
ATOM      1  C   UNL     1      10.804  11.872  60.065  1.00  0.00     0.138 A 
ATOM      2  C   UNL     1      11.970  12.510  60.509  1.00  0.00     0.100 A 
ATOM      3  C   UNL     1      11.873  13.713  61.211  1.00  0.00     0.197 A 
ATOM      4  O   UNL     1      12.933  14.229  61.651  1.00  0.00    -0.289 OA
ATOM      5  C   UNL     1      10.604  14.295  61.439  1.00  0.00     0.107 A 
ATOM      6  C   UNL     1      10.388  15.538  62.105  1.00  0.00     0.134 A 
ATOM      7  C   UNL     1       9.079  15.957  62.375  1.00  0.00     0.093 A 
ATOM      8  C   UNL     1       7.979  15.208  61.950  1.00  0.00     0.123 A 
ATOM      9  C   UNL     1       8.180  14.020  61.252  1.00  0.00     0.094 A 
ATOM     10  C   UNL     1       9.474  13.558  60.997  1.00  0.00     0.146 A 
ATOM     11  O   UNL     1       9.621  12.411  60.340  1.00  0.00    -0.456 OA
ENDROOT
BRANCH   1  12
ATOM     12  C   UNL     1      10.848  10.592  59.314  1.00  0.00     0.021 A 
ATOM     13  C   UNL     1      10.857  10.560  57.907  1.00  0.00     0.016 A 
ATOM     14  C   UNL     1      10.890   9.341  57.225  1.00  0.00     0.051 A 
ATOM     15  C   UNL     1      10.905   8.134  57.935  1.00  0.00     0.157 A 
ATOM     16  C   UNL     1      10.851   9.375  60.018  1.00  0.00     0.062 A 
ATOM     17  C   UNL     1      10.883   8.152  59.339  1.00  0.00     0.158 A 
BRANCH  15  18
ATOM     18  O   UNL     1      10.938   6.919  57.251  1.00  0.00    -0.504 OA
ATOM     19  H   UNL     1      10.170   6.620  56.661  1.00  0.00     0.293 HD
ENDBRANCH  15  18
BRANCH  17  20
ATOM     20  O   UNL     1      10.894   6.968  60.074  1.00  0.00    -0.504 OA
ATOM     21  H   UNL     1      11.630   6.279  59.977  1.00  0.00     0.293 HD
ENDBRANCH  17  20
ENDBRANCH   1  12
BRANCH   6  22
ATOM     22  O   UNL     1      11.414  16.404  62.496  1.00  0.00    -0.507 OA
ATOM     23  H   UNL     1      12.397  16.187  62.457  1.00  0.00     0.293 HD
ENDBRANCH   6  22
BRANCH   8  24
ATOM     24  O   UNL     1       6.681  15.640  62.211  1.00  0.00    -0.508 OA
ATOM     25  H   UNL     1       5.958  15.608  61.503  1.00  0.00     0.293 HD
ENDBRANCH   8  24
TORSDOF 5
ENDMDL
MODEL 3
REMARK VINA RESULT:    -4.831     12.340     14.775
REMARK INTER + INTRA:          -5.983
REMARK INTER:                  -5.719
REMARK INTRA:                  -0.264
REMARK UNBOUND:                -0.305
REMARK SMILES O=c1cc(-c2ccc(O)c(O)c2)oc2cc(O)cc(O)c12
REMARK SMILES IDX 4 1 3 2 2 3 1 4 21 5 19 6 18 7 16 8 15 9 14 10 13 11 5 12
REMARK SMILES IDX 6 13 7 14 8 15 12 16 10 17 9 18 11 20 20 22 17 24
REMARK H PARENT 9 19 11 21 20 23 17 25
REMARK Flexibility Score: inf
ROOT
ATOM      1  C   UNL     1      10.062  12.141  60.942  1.00  0.00     0.138 A 
ATOM      2  C   UNL     1      10.278  11.127  61.884  1.00  0.00     0.100 A 
ATOM      3  C   UNL     1      10.562   9.831  61.450  1.00  0.00     0.197 A 
ATOM      4  O   UNL     1      10.813   8.957  62.320  1.00  0.00    -0.289 OA
ATOM      5  C   UNL     1      10.597   9.545  60.065  1.00  0.00     0.107 A 
ATOM      6  C   UNL     1      10.836   8.253  59.509  1.00  0.00     0.134 A 
ATOM      7  C   UNL     1      10.963   8.112  58.121  1.00  0.00     0.093 A 
ATOM      8  C   UNL     1      10.800   9.207  57.267  1.00  0.00     0.123 A 
ATOM      9  C   UNL     1      10.514  10.461  57.799  1.00  0.00     0.094 A 
ATOM     10  C   UNL     1      10.415  10.640  59.180  1.00  0.00     0.146 A 
ATOM     11  O   UNL     1      10.155  11.858  59.647  1.00  0.00    -0.456 OA
ENDROOT
BRANCH   1  12
ATOM     12  C   UNL     1       9.756  13.537  61.347  1.00  0.00     0.021 A 
ATOM     13  C   UNL     1      10.775  14.463  61.637  1.00  0.00     0.016 A 
ATOM     14  C   UNL     1      10.457  15.768  62.025  1.00  0.00     0.051 A 
ATOM     15  C   UNL     1       9.120  16.167  62.137  1.00  0.00     0.157 A 
ATOM     16  C   UNL     1       8.416  13.943  61.474  1.00  0.00     0.062 A 
ATOM     17  C   UNL     1       8.095  15.248  61.862  1.00  0.00     0.158 A 
BRANCH  15  18
ATOM     18  O   UNL     1       8.808  17.470  62.524  1.00  0.00    -0.504 OA
ATOM     19  H   UNL     1       9.508  18.091  62.913  1.00  0.00     0.293 HD
ENDBRANCH  15  18
BRANCH  17  20
ATOM     20  O   UNL     1       6.753  15.614  61.968  1.00  0.00    -0.504 OA
ATOM     21  H   UNL     1       6.377  16.048  62.803  1.00  0.00     0.293 HD
ENDBRANCH  17  20
ENDBRANCH   1  12
BRANCH   6  22
ATOM     22  O   UNL     1      10.929   7.081  60.266  1.00  0.00    -0.507 OA
ATOM     23  H   UNL     1      10.350   6.861  61.061  1.00  0.00     0.293 HD
ENDBRANCH   6  22
BRANCH   8  24
ATOM     24  O   UNL     1      10.914   9.054  55.888  1.00  0.00    -0.508 OA
ATOM     25  H   UNL     1      11.783   9.245  55.403  1.00  0.00     0.293 HD
ENDBRANCH   8  24
TORSDOF 5
ENDMDL
MODEL 4
REMARK VINA RESULT:    -4.785      1.708      3.329
REMARK INTER + INTRA:          -5.929
REMARK INTER:                  -5.634
REMARK INTRA:                  -0.295
REMARK UNBOUND:                -0.305
REMARK SMILES O=c1cc(-c2ccc(O)c(O)c2)oc2cc(O)cc(O)c12
REMARK SMILES IDX 4 1 3 2 2 3 1 4 21 5 19 6 18 7 16 8 15 9 14 10 13 11 5 12
REMARK SMILES IDX 6 13 7 14 8 15 12 16 10 17 9 18 11 20 20 22 17 24
REMARK H PARENT 9 19 11 21 20 23 17 25
REMARK Flexibility Score: inf
ROOT
ATOM      1  C   UNL     1       2.688  13.773  73.802  1.00  0.00     0.138 A 
ATOM      2  C   UNL     1       2.494  12.393  73.953  1.00  0.00     0.100 A 
ATOM      3  C   UNL     1       3.576  11.524  73.802  1.00  0.00     0.197 A 
ATOM      4  O   UNL     1       3.383  10.297  74.005  1.00  0.00    -0.289 OA
ATOM      5  C   UNL     1       4.850  12.038  73.465  1.00  0.00     0.107 A 
ATOM      6  C   UNL     1       6.014  11.243  73.245  1.00  0.00     0.134 A 
ATOM      7  C   UNL     1       7.248  11.872  73.031  1.00  0.00     0.093 A 
ATOM      8  C   UNL     1       7.347  13.264  72.969  1.00  0.00     0.123 A 
ATOM      9  C   UNL     1       6.206  14.046  73.130  1.00  0.00     0.094 A 
ATOM     10  C   UNL     1       4.967  13.450  73.378  1.00  0.00     0.146 A 
ATOM     11  O   UNL     1       3.906  14.235  73.540  1.00  0.00    -0.456 OA
ENDROOT
BRANCH   1  12
ATOM     12  C   UNL     1       1.573  14.743  73.951  1.00  0.00     0.021 A 
ATOM     13  C   UNL     1       1.780  16.130  73.834  1.00  0.00     0.016 A 
ATOM     14  C   UNL     1       0.714  17.021  73.988  1.00  0.00     0.051 A 
ATOM     15  C   UNL     1      -0.572  16.544  74.269  1.00  0.00     0.157 A 
ATOM     16  C   UNL     1       0.281  14.274  74.246  1.00  0.00     0.062 A 
ATOM     17  C   UNL     1      -0.788  15.163  74.401  1.00  0.00     0.158 A 
BRANCH  15  18
ATOM     18  O   UNL     1      -1.633  17.436  74.421  1.00  0.00    -0.504 OA
ATOM     19  H   UNL     1      -2.154  17.783  73.624  1.00  0.00     0.293 HD
ENDBRANCH  15  18
BRANCH  17  20
ATOM     20  O   UNL     1      -2.056  14.656  74.684  1.00  0.00    -0.504 OA
ATOM     21  H   UNL     1      -2.579  14.106  74.013  1.00  0.00     0.293 HD
ENDBRANCH  17  20
ENDBRANCH   1  12
BRANCH   6  22
ATOM     22  O   UNL     1       6.010   9.846  73.201  1.00  0.00    -0.507 OA
ATOM     23  H   UNL     1       5.251   9.283  72.849  1.00  0.00     0.293 HD
ENDBRANCH   6  22
BRANCH   8  24
ATOM     24  O   UNL     1       8.576  13.879  72.742  1.00  0.00    -0.508 OA
ATOM     25  H   UNL     1       9.319  13.410  72.237  1.00  0.00     0.293 HD
ENDBRANCH   8  24
TORSDOF 5
ENDMDL
MODEL 5
REMARK VINA RESULT:    -4.783      1.244      2.859
REMARK INTER + INTRA:          -5.927
REMARK INTER:                  -5.634
REMARK INTRA:                  -0.293
REMARK UNBOUND:                -0.305
REMARK SMILES O=c1cc(-c2ccc(O)c(O)c2)oc2cc(O)cc(O)c12
REMARK SMILES IDX 4 1 3 2 2 3 1 4 21 5 19 6 18 7 16 8 15 9 14 10 13 11 5 12
REMARK SMILES IDX 6 13 7 14 8 15 12 16 10 17 9 18 11 20 20 22 17 24
REMARK H PARENT 9 19 11 21 20 23 17 25
REMARK Flexibility Score: inf
ROOT
ATOM      1  C   UNL     1       4.359  12.811  73.292  1.00  0.00     0.138 A 
ATOM      2  C   UNL     1       4.770  11.475  73.188  1.00  0.00     0.100 A 
ATOM      3  C   UNL     1       6.074  11.185  72.780  1.00  0.00     0.197 A 
ATOM      4  O   UNL     1       6.433   9.979  72.757  1.00  0.00    -0.289 OA
ATOM      5  C   UNL     1       6.956  12.238  72.444  1.00  0.00     0.107 A 
ATOM      6  C   UNL     1       8.293  12.059  71.976  1.00  0.00     0.134 A 
ATOM      7  C   UNL     1       9.112  13.179  71.785  1.00  0.00     0.093 A 
ATOM      8  C   UNL     1       8.623  14.473  71.987  1.00  0.00     0.123 A 
ATOM      9  C   UNL     1       7.305  14.658  72.391  1.00  0.00     0.094 A 
ATOM     10  C   UNL     1       6.473  13.561  72.623  1.00  0.00     0.146 A 
ATOM     11  O   UNL     1       5.224  13.782  73.023  1.00  0.00    -0.456 OA
ENDROOT
BRANCH   1  12
ATOM     12  C   UNL     1       2.985  13.177  73.720  1.00  0.00     0.021 A 
ATOM     13  C   UNL     1       2.499  14.493  73.602  1.00  0.00     0.016 A 
ATOM     14  C   UNL     1       1.205  14.811  74.021  1.00  0.00     0.051 A 
ATOM     15  C   UNL     1       0.377  13.826  74.571  1.00  0.00     0.157 A 
ATOM     16  C   UNL     1       2.150  12.196  74.285  1.00  0.00     0.062 A 
ATOM     17  C   UNL     1       0.854  12.512  74.705  1.00  0.00     0.158 A 
BRANCH  15  18
ATOM     18  O   UNL     1      -0.914  14.148  74.987  1.00  0.00    -0.504 OA
ATOM     19  H   UNL     1      -1.096  14.939  75.594  1.00  0.00     0.293 HD
ENDBRANCH  15  18
BRANCH  17  20
ATOM     20  O   UNL     1       0.055  11.508  75.253  1.00  0.00    -0.504 OA
ATOM     21  H   UNL     1      -0.957  11.560  75.244  1.00  0.00     0.293 HD
ENDBRANCH  17  20
ENDBRANCH   1  12
BRANCH   6  22
ATOM     22  O   UNL     1       8.851  10.817  71.662  1.00  0.00    -0.507 OA
ATOM     23  H   UNL     1       8.594   9.943  72.094  1.00  0.00     0.293 HD
ENDBRANCH   6  22
BRANCH   8  24
ATOM     24  O   UNL     1       9.442  15.581  71.781  1.00  0.00    -0.508 OA
ATOM     25  H   UNL     1      10.014  15.671  70.949  1.00  0.00     0.293 HD
ENDBRANCH   8  24
TORSDOF 5
ENDMDL
MODEL 6
REMARK VINA RESULT:    -4.762      1.835      6.653
REMARK INTER + INTRA:          -5.902
REMARK INTER:                  -5.638
REMARK INTRA:                  -0.264
REMARK UNBOUND:                -0.305
REMARK SMILES O=c1cc(-c2ccc(O)c(O)c2)oc2cc(O)cc(O)c12
REMARK SMILES IDX 4 1 3 2 2 3 1 4 21 5 19 6 18 7 16 8 15 9 14 10 13 11 5 12
REMARK SMILES IDX 6 13 7 14 8 15 12 16 10 17 9 18 11 20 20 22 17 24
REMARK H PARENT 9 19 11 21 20 23 17 25
REMARK Flexibility Score: inf
ROOT
ATOM      1  C   UNL     1       4.342  14.381  73.319  1.00  0.00     0.138 A 
ATOM      2  C   UNL     1       4.549  15.766  73.271  1.00  0.00     0.100 A 
ATOM      3  C   UNL     1       3.474  16.633  73.474  1.00  0.00     0.197 A 
ATOM      4  O   UNL     1       3.704  17.870  73.487  1.00  0.00    -0.289 OA
ATOM      5  C   UNL     1       2.179  16.107  73.695  1.00  0.00     0.107 A 
ATOM      6  C   UNL     1       1.002  16.895  73.873  1.00  0.00     0.134 A 
ATOM      7  C   UNL     1      -0.205  16.265  74.200  1.00  0.00     0.093 A 
ATOM      8  C   UNL     1      -0.291  14.874  74.295  1.00  0.00     0.123 A 
ATOM      9  C   UNL     1       0.840  14.095  74.070  1.00  0.00     0.094 A 
ATOM     10  C   UNL     1       2.067  14.694  73.776  1.00  0.00     0.146 A 
ATOM     11  O   UNL     1       3.126  13.913  73.582  1.00  0.00    -0.456 OA
ENDROOT
BRANCH   1  12
ATOM     12  C   UNL     1       5.449  13.414  73.109  1.00  0.00     0.021 A 
ATOM     13  C   UNL     1       5.803  12.964  71.823  1.00  0.00     0.016 A 
ATOM     14  C   UNL     1       6.843  12.047  71.655  1.00  0.00     0.051 A 
ATOM     15  C   UNL     1       7.541  11.557  72.765  1.00  0.00     0.157 A 
ATOM     16  C   UNL     1       6.147  12.908  74.219  1.00  0.00     0.062 A 
ATOM     17  C   UNL     1       7.189  11.989  74.054  1.00  0.00     0.158 A 
BRANCH  15  18
ATOM     18  O   UNL     1       8.579  10.642  72.593  1.00  0.00    -0.504 OA
ATOM     19  H   UNL     1       8.564   9.731  73.037  1.00  0.00     0.293 HD
ENDBRANCH  15  18
BRANCH  17  20
ATOM     20  O   UNL     1       7.862  11.518  75.181  1.00  0.00    -0.504 OA
ATOM     21  H   UNL     1       7.904  12.046  76.044  1.00  0.00     0.293 HD
ENDBRANCH  17  20
ENDBRANCH   1  12
BRANCH   6  22
ATOM     22  O   UNL     1       0.960  18.283  73.716  1.00  0.00    -0.507 OA
ATOM     23  H   UNL     1       1.736  18.854  73.420  1.00  0.00     0.293 HD
ENDBRANCH   6  22
BRANCH   8  24
ATOM     24  O   UNL     1      -1.500  14.257  74.608  1.00  0.00    -0.508 OA
ATOM     25  H   UNL     1      -1.905  14.321  75.534  1.00  0.00     0.293 HD
ENDBRANCH   8  24
TORSDOF 5
ENDMDL
MODEL 7
REMARK VINA RESULT:    -4.726      3.244      5.502
REMARK INTER + INTRA:          -5.860
REMARK INTER:                  -5.557
REMARK INTRA:                  -0.303
REMARK UNBOUND:                -0.305
REMARK SMILES O=c1cc(-c2ccc(O)c(O)c2)oc2cc(O)cc(O)c12
REMARK SMILES IDX 4 1 3 2 2 3 1 4 21 5 19 6 18 7 16 8 15 9 14 10 13 11 5 12
REMARK SMILES IDX 6 13 7 14 8 15 12 16 10 17 9 18 11 20 20 22 17 24
REMARK H PARENT 9 19 11 21 20 23 17 25
REMARK Flexibility Score: inf
ROOT
ATOM      1  C   UNL     1       3.315  16.141  73.930  1.00  0.00     0.138 A 
ATOM      2  C   UNL     1       4.503  15.540  73.493  1.00  0.00     0.100 A 
ATOM      3  C   UNL     1       4.596  14.147  73.450  1.00  0.00     0.197 A 
ATOM      4  O   UNL     1       5.652  13.638  72.994  1.00  0.00    -0.289 OA
ATOM      5  C   UNL     1       3.504  13.356  73.878  1.00  0.00     0.107 A 
ATOM      6  C   UNL     1       3.502  11.929  73.917  1.00  0.00     0.134 A 
ATOM      7  C   UNL     1       2.322  11.251  74.250  1.00  0.00     0.093 A 
ATOM      8  C   UNL     1       1.164  11.948  74.603  1.00  0.00     0.123 A 
ATOM      9  C   UNL     1       1.173  13.340  74.620  1.00  0.00     0.094 A 
ATOM     10  C   UNL     1       2.324  14.046  74.260  1.00  0.00     0.146 A 
ATOM     11  O   UNL     1       2.285  15.375  74.275  1.00  0.00    -0.456 OA
ENDROOT
BRANCH   1  12
ATOM     12  C   UNL     1       3.161  17.616  73.997  1.00  0.00     0.021 A 
ATOM     13  C   UNL     1       3.809  18.470  73.085  1.00  0.00     0.016 A 
ATOM     14  C   UNL     1       3.654  19.855  73.177  1.00  0.00     0.051 A 
ATOM     15  C   UNL     1       2.857  20.413  74.184  1.00  0.00     0.157 A 
ATOM     16  C   UNL     1       2.373  18.186  75.013  1.00  0.00     0.062 A 
ATOM     17  C   UNL     1       2.215  19.572  75.108  1.00  0.00     0.158 A 
BRANCH  15  18
ATOM     18  O   UNL     1       2.705  21.796  74.272  1.00  0.00    -0.504 OA
ATOM     19  H   UNL     1       1.816  22.218  74.516  1.00  0.00     0.293 HD
ENDBRANCH  15  18
BRANCH  17  20
ATOM     20  O   UNL     1       1.418  20.097  76.125  1.00  0.00    -0.504 OA
ATOM     21  H   UNL     1       1.812  20.465  76.983  1.00  0.00     0.293 HD
ENDBRANCH  17  20
ENDBRANCH   1  12
BRANCH   6  22
ATOM     22  O   UNL     1       4.627  11.138  73.666  1.00  0.00    -0.507 OA
ATOM     23  H   UNL     1       5.164  11.155  72.813  1.00  0.00     0.293 HD
ENDBRANCH   6  22
BRANCH   8  24
ATOM     24  O   UNL     1       0.000  11.264  74.946  1.00  0.00    -0.508 OA
ATOM     25  H   UNL     1      -0.683  11.663  75.579  1.00  0.00     0.293 HD
ENDBRANCH   8  24
TORSDOF 5
ENDMDL
MODEL 8
REMARK VINA RESULT:    -4.702      2.110      7.234
REMARK INTER + INTRA:          -5.832
REMARK INTER:                  -5.566
REMARK INTRA:                  -0.265
REMARK UNBOUND:                -0.305
REMARK SMILES O=c1cc(-c2ccc(O)c(O)c2)oc2cc(O)cc(O)c12
REMARK SMILES IDX 4 1 3 2 2 3 1 4 21 5 19 6 18 7 16 8 15 9 14 10 13 11 5 12
REMARK SMILES IDX 6 13 7 14 8 15 12 16 10 17 9 18 11 20 20 22 17 24
REMARK H PARENT 9 19 11 21 20 23 17 25
REMARK Flexibility Score: inf
ROOT
ATOM      1  C   UNL     1       3.366  13.301  73.441  1.00  0.00     0.138 A 
ATOM      2  C   UNL     1       2.256  12.470  73.644  1.00  0.00     0.100 A 
ATOM      3  C   UNL     1       1.007  13.039  73.902  1.00  0.00     0.197 A 
ATOM      4  O   UNL     1       0.018  12.269  74.017  1.00  0.00    -0.289 OA
ATOM      5  C   UNL     1       0.878  14.445  73.988  1.00  0.00     0.107 A 
ATOM      6  C   UNL     1      -0.336  15.132  74.286  1.00  0.00     0.134 A 
ATOM      7  C   UNL     1      -0.368  16.531  74.230  1.00  0.00     0.093 A 
ATOM      8  C   UNL     1       0.785  17.268  73.946  1.00  0.00     0.123 A 
ATOM      9  C   UNL     1       1.986  16.607  73.707  1.00  0.00     0.094 A 
ATOM     10  C   UNL     1       2.043  15.212  73.722  1.00  0.00     0.146 A 
ATOM     11  O   UNL     1       3.208  14.620  73.473  1.00  0.00    -0.456 OA
ENDROOT
BRANCH   1  12
ATOM     12  C   UNL     1       4.717  12.752  73.166  1.00  0.00     0.021 A 
ATOM     13  C   UNL     1       5.095  12.329  71.877  1.00  0.00     0.016 A 
ATOM     14  C   UNL     1       6.371  11.807  71.647  1.00  0.00     0.051 A 
ATOM     15  C   UNL     1       7.287  11.690  72.699  1.00  0.00     0.157 A 
ATOM     16  C   UNL     1       5.640  12.618  74.218  1.00  0.00     0.062 A 
ATOM     17  C   UNL     1       6.918  12.096  73.992  1.00  0.00     0.158 A 
BRANCH  15  18
ATOM     18  O   UNL     1       8.559  11.169  72.466  1.00  0.00    -0.504 OA
ATOM     19  H   UNL     1       8.692  10.230  72.110  1.00  0.00     0.293 HD
ENDBRANCH  15  18
BRANCH  17  20
ATOM     20  O   UNL     1       7.806  11.989  75.062  1.00  0.00    -0.504 OA
ATOM     21  H   UNL     1       7.819  11.180  75.672  1.00  0.00     0.293 HD
ENDBRANCH  17  20
ENDBRANCH   1  12
BRANCH   6  22
ATOM     22  O   UNL     1      -1.522  14.496  74.665  1.00  0.00    -0.507 OA
ATOM     23  H   UNL     1      -2.436  14.716  74.301  1.00  0.00     0.293 HD
ENDBRANCH   6  22
BRANCH   8  24
ATOM     24  O   UNL     1       0.745  18.660  73.907  1.00  0.00    -0.508 OA
ATOM     25  H   UNL     1       1.353  19.225  74.488  1.00  0.00     0.293 HD
ENDBRANCH   8  24
TORSDOF 5
ENDMDL
MODEL 9
REMARK VINA RESULT:    -4.540     13.930     14.859
REMARK INTER + INTRA:          -5.641
REMARK INTER:                  -5.365
REMARK INTRA:                  -0.276
REMARK UNBOUND:                -0.305
REMARK SMILES O=c1cc(-c2ccc(O)c(O)c2)oc2cc(O)cc(O)c12
REMARK SMILES IDX 4 1 3 2 2 3 1 4 21 5 19 6 18 7 16 8 15 9 14 10 13 11 5 12
REMARK SMILES IDX 6 13 7 14 8 15 12 16 10 17 9 18 11 20 20 22 17 24
REMARK H PARENT 9 19 11 21 20 23 17 25
REMARK Flexibility Score: inf
ROOT
ATOM      1  C   UNL     1      -1.917  13.076  60.027  1.00  0.00     0.138 A 
ATOM      2  C   UNL     1      -2.164  12.014  59.147  1.00  0.00     0.100 A 
ATOM      3  C   UNL     1      -1.577  10.770  59.384  1.00  0.00     0.197 A 
ATOM      4  O   UNL     1      -1.868   9.820  58.611  1.00  0.00    -0.289 OA
ATOM      5  C   UNL     1      -0.712  10.600  60.490  1.00  0.00     0.107 A 
ATOM      6  C   UNL     1      -0.026   9.389  60.806  1.00  0.00     0.134 A 
ATOM      7  C   UNL     1       0.713   9.305  61.993  1.00  0.00     0.093 A 
ATOM      8  C   UNL     1       0.839  10.406  62.844  1.00  0.00     0.123 A 
ATOM      9  C   UNL     1       0.217  11.607  62.517  1.00  0.00     0.094 A 
ATOM     10  C   UNL     1      -0.555  11.713  61.357  1.00  0.00     0.146 A 
ATOM     11  O   UNL     1      -1.145  12.875  61.090  1.00  0.00    -0.456 OA
ENDROOT
BRANCH   1  12
ATOM     12  C   UNL     1      -2.514  14.420  59.823  1.00  0.00     0.021 A 
ATOM     13  C   UNL     1      -3.908  14.616  59.811  1.00  0.00     0.016 A 
ATOM     14  C   UNL     1      -4.443  15.890  59.607  1.00  0.00     0.051 A 
ATOM     15  C   UNL     1      -3.599  16.988  59.405  1.00  0.00     0.157 A 
ATOM     16  C   UNL     1      -1.674  15.526  59.607  1.00  0.00     0.062 A 
ATOM     17  C   UNL     1      -2.207  16.804  59.404  1.00  0.00     0.158 A 
BRANCH  15  18
ATOM     18  O   UNL     1      -4.137  18.259  59.204  1.00  0.00    -0.504 OA
ATOM     19  H   UNL     1      -3.567  19.032  58.880  1.00  0.00     0.293 HD
ENDBRANCH  15  18
BRANCH  17  20
ATOM     20  O   UNL     1      -1.338  17.876  59.201  1.00  0.00    -0.504 OA
ATOM     21  H   UNL     1      -0.931  18.077  58.295  1.00  0.00     0.293 HD
ENDBRANCH  17  20
ENDBRANCH   1  12
BRANCH   6  22
ATOM     22  O   UNL     1      -0.015   8.259  59.982  1.00  0.00    -0.507 OA
ATOM     23  H   UNL     1      -0.808   7.919  59.461  1.00  0.00     0.293 HD
ENDBRANCH   6  22
BRANCH   8  24
ATOM     24  O   UNL     1       1.588  10.316  64.015  1.00  0.00    -0.508 OA
ATOM     25  H   UNL     1       1.429   9.578  64.691  1.00  0.00     0.293 HD
ENDBRANCH   8  24
TORSDOF 5
ENDMDL
