MODEL 1
REMARK VINA RESULT:    -3.803      0.000      0.000
REMARK INTER + INTRA:          -9.865
REMARK INTER:                  -7.361
REMARK INTRA:                  -2.505
REMARK UNBOUND:                -2.505
REMARK SMILES CCCCCCCCCCCCCCCCCC(=O)[O-]
REMARK SMILES IDX 10 1 11 2 12 3 13 4 14 5 15 6 16 7 17 8 18 9 19 10 20 11
REMARK SMILES IDX 9 12 8 13 7 14 6 15 5 16 4 17 3 18 2 19 1 20
REMARK H PARENT
REMARK Flexibility Score: inf
ROOT
ATOM      1  C   UNL     1     -20.967  32.986 -40.002  1.00  0.00     0.000 C 
ENDROOT
BRANCH   1   2
ATOM      2  C   UNL     1     -19.915  31.946 -40.421  1.00  0.00     0.000 C 
BRANCH   2   3
ATOM      3  C   UNL     1     -20.585  30.644 -40.880  1.00  0.00     0.000 C 
BRANCH   3   4
ATOM      4  C   UNL     1     -21.880  30.932 -41.650  1.00  0.00     0.000 C 
BRANCH   4   5
ATOM      5  C   UNL     1     -22.429  29.657 -42.302  1.00  0.00     0.000 C 
BRANCH   5   6
ATOM      6  C   UNL     1     -23.328  28.882 -41.327  1.00  0.00     0.000 C 
BRANCH   6   7
ATOM      7  C   UNL     1     -24.587  28.317 -42.002  1.00  0.00     0.006 C 
BRANCH   7   8
ATOM      8  C   UNL     1     -25.837  29.169 -41.737  1.00  0.00     0.053 C 
BRANCH   8   9
ATOM      9  C   UNL     1     -27.016  28.294 -41.453  1.00  0.00     0.041 C 
ATOM     10  O   UNL     1     -27.503  27.570 -42.363  1.00  0.00    -0.550 OA
ATOM     11  O   UNL     1     -27.560  28.256 -40.176  1.00  0.00    -0.550 OA
ENDBRANCH   8   9
ENDBRANCH   7   8
ENDBRANCH   6   7
ENDBRANCH   5   6
ENDBRANCH   4   5
ENDBRANCH   3   4
ENDBRANCH   2   3
ENDBRANCH   1   2
BRANCH   1  12
ATOM     12  C   UNL     1     -20.535  33.812 -38.779  1.00  0.00     0.000 C 
BRANCH  12  13
ATOM     13  C   UNL     1     -21.634  33.904 -37.705  1.00  0.00    -0.000 C 
BRANCH  13  14
ATOM     14  C   UNL     1     -23.030  34.166 -38.300  1.00  0.00    -0.000 C 
BRANCH  14  15
ATOM     15  C   UNL     1     -24.222  33.710 -37.431  1.00  0.00    -0.000 C 
BRANCH  15  16
ATOM     16  C   UNL     1     -25.303  32.895 -38.171  1.00  0.00    -0.000 C 
BRANCH  16  17
ATOM     17  C   UNL     1     -24.750  31.684 -38.955  1.00  0.00    -0.000 C 
BRANCH  17  18
ATOM     18  C   UNL     1     -25.120  30.323 -38.332  1.00  0.00    -0.000 C 
BRANCH  18  19
ATOM     19  C   UNL     1     -23.936  29.558 -37.711  1.00  0.00    -0.003 C 
ATOM     20  C   UNL     1     -22.612  30.319 -37.814  1.00  0.00     0.004 C 
ENDBRANCH  18  19
ENDBRANCH  17  18
ENDBRANCH  16  17
ENDBRANCH  15  16
ENDBRANCH  14  15
ENDBRANCH  13  14
ENDBRANCH  12  13
ENDBRANCH   1  12
TORSDOF 16
ENDMDL
MODEL 2
REMARK VINA RESULT:    -3.770      3.569      6.003
REMARK INTER + INTRA:          -9.802
REMARK INTER:                  -6.554
REMARK INTRA:                  -3.248
REMARK UNBOUND:                -2.505
REMARK SMILES CCCCCCCCCCCCCCCCCC(=O)[O-]
REMARK SMILES IDX 10 1 11 2 12 3 13 4 14 5 15 6 16 7 17 8 18 9 19 10 20 11
REMARK SMILES IDX 9 12 8 13 7 14 6 15 5 16 4 17 3 18 2 19 1 20
REMARK H PARENT
REMARK Flexibility Score: inf
ROOT
ATOM      1  C   UNL     1     -21.636  29.537 -38.677  1.00  0.00     0.000 C 
ENDROOT
BRANCH   1   2
ATOM      2  C   UNL     1     -22.855  30.152 -37.970  1.00  0.00     0.000 C 
BRANCH   2   3
ATOM      3  C   UNL     1     -22.632  31.644 -37.692  1.00  0.00     0.000 C 
BRANCH   3   4
ATOM      4  C   UNL     1     -21.144  32.004 -37.777  1.00  0.00     0.000 C 
BRANCH   4   5
ATOM      5  C   UNL     1     -20.935  33.298 -38.575  1.00  0.00     0.000 C 
BRANCH   5   6
ATOM      6  C   UNL     1     -20.389  32.998 -39.979  1.00  0.00     0.000 C 
BRANCH   6   7
ATOM      7  C   UNL     1     -18.880  32.710 -39.980  1.00  0.00     0.006 C 
BRANCH   7   8
ATOM      8  C   UNL     1     -18.508  31.496 -40.843  1.00  0.00     0.053 C 
BRANCH   8   9
ATOM      9  C   UNL     1     -18.424  31.886 -42.285  1.00  0.00     0.041 C 
ATOM     10  O   UNL     1     -19.344  31.565 -43.084  1.00  0.00    -0.550 OA
ATOM     11  O   UNL     1     -17.342  32.627 -42.741  1.00  0.00    -0.550 OA
ENDBRANCH   8   9
ENDBRANCH   7   8
ENDBRANCH   6   7
ENDBRANCH   5   6
ENDBRANCH   4   5
ENDBRANCH   3   4
ENDBRANCH   2   3
ENDBRANCH   1   2
BRANCH   1  12
ATOM     12  C   UNL     1     -22.017  28.720 -39.922  1.00  0.00     0.000 C 
BRANCH  12  13
ATOM     13  C   UNL     1     -21.474  29.333 -41.225  1.00  0.00    -0.000 C 
BRANCH  13  14
ATOM     14  C   UNL     1     -22.585  29.904 -42.125  1.00  0.00    -0.000 C 
BRANCH  14  15
ATOM     15  C   UNL     1     -22.803  31.430 -42.029  1.00  0.00    -0.000 C 
BRANCH  15  16
ATOM     16  C   UNL     1     -23.930  31.875 -41.074  1.00  0.00    -0.000 C 
BRANCH  16  17
ATOM     17  C   UNL     1     -25.290  31.194 -41.346  1.00  0.00    -0.000 C 
BRANCH  17  18
ATOM     18  C   UNL     1     -25.871  30.463 -40.119  1.00  0.00    -0.000 C 
BRANCH  18  19
ATOM     19  C   UNL     1     -25.745  28.928 -40.167  1.00  0.00    -0.003 C 
ATOM     20  C   UNL     1     -25.821  28.367 -41.588  1.00  0.00     0.004 C 
ENDBRANCH  18  19
ENDBRANCH  17  18
ENDBRANCH  16  17
ENDBRANCH  15  16
ENDBRANCH  14  15
ENDBRANCH  13  14
ENDBRANCH  12  13
ENDBRANCH   1  12
TORSDOF 16
ENDMDL
MODEL 3
REMARK VINA RESULT:    -3.729      1.534      2.480
REMARK INTER + INTRA:          -9.721
REMARK INTER:                  -6.654
REMARK INTRA:                  -3.066
REMARK UNBOUND:                -2.505
REMARK SMILES CCCCCCCCCCCCCCCCCC(=O)[O-]
REMARK SMILES IDX 10 1 11 2 12 3 13 4 14 5 15 6 16 7 17 8 18 9 19 10 20 11
REMARK SMILES IDX 9 12 8 13 7 14 6 15 5 16 4 17 3 18 2 19 1 20
REMARK H PARENT
REMARK Flexibility Score: inf
ROOT
ATOM      1  C   UNL     1     -21.271  33.646 -39.592  1.00  0.00     0.000 C 
ENDROOT
BRANCH   1   2
ATOM      2  C   UNL     1     -19.837  33.095 -39.518  1.00  0.00     0.000 C 
BRANCH   2   3
ATOM      3  C   UNL     1     -19.708  31.797 -40.325  1.00  0.00     0.000 C 
BRANCH   3   4
ATOM      4  C   UNL     1     -21.017  31.467 -41.052  1.00  0.00     0.000 C 
BRANCH   4   5
ATOM      5  C   UNL     1     -21.026  30.012 -41.539  1.00  0.00     0.000 C 
BRANCH   5   6
ATOM      6  C   UNL     1     -22.355  29.669 -42.229  1.00  0.00     0.000 C 
BRANCH   6   7
ATOM      7  C   UNL     1     -23.175  28.628 -41.453  1.00  0.00     0.006 C 
BRANCH   7   8
ATOM      8  C   UNL     1     -24.604  28.473 -41.995  1.00  0.00     0.053 C 
BRANCH   8   9
ATOM      9  C   UNL     1     -25.550  29.341 -41.228  1.00  0.00     0.041 C 
ATOM     10  O   UNL     1     -25.746  30.535 -41.582  1.00  0.00    -0.550 OA
ATOM     11  O   UNL     1     -26.239  28.823 -40.139  1.00  0.00    -0.550 OA
ENDBRANCH   8   9
ENDBRANCH   7   8
ENDBRANCH   6   7
ENDBRANCH   5   6
ENDBRANCH   4   5
ENDBRANCH   3   4
ENDBRANCH   2   3
ENDBRANCH   1   2
BRANCH   1  12
ATOM     12  C   UNL     1     -21.779  34.169 -38.238  1.00  0.00     0.000 C 
BRANCH  12  13
ATOM     13  C   UNL     1     -23.245  33.789 -37.966  1.00  0.00    -0.000 C 
BRANCH  13  14
ATOM     14  C   UNL     1     -23.794  32.766 -38.977  1.00  0.00    -0.000 C 
BRANCH  14  15
ATOM     15  C   UNL     1     -24.309  31.441 -38.373  1.00  0.00    -0.000 C 
BRANCH  15  16
ATOM     16  C   UNL     1     -23.291  30.282 -38.362  1.00  0.00    -0.000 C 
BRANCH  16  17
ATOM     17  C   UNL     1     -22.552  30.107 -37.016  1.00  0.00    -0.000 C 
BRANCH  17  18
ATOM     18  C   UNL     1     -21.046  30.431 -37.090  1.00  0.00    -0.000 C 
BRANCH  18  19
ATOM     19  C   UNL     1     -20.578  31.536 -36.125  1.00  0.00    -0.003 C 
ATOM     20  C   UNL     1     -19.060  31.728 -36.127  1.00  0.00     0.004 C 
ENDBRANCH  18  19
ENDBRANCH  17  18
ENDBRANCH  16  17
ENDBRANCH  15  16
ENDBRANCH  14  15
ENDBRANCH  13  14
ENDBRANCH  12  13
ENDBRANCH   1  12
TORSDOF 16
ENDMDL
MODEL 4
REMARK VINA RESULT:    -3.706      3.091      5.446
REMARK INTER + INTRA:          -9.676
REMARK INTER:                  -7.237
REMARK INTRA:                  -2.439
REMARK UNBOUND:                -2.505
REMARK SMILES CCCCCCCCCCCCCCCCCC(=O)[O-]
REMARK SMILES IDX 10 1 11 2 12 3 13 4 14 5 15 6 16 7 17 8 18 9 19 10 20 11
REMARK SMILES IDX 9 12 8 13 7 14 6 15 5 16 4 17 3 18 2 19 1 20
REMARK H PARENT
REMARK Flexibility Score: inf
ROOT
ATOM      1  C   UNL     1     -22.786  33.688 -37.150  1.00  0.00     0.000 C 
ENDROOT
BRANCH   1   2
ATOM      2  C   UNL     1     -22.003  34.493 -38.200  1.00  0.00     0.000 C 
BRANCH   2   3
ATOM      3  C   UNL     1     -20.713  33.764 -38.598  1.00  0.00     0.000 C 
BRANCH   3   4
ATOM      4  C   UNL     1     -20.641  32.376 -37.950  1.00  0.00     0.000 C 
BRANCH   4   5
ATOM      5  C   UNL     1     -19.193  31.876 -37.879  1.00  0.00     0.000 C 
BRANCH   5   6
ATOM      6  C   UNL     1     -18.613  31.663 -39.286  1.00  0.00     0.000 C 
BRANCH   6   7
ATOM      7  C   UNL     1     -19.282  30.499 -40.033  1.00  0.00     0.006 C 
BRANCH   7   8
ATOM      8  C   UNL     1     -18.660  30.244 -41.414  1.00  0.00     0.053 C 
BRANCH   8   9
ATOM      9  C   UNL     1     -19.340  31.076 -42.455  1.00  0.00     0.041 C 
ATOM     10  O   UNL     1     -18.670  31.860 -43.179  1.00  0.00    -0.550 OA
ATOM     11  O   UNL     1     -20.711  30.965 -42.645  1.00  0.00    -0.550 OA
ENDBRANCH   8   9
ENDBRANCH   7   8
ENDBRANCH   6   7
ENDBRANCH   5   6
ENDBRANCH   4   5
ENDBRANCH   3   4
ENDBRANCH   2   3
ENDBRANCH   1   2
BRANCH   1  12
ATOM     12  C   UNL     1     -24.248  33.441 -37.556  1.00  0.00     0.000 C 
BRANCH  12  13
ATOM     13  C   UNL     1     -24.475  32.034 -38.138  1.00  0.00    -0.000 C 
BRANCH  13  14
ATOM     14  C   UNL     1     -24.421  32.009 -39.676  1.00  0.00    -0.000 C 
BRANCH  14  15
ATOM     15  C   UNL     1     -23.197  31.293 -40.289  1.00  0.00    -0.000 C 
BRANCH  15  16
ATOM     16  C   UNL     1     -22.881  29.904 -39.696  1.00  0.00    -0.000 C 
BRANCH  16  17
ATOM     17  C   UNL     1     -22.755  28.783 -40.752  1.00  0.00    -0.000 C 
BRANCH  17  18
ATOM     18  C   UNL     1     -23.640  29.002 -41.995  1.00  0.00    -0.000 C 
BRANCH  18  19
ATOM     19  C   UNL     1     -25.049  28.388 -41.896  1.00  0.00    -0.003 C 
ATOM     20  C   UNL     1     -26.149  29.439 -41.732  1.00  0.00     0.004 C 
ENDBRANCH  18  19
ENDBRANCH  17  18
ENDBRANCH  16  17
ENDBRANCH  15  16
ENDBRANCH  14  15
ENDBRANCH  13  14
ENDBRANCH  12  13
ENDBRANCH   1  12
TORSDOF 16
ENDMDL
MODEL 5
REMARK VINA RESULT:    -3.697      1.222      2.112
REMARK INTER + INTRA:          -9.659
REMARK INTER:                  -6.968
REMARK INTRA:                  -2.691
REMARK UNBOUND:                -2.505
REMARK SMILES CCCCCCCCCCCCCCCCCC(=O)[O-]
REMARK SMILES IDX 10 1 11 2 12 3 13 4 14 5 15 6 16 7 17 8 18 9 19 10 20 11
REMARK SMILES IDX 9 12 8 13 7 14 6 15 5 16 4 17 3 18 2 19 1 20
REMARK H PARENT
REMARK Flexibility Score: inf
ROOT
ATOM      1  C   UNL     1     -20.579  31.558 -41.181  1.00  0.00     0.000 C 
ENDROOT
BRANCH   1   2
ATOM      2  C   UNL     1     -20.767  30.067 -41.507  1.00  0.00     0.000 C 
BRANCH   2   3
ATOM      3  C   UNL     1     -21.825  29.876 -42.602  1.00  0.00     0.000 C 
BRANCH   3   4
ATOM      4  C   UNL     1     -23.242  29.993 -42.026  1.00  0.00     0.000 C 
BRANCH   4   5
ATOM      5  C   UNL     1     -23.833  28.607 -41.733  1.00  0.00     0.000 C 
BRANCH   5   6
ATOM      6  C   UNL     1     -25.328  28.707 -41.394  1.00  0.00     0.000 C 
BRANCH   6   7
ATOM      7  C   UNL     1     -25.869  30.140 -41.514  1.00  0.00     0.006 C 
BRANCH   7   8
ATOM      8  C   UNL     1     -27.228  30.322 -40.821  1.00  0.00     0.053 C 
BRANCH   8   9
ATOM      9  C   UNL     1     -28.280  29.517 -41.515  1.00  0.00     0.041 C 
ATOM     10  O   UNL     1     -28.752  29.904 -42.618  1.00  0.00    -0.550 OA
ATOM     11  O   UNL     1     -28.721  28.324 -40.957  1.00  0.00    -0.550 OA
ENDBRANCH   8   9
ENDBRANCH   7   8
ENDBRANCH   6   7
ENDBRANCH   5   6
ENDBRANCH   4   5
ENDBRANCH   3   4
ENDBRANCH   2   3
ENDBRANCH   1   2
BRANCH   1  12
ATOM     12  C   UNL     1     -19.284  31.839 -40.401  1.00  0.00     0.000 C 
BRANCH  12  13
ATOM     13  C   UNL     1     -19.420  33.024 -39.429  1.00  0.00    -0.000 C 
BRANCH  13  14
ATOM     14  C   UNL     1     -20.755  33.774 -39.585  1.00  0.00    -0.000 C 
BRANCH  14  15
ATOM     15  C   UNL     1     -21.564  33.975 -38.285  1.00  0.00    -0.000 C 
BRANCH  15  16
ATOM     16  C   UNL     1     -23.087  33.771 -38.419  1.00  0.00    -0.000 C 
BRANCH  16  17
ATOM     17  C   UNL     1     -23.485  32.519 -39.233  1.00  0.00    -0.000 C 
BRANCH  17  18
ATOM     18  C   UNL     1     -24.148  31.415 -38.385  1.00  0.00    -0.000 C 
BRANCH  18  19
ATOM     19  C   UNL     1     -23.384  30.078 -38.360  1.00  0.00    -0.003 C 
ATOM     20  C   UNL     1     -21.922  30.233 -37.936  1.00  0.00     0.004 C 
ENDBRANCH  18  19
ENDBRANCH  17  18
ENDBRANCH  16  17
ENDBRANCH  15  16
ENDBRANCH  14  15
ENDBRANCH  13  14
ENDBRANCH  12  13
ENDBRANCH   1  12
TORSDOF 16
ENDMDL
MODEL 6
REMARK VINA RESULT:    -3.694      1.874      4.427
REMARK INTER + INTRA:          -9.653
REMARK INTER:                  -6.709
REMARK INTRA:                  -2.944
REMARK UNBOUND:                -2.505
REMARK SMILES CCCCCCCCCCCCCCCCCC(=O)[O-]
REMARK SMILES IDX 10 1 11 2 12 3 13 4 14 5 15 6 16 7 17 8 18 9 19 10 20 11
REMARK SMILES IDX 9 12 8 13 7 14 6 15 5 16 4 17 3 18 2 19 1 20
REMARK H PARENT
REMARK Flexibility Score: inf
ROOT
ATOM      1  C   UNL     1     -20.087  33.108 -38.737  1.00  0.00     0.000 C 
ENDROOT
BRANCH   1   2
ATOM      2  C   UNL     1     -21.386  33.750 -39.251  1.00  0.00     0.000 C 
BRANCH   2   3
ATOM      3  C   UNL     1     -22.265  34.217 -38.084  1.00  0.00     0.000 C 
BRANCH   3   4
ATOM      4  C   UNL     1     -23.663  33.593 -38.163  1.00  0.00     0.000 C 
BRANCH   4   5
ATOM      5  C   UNL     1     -23.665  32.355 -39.070  1.00  0.00     0.000 C 
BRANCH   5   6
ATOM      6  C   UNL     1     -23.933  31.078 -38.259  1.00  0.00     0.000 C 
BRANCH   6   7
ATOM      7  C   UNL     1     -24.604  29.976 -39.093  1.00  0.00     0.006 C 
BRANCH   7   8
ATOM      8  C   UNL     1     -25.867  30.465 -39.816  1.00  0.00     0.053 C 
BRANCH   8   9
ATOM      9  C   UNL     1     -25.815  30.099 -41.266  1.00  0.00     0.041 C 
ATOM     10  O   UNL     1     -24.706  30.013 -41.859  1.00  0.00    -0.550 OA
ATOM     11  O   UNL     1     -26.989  29.825 -41.955  1.00  0.00    -0.550 OA
ENDBRANCH   8   9
ENDBRANCH   7   8
ENDBRANCH   6   7
ENDBRANCH   5   6
ENDBRANCH   4   5
ENDBRANCH   3   4
ENDBRANCH   2   3
ENDBRANCH   1   2
BRANCH   1  12
ATOM     12  C   UNL     1     -20.264  32.406 -37.381  1.00  0.00     0.000 C 
BRANCH  12  13
ATOM     13  C   UNL     1     -20.125  30.876 -37.480  1.00  0.00    -0.000 C 
BRANCH  13  14
ATOM     14  C   UNL     1     -19.876  30.392 -38.920  1.00  0.00    -0.000 C 
BRANCH  14  15
ATOM     15  C   UNL     1     -20.649  29.122 -39.340  1.00  0.00    -0.000 C 
BRANCH  15  16
ATOM     16  C   UNL     1     -21.441  29.240 -40.659  1.00  0.00    -0.000 C 
BRANCH  16  17
ATOM     17  C   UNL     1     -21.304  30.613 -41.354  1.00  0.00    -0.000 C 
BRANCH  17  18
ATOM     18  C   UNL     1     -20.395  30.588 -42.600  1.00  0.00    -0.000 C 
BRANCH  18  19
ATOM     19  C   UNL     1     -19.134  31.466 -42.492  1.00  0.00    -0.003 C 
ATOM     20  C   UNL     1     -17.885  30.672 -42.103  1.00  0.00     0.004 C 
ENDBRANCH  18  19
ENDBRANCH  17  18
ENDBRANCH  16  17
ENDBRANCH  15  16
ENDBRANCH  14  15
ENDBRANCH  13  14
ENDBRANCH  12  13
ENDBRANCH   1  12
TORSDOF 16
ENDMDL
MODEL 7
REMARK VINA RESULT:    -3.689      1.407      2.069
REMARK INTER + INTRA:          -9.643
REMARK INTER:                  -6.546
REMARK INTRA:                  -3.097
REMARK UNBOUND:                -2.505
REMARK SMILES CCCCCCCCCCCCCCCCCC(=O)[O-]
REMARK SMILES IDX 10 1 11 2 12 3 13 4 14 5 15 6 16 7 17 8 18 9 19 10 20 11
REMARK SMILES IDX 9 12 8 13 7 14 6 15 5 16 4 17 3 18 2 19 1 20
REMARK H PARENT
REMARK Flexibility Score: inf
ROOT
ATOM      1  C   UNL     1     -19.513  32.713 -40.043  1.00  0.00     0.000 C 
ENDROOT
BRANCH   1   2
ATOM      2  C   UNL     1     -19.564  31.197 -39.794  1.00  0.00     0.000 C 
BRANCH   2   3
ATOM      3  C   UNL     1     -19.408  30.421 -41.109  1.00  0.00     0.000 C 
BRANCH   3   4
ATOM      4  C   UNL     1     -20.451  30.867 -42.140  1.00  0.00     0.000 C 
BRANCH   4   5
ATOM      5  C   UNL     1     -21.809  30.205 -41.872  1.00  0.00     0.000 C 
BRANCH   5   6
ATOM      6  C   UNL     1     -22.932  31.252 -41.825  1.00  0.00     0.000 C 
BRANCH   6   7
ATOM      7  C   UNL     1     -24.300  30.639 -41.487  1.00  0.00     0.006 C 
BRANCH   7   8
ATOM      8  C   UNL     1     -24.381  29.144 -41.826  1.00  0.00     0.053 C 
BRANCH   8   9
ATOM      9  C   UNL     1     -25.712  28.588 -41.428  1.00  0.00     0.041 C 
ATOM     10  O   UNL     1     -26.376  27.888 -42.239  1.00  0.00    -0.550 OA
ATOM     11  O   UNL     1     -26.207  28.820 -40.152  1.00  0.00    -0.550 OA
ENDBRANCH   8   9
ENDBRANCH   7   8
ENDBRANCH   6   7
ENDBRANCH   5   6
ENDBRANCH   4   5
ENDBRANCH   3   4
ENDBRANCH   2   3
ENDBRANCH   1   2
BRANCH   1  12
ATOM     12  C   UNL     1     -20.239  33.521 -38.955  1.00  0.00     0.000 C 
BRANCH  12  13
ATOM     13  C   UNL     1     -21.719  33.777 -39.292  1.00  0.00    -0.000 C 
BRANCH  13  14
ATOM     14  C   UNL     1     -22.677  33.262 -38.203  1.00  0.00    -0.000 C 
BRANCH  14  15
ATOM     15  C   UNL     1     -22.007  32.554 -37.005  1.00  0.00    -0.000 C 
BRANCH  15  16
ATOM     16  C   UNL     1     -22.104  31.015 -37.012  1.00  0.00    -0.000 C 
BRANCH  16  17
ATOM     17  C   UNL     1     -22.977  30.444 -38.153  1.00  0.00    -0.000 C 
BRANCH  17  18
ATOM     18  C   UNL     1     -22.893  28.910 -38.288  1.00  0.00    -0.000 C 
BRANCH  18  19
ATOM     19  C   UNL     1     -21.460  28.346 -38.316  1.00  0.00    -0.003 C 
ATOM     20  C   UNL     1     -21.167  27.523 -39.573  1.00  0.00     0.004 C 
ENDBRANCH  18  19
ENDBRANCH  17  18
ENDBRANCH  16  17
ENDBRANCH  15  16
ENDBRANCH  14  15
ENDBRANCH  13  14
ENDBRANCH  12  13
ENDBRANCH   1  12
TORSDOF 16
ENDMDL
MODEL 8
REMARK VINA RESULT:    -3.678      1.804      4.254
REMARK INTER + INTRA:          -9.623
REMARK INTER:                  -7.431
REMARK INTRA:                  -2.192
REMARK UNBOUND:                -2.505
REMARK SMILES CCCCCCCCCCCCCCCCCC(=O)[O-]
REMARK SMILES IDX 10 1 11 2 12 3 13 4 14 5 15 6 16 7 17 8 18 9 19 10 20 11
REMARK SMILES IDX 9 12 8 13 7 14 6 15 5 16 4 17 3 18 2 19 1 20
REMARK H PARENT
REMARK Flexibility Score: inf
ROOT
ATOM      1  C   UNL     1     -19.214  30.430 -42.390  1.00  0.00     0.000 C 
ENDROOT
BRANCH   1   2
ATOM      2  C   UNL     1     -20.710  30.477 -42.039  1.00  0.00     0.000 C 
BRANCH   2   3
ATOM      3  C   UNL     1     -20.997  29.683 -40.758  1.00  0.00     0.000 C 
BRANCH   3   4
ATOM      4  C   UNL     1     -22.267  30.192 -40.067  1.00  0.00     0.000 C 
BRANCH   4   5
ATOM      5  C   UNL     1     -23.029  31.174 -40.966  1.00  0.00     0.000 C 
BRANCH   5   6
ATOM      6  C   UNL     1     -24.312  30.535 -41.518  1.00  0.00     0.000 C 
BRANCH   6   7
ATOM      7  C   UNL     1     -24.414  29.036 -41.195  1.00  0.00     0.006 C 
BRANCH   7   8
ATOM      8  C   UNL     1     -25.625  28.366 -41.860  1.00  0.00     0.053 C 
BRANCH   8   9
ATOM      9  C   UNL     1     -26.898  28.975 -41.363  1.00  0.00     0.041 C 
ATOM     10  O   UNL     1     -27.256  28.809 -40.166  1.00  0.00    -0.550 OA
ATOM     11  O   UNL     1     -27.676  29.750 -42.214  1.00  0.00    -0.550 OA
ENDBRANCH   8   9
ENDBRANCH   7   8
ENDBRANCH   6   7
ENDBRANCH   5   6
ENDBRANCH   4   5
ENDBRANCH   3   4
ENDBRANCH   2   3
ENDBRANCH   1   2
BRANCH   1  12
ATOM     12  C   UNL     1     -18.701  31.749 -42.992  1.00  0.00     0.000 C 
BRANCH  12  13
ATOM     13  C   UNL     1     -17.426  32.262 -42.301  1.00  0.00    -0.000 C 
BRANCH  13  14
ATOM     14  C   UNL     1     -17.052  31.443 -41.053  1.00  0.00    -0.000 C 
BRANCH  14  15
ATOM     15  C   UNL     1     -17.251  32.159 -39.699  1.00  0.00    -0.000 C 
BRANCH  15  16
ATOM     16  C   UNL     1     -18.629  31.947 -39.038  1.00  0.00    -0.000 C 
BRANCH  16  17
ATOM     17  C   UNL     1     -19.678  33.019 -39.412  1.00  0.00    -0.000 C 
BRANCH  17  18
ATOM     18  C   UNL     1     -20.732  33.263 -38.313  1.00  0.00    -0.000 C 
BRANCH  18  19
ATOM     19  C   UNL     1     -22.011  33.972 -38.797  1.00  0.00    -0.003 C 
ATOM     20  C   UNL     1     -23.127  33.971 -37.750  1.00  0.00     0.004 C 
ENDBRANCH  18  19
ENDBRANCH  17  18
ENDBRANCH  16  17
ENDBRANCH  15  16
ENDBRANCH  14  15
ENDBRANCH  13  14
ENDBRANCH  12  13
ENDBRANCH   1  12
TORSDOF 16
ENDMDL
MODEL 9
REMARK VINA RESULT:    -3.651      1.820      4.186
REMARK INTER + INTRA:          -9.570
REMARK INTER:                  -6.538
REMARK INTRA:                  -3.032
REMARK UNBOUND:                -2.505
REMARK SMILES CCCCCCCCCCCCCCCCCC(=O)[O-]
REMARK SMILES IDX 10 1 11 2 12 3 13 4 14 5 15 6 16 7 17 8 18 9 19 10 20 11
REMARK SMILES IDX 9 12 8 13 7 14 6 15 5 16 4 17 3 18 2 19 1 20
REMARK H PARENT
REMARK Flexibility Score: inf
ROOT
ATOM      1  C   UNL     1     -19.316  32.665 -39.578  1.00  0.00     0.000 C 
ENDROOT
BRANCH   1   2
ATOM      2  C   UNL     1     -20.747  33.083 -39.953  1.00  0.00     0.000 C 
BRANCH   2   3
ATOM      3  C   UNL     1     -21.301  34.103 -38.950  1.00  0.00     0.000 C 
BRANCH   3   4
ATOM      4  C   UNL     1     -22.635  33.629 -38.361  1.00  0.00     0.000 C 
BRANCH   4   5
ATOM      5  C   UNL     1     -23.286  32.567 -39.256  1.00  0.00     0.000 C 
BRANCH   5   6
ATOM      6  C   UNL     1     -24.202  31.644 -38.438  1.00  0.00     0.000 C 
BRANCH   6   7
ATOM      7  C   UNL     1     -25.103  30.767 -39.322  1.00  0.00     0.006 C 
BRANCH   7   8
ATOM      8  C   UNL     1     -25.453  31.435 -40.660  1.00  0.00     0.053 C 
BRANCH   8   9
ATOM      9  C   UNL     1     -26.201  30.484 -41.539  1.00  0.00     0.041 C 
ATOM     10  O   UNL     1     -27.318  30.811 -42.023  1.00  0.00    -0.550 OA
ATOM     11  O   UNL     1     -25.651  29.247 -41.848  1.00  0.00    -0.550 OA
ENDBRANCH   8   9
ENDBRANCH   7   8
ENDBRANCH   6   7
ENDBRANCH   5   6
ENDBRANCH   4   5
ENDBRANCH   3   4
ENDBRANCH   2   3
ENDBRANCH   1   2
BRANCH   1  12
ATOM     12  C   UNL     1     -18.607  31.888 -40.699  1.00  0.00     0.000 C 
BRANCH  12  13
ATOM     13  C   UNL     1     -19.434  31.826 -41.995  1.00  0.00    -0.000 C 
BRANCH  13  14
ATOM     14  C   UNL     1     -19.851  30.392 -42.370  1.00  0.00    -0.000 C 
BRANCH  14  15
ATOM     15  C   UNL     1     -21.359  30.180 -42.624  1.00  0.00    -0.000 C 
BRANCH  15  16
ATOM     16  C   UNL     1     -22.184  29.766 -41.388  1.00  0.00    -0.000 C 
BRANCH  16  17
ATOM     17  C   UNL     1     -21.429  28.837 -40.411  1.00  0.00    -0.000 C 
BRANCH  17  18
ATOM     18  C   UNL     1     -21.228  29.446 -39.008  1.00  0.00    -0.000 C 
BRANCH  18  19
ATOM     19  C   UNL     1     -19.829  29.223 -38.405  1.00  0.00    -0.003 C 
ATOM     20  C   UNL     1     -18.896  28.441 -39.333  1.00  0.00     0.004 C 
ENDBRANCH  18  19
ENDBRANCH  17  18
ENDBRANCH  16  17
ENDBRANCH  15  16
ENDBRANCH  14  15
ENDBRANCH  13  14
ENDBRANCH  12  13
ENDBRANCH   1  12
TORSDOF 16
ENDMDL
