MODEL 1
REMARK VINA RESULT:     2.200      0.000      0.000
REMARK INTER + INTRA:           2.878
REMARK INTER:                   3.744
REMARK INTRA:                  -0.867
REMARK UNBOUND:                -0.867
REMARK SMILES CCCCCCCCCCCCCC(=O)[O-]
REMARK SMILES IDX 8 1 9 2 10 3 11 4 12 5 13 6 14 7 15 8 16 9 7 10 6 11 5 12
REMARK SMILES IDX 4 13 3 14 2 15 1 16
REMARK H PARENT
REMARK Flexibility Score: inf
ROOT
ATOM      1  C   UNL     1      11.131  16.861   1.063  1.00  0.00     0.000 C 
ENDROOT
BRANCH   1   2
ATOM      2  C   UNL     1      12.536  16.358   1.444  1.00  0.00     0.000 C 
BRANCH   2   3
ATOM      3  C   UNL     1      12.575  14.976   2.120  1.00  0.00     0.000 C 
BRANCH   3   4
ATOM      4  C   UNL     1      11.243  14.214   2.003  1.00  0.00     0.000 C 
BRANCH   4   5
ATOM      5  C   UNL     1      11.331  13.014   1.046  1.00  0.00     0.006 C 
BRANCH   5   6
ATOM      6  C   UNL     1      12.013  13.370  -0.281  1.00  0.00     0.053 C 
BRANCH   6   7
ATOM      7  C   UNL     1      11.105  14.205  -1.126  1.00  0.00     0.041 C 
ATOM      8  O   UNL     1      11.547  14.774  -2.159  1.00  0.00    -0.550 OA
ATOM      9  O   UNL     1       9.782  14.396  -0.749  1.00  0.00    -0.550 OA
ENDBRANCH   6   7
ENDBRANCH   5   6
ENDBRANCH   4   5
ENDBRANCH   3   4
ENDBRANCH   2   3
ENDBRANCH   1   2
BRANCH   1  10
ATOM     10  C   UNL     1      10.521  17.796   2.122  1.00  0.00     0.000 C 
BRANCH  10  11
ATOM     11  C   UNL     1       9.016  18.040   1.912  1.00  0.00    -0.000 C 
BRANCH  11  12
ATOM     12  C   UNL     1       8.257  16.904   1.192  1.00  0.00    -0.000 C 
BRANCH  12  13
ATOM     13  C   UNL     1       7.387  16.018   2.103  1.00  0.00    -0.000 C 
BRANCH  13  14
ATOM     14  C   UNL     1       7.509  14.505   1.841  1.00  0.00    -0.000 C 
BRANCH  14  15
ATOM     15  C   UNL     1       6.162  13.756   1.888  1.00  0.00    -0.003 C 
ATOM     16  C   UNL     1       5.221  14.158   0.753  1.00  0.00     0.004 C 
ENDBRANCH  14  15
ENDBRANCH  13  14
ENDBRANCH  12  13
ENDBRANCH  11  12
ENDBRANCH  10  11
ENDBRANCH   1  10
TORSDOF 12
ENDMDL
MODEL 2
REMARK VINA RESULT:     3.428      3.809      6.737
REMARK INTER + INTRA:           4.967
REMARK INTER:                   5.524
REMARK INTRA:                  -0.557
REMARK UNBOUND:                -0.867
REMARK SMILES CCCCCCCCCCCCCC(=O)[O-]
REMARK SMILES IDX 8 1 9 2 10 3 11 4 12 5 13 6 14 7 15 8 16 9 7 10 6 11 5 12
REMARK SMILES IDX 4 13 3 14 2 15 1 16
REMARK H PARENT
REMARK Flexibility Score: inf
ROOT
ATOM      1  C   UNL     1      11.109  14.304  -1.633  1.00  0.00     0.000 C 
ENDROOT
BRANCH   1   2
ATOM      2  C   UNL     1      11.087  13.097  -0.678  1.00  0.00     0.000 C 
BRANCH   2   3
ATOM      3  C   UNL     1      12.251  13.038   0.327  1.00  0.00     0.000 C 
BRANCH   3   4
ATOM      4  C   UNL     1      11.802  13.286   1.779  1.00  0.00     0.000 C 
BRANCH   4   5
ATOM      5  C   UNL     1      11.713  14.782   2.121  1.00  0.00     0.006 C 
BRANCH   5   6
ATOM      6  C   UNL     1      10.275  15.314   2.060  1.00  0.00     0.053 C 
BRANCH   6   7
ATOM      7  C   UNL     1      10.273  16.771   1.721  1.00  0.00     0.041 C 
ATOM      8  O   UNL     1       9.184  17.389   1.590  1.00  0.00    -0.550 OA
ATOM      9  O   UNL     1      11.473  17.436   1.501  1.00  0.00    -0.550 OA
ENDBRANCH   6   7
ENDBRANCH   5   6
ENDBRANCH   4   5
ENDBRANCH   3   4
ENDBRANCH   2   3
ENDBRANCH   1   2
BRANCH   1  10
ATOM     10  C   UNL     1      10.206  14.112  -2.864  1.00  0.00     0.000 C 
BRANCH  10  11
ATOM     11  C   UNL     1      10.942  14.359  -4.193  1.00  0.00    -0.000 C 
BRANCH  11  12
ATOM     12  C   UNL     1      10.964  15.825  -4.675  1.00  0.00    -0.000 C 
BRANCH  12  13
ATOM     13  C   UNL     1      11.986  16.135  -5.785  1.00  0.00    -0.000 C 
BRANCH  13  14
ATOM     14  C   UNL     1      12.505  17.585  -5.800  1.00  0.00    -0.000 C 
BRANCH  14  15
ATOM     15  C   UNL     1      13.852  17.755  -6.532  1.00  0.00    -0.003 C 
ATOM     16  C   UNL     1      14.222  16.538  -7.379  1.00  0.00     0.004 C 
ENDBRANCH  14  15
ENDBRANCH  13  14
ENDBRANCH  12  13
ENDBRANCH  11  12
ENDBRANCH  10  11
ENDBRANCH   1  10
TORSDOF 12
ENDMDL
MODEL 3
REMARK VINA RESULT:     4.100      3.505      5.667
REMARK INTER + INTRA:           6.109
REMARK INTER:                   6.283
REMARK INTRA:                  -0.174
REMARK UNBOUND:                -0.867
REMARK SMILES CCCCCCCCCCCCCC(=O)[O-]
REMARK SMILES IDX 8 1 9 2 10 3 11 4 12 5 13 6 14 7 15 8 16 9 7 10 6 11 5 12
REMARK SMILES IDX 4 13 3 14 2 15 1 16
REMARK H PARENT
REMARK Flexibility Score: inf
ROOT
ATOM      1  C   UNL     1      11.588  14.123  -1.105  1.00  0.00     0.000 C 
ENDROOT
BRANCH   1   2
ATOM      2  C   UNL     1      10.476  14.094  -2.169  1.00  0.00     0.000 C 
BRANCH   2   3
ATOM      3  C   UNL     1      10.957  14.247  -3.623  1.00  0.00     0.000 C 
BRANCH   3   4
ATOM      4  C   UNL     1      11.171  15.715  -4.032  1.00  0.00     0.000 C 
BRANCH   4   5
ATOM      5  C   UNL     1      11.686  15.858  -5.472  1.00  0.00     0.006 C 
BRANCH   5   6
ATOM      6  C   UNL     1      12.106  17.296  -5.806  1.00  0.00     0.053 C 
BRANCH   6   7
ATOM      7  C   UNL     1      13.419  17.303  -6.522  1.00  0.00     0.041 C 
ATOM      8  O   UNL     1      13.781  16.300  -7.192  1.00  0.00    -0.550 OA
ATOM      9  O   UNL     1      14.266  18.399  -6.412  1.00  0.00    -0.550 OA
ENDBRANCH   6   7
ENDBRANCH   5   6
ENDBRANCH   4   5
ENDBRANCH   3   4
ENDBRANCH   2   3
ENDBRANCH   1   2
BRANCH   1  10
ATOM     10  C   UNL     1      11.557  12.900  -0.171  1.00  0.00     0.000 C 
BRANCH  10  11
ATOM     11  C   UNL     1      12.075  13.213   1.244  1.00  0.00    -0.000 C 
BRANCH  11  12
ATOM     12  C   UNL     1      11.126  14.054   2.124  1.00  0.00    -0.000 C 
BRANCH  12  13
ATOM     13  C   UNL     1       9.834  14.525   1.432  1.00  0.00    -0.000 C 
BRANCH  13  14
ATOM     14  C   UNL     1       9.190  15.781   2.048  1.00  0.00    -0.000 C 
BRANCH  14  15
ATOM     15  C   UNL     1       9.664  17.101   1.404  1.00  0.00    -0.003 C 
ATOM     16  C   UNL     1      11.186  17.208   1.327  1.00  0.00     0.004 C 
ENDBRANCH  14  15
ENDBRANCH  13  14
ENDBRANCH  12  13
ENDBRANCH  11  12
ENDBRANCH  10  11
ENDBRANCH   1  10
TORSDOF 12
ENDMDL
MODEL 4
REMARK VINA RESULT:     4.732      3.211      6.136
REMARK INTER + INTRA:           7.185
REMARK INTER:                   7.729
REMARK INTRA:                  -0.544
REMARK UNBOUND:                -0.867
REMARK SMILES CCCCCCCCCCCCCC(=O)[O-]
REMARK SMILES IDX 8 1 9 2 10 3 11 4 12 5 13 6 14 7 15 8 16 9 7 10 6 11 5 12
REMARK SMILES IDX 4 13 3 14 2 15 1 16
REMARK H PARENT
REMARK Flexibility Score: inf
ROOT
ATOM      1  C   UNL     1      11.912  13.777  -1.102  1.00  0.00     0.000 C 
ENDROOT
BRANCH   1   2
ATOM      2  C   UNL     1      12.145  12.922   0.157  1.00  0.00     0.000 C 
BRANCH   2   3
ATOM      3  C   UNL     1      12.311  13.715   1.465  1.00  0.00     0.000 C 
BRANCH   3   4
ATOM      4  C   UNL     1      11.722  15.135   1.383  1.00  0.00     0.000 C 
BRANCH   4   5
ATOM      5  C   UNL     1      10.378  15.260   2.116  1.00  0.00     0.006 C 
BRANCH   5   6
ATOM      6  C   UNL     1       9.681  16.598   1.842  1.00  0.00     0.053 C 
BRANCH   6   7
ATOM      7  C   UNL     1       8.206  16.471   2.053  1.00  0.00     0.041 C 
ATOM      8  O   UNL     1       7.672  15.333   2.125  1.00  0.00    -0.550 OA
ATOM      9  O   UNL     1       7.411  17.609   2.123  1.00  0.00    -0.550 OA
ENDBRANCH   6   7
ENDBRANCH   5   6
ENDBRANCH   4   5
ENDBRANCH   3   4
ENDBRANCH   2   3
ENDBRANCH   1   2
BRANCH   1  10
ATOM     10  C   UNL     1      10.423  14.060  -1.368  1.00  0.00     0.000 C 
BRANCH  10  11
ATOM     11  C   UNL     1      10.170  14.685  -2.752  1.00  0.00    -0.000 C 
BRANCH  11  12
ATOM     12  C   UNL     1      10.599  13.820  -3.957  1.00  0.00    -0.000 C 
BRANCH  12  13
ATOM     13  C   UNL     1      11.482  14.535  -4.996  1.00  0.00    -0.000 C 
BRANCH  13  14
ATOM     14  C   UNL     1      11.591  16.061  -4.812  1.00  0.00    -0.000 C 
BRANCH  14  15
ATOM     15  C   UNL     1      11.870  16.825  -6.123  1.00  0.00    -0.003 C 
ATOM     16  C   UNL     1      13.077  17.757  -6.018  1.00  0.00     0.004 C 
ENDBRANCH  14  15
ENDBRANCH  13  14
ENDBRANCH  12  13
ENDBRANCH  11  12
ENDBRANCH  10  11
ENDBRANCH   1  10
TORSDOF 12
ENDMDL
