MODEL 1
REMARK VINA RESULT:     0.157      0.000      0.000
REMARK INTER + INTRA:          -0.053
REMARK INTER:                   0.171
REMARK INTRA:                  -0.225
REMARK UNBOUND:                -0.225
REMARK SMILES C[C@@H]1[C@@H](C)CC[C@@]2(C(=O)[O-])CC[C@@]3(C)C(=CC[C@@H]4[C@]5(C)CC[C@H](O)C(C)(C)[C@@H]5CC[C@@]43C)[C@@H]12
REMARK SMILES IDX 7 1 6 2 11 3 33 4 5 5 12 6 15 7 2 8 3 9 13 10 16 11 1 12
REMARK SMILES IDX 4 13 14 14 31 15 17 16 18 17 30 18 32 19 19 20 29 21 28 22
REMARK SMILES IDX 21 23 20 24 25 25 22 26 23 27 26 28 27 29 8 30 9 31 10 32
REMARK SMILES IDX 24 33
REMARK H PARENT 24 34
REMARK Flexibility Score: inf
ROOT
ATOM      1  C   UNL     1      -5.614  40.759   1.252  1.00  0.00     0.017 C 
ATOM      2  C   UNL     1      -4.948  42.117   1.648  1.00  0.00     0.014 C 
ATOM      3  C   UNL     1      -5.743  40.726  -0.299  1.00  0.00     0.014 C 
ATOM      4  C   UNL     1      -4.762  39.537   1.755  1.00  0.00     0.030 C 
ATOM      5  C   UNL     1      -4.070  42.002   2.896  1.00  0.00     0.004 C 
ATOM      6  C   UNL     1      -6.229  39.375  -0.866  1.00  0.00     0.013 C 
ATOM      7  C   UNL     1      -5.217  38.229   1.070  1.00  0.00    -0.063 C 
ATOM      8  C   UNL     1      -3.230  39.812   1.757  1.00  0.00    -0.003 C 
ATOM      9  C   UNL     1      -2.877  41.039   2.670  1.00  0.00    -0.011 C 
ATOM     10  C   UNL     1      -5.349  38.138  -0.466  1.00  0.00    -0.006 C 
ATOM     11  C   UNL     1      -5.794  37.322   1.880  1.00  0.00    -0.027 C 
ATOM     12  C   UNL     1      -2.441  38.575   2.233  1.00  0.00     0.008 C 
ATOM     13  C   UNL     1      -1.660  41.802   2.119  1.00  0.00     0.008 C 
ATOM     14  C   UNL     1      -3.939  38.291  -1.129  1.00  0.00     0.017 C 
ATOM     15  C   UNL     1      -6.013  36.738  -0.979  1.00  0.00    -0.020 C 
ATOM     16  C   UNL     1      -6.601  36.160   1.430  1.00  0.00     0.032 C 
ATOM     17  C   UNL     1      -7.160  36.260  -0.017  1.00  0.00     0.006 C 
ATOM     18  C   UNL     1      -4.954  35.578  -1.026  1.00  0.00     0.008 C 
ATOM     19  C   UNL     1      -6.564  36.980  -2.428  1.00  0.00     0.012 C 
ATOM     20  C   UNL     1      -7.930  34.912  -0.493  1.00  0.00    -0.025 C 
ATOM     21  C   UNL     1      -5.486  34.123  -0.882  1.00  0.00     0.005 C 
ATOM     22  C   UNL     1      -6.966  33.918  -1.297  1.00  0.00     0.003 C 
ATOM     23  C   UNL     1      -8.568  34.185   0.748  1.00  0.00     0.010 C 
ATOM     24  C   UNL     1      -9.122  35.355  -1.410  1.00  0.00     0.012 C 
ATOM     25  C   UNL     1      -7.424  32.385  -1.383  1.00  0.00    -0.006 C 
ATOM     26  C   UNL     1      -9.125  32.789   0.477  1.00  0.00     0.033 C 
ATOM     27  C   UNL     1      -8.020  31.867  -0.045  1.00  0.00     0.120 C 
ATOM     28  C   UNL     1      -6.254  31.439  -1.781  1.00  0.00     0.014 C 
ATOM     29  C   UNL     1      -8.474  32.201  -2.519  1.00  0.00     0.014 C 
ENDROOT
BRANCH   1  30
ATOM     30  C   UNL     1      -7.003  40.711   1.894  1.00  0.00     0.048 C 
ATOM     31  O   UNL     1      -8.010  41.179   1.297  1.00  0.00    -0.550 OA
ATOM     32  O   UNL     1      -7.164  40.243   3.194  1.00  0.00    -0.550 OA
ENDBRANCH   1  30
BRANCH  27  33
ATOM     33  O   UNL     1      -7.009  31.738   0.925  1.00  0.00    -0.393 OA
ATOM     34  H   UNL     1      -7.458  31.570   1.795  1.00  0.00     0.210 HD
ENDBRANCH  27  33
TORSDOF 2
ENDMDL
MODEL 2
REMARK VINA RESULT:     1.612      2.302      7.888
REMARK INTER + INTRA:           1.529
REMARK INTER:                   1.190
REMARK INTRA:                   0.339
REMARK UNBOUND:                -0.225
REMARK SMILES C[C@@H]1[C@@H](C)CC[C@@]2(C(=O)[O-])CC[C@@]3(C)C(=CC[C@@H]4[C@]5(C)CC[C@H](O)C(C)(C)[C@@H]5CC[C@@]43C)[C@@H]12
REMARK SMILES IDX 7 1 6 2 11 3 33 4 5 5 12 6 15 7 2 8 3 9 13 10 16 11 1 12
REMARK SMILES IDX 4 13 14 14 31 15 17 16 18 17 30 18 32 19 19 20 29 21 28 22
REMARK SMILES IDX 21 23 20 24 25 25 22 26 23 27 26 28 27 29 8 30 9 31 10 32
REMARK SMILES IDX 24 33
REMARK H PARENT 24 34
REMARK Flexibility Score: inf
ROOT
ATOM      1  C   UNL     1      -7.606  32.694   0.527  1.00  0.00     0.017 C 
ATOM      2  C   UNL     1      -7.760  31.137   0.538  1.00  0.00     0.014 C 
ATOM      3  C   UNL     1      -6.087  33.022   0.444  1.00  0.00     0.014 C 
ATOM      4  C   UNL     1      -8.371  33.335  -0.687  1.00  0.00     0.030 C 
ATOM      5  C   UNL     1      -9.042  30.666  -0.152  1.00  0.00     0.004 C 
ATOM      6  C   UNL     1      -5.772  34.521   0.254  1.00  0.00     0.013 C 
ATOM      7  C   UNL     1      -7.934  34.801  -0.902  1.00  0.00    -0.063 C 
ATOM      8  C   UNL     1      -8.384  32.432  -1.955  1.00  0.00    -0.003 C 
ATOM      9  C   UNL     1      -9.057  31.046  -1.655  1.00  0.00    -0.011 C 
ATOM     10  C   UNL     1      -6.440  35.180  -1.005  1.00  0.00    -0.006 C 
ATOM     11  C   UNL     1      -8.879  35.728  -0.660  1.00  0.00    -0.027 C 
ATOM     12  C   UNL     1      -9.122  33.118  -3.122  1.00  0.00     0.008 C 
ATOM     13  C   UNL     1      -8.419  29.931  -2.502  1.00  0.00     0.008 C 
ATOM     14  C   UNL     1      -5.819  34.542  -2.293  1.00  0.00     0.017 C 
ATOM     15  C   UNL     1      -6.181  36.790  -1.049  1.00  0.00    -0.020 C 
ATOM     16  C   UNL     1      -8.629  37.179  -0.468  1.00  0.00     0.032 C 
ATOM     17  C   UNL     1      -7.168  37.557  -0.097  1.00  0.00     0.006 C 
ATOM     18  C   UNL     1      -6.402  37.374  -2.490  1.00  0.00     0.008 C 
ATOM     19  C   UNL     1      -4.690  37.040  -0.625  1.00  0.00     0.012 C 
ATOM     20  C   UNL     1      -6.930  39.162  -0.018  1.00  0.00    -0.025 C 
ATOM     21  C   UNL     1      -6.802  38.874  -2.597  1.00  0.00     0.005 C 
ATOM     22  C   UNL     1      -6.374  39.758  -1.396  1.00  0.00     0.003 C 
ATOM     23  C   UNL     1      -8.260  39.888   0.404  1.00  0.00     0.010 C 
ATOM     24  C   UNL     1      -5.896  39.424   1.131  1.00  0.00     0.012 C 
ATOM     25  C   UNL     1      -6.567  41.331  -1.630  1.00  0.00    -0.006 C 
ATOM     26  C   UNL     1      -8.241  41.410   0.295  1.00  0.00     0.033 C 
ATOM     27  C   UNL     1      -7.954  41.838  -1.146  1.00  0.00     0.120 C 
ATOM     28  C   UNL     1      -6.408  41.732  -3.125  1.00  0.00     0.014 C 
ATOM     29  C   UNL     1      -5.446  42.124  -0.895  1.00  0.00     0.014 C 
ENDROOT
BRANCH   1  30
ATOM     30  C   UNL     1      -8.187  33.232   1.837  1.00  0.00     0.048 C 
ATOM     31  O   UNL     1      -9.039  34.163   1.835  1.00  0.00    -0.550 OA
ATOM     32  O   UNL     1      -7.710  32.778   3.061  1.00  0.00    -0.550 OA
ENDBRANCH   1  30
BRANCH  27  33
ATOM     33  O   UNL     1      -8.972  41.366  -1.995  1.00  0.00    -0.393 OA
ATOM     34  H   UNL     1      -9.499  42.155  -2.287  1.00  0.00     0.210 HD
ENDBRANCH  27  33
TORSDOF 2
ENDMDL
