MODEL 1
REMARK VINA RESULT:    -5.238      0.000      0.000
REMARK INTER + INTRA:          -9.179
REMARK INTER:                  -8.300
REMARK INTRA:                  -0.878
REMARK UNBOUND:                -0.878
REMARK SMILES CCCCCCCCCCCC(=O)[O-]
REMARK SMILES IDX 7 1 8 2 9 3 10 4 11 5 12 6 13 7 14 8 6 9 5 10 4 11 3 12 2 13
REMARK SMILES IDX 1 14
REMARK H PARENT
REMARK Flexibility Score: inf
ROOT
ATOM      1  C   UNL     1      11.679   3.566  55.272  1.00  0.00     0.000 C 
ENDROOT
BRANCH   1   2
ATOM      2  C   UNL     1      11.650   3.861  53.763  1.00  0.00     0.000 C 
BRANCH   2   3
ATOM      3  C   UNL     1      12.568   5.027  53.369  1.00  0.00     0.000 C 
BRANCH   3   4
ATOM      4  C   UNL     1      11.809   6.059  52.520  1.00  0.00     0.006 C 
BRANCH   4   5
ATOM      5  C   UNL     1      11.786   7.446  53.176  1.00  0.00     0.053 C 
BRANCH   5   6
ATOM      6  C   UNL     1      10.997   7.445  54.450  1.00  0.00     0.041 C 
ATOM      7  O   UNL     1      11.468   7.979  55.488  1.00  0.00    -0.550 OA
ATOM      8  O   UNL     1       9.754   6.825  54.497  1.00  0.00    -0.550 OA
ENDBRANCH   5   6
ENDBRANCH   4   5
ENDBRANCH   3   4
ENDBRANCH   2   3
ENDBRANCH   1   2
BRANCH   1   9
ATOM      9  C   UNL     1      12.818   4.306  55.996  1.00  0.00     0.000 C 
BRANCH   9  10
ATOM     10  C   UNL     1      14.006   3.389  56.339  1.00  0.00    -0.000 C 
BRANCH  10  11
ATOM     11  C   UNL     1      15.320   3.728  55.611  1.00  0.00    -0.000 C 
BRANCH  11  12
ATOM     12  C   UNL     1      16.229   2.503  55.416  1.00  0.00    -0.000 C 
BRANCH  12  13
ATOM     13  C   UNL     1      15.791   1.302  56.270  1.00  0.00    -0.003 C 
ATOM     14  C   UNL     1      16.550   0.023  55.922  1.00  0.00     0.004 C 
ENDBRANCH  12  13
ENDBRANCH  11  12
ENDBRANCH  10  11
ENDBRANCH   9  10
ENDBRANCH   1   9
TORSDOF 10
ENDMDL
MODEL 2
REMARK VINA RESULT:    -5.063      3.009      6.282
REMARK INTER + INTRA:          -8.901
REMARK INTER:                  -7.641
REMARK INTRA:                  -1.260
REMARK UNBOUND:                -0.878
REMARK SMILES CCCCCCCCCCCC(=O)[O-]
REMARK SMILES IDX 7 1 8 2 9 3 10 4 11 5 12 6 13 7 14 8 6 9 5 10 4 11 3 12 2 13
REMARK SMILES IDX 1 14
REMARK H PARENT
REMARK Flexibility Score: inf
ROOT
ATOM      1  C   UNL     1      12.480   4.740  53.584  1.00  0.00     0.000 C 
ENDROOT
BRANCH   1   2
ATOM      2  C   UNL     1      11.342   3.712  53.697  1.00  0.00     0.000 C 
BRANCH   2   3
ATOM      3  C   UNL     1      10.534   3.862  54.995  1.00  0.00     0.000 C 
BRANCH   3   4
ATOM      4  C   UNL     1      11.400   4.466  56.112  1.00  0.00     0.006 C 
BRANCH   4   5
ATOM      5  C   UNL     1      11.638   3.478  57.262  1.00  0.00     0.053 C 
BRANCH   5   6
ATOM      6  C   UNL     1      12.902   2.697  57.070  1.00  0.00     0.041 C 
ATOM      7  O   UNL     1      13.793   3.115  56.284  1.00  0.00    -0.550 OA
ATOM      8  O   UNL     1      13.081   1.490  57.734  1.00  0.00    -0.550 OA
ENDBRANCH   5   6
ENDBRANCH   4   5
ENDBRANCH   3   4
ENDBRANCH   2   3
ENDBRANCH   1   2
BRANCH   1   9
ATOM      9  C   UNL     1      12.156   5.872  52.593  1.00  0.00     0.000 C 
BRANCH   9  10
ATOM     10  C   UNL     1      11.718   7.173  53.291  1.00  0.00    -0.000 C 
BRANCH  10  11
ATOM     11  C   UNL     1      10.308   7.668  52.919  1.00  0.00    -0.000 C 
BRANCH  11  12
ATOM     12  C   UNL     1       9.211   7.086  53.826  1.00  0.00    -0.000 C 
BRANCH  12  13
ATOM     13  C   UNL     1       9.375   7.511  55.295  1.00  0.00    -0.003 C 
ATOM     14  C   UNL     1       9.299   9.025  55.483  1.00  0.00     0.004 C 
ENDBRANCH  12  13
ENDBRANCH  11  12
ENDBRANCH  10  11
ENDBRANCH   9  10
ENDBRANCH   1   9
TORSDOF 10
ENDMDL
MODEL 3
REMARK VINA RESULT:    -5.005      1.620      2.562
REMARK INTER + INTRA:          -8.809
REMARK INTER:                  -7.865
REMARK INTRA:                  -0.943
REMARK UNBOUND:                -0.878
REMARK SMILES CCCCCCCCCCCC(=O)[O-]
REMARK SMILES IDX 7 1 8 2 9 3 10 4 11 5 12 6 13 7 14 8 6 9 5 10 4 11 3 12 2 13
REMARK SMILES IDX 1 14
REMARK H PARENT
REMARK Flexibility Score: inf
ROOT
ATOM      1  C   UNL     1      10.667   3.278  54.497  1.00  0.00     0.000 C 
ENDROOT
BRANCH   1   2
ATOM      2  C   UNL     1       9.480   4.186  54.857  1.00  0.00     0.000 C 
BRANCH   2   3
ATOM      3  C   UNL     1       9.800   5.153  56.007  1.00  0.00     0.000 C 
BRANCH   3   4
ATOM      4  C   UNL     1       9.636   6.613  55.557  1.00  0.00     0.006 C 
BRANCH   4   5
ATOM      5  C   UNL     1       9.243   6.725  54.078  1.00  0.00     0.053 C 
BRANCH   5   6
ATOM      6  C   UNL     1      10.239   7.525  53.297  1.00  0.00     0.041 C 
ATOM      7  O   UNL     1       9.955   7.940  52.142  1.00  0.00    -0.550 OA
ATOM      8  O   UNL     1      11.495   7.785  53.832  1.00  0.00    -0.550 OA
ENDBRANCH   5   6
ENDBRANCH   4   5
ENDBRANCH   3   4
ENDBRANCH   2   3
ENDBRANCH   1   2
BRANCH   1   9
ATOM      9  C   UNL     1      11.635   3.940  53.500  1.00  0.00     0.000 C 
BRANCH   9  10
ATOM     10  C   UNL     1      12.856   4.580  54.185  1.00  0.00    -0.000 C 
BRANCH  10  11
ATOM     11  C   UNL     1      13.297   3.900  55.495  1.00  0.00    -0.000 C 
BRANCH  11  12
ATOM     12  C   UNL     1      14.825   3.758  55.610  1.00  0.00    -0.000 C 
BRANCH  12  13
ATOM     13  C   UNL     1      15.246   2.410  56.217  1.00  0.00    -0.003 C 
ATOM     14  C   UNL     1      16.448   1.792  55.504  1.00  0.00     0.004 C 
ENDBRANCH  12  13
ENDBRANCH  11  12
ENDBRANCH  10  11
ENDBRANCH   9  10
ENDBRANCH   1   9
TORSDOF 10
ENDMDL
MODEL 4
REMARK VINA RESULT:    -4.987      1.346      2.132
REMARK INTER + INTRA:          -8.781
REMARK INTER:                  -8.231
REMARK INTRA:                  -0.549
REMARK UNBOUND:                -0.878
REMARK SMILES CCCCCCCCCCCC(=O)[O-]
REMARK SMILES IDX 7 1 8 2 9 3 10 4 11 5 12 6 13 7 14 8 6 9 5 10 4 11 3 12 2 13
REMARK SMILES IDX 1 14
REMARK H PARENT
REMARK Flexibility Score: inf
ROOT
ATOM      1  C   UNL     1      13.144   4.427  55.641  1.00  0.00     0.000 C 
ENDROOT
BRANCH   1   2
ATOM      2  C   UNL     1      12.443   4.037  54.329  1.00  0.00     0.000 C 
BRANCH   2   3
ATOM      3  C   UNL     1      10.923   3.894  54.489  1.00  0.00     0.000 C 
BRANCH   3   4
ATOM      4  C   UNL     1      10.409   4.765  55.647  1.00  0.00     0.006 C 
BRANCH   4   5
ATOM      5  C   UNL     1       9.493   5.896  55.161  1.00  0.00     0.053 C 
BRANCH   5   6
ATOM      6  C   UNL     1      10.128   7.241  55.342  1.00  0.00     0.041 C 
ATOM      7  O   UNL     1       9.414   8.277  55.399  1.00  0.00    -0.550 OA
ATOM      8  O   UNL     1      11.511   7.353  55.416  1.00  0.00    -0.550 OA
ENDBRANCH   5   6
ENDBRANCH   4   5
ENDBRANCH   3   4
ENDBRANCH   2   3
ENDBRANCH   1   2
BRANCH   1   9
ATOM      9  C   UNL     1      14.152   3.363  56.110  1.00  0.00     0.000 C 
BRANCH   9  10
ATOM     10  C   UNL     1      15.559   3.568  55.519  1.00  0.00    -0.000 C 
BRANCH  10  11
ATOM     11  C   UNL     1      16.449   2.312  55.506  1.00  0.00    -0.000 C 
BRANCH  11  12
ATOM     12  C   UNL     1      15.811   1.119  56.239  1.00  0.00    -0.000 C 
BRANCH  12  13
ATOM     13  C   UNL     1      16.808  -0.027  56.476  1.00  0.00    -0.003 C 
ATOM     14  C   UNL     1      17.503   0.067  57.834  1.00  0.00     0.004 C 
ENDBRANCH  12  13
ENDBRANCH  11  12
ENDBRANCH  10  11
ENDBRANCH   9  10
ENDBRANCH   1   9
TORSDOF 10
ENDMDL
MODEL 5
REMARK VINA RESULT:    -4.951      2.474      3.784
REMARK INTER + INTRA:          -8.723
REMARK INTER:                  -7.575
REMARK INTRA:                  -1.148
REMARK UNBOUND:                -0.878
REMARK SMILES CCCCCCCCCCCC(=O)[O-]
REMARK SMILES IDX 7 1 8 2 9 3 10 4 11 5 12 6 13 7 14 8 6 9 5 10 4 11 3 12 2 13
REMARK SMILES IDX 1 14
REMARK H PARENT
REMARK Flexibility Score: inf
ROOT
ATOM      1  C   UNL     1       9.621   4.856  55.963  1.00  0.00     0.000 C 
ENDROOT
BRANCH   1   2
ATOM      2  C   UNL     1       9.575   6.351  55.606  1.00  0.00     0.000 C 
BRANCH   2   3
ATOM      3  C   UNL     1       9.217   6.599  54.133  1.00  0.00     0.000 C 
BRANCH   3   4
ATOM      4  C   UNL     1      10.340   7.366  53.418  1.00  0.00     0.006 C 
BRANCH   4   5
ATOM      5  C   UNL     1       9.824   8.627  52.711  1.00  0.00     0.053 C 
BRANCH   5   6
ATOM      6  C   UNL     1       9.182   8.303  51.397  1.00  0.00     0.041 C 
ATOM      7  O   UNL     1       8.048   8.771  51.113  1.00  0.00    -0.550 OA
ATOM      8  O   UNL     1       9.822   7.457  50.500  1.00  0.00    -0.550 OA
ENDBRANCH   5   6
ENDBRANCH   4   5
ENDBRANCH   3   4
ENDBRANCH   2   3
ENDBRANCH   1   2
BRANCH   1   9
ATOM      9  C   UNL     1       9.501   3.950  54.725  1.00  0.00     0.000 C 
BRANCH   9  10
ATOM     10  C   UNL     1      10.798   3.179  54.419  1.00  0.00    -0.000 C 
BRANCH  10  11
ATOM     11  C   UNL     1      11.761   3.884  53.445  1.00  0.00    -0.000 C 
BRANCH  11  12
ATOM     12  C   UNL     1      12.833   4.721  54.165  1.00  0.00    -0.000 C 
BRANCH  12  13
ATOM     13  C   UNL     1      13.224   4.130  55.529  1.00  0.00    -0.003 C 
ATOM     14  C   UNL     1      14.695   3.723  55.595  1.00  0.00     0.004 C 
ENDBRANCH  12  13
ENDBRANCH  11  12
ENDBRANCH  10  11
ENDBRANCH   9  10
ENDBRANCH   1   9
TORSDOF 10
ENDMDL
MODEL 6
REMARK VINA RESULT:    -4.944      3.489      6.679
REMARK INTER + INTRA:          -8.712
REMARK INTER:                  -7.424
REMARK INTRA:                  -1.288
REMARK UNBOUND:                -0.878
REMARK SMILES CCCCCCCCCCCC(=O)[O-]
REMARK SMILES IDX 7 1 8 2 9 3 10 4 11 5 12 6 13 7 14 8 6 9 5 10 4 11 3 12 2 13
REMARK SMILES IDX 1 14
REMARK H PARENT
REMARK Flexibility Score: inf
ROOT
ATOM      1  C   UNL     1      11.205   7.087  55.165  1.00  0.00     0.000 C 
ENDROOT
BRANCH   1   2
ATOM      2  C   UNL     1      11.696   7.542  53.780  1.00  0.00     0.000 C 
BRANCH   2   3
ATOM      3  C   UNL     1      11.774   6.387  52.770  1.00  0.00     0.000 C 
BRANCH   3   4
ATOM      4  C   UNL     1      12.522   5.185  53.369  1.00  0.00     0.006 C 
BRANCH   4   5
ATOM      5  C   UNL     1      11.737   3.876  53.213  1.00  0.00     0.053 C 
BRANCH   5   6
ATOM      6  C   UNL     1      11.039   3.492  54.482  1.00  0.00     0.041 C 
ATOM      7  O   UNL     1      11.701   3.293  55.534  1.00  0.00    -0.550 OA
ATOM      8  O   UNL     1       9.660   3.322  54.493  1.00  0.00    -0.550 OA
ENDBRANCH   5   6
ENDBRANCH   4   5
ENDBRANCH   3   4
ENDBRANCH   2   3
ENDBRANCH   1   2
BRANCH   1   9
ATOM      9  C   UNL     1       9.670   7.011  55.250  1.00  0.00     0.000 C 
BRANCH   9  10
ATOM     10  C   UNL     1       9.003   8.398  55.293  1.00  0.00    -0.000 C 
BRANCH  10  11
ATOM     11  C   UNL     1       8.088   8.716  54.095  1.00  0.00    -0.000 C 
BRANCH  11  12
ATOM     12  C   UNL     1       8.253   7.720  52.935  1.00  0.00    -0.000 C 
BRANCH  12  13
ATOM     13  C   UNL     1       8.546   8.418  51.597  1.00  0.00    -0.003 C 
ATOM     14  C   UNL     1       9.442   9.645  51.756  1.00  0.00     0.004 C 
ENDBRANCH  12  13
ENDBRANCH  11  12
ENDBRANCH  10  11
ENDBRANCH   9  10
ENDBRANCH   1   9
TORSDOF 10
ENDMDL
MODEL 7
REMARK VINA RESULT:    -4.924      2.993      6.512
REMARK INTER + INTRA:          -8.681
REMARK INTER:                  -7.567
REMARK INTRA:                  -1.114
REMARK UNBOUND:                -0.878
REMARK SMILES CCCCCCCCCCCC(=O)[O-]
REMARK SMILES IDX 7 1 8 2 9 3 10 4 11 5 12 6 13 7 14 8 6 9 5 10 4 11 3 12 2 13
REMARK SMILES IDX 1 14
REMARK H PARENT
REMARK Flexibility Score: inf
ROOT
ATOM      1  C   UNL     1      11.755   6.552  52.960  1.00  0.00     0.000 C 
ENDROOT
BRANCH   1   2
ATOM      2  C   UNL     1      12.503   5.348  53.557  1.00  0.00     0.000 C 
BRANCH   2   3
ATOM      3  C   UNL     1      11.811   4.011  53.255  1.00  0.00     0.000 C 
BRANCH   3   4
ATOM      4  C   UNL     1      11.186   3.418  54.528  1.00  0.00     0.006 C 
BRANCH   4   5
ATOM      5  C   UNL     1      11.810   3.996  55.805  1.00  0.00     0.053 C 
BRANCH   5   6
ATOM      6  C   UNL     1      12.848   3.081  56.380  1.00  0.00     0.041 C 
ATOM      7  O   UNL     1      12.526   2.216  57.236  1.00  0.00    -0.550 OA
ATOM      8  O   UNL     1      14.176   3.206  55.994  1.00  0.00    -0.550 OA
ENDBRANCH   5   6
ENDBRANCH   4   5
ENDBRANCH   3   4
ENDBRANCH   2   3
ENDBRANCH   1   2
BRANCH   1   9
ATOM      9  C   UNL     1      11.708   7.752  53.922  1.00  0.00     0.000 C 
BRANCH   9  10
ATOM     10  C   UNL     1      10.969   7.439  55.236  1.00  0.00    -0.000 C 
BRANCH  10  11
ATOM     11  C   UNL     1       9.480   7.083  55.076  1.00  0.00    -0.000 C 
BRANCH  11  12
ATOM     12  C   UNL     1       8.550   8.292  55.277  1.00  0.00    -0.000 C 
BRANCH  12  13
ATOM     13  C   UNL     1       8.008   8.846  53.950  1.00  0.00    -0.003 C 
ATOM     14  C   UNL     1       8.257   7.904  52.773  1.00  0.00     0.004 C 
ENDBRANCH  12  13
ENDBRANCH  11  12
ENDBRANCH  10  11
ENDBRANCH   9  10
ENDBRANCH   1   9
TORSDOF 10
ENDMDL
MODEL 8
REMARK VINA RESULT:    -4.898      3.594      4.949
REMARK INTER + INTRA:          -8.639
REMARK INTER:                  -7.427
REMARK INTRA:                  -1.212
REMARK UNBOUND:                -0.878
REMARK SMILES CCCCCCCCCCCC(=O)[O-]
REMARK SMILES IDX 7 1 8 2 9 3 10 4 11 5 12 6 13 7 14 8 6 9 5 10 4 11 3 12 2 13
REMARK SMILES IDX 1 14
REMARK H PARENT
REMARK Flexibility Score: inf
ROOT
ATOM      1  C   UNL     1       9.191   6.693  55.498  1.00  0.00     0.000 C 
ENDROOT
BRANCH   1   2
ATOM      2  C   UNL     1      10.028   7.969  55.311  1.00  0.00     0.000 C 
BRANCH   2   3
ATOM      3  C   UNL     1       9.777   8.651  53.958  1.00  0.00     0.000 C 
BRANCH   3   4
ATOM      4  C   UNL     1       8.869   7.786  53.069  1.00  0.00     0.006 C 
BRANCH   4   5
ATOM      5  C   UNL     1       9.262   7.864  51.588  1.00  0.00     0.053 C 
BRANCH   5   6
ATOM      6  C   UNL     1       8.631   9.040  50.907  1.00  0.00     0.041 C 
ATOM      7  O   UNL     1       7.433   9.345  51.149  1.00  0.00    -0.550 OA
ATOM      8  O   UNL     1       9.356   9.778  49.980  1.00  0.00    -0.550 OA
ENDBRANCH   5   6
ENDBRANCH   4   5
ENDBRANCH   3   4
ENDBRANCH   2   3
ENDBRANCH   1   2
BRANCH   1   9
ATOM      9  C   UNL     1      10.042   5.486  55.931  1.00  0.00     0.000 C 
BRANCH   9  10
ATOM     10  C   UNL     1       9.521   4.152  55.367  1.00  0.00    -0.000 C 
BRANCH  10  11
ATOM     11  C   UNL     1      10.539   3.359  54.526  1.00  0.00    -0.000 C 
BRANCH  11  12
ATOM     12  C   UNL     1      11.897   4.071  54.404  1.00  0.00    -0.000 C 
BRANCH  12  13
ATOM     13  C   UNL     1      12.189   4.542  52.970  1.00  0.00    -0.003 C 
ATOM     14  C   UNL     1      12.271   6.063  52.854  1.00  0.00     0.004 C 
ENDBRANCH  12  13
ENDBRANCH  11  12
ENDBRANCH  10  11
ENDBRANCH   9  10
ENDBRANCH   1   9
TORSDOF 10
ENDMDL
MODEL 9
REMARK VINA RESULT:    -4.895      2.866      6.231
REMARK INTER + INTRA:          -8.634
REMARK INTER:                  -7.555
REMARK INTRA:                  -1.079
REMARK UNBOUND:                -0.878
REMARK SMILES CCCCCCCCCCCC(=O)[O-]
REMARK SMILES IDX 7 1 8 2 9 3 10 4 11 5 12 6 13 7 14 8 6 9 5 10 4 11 3 12 2 13
REMARK SMILES IDX 1 14
REMARK H PARENT
REMARK Flexibility Score: inf
ROOT
ATOM      1  C   UNL     1       9.627   5.076  55.876  1.00  0.00     0.000 C 
ENDROOT
BRANCH   1   2
ATOM      2  C   UNL     1       9.488   3.946  54.841  1.00  0.00     0.000 C 
BRANCH   2   3
ATOM      3  C   UNL     1      10.844   3.369  54.409  1.00  0.00     0.000 C 
BRANCH   3   4
ATOM      4  C   UNL     1      11.888   3.528  55.525  1.00  0.00     0.006 C 
BRANCH   4   5
ATOM      5  C   UNL     1      13.189   4.164  55.017  1.00  0.00     0.053 C 
BRANCH   5   6
ATOM      6  C   UNL     1      14.392   3.592  55.701  1.00  0.00     0.041 C 
ATOM      7  O   UNL     1      15.526   4.113  55.533  1.00  0.00    -0.550 OA
ATOM      8  O   UNL     1      14.266   2.462  56.500  1.00  0.00    -0.550 OA
ENDBRANCH   5   6
ENDBRANCH   4   5
ENDBRANCH   3   4
ENDBRANCH   2   3
ENDBRANCH   1   2
BRANCH   1   9
ATOM      9  C   UNL     1       9.629   6.472  55.228  1.00  0.00     0.000 C 
BRANCH   9  10
ATOM     10  C   UNL     1      11.015   7.142  55.253  1.00  0.00    -0.000 C 
BRANCH  10  11
ATOM     11  C   UNL     1      11.586   7.508  53.871  1.00  0.00    -0.000 C 
BRANCH  11  12
ATOM     12  C   UNL     1      10.570   7.312  52.733  1.00  0.00    -0.000 C 
BRANCH  12  13
ATOM     13  C   UNL     1       9.915   8.633  52.295  1.00  0.00    -0.003 C 
ATOM     14  C   UNL     1       8.799   8.426  51.272  1.00  0.00     0.004 C 
ENDBRANCH  12  13
ENDBRANCH  11  12
ENDBRANCH  10  11
ENDBRANCH   9  10
ENDBRANCH   1   9
TORSDOF 10
ENDMDL
