MODEL 1
REMARK VINA RESULT:    -5.627      0.000      0.000
REMARK INTER + INTRA:         -10.645
REMARK INTER:                  -9.575
REMARK INTRA:                  -1.071
REMARK UNBOUND:                -1.071
REMARK SMILES CCCCCCCCCCCCCC(=O)[O-]
REMARK SMILES IDX 8 1 9 2 10 3 11 4 12 5 13 6 14 7 15 8 16 9 7 10 6 11 5 12
REMARK SMILES IDX 4 13 3 14 2 15 1 16
REMARK H PARENT
REMARK Flexibility Score: inf
ROOT
ATOM      1  C   UNL     1     -12.471   0.658 -10.099  1.00  0.00     0.000 C 
ENDROOT
BRANCH   1   2
ATOM      2  C   UNL     1     -11.632  -0.349 -10.904  1.00  0.00     0.000 C 
BRANCH   2   3
ATOM      3  C   UNL     1     -12.364  -1.693 -11.103  1.00  0.00     0.000 C 
BRANCH   3   4
ATOM      4  C   UNL     1     -11.829  -2.828 -10.209  1.00  0.00     0.000 C 
BRANCH   4   5
ATOM      5  C   UNL     1     -10.319  -2.762  -9.912  1.00  0.00     0.006 C 
BRANCH   5   6
ATOM      6  C   UNL     1      -9.975  -2.588  -8.424  1.00  0.00     0.053 C 
BRANCH   6   7
ATOM      7  C   UNL     1      -9.684  -3.898  -7.759  1.00  0.00     0.041 C 
ATOM      8  O   UNL     1      -8.948  -4.747  -8.328  1.00  0.00    -0.550 OA
ATOM      9  O   UNL     1     -10.197  -4.165  -6.497  1.00  0.00    -0.550 OA
ENDBRANCH   6   7
ENDBRANCH   5   6
ENDBRANCH   4   5
ENDBRANCH   3   4
ENDBRANCH   2   3
ENDBRANCH   1   2
BRANCH   1  10
ATOM     10  C   UNL     1     -13.950   0.255 -10.000  1.00  0.00     0.000 C 
BRANCH  10  11
ATOM     11  C   UNL     1     -14.794   1.279  -9.229  1.00  0.00    -0.000 C 
BRANCH  11  12
ATOM     12  C   UNL     1     -14.307   2.710  -9.503  1.00  0.00    -0.000 C 
BRANCH  12  13
ATOM     13  C   UNL     1     -13.894   3.458  -8.223  1.00  0.00    -0.000 C 
BRANCH  13  14
ATOM     14  C   UNL     1     -12.932   4.644  -8.439  1.00  0.00    -0.000 C 
BRANCH  14  15
ATOM     15  C   UNL     1     -11.636   4.299  -9.195  1.00  0.00    -0.003 C 
ATOM     16  C   UNL     1     -10.671   3.450  -8.367  1.00  0.00     0.004 C 
ENDBRANCH  14  15
ENDBRANCH  13  14
ENDBRANCH  12  13
ENDBRANCH  11  12
ENDBRANCH  10  11
ENDBRANCH   1  10
TORSDOF 12
ENDMDL
MODEL 2
REMARK VINA RESULT:    -5.481      3.166      6.462
REMARK INTER + INTRA:         -10.396
REMARK INTER:                  -9.514
REMARK INTRA:                  -0.883
REMARK UNBOUND:                -1.071
REMARK SMILES CCCCCCCCCCCCCC(=O)[O-]
REMARK SMILES IDX 8 1 9 2 10 3 11 4 12 5 13 6 14 7 15 8 16 9 7 10 6 11 5 12
REMARK SMILES IDX 4 13 3 14 2 15 1 16
REMARK H PARENT
REMARK Flexibility Score: inf
ROOT
ATOM      1  C   UNL     1     -13.984  -0.336 -11.125  1.00  0.00     0.000 C 
ENDROOT
BRANCH   1   2
ATOM      2  C   UNL     1     -14.698  -0.125  -9.779  1.00  0.00     0.000 C 
BRANCH   2   3
ATOM      3  C   UNL     1     -14.839   1.370  -9.419  1.00  0.00     0.000 C 
BRANCH   3   4
ATOM      4  C   UNL     1     -13.542   2.002  -8.880  1.00  0.00     0.000 C 
BRANCH   4   5
ATOM      5  C   UNL     1     -12.622   2.612  -9.955  1.00  0.00     0.006 C 
BRANCH   5   6
ATOM      6  C   UNL     1     -12.044   3.987  -9.585  1.00  0.00     0.053 C 
BRANCH   6   7
ATOM      7  C   UNL     1     -11.642   4.057  -8.143  1.00  0.00     0.041 C 
ATOM      8  O   UNL     1     -10.494   3.682  -7.787  1.00  0.00    -0.550 OA
ATOM      9  O   UNL     1     -12.524   4.567  -7.200  1.00  0.00    -0.550 OA
ENDBRANCH   6   7
ENDBRANCH   5   6
ENDBRANCH   4   5
ENDBRANCH   3   4
ENDBRANCH   2   3
ENDBRANCH   1   2
BRANCH   1  10
ATOM     10  C   UNL     1     -12.774  -1.277 -11.015  1.00  0.00     0.000 C 
BRANCH  10  11
ATOM     11  C   UNL     1     -11.434  -0.534 -11.105  1.00  0.00    -0.000 C 
BRANCH  11  12
ATOM     12  C   UNL     1     -10.610  -0.730  -9.824  1.00  0.00    -0.000 C 
BRANCH  12  13
ATOM     13  C   UNL     1     -10.642  -2.180  -9.307  1.00  0.00    -0.000 C 
BRANCH  13  14
ATOM     14  C   UNL     1      -9.548  -3.103  -9.879  1.00  0.00    -0.000 C 
BRANCH  14  15
ATOM     15  C   UNL     1      -8.824  -3.975  -8.837  1.00  0.00    -0.003 C 
ATOM     16  C   UNL     1      -9.582  -4.073  -7.513  1.00  0.00     0.004 C 
ENDBRANCH  14  15
ENDBRANCH  13  14
ENDBRANCH  12  13
ENDBRANCH  11  12
ENDBRANCH  10  11
ENDBRANCH   1  10
TORSDOF 12
ENDMDL
MODEL 3
REMARK VINA RESULT:    -5.456      1.204      1.956
REMARK INTER + INTRA:         -10.354
REMARK INTER:                  -9.120
REMARK INTRA:                  -1.234
REMARK UNBOUND:                -1.071
REMARK SMILES CCCCCCCCCCCCCC(=O)[O-]
REMARK SMILES IDX 8 1 9 2 10 3 11 4 12 5 13 6 14 7 15 8 16 9 7 10 6 11 5 12
REMARK SMILES IDX 4 13 3 14 2 15 1 16
REMARK H PARENT
REMARK Flexibility Score: inf
ROOT
ATOM      1  C   UNL     1     -14.392  -0.482 -10.619  1.00  0.00     0.000 C 
ENDROOT
BRANCH   1   2
ATOM      2  C   UNL     1     -14.032  -1.962 -10.403  1.00  0.00     0.000 C 
BRANCH   2   3
ATOM      3  C   UNL     1     -12.579  -2.277 -10.818  1.00  0.00     0.000 C 
BRANCH   3   4
ATOM      4  C   UNL     1     -11.697  -1.025 -10.983  1.00  0.00     0.000 C 
BRANCH   4   5
ATOM      5  C   UNL     1     -10.277  -1.151 -10.398  1.00  0.00     0.006 C 
BRANCH   5   6
ATOM      6  C   UNL     1     -10.239  -1.472  -8.896  1.00  0.00     0.053 C 
BRANCH   6   7
ATOM      7  C   UNL     1      -9.691  -2.840  -8.628  1.00  0.00     0.041 C 
ATOM      8  O   UNL     1     -10.220  -3.574  -7.751  1.00  0.00    -0.550 OA
ATOM      9  O   UNL     1      -8.620  -3.318  -9.371  1.00  0.00    -0.550 OA
ENDBRANCH   6   7
ENDBRANCH   5   6
ENDBRANCH   4   5
ENDBRANCH   3   4
ENDBRANCH   2   3
ENDBRANCH   1   2
BRANCH   1  10
ATOM     10  C   UNL     1     -15.065   0.151  -9.392  1.00  0.00     0.000 C 
BRANCH  10  11
ATOM     11  C   UNL     1     -14.765   1.651  -9.257  1.00  0.00    -0.000 C 
BRANCH  11  12
ATOM     12  C   UNL     1     -13.472   2.021 -10.000  1.00  0.00    -0.000 C 
BRANCH  12  13
ATOM     13  C   UNL     1     -12.230   1.991  -9.091  1.00  0.00    -0.000 C 
BRANCH  13  14
ATOM     14  C   UNL     1     -11.470   3.329  -8.979  1.00  0.00    -0.000 C 
BRANCH  14  15
ATOM     15  C   UNL     1     -12.362   4.571  -8.813  1.00  0.00    -0.003 C 
ATOM     16  C   UNL     1     -13.185   4.546  -7.525  1.00  0.00     0.004 C 
ENDBRANCH  14  15
ENDBRANCH  13  14
ENDBRANCH  12  13
ENDBRANCH  11  12
ENDBRANCH  10  11
ENDBRANCH   1  10
TORSDOF 12
ENDMDL
MODEL 4
REMARK VINA RESULT:    -5.418      3.108      6.739
REMARK INTER + INTRA:         -10.290
REMARK INTER:                  -9.484
REMARK INTRA:                  -0.806
REMARK UNBOUND:                -1.071
REMARK SMILES CCCCCCCCCCCCCC(=O)[O-]
REMARK SMILES IDX 8 1 9 2 10 3 11 4 12 5 13 6 14 7 15 8 16 9 7 10 6 11 5 12
REMARK SMILES IDX 4 13 3 14 2 15 1 16
REMARK H PARENT
REMARK Flexibility Score: inf
ROOT
ATOM      1  C   UNL     1     -12.318   0.670  -9.994  1.00  0.00     0.000 C 
ENDROOT
BRANCH   1   2
ATOM      2  C   UNL     1     -13.799   0.267 -10.096  1.00  0.00     0.000 C 
BRANCH   2   3
ATOM      3  C   UNL     1     -14.731   1.283  -9.403  1.00  0.00     0.000 C 
BRANCH   3   4
ATOM      4  C   UNL     1     -14.219   2.734  -9.464  1.00  0.00     0.000 C 
BRANCH   4   5
ATOM      5  C   UNL     1     -13.792   3.328  -8.108  1.00  0.00     0.006 C 
BRANCH   5   6
ATOM      6  C   UNL     1     -12.824   4.517  -8.216  1.00  0.00     0.053 C 
BRANCH   6   7
ATOM      7  C   UNL     1     -11.543   4.137  -8.893  1.00  0.00     0.041 C 
ATOM      8  O   UNL     1     -11.377   4.381 -10.117  1.00  0.00    -0.550 OA
ATOM      9  O   UNL     1     -10.520   3.546  -8.164  1.00  0.00    -0.550 OA
ENDBRANCH   6   7
ENDBRANCH   5   6
ENDBRANCH   4   5
ENDBRANCH   3   4
ENDBRANCH   2   3
ENDBRANCH   1   2
BRANCH   1  10
ATOM     10  C   UNL     1     -11.380  -0.334 -10.683  1.00  0.00     0.000 C 
BRANCH  10  11
ATOM     11  C   UNL     1     -12.061  -1.679 -10.975  1.00  0.00    -0.000 C 
BRANCH  11  12
ATOM     12  C   UNL     1     -11.457  -2.798 -10.115  1.00  0.00    -0.000 C 
BRANCH  12  13
ATOM     13  C   UNL     1     -10.297  -2.313  -9.227  1.00  0.00    -0.000 C 
BRANCH  13  14
ATOM     14  C   UNL     1      -9.078  -3.256  -9.168  1.00  0.00    -0.000 C 
BRANCH  14  15
ATOM     15  C   UNL     1      -9.178  -4.382  -8.125  1.00  0.00    -0.003 C 
ATOM     16  C   UNL     1     -10.030  -3.999  -6.914  1.00  0.00     0.004 C 
ENDBRANCH  14  15
ENDBRANCH  13  14
ENDBRANCH  12  13
ENDBRANCH  11  12
ENDBRANCH  10  11
ENDBRANCH   1  10
TORSDOF 12
ENDMDL
MODEL 5
REMARK VINA RESULT:    -4.891      3.595      6.496
REMARK INTER + INTRA:          -9.393
REMARK INTER:                  -8.503
REMARK INTRA:                  -0.890
REMARK UNBOUND:                -1.071
REMARK SMILES CCCCCCCCCCCCCC(=O)[O-]
REMARK SMILES IDX 8 1 9 2 10 3 11 4 12 5 13 6 14 7 15 8 16 9 7 10 6 11 5 12
REMARK SMILES IDX 4 13 3 14 2 15 1 16
REMARK H PARENT
REMARK Flexibility Score: inf
ROOT
ATOM      1  C   UNL     1     -14.033  -0.696 -11.075  1.00  0.00     0.000 C 
ENDROOT
BRANCH   1   2
ATOM      2  C   UNL     1     -13.496   0.532 -10.319  1.00  0.00     0.000 C 
BRANCH   2   3
ATOM      3  C   UNL     1     -11.955   0.535 -10.228  1.00  0.00     0.000 C 
BRANCH   3   4
ATOM      4  C   UNL     1     -11.396   1.568  -9.232  1.00  0.00     0.000 C 
BRANCH   4   5
ATOM      5  C   UNL     1     -11.820   3.024  -9.503  1.00  0.00     0.006 C 
BRANCH   5   6
ATOM      6  C   UNL     1     -11.413   4.015  -8.400  1.00  0.00     0.053 C 
BRANCH   6   7
ATOM      7  C   UNL     1     -12.543   4.302  -7.460  1.00  0.00     0.041 C 
ATOM      8  O   UNL     1     -13.736   4.182  -7.847  1.00  0.00    -0.550 OA
ATOM      9  O   UNL     1     -12.279   4.667  -6.147  1.00  0.00    -0.550 OA
ENDBRANCH   6   7
ENDBRANCH   5   6
ENDBRANCH   4   5
ENDBRANCH   3   4
ENDBRANCH   2   3
ENDBRANCH   1   2
BRANCH   1  10
ATOM     10  C   UNL     1     -14.719  -1.712 -10.148  1.00  0.00     0.000 C 
BRANCH  10  11
ATOM     11  C   UNL     1     -14.093  -3.110 -10.234  1.00  0.00    -0.000 C 
BRANCH  11  12
ATOM     12  C   UNL     1     -12.622  -3.028 -10.668  1.00  0.00    -0.000 C 
BRANCH  12  13
ATOM     13  C   UNL     1     -11.649  -2.947  -9.478  1.00  0.00    -0.000 C 
BRANCH  13  14
ATOM     14  C   UNL     1     -10.155  -2.888  -9.858  1.00  0.00    -0.000 C 
BRANCH  14  15
ATOM     15  C   UNL     1      -9.182  -3.252  -8.722  1.00  0.00    -0.003 C 
ATOM     16  C   UNL     1      -9.857  -4.006  -7.577  1.00  0.00     0.004 C 
ENDBRANCH  14  15
ENDBRANCH  13  14
ENDBRANCH  12  13
ENDBRANCH  11  12
ENDBRANCH  10  11
ENDBRANCH   1  10
TORSDOF 12
ENDMDL
MODEL 6
REMARK VINA RESULT:    -4.783      3.293      6.663
REMARK INTER + INTRA:          -9.209
REMARK INTER:                  -7.970
REMARK INTRA:                  -1.239
REMARK UNBOUND:                -1.071
REMARK SMILES CCCCCCCCCCCCCC(=O)[O-]
REMARK SMILES IDX 8 1 9 2 10 3 11 4 12 5 13 6 14 7 15 8 16 9 7 10 6 11 5 12
REMARK SMILES IDX 4 13 3 14 2 15 1 16
REMARK H PARENT
REMARK Flexibility Score: inf
ROOT
ATOM      1  C   UNL     1     -12.305   0.667  -9.538  1.00  0.00     0.000 C 
ENDROOT
BRANCH   1   2
ATOM      2  C   UNL     1     -13.665   0.839 -10.236  1.00  0.00     0.000 C 
BRANCH   2   3
ATOM      3  C   UNL     1     -14.368   2.153  -9.834  1.00  0.00     0.000 C 
BRANCH   3   4
ATOM      4  C   UNL     1     -14.105   2.574  -8.376  1.00  0.00     0.000 C 
BRANCH   4   5
ATOM      5  C   UNL     1     -13.788   4.069  -8.181  1.00  0.00     0.006 C 
BRANCH   5   6
ATOM      6  C   UNL     1     -12.389   4.349  -7.609  1.00  0.00     0.053 C 
BRANCH   6   7
ATOM      7  C   UNL     1     -11.307   4.037  -8.597  1.00  0.00     0.041 C 
ATOM      8  O   UNL     1     -10.202   3.580  -8.203  1.00  0.00    -0.550 OA
ATOM      9  O   UNL     1     -11.532   4.219  -9.955  1.00  0.00    -0.550 OA
ENDBRANCH   6   7
ENDBRANCH   5   6
ENDBRANCH   4   5
ENDBRANCH   3   4
ENDBRANCH   2   3
ENDBRANCH   1   2
BRANCH   1  10
ATOM     10  C   UNL     1     -11.136   0.566 -10.530  1.00  0.00     0.000 C 
BRANCH  10  11
ATOM     11  C   UNL     1     -10.531  -0.844 -10.592  1.00  0.00    -0.000 C 
BRANCH  11  12
ATOM     12  C   UNL     1     -11.236  -1.788  -9.607  1.00  0.00    -0.000 C 
BRANCH  12  13
ATOM     13  C   UNL     1     -11.974  -2.943 -10.307  1.00  0.00    -0.000 C 
BRANCH  13  14
ATOM     14  C   UNL     1     -13.261  -2.540 -11.055  1.00  0.00    -0.000 C 
BRANCH  14  15
ATOM     15  C   UNL     1     -14.571  -2.951 -10.361  1.00  0.00    -0.003 C 
ATOM     16  C   UNL     1     -14.458  -4.279  -9.612  1.00  0.00     0.004 C 
ENDBRANCH  14  15
ENDBRANCH  13  14
ENDBRANCH  12  13
ENDBRANCH  11  12
ENDBRANCH  10  11
ENDBRANCH   1  10
TORSDOF 12
ENDMDL
MODEL 7
REMARK VINA RESULT:    -4.641     15.627     17.894
REMARK INTER + INTRA:          -8.968
REMARK INTER:                  -8.216
REMARK INTRA:                  -0.752
REMARK UNBOUND:                -1.071
REMARK SMILES CCCCCCCCCCCCCC(=O)[O-]
REMARK SMILES IDX 8 1 9 2 10 3 11 4 12 5 13 6 14 7 15 8 16 9 7 10 6 11 5 12
REMARK SMILES IDX 4 13 3 14 2 15 1 16
REMARK H PARENT
REMARK Flexibility Score: inf
ROOT
ATOM      1  C   UNL     1      -9.897   5.712   7.750  1.00  0.00     0.000 C 
ENDROOT
BRANCH   1   2
ATOM      2  C   UNL     1      -9.117   5.891   6.436  1.00  0.00     0.000 C 
BRANCH   2   3
ATOM      3  C   UNL     1      -9.432   7.236   5.747  1.00  0.00     0.000 C 
BRANCH   3   4
ATOM      4  C   UNL     1      -8.212   8.169   5.626  1.00  0.00     0.000 C 
BRANCH   4   5
ATOM      5  C   UNL     1      -8.550   9.641   5.321  1.00  0.00     0.006 C 
BRANCH   5   6
ATOM      6  C   UNL     1      -7.331  10.576   5.290  1.00  0.00     0.053 C 
BRANCH   6   7
ATOM      7  C   UNL     1      -6.674  10.684   6.632  1.00  0.00     0.041 C 
ATOM      8  O   UNL     1      -7.297  11.187   7.604  1.00  0.00    -0.550 OA
ATOM      9  O   UNL     1      -5.386  10.198   6.817  1.00  0.00    -0.550 OA
ENDBRANCH   6   7
ENDBRANCH   5   6
ENDBRANCH   4   5
ENDBRANCH   3   4
ENDBRANCH   2   3
ENDBRANCH   1   2
BRANCH   1  10
ATOM     10  C   UNL     1     -10.599   4.349   7.844  1.00  0.00     0.000 C 
BRANCH  10  11
ATOM     11  C   UNL     1     -11.449   4.032   6.605  1.00  0.00    -0.000 C 
BRANCH  11  12
ATOM     12  C   UNL     1     -12.812   4.736   6.680  1.00  0.00    -0.000 C 
BRANCH  12  13
ATOM     13  C   UNL     1     -12.904   5.963   5.756  1.00  0.00    -0.000 C 
BRANCH  13  14
ATOM     14  C   UNL     1     -14.096   5.958   4.777  1.00  0.00    -0.000 C 
BRANCH  14  15
ATOM     15  C   UNL     1     -13.727   5.708   3.305  1.00  0.00    -0.003 C 
ATOM     16  C   UNL     1     -14.009   6.912   2.406  1.00  0.00     0.004 C 
ENDBRANCH  14  15
ENDBRANCH  13  14
ENDBRANCH  12  13
ENDBRANCH  11  12
ENDBRANCH  10  11
ENDBRANCH   1  10
TORSDOF 12
ENDMDL
MODEL 8
REMARK VINA RESULT:    -4.521     16.083     17.929
REMARK INTER + INTRA:          -8.764
REMARK INTER:                  -7.969
REMARK INTRA:                  -0.795
REMARK UNBOUND:                -1.071
REMARK SMILES CCCCCCCCCCCCCC(=O)[O-]
REMARK SMILES IDX 8 1 9 2 10 3 11 4 12 5 13 6 14 7 15 8 16 9 7 10 6 11 5 12
REMARK SMILES IDX 4 13 3 14 2 15 1 16
REMARK H PARENT
REMARK Flexibility Score: inf
ROOT
ATOM      1  C   UNL     1      -9.169   5.697   6.553  1.00  0.00     0.000 C 
ENDROOT
BRANCH   1   2
ATOM      2  C   UNL     1      -9.857   5.702   7.929  1.00  0.00     0.000 C 
BRANCH   2   3
ATOM      3  C   UNL     1     -10.602   4.381   8.215  1.00  0.00     0.000 C 
BRANCH   3   4
ATOM      4  C   UNL     1     -11.450   3.879   7.032  1.00  0.00     0.000 C 
BRANCH   4   5
ATOM      5  C   UNL     1     -12.701   4.723   6.727  1.00  0.00     0.006 C 
BRANCH   5   6
ATOM      6  C   UNL     1     -12.699   5.379   5.337  1.00  0.00     0.053 C 
BRANCH   6   7
ATOM      7  C   UNL     1     -13.615   6.562   5.273  1.00  0.00     0.041 C 
ATOM      8  O   UNL     1     -14.843   6.400   5.041  1.00  0.00    -0.550 OA
ATOM      9  O   UNL     1     -13.120   7.838   5.503  1.00  0.00    -0.550 OA
ENDBRANCH   6   7
ENDBRANCH   5   6
ENDBRANCH   4   5
ENDBRANCH   3   4
ENDBRANCH   2   3
ENDBRANCH   1   2
BRANCH   1  10
ATOM     10  C   UNL     1      -9.399   6.999   5.769  1.00  0.00     0.000 C 
BRANCH  10  11
ATOM     11  C   UNL     1      -8.395   8.100   6.140  1.00  0.00    -0.000 C 
BRANCH  11  12
ATOM     12  C   UNL     1      -8.220   9.095   4.984  1.00  0.00    -0.000 C 
BRANCH  12  13
ATOM     13  C   UNL     1      -7.080  10.101   5.226  1.00  0.00    -0.000 C 
BRANCH  13  14
ATOM     14  C   UNL     1      -6.560  10.163   6.677  1.00  0.00    -0.000 C 
BRANCH  14  15
ATOM     15  C   UNL     1      -5.431  11.180   6.919  1.00  0.00    -0.003 C 
ATOM     16  C   UNL     1      -4.134  10.813   6.200  1.00  0.00     0.004 C 
ENDBRANCH  14  15
ENDBRANCH  13  14
ENDBRANCH  12  13
ENDBRANCH  11  12
ENDBRANCH  10  11
ENDBRANCH   1  10
TORSDOF 12
ENDMDL
MODEL 9
REMARK VINA RESULT:    -4.234     14.454     16.859
REMARK INTER + INTRA:          -8.274
REMARK INTER:                  -7.303
REMARK INTRA:                  -0.971
REMARK UNBOUND:                -1.071
REMARK SMILES CCCCCCCCCCCCCC(=O)[O-]
REMARK SMILES IDX 8 1 9 2 10 3 11 4 12 5 13 6 14 7 15 8 16 9 7 10 6 11 5 12
REMARK SMILES IDX 4 13 3 14 2 15 1 16
REMARK H PARENT
REMARK Flexibility Score: inf
ROOT
ATOM      1  C   UNL     1     -12.861   6.382   4.667  1.00  0.00     0.000 C 
ENDROOT
BRANCH   1   2
ATOM      2  C   UNL     1     -13.805   5.788   3.608  1.00  0.00     0.000 C 
BRANCH   2   3
ATOM      3  C   UNL     1     -14.011   6.738   2.409  1.00  0.00     0.000 C 
BRANCH   3   4
ATOM      4  C   UNL     1     -13.989   8.229   2.790  1.00  0.00     0.000 C 
BRANCH   4   5
ATOM      5  C   UNL     1     -13.642   9.188   1.636  1.00  0.00     0.006 C 
BRANCH   5   6
ATOM      6  C   UNL     1     -13.717  10.678   2.008  1.00  0.00     0.053 C 
BRANCH   6   7
ATOM      7  C   UNL     1     -12.400  11.368   1.824  1.00  0.00     0.041 C 
ATOM      8  O   UNL     1     -11.835  11.926   2.802  1.00  0.00    -0.550 OA
ATOM      9  O   UNL     1     -11.781  11.366   0.581  1.00  0.00    -0.550 OA
ENDBRANCH   6   7
ENDBRANCH   5   6
ENDBRANCH   4   5
ENDBRANCH   3   4
ENDBRANCH   2   3
ENDBRANCH   1   2
BRANCH   1  10
ATOM     10  C   UNL     1     -13.136   5.840   6.079  1.00  0.00     0.000 C 
BRANCH  10  11
ATOM     11  C   UNL     1     -12.594   4.418   6.283  1.00  0.00    -0.000 C 
BRANCH  11  12
ATOM     12  C   UNL     1     -12.030   4.244   7.701  1.00  0.00    -0.000 C 
BRANCH  12  13
ATOM     13  C   UNL     1     -10.492   4.291   7.744  1.00  0.00    -0.000 C 
BRANCH  13  14
ATOM     14  C   UNL     1      -9.889   5.670   8.079  1.00  0.00    -0.000 C 
BRANCH  14  15
ATOM     15  C   UNL     1      -9.461   6.506   6.859  1.00  0.00    -0.003 C 
ATOM     16  C   UNL     1      -9.257   5.662   5.601  1.00  0.00     0.004 C 
ENDBRANCH  14  15
ENDBRANCH  13  14
ENDBRANCH  12  13
ENDBRANCH  11  12
ENDBRANCH  10  11
ENDBRANCH   1  10
TORSDOF 12
ENDMDL
