MODEL 1
REMARK VINA RESULT:    -5.136      0.000      0.000
REMARK INTER + INTRA:         -11.841
REMARK INTER:                  -9.940
REMARK INTRA:                  -1.901
REMARK UNBOUND:                -1.901
REMARK SMILES CCCCCCCCCCCCCCCCCC(=O)[O-]
REMARK SMILES IDX 10 1 11 2 12 3 13 4 14 5 15 6 16 7 17 8 18 9 19 10 20 11
REMARK SMILES IDX 9 12 8 13 7 14 6 15 5 16 4 17 3 18 2 19 1 20
REMARK H PARENT
REMARK Flexibility Score: inf
ROOT
ATOM      1  C   UNL     1     -51.639 -50.526  18.553  1.00  0.00     0.000 C 
ENDROOT
BRANCH   1   2
ATOM      2  C   UNL     1     -50.499 -50.873  19.525  1.00  0.00     0.000 C 
BRANCH   2   3
ATOM      3  C   UNL     1     -49.186 -50.142  19.191  1.00  0.00     0.000 C 
BRANCH   3   4
ATOM      4  C   UNL     1     -49.309 -48.615  19.023  1.00  0.00     0.000 C 
BRANCH   4   5
ATOM      5  C   UNL     1     -48.038 -47.908  18.515  1.00  0.00     0.000 C 
BRANCH   5   6
ATOM      6  C   UNL     1     -47.079 -48.834  17.737  1.00  0.00     0.000 C 
BRANCH   6   7
ATOM      7  C   UNL     1     -47.438 -48.932  16.245  1.00  0.00     0.006 C 
BRANCH   7   8
ATOM      8  C   UNL     1     -47.736 -50.374  15.814  1.00  0.00     0.053 C 
BRANCH   8   9
ATOM      9  C   UNL     1     -49.096 -50.494  15.196  1.00  0.00     0.041 C 
ATOM     10  O   UNL     1     -49.900 -51.377  15.597  1.00  0.00    -0.550 OA
ATOM     11  O   UNL     1     -49.464 -49.651  14.155  1.00  0.00    -0.550 OA
ENDBRANCH   8   9
ENDBRANCH   7   8
ENDBRANCH   6   7
ENDBRANCH   5   6
ENDBRANCH   4   5
ENDBRANCH   3   4
ENDBRANCH   2   3
ENDBRANCH   1   2
BRANCH   1  12
ATOM     12  C   UNL     1     -52.705 -49.607  19.180  1.00  0.00     0.000 C 
BRANCH  12  13
ATOM     13  C   UNL     1     -52.753 -49.615  20.720  1.00  0.00    -0.000 C 
BRANCH  13  14
ATOM     14  C   UNL     1     -52.253 -48.304  21.345  1.00  0.00    -0.000 C 
BRANCH  14  15
ATOM     15  C   UNL     1     -52.549 -48.267  22.851  1.00  0.00    -0.000 C 
BRANCH  15  16
ATOM     16  C   UNL     1     -53.468 -47.098  23.252  1.00  0.00    -0.000 C 
BRANCH  16  17
ATOM     17  C   UNL     1     -54.023 -46.274  22.075  1.00  0.00    -0.000 C 
BRANCH  17  18
ATOM     18  C   UNL     1     -55.521 -46.487  21.779  1.00  0.00    -0.000 C 
BRANCH  18  19
ATOM     19  C   UNL     1     -55.792 -47.501  20.648  1.00  0.00    -0.003 C 
ATOM     20  C   UNL     1     -56.455 -48.783  21.151  1.00  0.00     0.004 C 
ENDBRANCH  18  19
ENDBRANCH  17  18
ENDBRANCH  16  17
ENDBRANCH  15  16
ENDBRANCH  14  15
ENDBRANCH  13  14
ENDBRANCH  12  13
ENDBRANCH   1  12
TORSDOF 16
ENDMDL
MODEL 2
REMARK VINA RESULT:    -5.009      1.342      2.724
REMARK INTER + INTRA:         -11.594
REMARK INTER:                  -9.478
REMARK INTRA:                  -2.116
REMARK UNBOUND:                -1.901
REMARK SMILES CCCCCCCCCCCCCCCCCC(=O)[O-]
REMARK SMILES IDX 10 1 11 2 12 3 13 4 14 5 15 6 16 7 17 8 18 9 19 10 20 11
REMARK SMILES IDX 9 12 8 13 7 14 6 15 5 16 4 17 3 18 2 19 1 20
REMARK H PARENT
REMARK Flexibility Score: inf
ROOT
ATOM      1  C   UNL     1     -50.738 -50.311  20.089  1.00  0.00     0.000 C 
ENDROOT
BRANCH   1   2
ATOM      2  C   UNL     1     -50.545 -49.129  19.125  1.00  0.00     0.000 C 
BRANCH   2   3
ATOM      3  C   UNL     1     -49.408 -48.184  19.557  1.00  0.00     0.000 C 
BRANCH   3   4
ATOM      4  C   UNL     1     -48.265 -48.023  18.537  1.00  0.00     0.000 C 
BRANCH   4   5
ATOM      5  C   UNL     1     -47.350 -49.254  18.381  1.00  0.00     0.000 C 
BRANCH   5   6
ATOM      6  C   UNL     1     -47.367 -49.866  16.965  1.00  0.00     0.000 C 
BRANCH   6   7
ATOM      7  C   UNL     1     -48.140 -51.195  16.908  1.00  0.00     0.006 C 
BRANCH   7   8
ATOM      8  C   UNL     1     -49.513 -51.037  16.242  1.00  0.00     0.053 C 
BRANCH   8   9
ATOM      9  C   UNL     1     -49.394 -50.924  14.752  1.00  0.00     0.041 C 
ATOM     10  O   UNL     1     -49.176 -51.948  14.053  1.00  0.00    -0.550 OA
ATOM     11  O   UNL     1     -49.494 -49.681  14.140  1.00  0.00    -0.550 OA
ENDBRANCH   8   9
ENDBRANCH   7   8
ENDBRANCH   6   7
ENDBRANCH   5   6
ENDBRANCH   4   5
ENDBRANCH   3   4
ENDBRANCH   2   3
ENDBRANCH   1   2
BRANCH   1  12
ATOM     12  C   UNL     1     -52.156 -50.372  20.688  1.00  0.00     0.000 C 
BRANCH  12  13
ATOM     13  C   UNL     1     -52.992 -49.089  20.524  1.00  0.00    -0.000 C 
BRANCH  13  14
ATOM     14  C   UNL     1     -54.035 -48.903  21.637  1.00  0.00    -0.000 C 
BRANCH  14  15
ATOM     15  C   UNL     1     -54.348 -47.416  21.852  1.00  0.00    -0.000 C 
BRANCH  15  16
ATOM     16  C   UNL     1     -53.195 -46.653  22.532  1.00  0.00    -0.000 C 
BRANCH  16  17
ATOM     17  C   UNL     1     -53.059 -46.894  24.047  1.00  0.00    -0.000 C 
BRANCH  17  18
ATOM     18  C   UNL     1     -51.676 -47.396  24.506  1.00  0.00    -0.000 C 
BRANCH  18  19
ATOM     19  C   UNL     1     -50.810 -47.962  23.362  1.00  0.00    -0.003 C 
ATOM     20  C   UNL     1     -50.256 -49.353  23.675  1.00  0.00     0.004 C 
ENDBRANCH  18  19
ENDBRANCH  17  18
ENDBRANCH  16  17
ENDBRANCH  15  16
ENDBRANCH  14  15
ENDBRANCH  13  14
ENDBRANCH  12  13
ENDBRANCH   1  12
TORSDOF 16
ENDMDL
MODEL 3
REMARK VINA RESULT:    -4.952      1.519      2.877
REMARK INTER + INTRA:         -11.484
REMARK INTER:                  -9.260
REMARK INTRA:                  -2.224
REMARK UNBOUND:                -1.901
REMARK SMILES CCCCCCCCCCCCCCCCCC(=O)[O-]
REMARK SMILES IDX 10 1 11 2 12 3 13 4 14 5 15 6 16 7 17 8 18 9 19 10 20 11
REMARK SMILES IDX 9 12 8 13 7 14 6 15 5 16 4 17 3 18 2 19 1 20
REMARK H PARENT
REMARK Flexibility Score: inf
ROOT
ATOM      1  C   UNL     1     -51.944 -50.491  20.351  1.00  0.00     0.000 C 
ENDROOT
BRANCH   1   2
ATOM      2  C   UNL     1     -50.463 -50.177  20.084  1.00  0.00     0.000 C 
BRANCH   2   3
ATOM      3  C   UNL     1     -50.246 -48.769  19.500  1.00  0.00     0.000 C 
BRANCH   3   4
ATOM      4  C   UNL     1     -48.897 -48.113  19.853  1.00  0.00     0.000 C 
BRANCH   4   5
ATOM      5  C   UNL     1     -47.897 -48.005  18.685  1.00  0.00     0.000 C 
BRANCH   5   6
ATOM      6  C   UNL     1     -47.303 -49.361  18.248  1.00  0.00     0.000 C 
BRANCH   6   7
ATOM      7  C   UNL     1     -47.625 -49.699  16.782  1.00  0.00     0.006 C 
BRANCH   7   8
ATOM      8  C   UNL     1     -48.087 -51.152  16.612  1.00  0.00     0.053 C 
BRANCH   8   9
ATOM      9  C   UNL     1     -49.231 -51.258  15.650  1.00  0.00     0.041 C 
ATOM     10  O   UNL     1     -50.412 -51.068  16.046  1.00  0.00    -0.550 OA
ATOM     11  O   UNL     1     -48.996 -51.595  14.324  1.00  0.00    -0.550 OA
ENDBRANCH   8   9
ENDBRANCH   7   8
ENDBRANCH   6   7
ENDBRANCH   5   6
ENDBRANCH   4   5
ENDBRANCH   3   4
ENDBRANCH   2   3
ENDBRANCH   1   2
BRANCH   1  12
ATOM     12  C   UNL     1     -52.819 -49.226  20.443  1.00  0.00     0.000 C 
BRANCH  12  13
ATOM     13  C   UNL     1     -53.650 -49.096  21.734  1.00  0.00    -0.000 C 
BRANCH  13  14
ATOM     14  C   UNL     1     -54.300 -47.714  21.894  1.00  0.00    -0.000 C 
BRANCH  14  15
ATOM     15  C   UNL     1     -53.316 -46.714  22.519  1.00  0.00    -0.000 C 
BRANCH  15  16
ATOM     16  C   UNL     1     -52.910 -47.092  23.956  1.00  0.00    -0.000 C 
BRANCH  16  17
ATOM     17  C   UNL     1     -51.400 -47.008  24.248  1.00  0.00    -0.000 C 
BRANCH  17  18
ATOM     18  C   UNL     1     -50.486 -47.458  23.091  1.00  0.00    -0.000 C 
BRANCH  18  19
ATOM     19  C   UNL     1     -49.492 -48.571  23.482  1.00  0.00    -0.003 C 
ATOM     20  C   UNL     1     -50.176 -49.918  23.714  1.00  0.00     0.004 C 
ENDBRANCH  18  19
ENDBRANCH  17  18
ENDBRANCH  16  17
ENDBRANCH  15  16
ENDBRANCH  14  15
ENDBRANCH  13  14
ENDBRANCH  12  13
ENDBRANCH   1  12
TORSDOF 16
ENDMDL
MODEL 4
REMARK VINA RESULT:    -4.949      3.460      7.302
REMARK INTER + INTRA:         -11.480
REMARK INTER:                  -8.925
REMARK INTRA:                  -2.555
REMARK UNBOUND:                -1.901
REMARK SMILES CCCCCCCCCCCCCCCCCC(=O)[O-]
REMARK SMILES IDX 10 1 11 2 12 3 13 4 14 5 15 6 16 7 17 8 18 9 19 10 20 11
REMARK SMILES IDX 9 12 8 13 7 14 6 15 5 16 4 17 3 18 2 19 1 20
REMARK H PARENT
REMARK Flexibility Score: inf
ROOT
ATOM      1  C   UNL     1     -51.126 -50.313  18.819  1.00  0.00     0.000 C 
ENDROOT
BRANCH   1   2
ATOM      2  C   UNL     1     -52.168 -50.508  19.933  1.00  0.00     0.000 C 
BRANCH   2   3
ATOM      3  C   UNL     1     -52.916 -49.209  20.287  1.00  0.00     0.000 C 
BRANCH   3   4
ATOM      4  C   UNL     1     -53.533 -49.173  21.699  1.00  0.00     0.000 C 
BRANCH   4   5
ATOM      5  C   UNL     1     -52.721 -48.387  22.747  1.00  0.00     0.000 C 
BRANCH   5   6
ATOM      6  C   UNL     1     -51.528 -47.608  22.154  1.00  0.00     0.000 C 
BRANCH   6   7
ATOM      7  C   UNL     1     -50.176 -48.095  22.702  1.00  0.00     0.006 C 
BRANCH   7   8
ATOM      8  C   UNL     1     -50.172 -49.605  22.974  1.00  0.00     0.053 C 
BRANCH   8   9
ATOM      9  C   UNL     1     -49.607 -49.921  24.325  1.00  0.00     0.041 C 
ATOM     10  O   UNL     1     -48.375 -50.145  24.462  1.00  0.00    -0.550 OA
ATOM     11  O   UNL     1     -50.446 -49.997  25.429  1.00  0.00    -0.550 OA
ENDBRANCH   8   9
ENDBRANCH   7   8
ENDBRANCH   6   7
ENDBRANCH   5   6
ENDBRANCH   4   5
ENDBRANCH   3   4
ENDBRANCH   2   3
ENDBRANCH   1   2
BRANCH   1  12
ATOM     12  C   UNL     1     -50.167 -49.138  19.093  1.00  0.00     0.000 C 
BRANCH  12  13
ATOM     13  C   UNL     1     -48.739 -49.541  19.507  1.00  0.00    -0.000 C 
BRANCH  13  14
ATOM     14  C   UNL     1     -47.684 -48.493  19.125  1.00  0.00    -0.000 C 
BRANCH  14  15
ATOM     15  C   UNL     1     -48.128 -47.690  17.894  1.00  0.00    -0.000 C 
BRANCH  15  16
ATOM     16  C   UNL     1     -47.340 -48.057  16.622  1.00  0.00    -0.000 C 
BRANCH  16  17
ATOM     17  C   UNL     1     -48.018 -49.099  15.714  1.00  0.00    -0.000 C 
BRANCH  17  18
ATOM     18  C   UNL     1     -47.623 -50.563  15.992  1.00  0.00    -0.000 C 
BRANCH  18  19
ATOM     19  C   UNL     1     -48.827 -51.502  16.205  1.00  0.00    -0.003 C 
ATOM     20  C   UNL     1     -50.033 -51.119  15.347  1.00  0.00     0.004 C 
ENDBRANCH  18  19
ENDBRANCH  17  18
ENDBRANCH  16  17
ENDBRANCH  15  16
ENDBRANCH  14  15
ENDBRANCH  13  14
ENDBRANCH  12  13
ENDBRANCH   1  12
TORSDOF 16
ENDMDL
MODEL 5
REMARK VINA RESULT:    -4.904      1.821      3.000
REMARK INTER + INTRA:         -11.391
REMARK INTER:                  -9.014
REMARK INTRA:                  -2.377
REMARK UNBOUND:                -1.901
REMARK SMILES CCCCCCCCCCCCCCCCCC(=O)[O-]
REMARK SMILES IDX 10 1 11 2 12 3 13 4 14 5 15 6 16 7 17 8 18 9 19 10 20 11
REMARK SMILES IDX 9 12 8 13 7 14 6 15 5 16 4 17 3 18 2 19 1 20
REMARK H PARENT
REMARK Flexibility Score: inf
ROOT
ATOM      1  C   UNL     1     -49.297 -49.826  22.814  1.00  0.00     0.000 C 
ENDROOT
BRANCH   1   2
ATOM      2  C   UNL     1     -48.754 -48.502  22.250  1.00  0.00     0.000 C 
BRANCH   2   3
ATOM      3  C   UNL     1     -49.684 -47.876  21.194  1.00  0.00     0.000 C 
BRANCH   3   4
ATOM      4  C   UNL     1     -49.102 -47.801  19.769  1.00  0.00     0.000 C 
BRANCH   4   5
ATOM      5  C   UNL     1     -49.021 -49.148  19.024  1.00  0.00     0.000 C 
BRANCH   5   6
ATOM      6  C   UNL     1     -47.637 -49.434  18.404  1.00  0.00     0.000 C 
BRANCH   6   7
ATOM      7  C   UNL     1     -47.683 -49.494  16.868  1.00  0.00     0.006 C 
BRANCH   7   8
ATOM      8  C   UNL     1     -47.763 -50.936  16.347  1.00  0.00     0.053 C 
BRANCH   8   9
ATOM      9  C   UNL     1     -49.077 -51.210  15.681  1.00  0.00     0.041 C 
ATOM     10  O   UNL     1     -50.155 -51.014  16.301  1.00  0.00    -0.550 OA
ATOM     11  O   UNL     1     -49.108 -51.709  14.386  1.00  0.00    -0.550 OA
ENDBRANCH   8   9
ENDBRANCH   7   8
ENDBRANCH   6   7
ENDBRANCH   5   6
ENDBRANCH   4   5
ENDBRANCH   3   4
ENDBRANCH   2   3
ENDBRANCH   1   2
BRANCH   1  12
ATOM     12  C   UNL     1     -50.469 -49.626  23.794  1.00  0.00     0.000 C 
BRANCH  12  13
ATOM     13  C   UNL     1     -50.289 -48.479  24.806  1.00  0.00    -0.000 C 
BRANCH  13  14
ATOM     14  C   UNL     1     -51.374 -47.398  24.691  1.00  0.00    -0.000 C 
BRANCH  14  15
ATOM     15  C   UNL     1     -52.580 -47.914  23.891  1.00  0.00    -0.000 C 
BRANCH  15  16
ATOM     16  C   UNL     1     -52.987 -46.969  22.745  1.00  0.00    -0.000 C 
BRANCH  16  17
ATOM     17  C   UNL     1     -53.738 -47.644  21.582  1.00  0.00    -0.000 C 
BRANCH  17  18
ATOM     18  C   UNL     1     -53.492 -49.159  21.438  1.00  0.00    -0.000 C 
BRANCH  18  19
ATOM     19  C   UNL     1     -52.664 -49.538  20.194  1.00  0.00    -0.003 C 
ATOM     20  C   UNL     1     -51.938 -50.874  20.353  1.00  0.00     0.004 C 
ENDBRANCH  18  19
ENDBRANCH  17  18
ENDBRANCH  16  17
ENDBRANCH  15  16
ENDBRANCH  14  15
ENDBRANCH  13  14
ENDBRANCH  12  13
ENDBRANCH   1  12
TORSDOF 16
ENDMDL
MODEL 6
REMARK VINA RESULT:    -4.871      3.072      7.589
REMARK INTER + INTRA:         -11.329
REMARK INTER:                  -9.485
REMARK INTRA:                  -1.844
REMARK UNBOUND:                -1.901
REMARK SMILES CCCCCCCCCCCCCCCCCC(=O)[O-]
REMARK SMILES IDX 10 1 11 2 12 3 13 4 14 5 15 6 16 7 17 8 18 9 19 10 20 11
REMARK SMILES IDX 9 12 8 13 7 14 6 15 5 16 4 17 3 18 2 19 1 20
REMARK H PARENT
REMARK Flexibility Score: inf
ROOT
ATOM      1  C   UNL     1     -53.027 -49.281  20.156  1.00  0.00     0.000 C 
ENDROOT
BRANCH   1   2
ATOM      2  C   UNL     1     -53.837 -49.039  21.440  1.00  0.00     0.000 C 
BRANCH   2   3
ATOM      3  C   UNL     1     -54.680 -47.752  21.380  1.00  0.00     0.000 C 
BRANCH   3   4
ATOM      4  C   UNL     1     -54.206 -46.613  22.305  1.00  0.00     0.000 C 
BRANCH   4   5
ATOM      5  C   UNL     1     -52.777 -46.774  22.858  1.00  0.00     0.000 C 
BRANCH   5   6
ATOM      6  C   UNL     1     -52.728 -47.278  24.316  1.00  0.00     0.000 C 
BRANCH   6   7
ATOM      7  C   UNL     1     -51.911 -48.573  24.463  1.00  0.00     0.006 C 
BRANCH   7   8
ATOM      8  C   UNL     1     -50.557 -48.488  23.745  1.00  0.00     0.053 C 
BRANCH   8   9
ATOM      9  C   UNL     1     -49.780 -49.762  23.880  1.00  0.00     0.041 C 
ATOM     10  O   UNL     1     -49.015 -50.139  22.954  1.00  0.00    -0.550 OA
ATOM     11  O   UNL     1     -49.924 -50.546  25.017  1.00  0.00    -0.550 OA
ENDBRANCH   8   9
ENDBRANCH   7   8
ENDBRANCH   6   7
ENDBRANCH   5   6
ENDBRANCH   4   5
ENDBRANCH   3   4
ENDBRANCH   2   3
ENDBRANCH   1   2
BRANCH   1  12
ATOM     12  C   UNL     1     -51.572 -49.706  20.434  1.00  0.00     0.000 C 
BRANCH  12  13
ATOM     13  C   UNL     1     -50.498 -48.699  19.982  1.00  0.00    -0.000 C 
BRANCH  13  14
ATOM     14  C   UNL     1     -49.324 -49.362  19.246  1.00  0.00    -0.000 C 
BRANCH  14  15
ATOM     15  C   UNL     1     -49.828 -50.383  18.216  1.00  0.00    -0.000 C 
BRANCH  15  16
ATOM     16  C   UNL     1     -48.685 -51.132  17.506  1.00  0.00    -0.000 C 
BRANCH  16  17
ATOM     17  C   UNL     1     -47.517 -50.244  17.039  1.00  0.00    -0.000 C 
BRANCH  17  18
ATOM     18  C   UNL     1     -47.775 -49.457  15.739  1.00  0.00    -0.000 C 
BRANCH  18  19
ATOM     19  C   UNL     1     -47.145 -48.049  15.731  1.00  0.00    -0.003 C 
ATOM     20  C   UNL     1     -47.843 -47.084  16.689  1.00  0.00     0.004 C 
ENDBRANCH  18  19
ENDBRANCH  17  18
ENDBRANCH  16  17
ENDBRANCH  15  16
ENDBRANCH  14  15
ENDBRANCH  13  14
ENDBRANCH  12  13
ENDBRANCH   1  12
TORSDOF 16
ENDMDL
MODEL 7
REMARK VINA RESULT:    -4.852      1.604      2.364
REMARK INTER + INTRA:         -11.291
REMARK INTER:                  -9.694
REMARK INTRA:                  -1.597
REMARK UNBOUND:                -1.901
REMARK SMILES CCCCCCCCCCCCCCCCCC(=O)[O-]
REMARK SMILES IDX 10 1 11 2 12 3 13 4 14 5 15 6 16 7 17 8 18 9 19 10 20 11
REMARK SMILES IDX 9 12 8 13 7 14 6 15 5 16 4 17 3 18 2 19 1 20
REMARK H PARENT
REMARK Flexibility Score: inf
ROOT
ATOM      1  C   UNL     1     -49.316 -49.432  21.551  1.00  0.00     0.000 C 
ENDROOT
BRANCH   1   2
ATOM      2  C   UNL     1     -50.349 -48.799  20.603  1.00  0.00     0.000 C 
BRANCH   2   3
ATOM      3  C   UNL     1     -50.102 -49.157  19.125  1.00  0.00     0.000 C 
BRANCH   3   4
ATOM      4  C   UNL     1     -50.145 -50.662  18.799  1.00  0.00     0.000 C 
BRANCH   4   5
ATOM      5  C   UNL     1     -48.796 -51.278  18.378  1.00  0.00     0.000 C 
BRANCH   5   6
ATOM      6  C   UNL     1     -47.778 -50.245  17.850  1.00  0.00     0.000 C 
BRANCH   6   7
ATOM      7  C   UNL     1     -47.653 -50.274  16.318  1.00  0.00     0.006 C 
BRANCH   7   8
ATOM      8  C   UNL     1     -48.554 -51.341  15.683  1.00  0.00     0.053 C 
BRANCH   8   9
ATOM      9  C   UNL     1     -49.557 -50.733  14.750  1.00  0.00     0.041 C 
ATOM     10  O   UNL     1     -50.586 -51.378  14.416  1.00  0.00    -0.550 OA
ATOM     11  O   UNL     1     -49.340 -49.464  14.228  1.00  0.00    -0.550 OA
ENDBRANCH   8   9
ENDBRANCH   7   8
ENDBRANCH   6   7
ENDBRANCH   5   6
ENDBRANCH   4   5
ENDBRANCH   3   4
ENDBRANCH   2   3
ENDBRANCH   1   2
BRANCH   1  12
ATOM     12  C   UNL     1     -49.941 -49.957  22.857  1.00  0.00     0.000 C 
BRANCH  12  13
ATOM     13  C   UNL     1     -49.994 -48.940  24.013  1.00  0.00    -0.000 C 
BRANCH  13  14
ATOM     14  C   UNL     1     -51.311 -48.993  24.801  1.00  0.00    -0.000 C 
BRANCH  14  15
ATOM     15  C   UNL     1     -52.517 -48.798  23.870  1.00  0.00    -0.000 C 
BRANCH  15  16
ATOM     16  C   UNL     1     -52.777 -47.319  23.530  1.00  0.00    -0.000 C 
BRANCH  16  17
ATOM     17  C   UNL     1     -53.275 -47.059  22.096  1.00  0.00    -0.000 C 
BRANCH  17  18
ATOM     18  C   UNL     1     -54.022 -48.238  21.441  1.00  0.00    -0.000 C 
BRANCH  18  19
ATOM     19  C   UNL     1     -55.211 -47.806  20.559  1.00  0.00    -0.003 C 
ATOM     20  C   UNL     1     -56.523 -47.714  21.339  1.00  0.00     0.004 C 
ENDBRANCH  18  19
ENDBRANCH  17  18
ENDBRANCH  16  17
ENDBRANCH  15  16
ENDBRANCH  14  15
ENDBRANCH  13  14
ENDBRANCH  12  13
ENDBRANCH   1  12
TORSDOF 16
ENDMDL
MODEL 8
REMARK VINA RESULT:    -4.834      2.173      4.348
REMARK INTER + INTRA:         -11.256
REMARK INTER:                  -8.716
REMARK INTRA:                  -2.540
REMARK UNBOUND:                -1.901
REMARK SMILES CCCCCCCCCCCCCCCCCC(=O)[O-]
REMARK SMILES IDX 10 1 11 2 12 3 13 4 14 5 15 6 16 7 17 8 18 9 19 10 20 11
REMARK SMILES IDX 9 12 8 13 7 14 6 15 5 16 4 17 3 18 2 19 1 20
REMARK H PARENT
REMARK Flexibility Score: inf
ROOT
ATOM      1  C   UNL     1     -53.325 -48.577  22.286  1.00  0.00     0.000 C 
ENDROOT
BRANCH   1   2
ATOM      2  C   UNL     1     -53.088 -48.558  20.767  1.00  0.00     0.000 C 
BRANCH   2   3
ATOM      3  C   UNL     1     -52.348 -49.811  20.262  1.00  0.00     0.000 C 
BRANCH   3   4
ATOM      4  C   UNL     1     -52.369 -50.013  18.734  1.00  0.00     0.000 C 
BRANCH   4   5
ATOM      5  C   UNL     1     -51.036 -50.479  18.118  1.00  0.00     0.000 C 
BRANCH   5   6
ATOM      6  C   UNL     1     -49.847 -50.433  19.101  1.00  0.00     0.000 C 
BRANCH   6   7
ATOM      7  C   UNL     1     -48.647 -49.655  18.535  1.00  0.00     0.006 C 
BRANCH   7   8
ATOM      8  C   UNL     1     -47.801 -50.508  17.581  1.00  0.00     0.053 C 
BRANCH   8   9
ATOM      9  C   UNL     1     -47.686 -49.874  16.228  1.00  0.00     0.041 C 
ATOM     10  O   UNL     1     -48.148 -50.459  15.213  1.00  0.00    -0.550 OA
ATOM     11  O   UNL     1     -47.042 -48.652  16.086  1.00  0.00    -0.550 OA
ENDBRANCH   8   9
ENDBRANCH   7   8
ENDBRANCH   6   7
ENDBRANCH   5   6
ENDBRANCH   4   5
ENDBRANCH   3   4
ENDBRANCH   2   3
ENDBRANCH   1   2
BRANCH   1  12
ATOM     12  C   UNL     1     -52.963 -47.244  22.968  1.00  0.00     0.000 C 
BRANCH  12  13
ATOM     13  C   UNL     1     -52.601 -47.349  24.462  1.00  0.00    -0.000 C 
BRANCH  13  14
ATOM     14  C   UNL     1     -51.254 -46.694  24.803  1.00  0.00    -0.000 C 
BRANCH  14  15
ATOM     15  C   UNL     1     -50.280 -47.721  25.397  1.00  0.00    -0.000 C 
BRANCH  15  16
ATOM     16  C   UNL     1     -50.678 -49.176  25.084  1.00  0.00    -0.000 C 
BRANCH  16  17
ATOM     17  C   UNL     1     -49.665 -49.957  24.227  1.00  0.00    -0.000 C 
BRANCH  17  18
ATOM     18  C   UNL     1     -49.763 -49.704  22.710  1.00  0.00    -0.000 C 
BRANCH  18  19
ATOM     19  C   UNL     1     -48.827 -48.587  22.205  1.00  0.00    -0.003 C 
ATOM     20  C   UNL     1     -49.571 -47.498  21.433  1.00  0.00     0.004 C 
ENDBRANCH  18  19
ENDBRANCH  17  18
ENDBRANCH  16  17
ENDBRANCH  15  16
ENDBRANCH  14  15
ENDBRANCH  13  14
ENDBRANCH  12  13
ENDBRANCH   1  12
TORSDOF 16
ENDMDL
MODEL 9
REMARK VINA RESULT:    -4.818     11.728     14.270
REMARK INTER + INTRA:         -11.225
REMARK INTER:                  -9.090
REMARK INTRA:                  -2.135
REMARK UNBOUND:                -1.901
REMARK SMILES CCCCCCCCCCCCCCCCCC(=O)[O-]
REMARK SMILES IDX 10 1 11 2 12 3 13 4 14 5 15 6 16 7 17 8 18 9 19 10 20 11
REMARK SMILES IDX 9 12 8 13 7 14 6 15 5 16 4 17 3 18 2 19 1 20
REMARK H PARENT
REMARK Flexibility Score: inf
ROOT
ATOM      1  C   UNL     1     -41.249 -50.028  28.545  1.00  0.00     0.000 C 
ENDROOT
BRANCH   1   2
ATOM      2  C   UNL     1     -41.559 -49.595  29.987  1.00  0.00     0.000 C 
BRANCH   2   3
ATOM      3  C   UNL     1     -43.045 -49.765  30.355  1.00  0.00     0.000 C 
BRANCH   3   4
ATOM      4  C   UNL     1     -43.967 -48.613  29.910  1.00  0.00     0.000 C 
BRANCH   4   5
ATOM      5  C   UNL     1     -45.476 -48.892  30.050  1.00  0.00     0.000 C 
BRANCH   5   6
ATOM      6  C   UNL     1     -45.974 -48.899  31.510  1.00  0.00     0.000 C 
BRANCH   6   7
ATOM      7  C   UNL     1     -46.939 -50.062  31.797  1.00  0.00     0.006 C 
BRANCH   7   8
ATOM      8  C   UNL     1     -46.493 -50.900  33.002  1.00  0.00     0.053 C 
BRANCH   8   9
ATOM      9  C   UNL     1     -45.498 -51.949  32.607  1.00  0.00     0.041 C 
ATOM     10  O   UNL     1     -44.343 -51.948  33.108  1.00  0.00    -0.550 OA
ATOM     11  O   UNL     1     -45.838 -52.908  31.662  1.00  0.00    -0.550 OA
ENDBRANCH   8   9
ENDBRANCH   7   8
ENDBRANCH   6   7
ENDBRANCH   5   6
ENDBRANCH   4   5
ENDBRANCH   3   4
ENDBRANCH   2   3
ENDBRANCH   1   2
BRANCH   1  12
ATOM     12  C   UNL     1     -40.361 -49.019  27.792  1.00  0.00     0.000 C 
BRANCH  12  13
ATOM     13  C   UNL     1     -40.287 -47.615  28.421  1.00  0.00    -0.000 C 
BRANCH  13  14
ATOM     14  C   UNL     1     -41.097 -46.565  27.646  1.00  0.00    -0.000 C 
BRANCH  14  15
ATOM     15  C   UNL     1     -41.110 -46.882  26.143  1.00  0.00    -0.000 C 
BRANCH  15  16
ATOM     16  C   UNL     1     -42.403 -46.421  25.445  1.00  0.00    -0.000 C 
BRANCH  16  17
ATOM     17  C   UNL     1     -43.389 -47.549  25.090  1.00  0.00    -0.000 C 
BRANCH  17  18
ATOM     18  C   UNL     1     -43.979 -48.303  26.298  1.00  0.00    -0.000 C 
BRANCH  18  19
ATOM     19  C   UNL     1     -44.051 -49.831  26.102  1.00  0.00    -0.003 C 
ATOM     20  C   UNL     1     -44.073 -50.237  24.628  1.00  0.00     0.004 C 
ENDBRANCH  18  19
ENDBRANCH  17  18
ENDBRANCH  16  17
ENDBRANCH  15  16
ENDBRANCH  14  15
ENDBRANCH  13  14
ENDBRANCH  12  13
ENDBRANCH   1  12
TORSDOF 16
ENDMDL
