MODEL 1
REMARK VINA RESULT:    -5.162      0.000      0.000
REMARK INTER + INTRA:         -10.971
REMARK INTER:                  -9.386
REMARK INTRA:                  -1.585
REMARK UNBOUND:                -1.585
REMARK SMILES CCCCCCCCCCCCCCCC(=O)[O-]
REMARK SMILES IDX 9 1 10 2 11 3 12 4 13 5 14 6 15 7 16 8 17 9 18 10 8 11 7 12
REMARK SMILES IDX 6 13 5 14 4 15 3 16 2 17 1 18
REMARK H PARENT
REMARK Flexibility Score: inf
ROOT
ATOM      1  C   UNL     1      30.483  -4.358  30.298  1.00  0.00     0.000 C 
ENDROOT
BRANCH   1   2
ATOM      2  C   UNL     1      29.461  -3.505  29.537  1.00  0.00     0.000 C 
BRANCH   2   3
ATOM      3  C   UNL     1      29.409  -2.078  30.095  1.00  0.00     0.000 C 
BRANCH   3   4
ATOM      4  C   UNL     1      28.245  -1.914  31.084  1.00  0.00     0.000 C 
BRANCH   4   5
ATOM      5  C   UNL     1      26.881  -1.826  30.368  1.00  0.00     0.000 C 
BRANCH   5   6
ATOM      6  C   UNL     1      26.331  -0.393  30.263  1.00  0.00     0.006 C 
BRANCH   6   7
ATOM      7  C   UNL     1      26.943   0.397  29.101  1.00  0.00     0.053 C 
BRANCH   7   8
ATOM      8  C   UNL     1      27.634   1.624  29.609  1.00  0.00     0.041 C 
ATOM      9  O   UNL     1      28.315   1.575  30.666  1.00  0.00    -0.550 OA
ATOM     10  O   UNL     1      27.484   2.832  28.941  1.00  0.00    -0.550 OA
ENDBRANCH   7   8
ENDBRANCH   6   7
ENDBRANCH   5   6
ENDBRANCH   4   5
ENDBRANCH   3   4
ENDBRANCH   2   3
ENDBRANCH   1   2
BRANCH   1  11
ATOM     11  C   UNL     1      29.889  -5.718  30.683  1.00  0.00     0.000 C 
BRANCH  11  12
ATOM     12  C   UNL     1      28.357  -5.701  30.566  1.00  0.00    -0.000 C 
BRANCH  12  13
ATOM     13  C   UNL     1      27.819  -6.823  29.664  1.00  0.00    -0.000 C 
BRANCH  13  14
ATOM     14  C   UNL     1      28.919  -7.463  28.799  1.00  0.00    -0.000 C 
BRANCH  14  15
ATOM     15  C   UNL     1      28.877  -9.002  28.820  1.00  0.00    -0.000 C 
BRANCH  15  16
ATOM     16  C   UNL     1      28.162  -9.621  30.036  1.00  0.00    -0.000 C 
BRANCH  16  17
ATOM     17  C   UNL     1      29.110  -9.889  31.213  1.00  0.00    -0.003 C 
ATOM     18  C   UNL     1      28.686  -9.102  32.450  1.00  0.00     0.004 C 
ENDBRANCH  16  17
ENDBRANCH  15  16
ENDBRANCH  14  15
ENDBRANCH  13  14
ENDBRANCH  12  13
ENDBRANCH  11  12
ENDBRANCH   1  11
TORSDOF 14
ENDMDL
MODEL 2
REMARK VINA RESULT:    -5.042      1.406      1.646
REMARK INTER + INTRA:         -10.754
REMARK INTER:                  -9.505
REMARK INTRA:                  -1.249
REMARK UNBOUND:                -1.585
REMARK SMILES CCCCCCCCCCCCCCCC(=O)[O-]
REMARK SMILES IDX 9 1 10 2 11 3 12 4 13 5 14 6 15 7 16 8 17 9 18 10 8 11 7 12
REMARK SMILES IDX 6 13 5 14 4 15 3 16 2 17 1 18
REMARK H PARENT
REMARK Flexibility Score: inf
ROOT
ATOM      1  C   UNL     1      30.483  -4.101  30.130  1.00  0.00     0.000 C 
ENDROOT
BRANCH   1   2
ATOM      2  C   UNL     1      29.358  -3.063  30.035  1.00  0.00     0.000 C 
BRANCH   2   3
ATOM      3  C   UNL     1      29.905  -1.641  30.211  1.00  0.00     0.000 C 
BRANCH   3   4
ATOM      4  C   UNL     1      29.392  -1.010  31.515  1.00  0.00     0.000 C 
BRANCH   4   5
ATOM      5  C   UNL     1      29.416   0.532  31.464  1.00  0.00     0.000 C 
BRANCH   5   6
ATOM      6  C   UNL     1      28.040   1.161  31.179  1.00  0.00     0.006 C 
BRANCH   6   7
ATOM      7  C   UNL     1      27.679   1.154  29.689  1.00  0.00     0.053 C 
BRANCH   7   8
ATOM      8  C   UNL     1      26.572   0.183  29.424  1.00  0.00     0.041 C 
ATOM      9  O   UNL     1      25.925  -0.318  30.382  1.00  0.00    -0.550 OA
ATOM     10  O   UNL     1      26.285  -0.206  28.122  1.00  0.00    -0.550 OA
ENDBRANCH   7   8
ENDBRANCH   6   7
ENDBRANCH   5   6
ENDBRANCH   4   5
ENDBRANCH   3   4
ENDBRANCH   2   3
ENDBRANCH   1   2
BRANCH   1  11
ATOM     11  C   UNL     1      29.929  -5.484  30.494  1.00  0.00     0.000 C 
BRANCH  11  12
ATOM     12  C   UNL     1      28.395  -5.501  30.401  1.00  0.00    -0.000 C 
BRANCH  12  13
ATOM     13  C   UNL     1      27.864  -6.701  29.601  1.00  0.00    -0.000 C 
BRANCH  13  14
ATOM     14  C   UNL     1      28.992  -7.559  29.005  1.00  0.00    -0.000 C 
BRANCH  14  15
ATOM     15  C   UNL     1      28.585  -9.032  28.809  1.00  0.00    -0.000 C 
BRANCH  15  16
ATOM     16  C   UNL     1      28.378  -9.832  30.108  1.00  0.00    -0.000 C 
BRANCH  16  17
ATOM     17  C   UNL     1      29.408  -9.488  31.193  1.00  0.00    -0.003 C 
ATOM     18  C   UNL     1      28.726  -8.950  32.448  1.00  0.00     0.004 C 
ENDBRANCH  16  17
ENDBRANCH  15  16
ENDBRANCH  14  15
ENDBRANCH  13  14
ENDBRANCH  12  13
ENDBRANCH  11  12
ENDBRANCH   1  11
TORSDOF 14
ENDMDL
MODEL 3
REMARK VINA RESULT:    -5.033      1.280      2.403
REMARK INTER + INTRA:         -10.737
REMARK INTER:                  -9.497
REMARK INTRA:                  -1.241
REMARK UNBOUND:                -1.585
REMARK SMILES CCCCCCCCCCCCCCCC(=O)[O-]
REMARK SMILES IDX 9 1 10 2 11 3 12 4 13 5 14 6 15 7 16 8 17 9 18 10 8 11 7 12
REMARK SMILES IDX 6 13 5 14 4 15 3 16 2 17 1 18
REMARK H PARENT
REMARK Flexibility Score: inf
ROOT
ATOM      1  C   UNL     1      29.550  -2.291  29.973  1.00  0.00     0.000 C 
ENDROOT
BRANCH   1   2
ATOM      2  C   UNL     1      29.383  -1.282  31.115  1.00  0.00     0.000 C 
BRANCH   2   3
ATOM      3  C   UNL     1      27.980  -1.371  31.728  1.00  0.00     0.000 C 
BRANCH   3   4
ATOM      4  C   UNL     1      27.174  -0.093  31.450  1.00  0.00     0.000 C 
BRANCH   4   5
ATOM      5  C   UNL     1      26.383  -0.180  30.128  1.00  0.00     0.000 C 
BRANCH   5   6
ATOM      6  C   UNL     1      26.987   0.664  28.992  1.00  0.00     0.006 C 
BRANCH   6   7
ATOM      7  C   UNL     1      27.922   1.768  29.501  1.00  0.00     0.053 C 
BRANCH   7   8
ATOM      8  C   UNL     1      27.419   3.113  29.082  1.00  0.00     0.041 C 
ATOM      9  O   UNL     1      27.951   4.159  29.538  1.00  0.00    -0.550 OA
ATOM     10  O   UNL     1      26.331   3.212  28.224  1.00  0.00    -0.550 OA
ENDBRANCH   7   8
ENDBRANCH   6   7
ENDBRANCH   5   6
ENDBRANCH   4   5
ENDBRANCH   3   4
ENDBRANCH   2   3
ENDBRANCH   1   2
BRANCH   1  11
ATOM     11  C   UNL     1      28.745  -3.568  30.244  1.00  0.00     0.000 C 
BRANCH  11  12
ATOM     12  C   UNL     1      29.458  -4.799  29.662  1.00  0.00    -0.000 C 
BRANCH  12  13
ATOM     13  C   UNL     1      29.826  -5.834  30.737  1.00  0.00    -0.000 C 
BRANCH  13  14
ATOM     14  C   UNL     1      28.588  -6.475  31.388  1.00  0.00    -0.000 C 
BRANCH  14  15
ATOM     15  C   UNL     1      28.785  -7.969  31.706  1.00  0.00    -0.000 C 
BRANCH  15  16
ATOM     16  C   UNL     1      29.390  -8.806  30.564  1.00  0.00    -0.000 C 
BRANCH  16  17
ATOM     17  C   UNL     1      28.485  -8.873  29.326  1.00  0.00    -0.003 C 
ATOM     18  C   UNL     1      29.307  -8.835  28.041  1.00  0.00     0.004 C 
ENDBRANCH  16  17
ENDBRANCH  15  16
ENDBRANCH  14  15
ENDBRANCH  13  14
ENDBRANCH  12  13
ENDBRANCH  11  12
ENDBRANCH   1  11
TORSDOF 14
ENDMDL
MODEL 4
REMARK VINA RESULT:    -4.942      1.651      2.519
REMARK INTER + INTRA:         -10.573
REMARK INTER:                  -9.081
REMARK INTRA:                  -1.492
REMARK UNBOUND:                -1.585
REMARK SMILES CCCCCCCCCCCCCCCC(=O)[O-]
REMARK SMILES IDX 9 1 10 2 11 3 12 4 13 5 14 6 15 7 16 8 17 9 18 10 8 11 7 12
REMARK SMILES IDX 6 13 5 14 4 15 3 16 2 17 1 18
REMARK H PARENT
REMARK Flexibility Score: inf
ROOT
ATOM      1  C   UNL     1      29.336  -3.166  29.978  1.00  0.00     0.000 C 
ENDROOT
BRANCH   1   2
ATOM      2  C   UNL     1      28.243  -2.924  31.027  1.00  0.00     0.000 C 
BRANCH   2   3
ATOM      3  C   UNL     1      26.926  -2.504  30.363  1.00  0.00     0.000 C 
BRANCH   3   4
ATOM      4  C   UNL     1      27.129  -1.278  29.459  1.00  0.00     0.000 C 
BRANCH   4   5
ATOM      5  C   UNL     1      26.552   0.009  30.085  1.00  0.00     0.000 C 
BRANCH   5   6
ATOM      6  C   UNL     1      27.479   0.658  31.127  1.00  0.00     0.006 C 
BRANCH   6   7
ATOM      7  C   UNL     1      28.792   1.169  30.521  1.00  0.00     0.053 C 
BRANCH   7   8
ATOM      8  C   UNL     1      29.951   0.383  31.047  1.00  0.00     0.041 C 
ATOM      9  O   UNL     1      30.867   0.006  30.269  1.00  0.00    -0.550 OA
ATOM     10  O   UNL     1      29.996   0.023  32.388  1.00  0.00    -0.550 OA
ENDBRANCH   7   8
ENDBRANCH   6   7
ENDBRANCH   5   6
ENDBRANCH   4   5
ENDBRANCH   3   4
ENDBRANCH   2   3
ENDBRANCH   1   2
BRANCH   1  11
ATOM     11  C   UNL     1      29.902  -4.586  30.089  1.00  0.00     0.000 C 
BRANCH  11  12
ATOM     12  C   UNL     1      29.083  -5.572  29.242  1.00  0.00    -0.000 C 
BRANCH  12  13
ATOM     13  C   UNL     1      28.041  -6.341  30.070  1.00  0.00    -0.000 C 
BRANCH  13  14
ATOM     14  C   UNL     1      28.677  -7.150  31.214  1.00  0.00    -0.000 C 
BRANCH  14  15
ATOM     15  C   UNL     1      29.347  -8.449  30.728  1.00  0.00    -0.000 C 
BRANCH  15  16
ATOM     16  C   UNL     1      28.380  -9.603  30.406  1.00  0.00    -0.000 C 
BRANCH  16  17
ATOM     17  C   UNL     1      28.351  -9.960  28.913  1.00  0.00    -0.003 C 
ATOM     18  C   UNL     1      29.379  -9.146  28.133  1.00  0.00     0.004 C 
ENDBRANCH  16  17
ENDBRANCH  15  16
ENDBRANCH  14  15
ENDBRANCH  13  14
ENDBRANCH  12  13
ENDBRANCH  11  12
ENDBRANCH   1  11
TORSDOF 14
ENDMDL
MODEL 5
REMARK VINA RESULT:    -4.932      3.988      8.205
REMARK INTER + INTRA:         -10.553
REMARK INTER:                  -9.208
REMARK INTRA:                  -1.345
REMARK UNBOUND:                -1.585
REMARK SMILES CCCCCCCCCCCCCCCC(=O)[O-]
REMARK SMILES IDX 9 1 10 2 11 3 12 4 13 5 14 6 15 7 16 8 17 9 18 10 8 11 7 12
REMARK SMILES IDX 6 13 5 14 4 15 3 16 2 17 1 18
REMARK H PARENT
REMARK Flexibility Score: inf
ROOT
ATOM      1  C   UNL     1      29.148  -3.046  29.647  1.00  0.00     0.000 C 
ENDROOT
BRANCH   1   2
ATOM      2  C   UNL     1      30.312  -3.938  30.097  1.00  0.00     0.000 C 
BRANCH   2   3
ATOM      3  C   UNL     1      29.816  -5.340  30.474  1.00  0.00     0.000 C 
BRANCH   3   4
ATOM      4  C   UNL     1      29.069  -5.995  29.302  1.00  0.00     0.000 C 
BRANCH   4   5
ATOM      5  C   UNL     1      28.115  -7.113  29.772  1.00  0.00     0.000 C 
BRANCH   5   6
ATOM      6  C   UNL     1      28.574  -8.525  29.366  1.00  0.00     0.006 C 
BRANCH   6   7
ATOM      7  C   UNL     1      28.138  -9.603  30.365  1.00  0.00     0.053 C 
BRANCH   7   8
ATOM      8  C   UNL     1      28.962  -9.524  31.612  1.00  0.00     0.041 C 
ATOM      9  O   UNL     1      30.158  -9.918  31.608  1.00  0.00    -0.550 OA
ATOM     10  O   UNL     1      28.394  -9.059  32.792  1.00  0.00    -0.550 OA
ENDBRANCH   7   8
ENDBRANCH   6   7
ENDBRANCH   5   6
ENDBRANCH   4   5
ENDBRANCH   3   4
ENDBRANCH   2   3
ENDBRANCH   1   2
BRANCH   1  11
ATOM     11  C   UNL     1      28.036  -3.017  30.702  1.00  0.00     0.000 C 
BRANCH  11  12
ATOM     12  C   UNL     1      26.948  -1.999  30.325  1.00  0.00    -0.000 C 
BRANCH  12  13
ATOM     13  C   UNL     1      27.300  -1.198  29.061  1.00  0.00    -0.000 C 
BRANCH  13  14
ATOM     14  C   UNL     1      26.601   0.172  29.016  1.00  0.00    -0.000 C 
BRANCH  14  15
ATOM     15  C   UNL     1      27.538   1.334  29.397  1.00  0.00    -0.000 C 
BRANCH  15  16
ATOM     16  C   UNL     1      28.948   0.916  29.852  1.00  0.00    -0.000 C 
BRANCH  16  17
ATOM     17  C   UNL     1      29.179   1.125  31.355  1.00  0.00    -0.003 C 
ATOM     18  C   UNL     1      29.834  -0.101  31.987  1.00  0.00     0.004 C 
ENDBRANCH  16  17
ENDBRANCH  15  16
ENDBRANCH  14  15
ENDBRANCH  13  14
ENDBRANCH  12  13
ENDBRANCH  11  12
ENDBRANCH   1  11
TORSDOF 14
ENDMDL
MODEL 6
REMARK VINA RESULT:    -4.906      3.978      8.187
REMARK INTER + INTRA:         -10.507
REMARK INTER:                  -8.904
REMARK INTRA:                  -1.603
REMARK UNBOUND:                -1.585
REMARK SMILES CCCCCCCCCCCCCCCC(=O)[O-]
REMARK SMILES IDX 9 1 10 2 11 3 12 4 13 5 14 6 15 7 16 8 17 9 18 10 8 11 7 12
REMARK SMILES IDX 6 13 5 14 4 15 3 16 2 17 1 18
REMARK H PARENT
REMARK Flexibility Score: inf
ROOT
ATOM      1  C   UNL     1      29.218  -2.472  30.566  1.00  0.00     0.000 C 
ENDROOT
BRANCH   1   2
ATOM      2  C   UNL     1      29.051  -3.890  30.009  1.00  0.00     0.000 C 
BRANCH   2   3
ATOM      3  C   UNL     1      27.754  -4.532  30.516  1.00  0.00     0.000 C 
BRANCH   3   4
ATOM      4  C   UNL     1      27.618  -5.977  30.011  1.00  0.00     0.000 C 
BRANCH   4   5
ATOM      5  C   UNL     1      28.867  -6.442  29.233  1.00  0.00     0.000 C 
BRANCH   5   6
ATOM      6  C   UNL     1      28.905  -7.959  28.978  1.00  0.00     0.006 C 
BRANCH   6   7
ATOM      7  C   UNL     1      28.145  -8.761  30.041  1.00  0.00     0.053 C 
BRANCH   7   8
ATOM      8  C   UNL     1      29.073  -9.186  31.137  1.00  0.00     0.041 C 
ATOM      9  O   UNL     1      28.783  -8.952  32.339  1.00  0.00    -0.550 OA
ATOM     10  O   UNL     1      30.281  -9.796  30.826  1.00  0.00    -0.550 OA
ENDBRANCH   7   8
ENDBRANCH   6   7
ENDBRANCH   5   6
ENDBRANCH   4   5
ENDBRANCH   3   4
ENDBRANCH   2   3
ENDBRANCH   1   2
BRANCH   1  11
ATOM     11  C   UNL     1      30.075  -1.609  29.631  1.00  0.00     0.000 C 
BRANCH  11  12
ATOM     12  C   UNL     1      30.626  -0.379  30.370  1.00  0.00    -0.000 C 
BRANCH  12  13
ATOM     13  C   UNL     1      29.809  -0.028  31.624  1.00  0.00    -0.000 C 
BRANCH  13  14
ATOM     14  C   UNL     1      29.067   1.313  31.488  1.00  0.00    -0.000 C 
BRANCH  14  15
ATOM     15  C   UNL     1      27.796   1.208  30.624  1.00  0.00    -0.000 C 
BRANCH  15  16
ATOM     16  C   UNL     1      26.739   0.212  31.133  1.00  0.00    -0.000 C 
BRANCH  16  17
ATOM     17  C   UNL     1      26.143  -0.653  30.013  1.00  0.00    -0.003 C 
ATOM     18  C   UNL     1      26.756  -0.300  28.660  1.00  0.00     0.004 C 
ENDBRANCH  16  17
ENDBRANCH  15  16
ENDBRANCH  14  15
ENDBRANCH  13  14
ENDBRANCH  12  13
ENDBRANCH  11  12
ENDBRANCH   1  11
TORSDOF 14
ENDMDL
MODEL 7
REMARK VINA RESULT:    -4.833      3.459      5.933
REMARK INTER + INTRA:         -10.374
REMARK INTER:                  -9.213
REMARK INTRA:                  -1.161
REMARK UNBOUND:                -1.585
REMARK SMILES CCCCCCCCCCCCCCCC(=O)[O-]
REMARK SMILES IDX 9 1 10 2 11 3 12 4 13 5 14 6 15 7 16 8 17 9 18 10 8 11 7 12
REMARK SMILES IDX 6 13 5 14 4 15 3 16 2 17 1 18
REMARK H PARENT
REMARK Flexibility Score: inf
ROOT
ATOM      1  C   UNL     1      29.371   0.718  31.555  1.00  0.00     0.000 C 
ENDROOT
BRANCH   1   2
ATOM      2  C   UNL     1      28.512   1.958  31.276  1.00  0.00     0.000 C 
BRANCH   2   3
ATOM      3  C   UNL     1      28.149   2.053  29.789  1.00  0.00     0.000 C 
BRANCH   3   4
ATOM      4  C   UNL     1      27.618   3.451  29.439  1.00  0.00     0.000 C 
BRANCH   4   5
ATOM      5  C   UNL     1      27.972   4.496  30.518  1.00  0.00     0.000 C 
BRANCH   5   6
ATOM      6  C   UNL     1      27.237   5.837  30.342  1.00  0.00     0.006 C 
BRANCH   6   7
ATOM      7  C   UNL     1      28.193   7.021  30.159  1.00  0.00     0.053 C 
BRANCH   7   8
ATOM      8  C   UNL     1      27.459   8.315  30.321  1.00  0.00     0.041 C 
ATOM      9  O   UNL     1      27.805   9.328  29.658  1.00  0.00    -0.550 OA
ATOM     10  O   UNL     1      26.422   8.415  31.240  1.00  0.00    -0.550 OA
ENDBRANCH   7   8
ENDBRANCH   6   7
ENDBRANCH   5   6
ENDBRANCH   4   5
ENDBRANCH   3   4
ENDBRANCH   2   3
ENDBRANCH   1   2
BRANCH   1  11
ATOM     11  C   UNL     1      30.128   0.278  30.296  1.00  0.00     0.000 C 
BRANCH  11  12
ATOM     12  C   UNL     1      29.846  -1.197  29.973  1.00  0.00    -0.000 C 
BRANCH  12  13
ATOM     13  C   UNL     1      28.754  -1.372  28.906  1.00  0.00    -0.000 C 
BRANCH  13  14
ATOM     14  C   UNL     1      27.372  -1.659  29.517  1.00  0.00    -0.000 C 
BRANCH  14  15
ATOM     15  C   UNL     1      27.448  -2.521  30.791  1.00  0.00    -0.000 C 
BRANCH  15  16
ATOM     16  C   UNL     1      27.063  -4.000  30.603  1.00  0.00    -0.000 C 
BRANCH  16  17
ATOM     17  C   UNL     1      28.253  -4.883  30.204  1.00  0.00    -0.003 C 
ATOM     18  C   UNL     1      27.825  -6.337  30.030  1.00  0.00     0.004 C 
ENDBRANCH  16  17
ENDBRANCH  15  16
ENDBRANCH  14  15
ENDBRANCH  13  14
ENDBRANCH  12  13
ENDBRANCH  11  12
ENDBRANCH   1  11
TORSDOF 14
ENDMDL
MODEL 8
REMARK VINA RESULT:    -4.833      1.525      2.517
REMARK INTER + INTRA:         -10.373
REMARK INTER:                  -9.074
REMARK INTRA:                  -1.299
REMARK UNBOUND:                -1.585
REMARK SMILES CCCCCCCCCCCCCCCC(=O)[O-]
REMARK SMILES IDX 9 1 10 2 11 3 12 4 13 5 14 6 15 7 16 8 17 9 18 10 8 11 7 12
REMARK SMILES IDX 6 13 5 14 4 15 3 16 2 17 1 18
REMARK H PARENT
REMARK Flexibility Score: inf
ROOT
ATOM      1  C   UNL     1      27.313  -2.132  30.000  1.00  0.00     0.000 C 
ENDROOT
BRANCH   1   2
ATOM      2  C   UNL     1      28.585  -1.742  29.238  1.00  0.00     0.000 C 
BRANCH   2   3
ATOM      3  C   UNL     1      29.784  -1.636  30.188  1.00  0.00     0.000 C 
BRANCH   3   4
ATOM      4  C   UNL     1      30.196  -0.171  30.397  1.00  0.00     0.000 C 
BRANCH   4   5
ATOM      5  C   UNL     1      29.395   0.503  31.531  1.00  0.00     0.000 C 
BRANCH   5   6
ATOM      6  C   UNL     1      28.726   1.824  31.113  1.00  0.00     0.006 C 
BRANCH   6   7
ATOM      7  C   UNL     1      27.885   1.689  29.838  1.00  0.00     0.053 C 
BRANCH   7   8
ATOM      8  C   UNL     1      27.501   3.039  29.320  1.00  0.00     0.041 C 
ATOM      9  O   UNL     1      27.998   4.078  29.827  1.00  0.00    -0.550 OA
ATOM     10  O   UNL     1      26.556   3.152  28.308  1.00  0.00    -0.550 OA
ENDBRANCH   7   8
ENDBRANCH   6   7
ENDBRANCH   5   6
ENDBRANCH   4   5
ENDBRANCH   3   4
ENDBRANCH   2   3
ENDBRANCH   1   2
BRANCH   1  11
ATOM     11  C   UNL     1      27.533  -3.406  30.825  1.00  0.00     0.000 C 
BRANCH  11  12
ATOM     12  C   UNL     1      26.520  -4.494  30.435  1.00  0.00    -0.000 C 
BRANCH  12  13
ATOM     13  C   UNL     1      27.197  -5.809  30.014  1.00  0.00    -0.000 C 
BRANCH  13  14
ATOM     14  C   UNL     1      28.705  -5.642  29.762  1.00  0.00    -0.000 C 
BRANCH  14  15
ATOM     15  C   UNL     1      29.571  -6.403  30.784  1.00  0.00    -0.000 C 
BRANCH  15  16
ATOM     16  C   UNL     1      29.088  -7.827  31.118  1.00  0.00    -0.000 C 
BRANCH  16  17
ATOM     17  C   UNL     1      29.303  -8.818  29.966  1.00  0.00    -0.003 C 
ATOM     18  C   UNL     1      28.019  -9.581  29.651  1.00  0.00     0.004 C 
ENDBRANCH  16  17
ENDBRANCH  15  16
ENDBRANCH  14  15
ENDBRANCH  13  14
ENDBRANCH  12  13
ENDBRANCH  11  12
ENDBRANCH   1  11
TORSDOF 14
ENDMDL
MODEL 9
REMARK VINA RESULT:    -4.791      4.082      9.050
REMARK INTER + INTRA:         -10.297
REMARK INTER:                  -9.300
REMARK INTRA:                  -0.997
REMARK UNBOUND:                -1.585
REMARK SMILES CCCCCCCCCCCCCCCC(=O)[O-]
REMARK SMILES IDX 9 1 10 2 11 3 12 4 13 5 14 6 15 7 16 8 17 9 18 10 8 11 7 12
REMARK SMILES IDX 6 13 5 14 4 15 3 16 2 17 1 18
REMARK H PARENT
REMARK Flexibility Score: inf
ROOT
ATOM      1  C   UNL     1      27.822  -2.210  30.432  1.00  0.00     0.000 C 
ENDROOT
BRANCH   1   2
ATOM      2  C   UNL     1      29.149  -2.571  29.755  1.00  0.00     0.000 C 
BRANCH   2   3
ATOM      3  C   UNL     1      29.532  -4.029  30.038  1.00  0.00     0.000 C 
BRANCH   3   4
ATOM      4  C   UNL     1      28.288  -4.878  30.339  1.00  0.00     0.000 C 
BRANCH   4   5
ATOM      5  C   UNL     1      28.567  -5.967  31.397  1.00  0.00     0.000 C 
BRANCH   5   6
ATOM      6  C   UNL     1      28.654  -7.387  30.811  1.00  0.00     0.006 C 
BRANCH   6   7
ATOM      7  C   UNL     1      28.462  -7.418  29.290  1.00  0.00     0.053 C 
BRANCH   7   8
ATOM      8  C   UNL     1      28.824  -8.764  28.745  1.00  0.00     0.041 C 
ATOM      9  O   UNL     1      29.591  -8.860  27.751  1.00  0.00    -0.550 OA
ATOM     10  O   UNL     1      28.275  -9.911  29.305  1.00  0.00    -0.550 OA
ENDBRANCH   7   8
ENDBRANCH   6   7
ENDBRANCH   5   6
ENDBRANCH   4   5
ENDBRANCH   3   4
ENDBRANCH   2   3
ENDBRANCH   1   2
BRANCH   1  11
ATOM     11  C   UNL     1      28.048  -1.270  31.623  1.00  0.00     0.000 C 
BRANCH  11  12
ATOM     12  C   UNL     1      29.429  -0.602  31.541  1.00  0.00    -0.000 C 
BRANCH  12  13
ATOM     13  C   UNL     1      29.345   0.933  31.540  1.00  0.00    -0.000 C 
BRANCH  13  14
ATOM     14  C   UNL     1      27.991   1.449  31.024  1.00  0.00    -0.000 C 
BRANCH  14  15
ATOM     15  C   UNL     1      28.041   1.889  29.549  1.00  0.00    -0.000 C 
BRANCH  15  16
ATOM     16  C   UNL     1      27.648   3.355  29.289  1.00  0.00    -0.000 C 
BRANCH  16  17
ATOM     17  C   UNL     1      27.952   4.275  30.479  1.00  0.00    -0.003 C 
ATOM     18  C   UNL     1      27.170   5.582  30.377  1.00  0.00     0.004 C 
ENDBRANCH  16  17
ENDBRANCH  15  16
ENDBRANCH  14  15
ENDBRANCH  13  14
ENDBRANCH  12  13
ENDBRANCH  11  12
ENDBRANCH   1  11
TORSDOF 14
ENDMDL
