MODEL 1
REMARK VINA RESULT:    -4.296      0.000      0.000
REMARK INTER + INTRA:         -12.304
REMARK INTER:                 -10.826
REMARK INTRA:                  -1.478
REMARK UNBOUND:                -1.478
REMARK SMILES CCCCCCCCCCCCCCCCCCCCCCCCCCCC(=O)[O-]
REMARK SMILES IDX 15 1 16 2 17 3 18 4 19 5 20 6 21 7 22 8 23 9 24 10 25 11
REMARK SMILES IDX 26 12 27 13 28 14 29 15 30 16 14 17 13 18 12 19 11 20 10 21
REMARK SMILES IDX 9 22 8 23 7 24 6 25 5 26 4 27 3 28 2 29 1 30
REMARK H PARENT
REMARK Flexibility Score: inf
ROOT
ATOM      1  C   UNL     1      -6.737  19.704  15.067  1.00  0.00     0.000 C 
ENDROOT
BRANCH   1   2
ATOM      2  C   UNL     1      -7.327  20.906  14.312  1.00  0.00     0.000 C 
BRANCH   2   3
ATOM      3  C   UNL     1      -8.852  21.013  14.475  1.00  0.00     0.000 C 
BRANCH   3   4
ATOM      4  C   UNL     1      -9.312  22.479  14.454  1.00  0.00     0.000 C 
BRANCH   4   5
ATOM      5  C   UNL     1      -8.123  23.462  14.483  1.00  0.00     0.000 C 
BRANCH   5   6
ATOM      6  C   UNL     1      -8.165  24.511  13.358  1.00  0.00     0.000 C 
BRANCH   6   7
ATOM      7  C   UNL     1      -9.301  25.531  13.535  1.00  0.00     0.000 C 
BRANCH   7   8
ATOM      8  C   UNL     1      -8.836  26.979  13.267  1.00  0.00     0.000 C 
BRANCH   8   9
ATOM      9  C   UNL     1      -8.071  27.611  14.445  1.00  0.00     0.000 C 
BRANCH   9  10
ATOM     10  C   UNL     1      -7.224  28.842  14.080  1.00  0.00     0.000 C 
BRANCH  10  11
ATOM     11  C   UNL     1      -5.928  28.938  14.904  1.00  0.00     0.000 C 
BRANCH  11  12
ATOM     12  C   UNL     1      -4.825  27.996  14.387  1.00  0.00     0.006 C 
BRANCH  12  13
ATOM     13  C   UNL     1      -3.644  28.721  13.717  1.00  0.00     0.053 C 
BRANCH  13  14
ATOM     14  C   UNL     1      -2.562  27.781  13.280  1.00  0.00     0.041 C 
ATOM     15  O   UNL     1      -2.564  27.306  12.114  1.00  0.00    -0.550 OA
ATOM     16  O   UNL     1      -1.526  27.460  14.149  1.00  0.00    -0.550 OA
ENDBRANCH  13  14
ENDBRANCH  12  13
ENDBRANCH  11  12
ENDBRANCH  10  11
ENDBRANCH   9  10
ENDBRANCH   8   9
ENDBRANCH   7   8
ENDBRANCH   6   7
ENDBRANCH   5   6
ENDBRANCH   4   5
ENDBRANCH   3   4
ENDBRANCH   2   3
ENDBRANCH   1   2
BRANCH   1  17
ATOM     17  C   UNL     1      -5.228  19.534  14.814  1.00  0.00     0.000 C 
BRANCH  17  18
ATOM     18  C   UNL     1      -4.786  18.061  14.844  1.00  0.00     0.000 C 
BRANCH  18  19
ATOM     19  C   UNL     1      -3.342  17.873  14.354  1.00  0.00     0.000 C 
BRANCH  19  20
ATOM     20  C   UNL     1      -3.195  18.283  12.883  1.00  0.00     0.000 C 
BRANCH  20  21
ATOM     21  C   UNL     1      -1.949  17.639  12.258  1.00  0.00     0.000 C 
BRANCH  21  22
ATOM     22  C   UNL     1      -1.004  17.044  13.323  1.00  0.00    -0.000 C 
BRANCH  22  23
ATOM     23  C   UNL     1      -0.675  15.559  13.091  1.00  0.00    -0.000 C 
BRANCH  23  24
ATOM     24  C   UNL     1      -1.888  14.643  13.318  1.00  0.00    -0.000 C 
BRANCH  24  25
ATOM     25  C   UNL     1      -1.846  13.366  12.458  1.00  0.00    -0.000 C 
BRANCH  25  26
ATOM     26  C   UNL     1      -3.137  12.521  12.466  1.00  0.00    -0.000 C 
BRANCH  26  27
ATOM     27  C   UNL     1      -3.468  11.826  11.134  1.00  0.00    -0.000 C 
BRANCH  27  28
ATOM     28  C   UNL     1      -2.482  12.191  10.011  1.00  0.00    -0.000 C 
BRANCH  28  29
ATOM     29  C   UNL     1      -1.693  10.973   9.505  1.00  0.00    -0.003 C 
ATOM     30  C   UNL     1      -1.139  11.174   8.094  1.00  0.00     0.004 C 
ENDBRANCH  28  29
ENDBRANCH  27  28
ENDBRANCH  26  27
ENDBRANCH  25  26
ENDBRANCH  24  25
ENDBRANCH  23  24
ENDBRANCH  22  23
ENDBRANCH  21  22
ENDBRANCH  20  21
ENDBRANCH  19  20
ENDBRANCH  18  19
ENDBRANCH  17  18
ENDBRANCH   1  17
TORSDOF 26
ENDMDL
MODEL 2
REMARK VINA RESULT:    -3.887     15.640     19.094
REMARK INTER + INTRA:         -11.273
REMARK INTER:                  -8.427
REMARK INTRA:                  -2.846
REMARK UNBOUND:                -1.478
REMARK SMILES CCCCCCCCCCCCCCCCCCCCCCCCCCCC(=O)[O-]
REMARK SMILES IDX 15 1 16 2 17 3 18 4 19 5 20 6 21 7 22 8 23 9 24 10 25 11
REMARK SMILES IDX 26 12 27 13 28 14 29 15 30 16 14 17 13 18 12 19 11 20 10 21
REMARK SMILES IDX 9 22 8 23 7 24 6 25 5 26 4 27 3 28 2 29 1 30
REMARK H PARENT
REMARK Flexibility Score: inf
ROOT
ATOM      1  C   UNL     1     -13.680  10.360   7.194  1.00  0.00     0.000 C 
ENDROOT
BRANCH   1   2
ATOM      2  C   UNL     1     -14.346   9.225   7.988  1.00  0.00     0.000 C 
BRANCH   2   3
ATOM      3  C   UNL     1     -15.802   8.981   7.557  1.00  0.00     0.000 C 
BRANCH   3   4
ATOM      4  C   UNL     1     -16.641  10.262   7.686  1.00  0.00     0.000 C 
BRANCH   4   5
ATOM      5  C   UNL     1     -17.492  10.273   8.973  1.00  0.00     0.000 C 
BRANCH   5   6
ATOM      6  C   UNL     1     -18.999  10.108   8.716  1.00  0.00     0.000 C 
BRANCH   6   7
ATOM      7  C   UNL     1     -19.834  10.139  10.007  1.00  0.00     0.000 C 
BRANCH   7   8
ATOM      8  C   UNL     1     -19.891  11.548  10.634  1.00  0.00     0.000 C 
BRANCH   8   9
ATOM      9  C   UNL     1     -19.268  11.625  12.041  1.00  0.00     0.000 C 
BRANCH   9  10
ATOM     10  C   UNL     1     -19.054  10.265  12.728  1.00  0.00     0.000 C 
BRANCH  10  11
ATOM     11  C   UNL     1     -17.748  10.208  13.540  1.00  0.00     0.000 C 
BRANCH  11  12
ATOM     12  C   UNL     1     -16.641  11.099  12.946  1.00  0.00     0.006 C 
BRANCH  12  13
ATOM     13  C   UNL     1     -15.681  10.358  11.998  1.00  0.00     0.053 C 
BRANCH  13  14
ATOM     14  C   UNL     1     -14.277  10.307  12.523  1.00  0.00     0.041 C 
ATOM     15  O   UNL     1     -13.543   9.313  12.279  1.00  0.00    -0.550 OA
ATOM     16  O   UNL     1     -13.766  11.376  13.247  1.00  0.00    -0.550 OA
ENDBRANCH  13  14
ENDBRANCH  12  13
ENDBRANCH  11  12
ENDBRANCH  10  11
ENDBRANCH   9  10
ENDBRANCH   8   9
ENDBRANCH   7   8
ENDBRANCH   6   7
ENDBRANCH   5   6
ENDBRANCH   4   5
ENDBRANCH   3   4
ENDBRANCH   2   3
ENDBRANCH   1   2
BRANCH   1  17
ATOM     17  C   UNL     1     -12.693   9.836   6.135  1.00  0.00     0.000 C 
BRANCH  17  18
ATOM     18  C   UNL     1     -13.168  10.107   4.698  1.00  0.00     0.000 C 
BRANCH  18  19
ATOM     19  C   UNL     1     -14.109   9.011   4.176  1.00  0.00     0.000 C 
BRANCH  19  20
ATOM     20  C   UNL     1     -15.454   9.599   3.729  1.00  0.00     0.000 C 
BRANCH  20  21
ATOM     21  C   UNL     1     -15.659  11.002   4.318  1.00  0.00     0.000 C 
BRANCH  21  22
ATOM     22  C   UNL     1     -17.102  11.514   4.116  1.00  0.00    -0.000 C 
BRANCH  22  23
ATOM     23  C   UNL     1     -18.037  10.476   3.474  1.00  0.00    -0.000 C 
BRANCH  23  24
ATOM     24  C   UNL     1     -19.113  11.119   2.584  1.00  0.00    -0.000 C 
BRANCH  24  25
ATOM     25  C   UNL     1     -18.882  12.624   2.355  1.00  0.00    -0.000 C 
BRANCH  25  26
ATOM     26  C   UNL     1     -19.703  13.252   1.209  1.00  0.00    -0.000 C 
BRANCH  26  27
ATOM     27  C   UNL     1     -18.892  13.626  -0.044  1.00  0.00    -0.000 C 
BRANCH  27  28
ATOM     28  C   UNL     1     -19.776  13.821  -1.288  1.00  0.00    -0.000 C 
BRANCH  28  29
ATOM     29  C   UNL     1     -19.414  15.092  -2.072  1.00  0.00    -0.003 C 
ATOM     30  C   UNL     1     -19.382  16.340  -1.189  1.00  0.00     0.004 C 
ENDBRANCH  28  29
ENDBRANCH  27  28
ENDBRANCH  26  27
ENDBRANCH  25  26
ENDBRANCH  24  25
ENDBRANCH  23  24
ENDBRANCH  22  23
ENDBRANCH  21  22
ENDBRANCH  20  21
ENDBRANCH  19  20
ENDBRANCH  18  19
ENDBRANCH  17  18
ENDBRANCH   1  17
TORSDOF 26
ENDMDL
MODEL 3
REMARK VINA RESULT:    -3.886     16.660     19.910
REMARK INTER + INTRA:         -11.270
REMARK INTER:                  -8.153
REMARK INTRA:                  -3.118
REMARK UNBOUND:                -1.478
REMARK SMILES CCCCCCCCCCCCCCCCCCCCCCCCCCCC(=O)[O-]
REMARK SMILES IDX 15 1 16 2 17 3 18 4 19 5 20 6 21 7 22 8 23 9 24 10 25 11
REMARK SMILES IDX 26 12 27 13 28 14 29 15 30 16 14 17 13 18 12 19 11 20 10 21
REMARK SMILES IDX 9 22 8 23 7 24 6 25 5 26 4 27 3 28 2 29 1 30
REMARK H PARENT
REMARK Flexibility Score: inf
ROOT
ATOM      1  C   UNL     1     -16.024   9.815   3.570  1.00  0.00     0.000 C 
ENDROOT
BRANCH   1   2
ATOM      2  C   UNL     1     -17.313  10.335   4.227  1.00  0.00     0.000 C 
BRANCH   2   3
ATOM      3  C   UNL     1     -18.234  11.054   3.227  1.00  0.00     0.000 C 
BRANCH   3   4
ATOM      4  C   UNL     1     -18.014  10.536   1.798  1.00  0.00     0.000 C 
BRANCH   4   5
ATOM      5  C   UNL     1     -18.776  11.375   0.751  1.00  0.00     0.000 C 
BRANCH   5   6
ATOM      6  C   UNL     1     -19.792  12.353   1.368  1.00  0.00     0.000 C 
BRANCH   6   7
ATOM      7  C   UNL     1     -19.532  13.815   0.969  1.00  0.00     0.000 C 
BRANCH   7   8
ATOM      8  C   UNL     1     -18.578  13.933  -0.238  1.00  0.00     0.000 C 
BRANCH   8   9
ATOM      9  C   UNL     1     -19.264  14.435  -1.522  1.00  0.00     0.000 C 
BRANCH   9  10
ATOM     10  C   UNL     1     -18.809  13.736  -2.814  1.00  0.00     0.000 C 
BRANCH  10  11
ATOM     11  C   UNL     1     -18.953  12.205  -2.744  1.00  0.00     0.000 C 
BRANCH  11  12
ATOM     12  C   UNL     1     -17.786  11.468  -3.429  1.00  0.00     0.006 C 
BRANCH  12  13
ATOM     13  C   UNL     1     -16.396  11.880  -2.911  1.00  0.00     0.053 C 
BRANCH  13  14
ATOM     14  C   UNL     1     -15.702  10.772  -2.177  1.00  0.00     0.041 C 
ATOM     15  O   UNL     1     -16.347  10.028  -1.392  1.00  0.00    -0.550 OA
ATOM     16  O   UNL     1     -14.350  10.535  -2.390  1.00  0.00    -0.550 OA
ENDBRANCH  13  14
ENDBRANCH  12  13
ENDBRANCH  11  12
ENDBRANCH  10  11
ENDBRANCH   9  10
ENDBRANCH   8   9
ENDBRANCH   7   8
ENDBRANCH   6   7
ENDBRANCH   5   6
ENDBRANCH   4   5
ENDBRANCH   3   4
ENDBRANCH   2   3
ENDBRANCH   1   2
BRANCH   1  17
ATOM     17  C   UNL     1     -14.756  10.390   4.226  1.00  0.00     0.000 C 
BRANCH  17  18
ATOM     18  C   UNL     1     -13.539   9.462   4.075  1.00  0.00     0.000 C 
BRANCH  18  19
ATOM     19  C   UNL     1     -12.706   9.373   5.362  1.00  0.00     0.000 C 
BRANCH  19  20
ATOM     20  C   UNL     1     -13.272  10.288   6.455  1.00  0.00     0.000 C 
BRANCH  20  21
ATOM     21  C   UNL     1     -13.762   9.466   7.657  1.00  0.00     0.000 C 
BRANCH  21  22
ATOM     22  C   UNL     1     -15.281   9.196   7.599  1.00  0.00    -0.000 C 
BRANCH  22  23
ATOM     23  C   UNL     1     -16.132  10.477   7.600  1.00  0.00    -0.000 C 
BRANCH  23  24
ATOM     24  C   UNL     1     -17.529  10.257   8.203  1.00  0.00    -0.000 C 
BRANCH  24  25
ATOM     25  C   UNL     1     -17.492   9.528   9.559  1.00  0.00    -0.000 C 
BRANCH  25  26
ATOM     26  C   UNL     1     -17.711  10.421  10.797  1.00  0.00    -0.000 C 
BRANCH  26  27
ATOM     27  C   UNL     1     -16.605  10.337  11.864  1.00  0.00    -0.000 C 
BRANCH  27  28
ATOM     28  C   UNL     1     -15.387   9.523  11.395  1.00  0.00    -0.000 C 
BRANCH  28  29
ATOM     29  C   UNL     1     -14.067  10.060  11.971  1.00  0.00    -0.003 C 
ATOM     30  C   UNL     1     -14.282  11.057  13.110  1.00  0.00     0.004 C 
ENDBRANCH  28  29
ENDBRANCH  27  28
ENDBRANCH  26  27
ENDBRANCH  25  26
ENDBRANCH  24  25
ENDBRANCH  23  24
ENDBRANCH  22  23
ENDBRANCH  21  22
ENDBRANCH  20  21
ENDBRANCH  19  20
ENDBRANCH  18  19
ENDBRANCH  17  18
ENDBRANCH   1  17
TORSDOF 26
ENDMDL
MODEL 4
REMARK VINA RESULT:    -3.882      1.994      3.875
REMARK INTER + INTRA:         -11.260
REMARK INTER:                  -9.377
REMARK INTRA:                  -1.883
REMARK UNBOUND:                -1.478
REMARK SMILES CCCCCCCCCCCCCCCCCCCCCCCCCCCC(=O)[O-]
REMARK SMILES IDX 15 1 16 2 17 3 18 4 19 5 20 6 21 7 22 8 23 9 24 10 25 11
REMARK SMILES IDX 26 12 27 13 28 14 29 15 30 16 14 17 13 18 12 19 11 20 10 21
REMARK SMILES IDX 9 22 8 23 7 24 6 25 5 26 4 27 3 28 2 29 1 30
REMARK H PARENT
REMARK Flexibility Score: inf
ROOT
ATOM      1  C   UNL     1      -3.876  19.017  13.245  1.00  0.00     0.000 C 
ENDROOT
BRANCH   1   2
ATOM      2  C   UNL     1      -4.248  18.122  14.438  1.00  0.00     0.000 C 
BRANCH   2   3
ATOM      3  C   UNL     1      -5.569  18.547  15.103  1.00  0.00     0.000 C 
BRANCH   3   4
ATOM      4  C   UNL     1      -6.272  19.644  14.288  1.00  0.00     0.000 C 
BRANCH   4   5
ATOM      5  C   UNL     1      -7.321  20.408  15.125  1.00  0.00     0.000 C 
BRANCH   5   6
ATOM      6  C   UNL     1      -8.746  20.319  14.553  1.00  0.00     0.000 C 
BRANCH   6   7
ATOM      7  C   UNL     1      -9.261  21.666  14.019  1.00  0.00     0.000 C 
BRANCH   7   8
ATOM      8  C   UNL     1      -8.962  22.833  14.985  1.00  0.00     0.000 C 
BRANCH   8   9
ATOM      9  C   UNL     1      -7.814  23.746  14.515  1.00  0.00     0.000 C 
BRANCH   9  10
ATOM     10  C   UNL     1      -8.046  24.429  13.157  1.00  0.00     0.000 C 
BRANCH  10  11
ATOM     11  C   UNL     1      -8.960  25.663  13.260  1.00  0.00     0.000 C 
BRANCH  11  12
ATOM     12  C   UNL     1      -8.615  26.557  14.466  1.00  0.00     0.006 C 
BRANCH  12  13
ATOM     13  C   UNL     1      -7.741  27.775  14.114  1.00  0.00     0.053 C 
BRANCH  13  14
ATOM     14  C   UNL     1      -6.307  27.590  14.510  1.00  0.00     0.041 C 
ATOM     15  O   UNL     1      -5.946  26.551  15.125  1.00  0.00    -0.550 OA
ATOM     16  O   UNL     1      -5.360  28.546  14.164  1.00  0.00    -0.550 OA
ENDBRANCH  13  14
ENDBRANCH  12  13
ENDBRANCH  11  12
ENDBRANCH  10  11
ENDBRANCH   9  10
ENDBRANCH   8   9
ENDBRANCH   7   8
ENDBRANCH   6   7
ENDBRANCH   5   6
ENDBRANCH   4   5
ENDBRANCH   3   4
ENDBRANCH   2   3
ENDBRANCH   1   2
BRANCH   1  17
ATOM     17  C   UNL     1      -2.466  18.719  12.705  1.00  0.00     0.000 C 
BRANCH  17  18
ATOM     18  C   UNL     1      -1.369  18.949  13.758  1.00  0.00     0.000 C 
BRANCH  18  19
ATOM     19  C   UNL     1      -0.110  18.112  13.485  1.00  0.00     0.000 C 
BRANCH  19  20
ATOM     20  C   UNL     1      -0.345  16.632  13.812  1.00  0.00     0.000 C 
BRANCH  20  21
ATOM     21  C   UNL     1       0.066  15.740  12.631  1.00  0.00     0.000 C 
BRANCH  21  22
ATOM     22  C   UNL     1      -1.136  14.983  12.026  1.00  0.00    -0.000 C 
BRANCH  22  23
ATOM     23  C   UNL     1      -1.699  13.889  12.948  1.00  0.00    -0.000 C 
BRANCH  23  24
ATOM     24  C   UNL     1      -1.429  12.471  12.418  1.00  0.00    -0.000 C 
BRANCH  24  25
ATOM     25  C   UNL     1      -2.258  11.392  13.137  1.00  0.00    -0.000 C 
BRANCH  25  26
ATOM     26  C   UNL     1      -3.173  11.904  14.268  1.00  0.00    -0.000 C 
BRANCH  26  27
ATOM     27  C   UNL     1      -4.679  11.860  13.957  1.00  0.00    -0.000 C 
BRANCH  27  28
ATOM     28  C   UNL     1      -5.136  10.490  13.426  1.00  0.00    -0.000 C 
BRANCH  28  29
ATOM     29  C   UNL     1      -5.777  10.586  12.032  1.00  0.00    -0.003 C 
ATOM     30  C   UNL     1      -6.220   9.225  11.492  1.00  0.00     0.004 C 
ENDBRANCH  28  29
ENDBRANCH  27  28
ENDBRANCH  26  27
ENDBRANCH  25  26
ENDBRANCH  24  25
ENDBRANCH  23  24
ENDBRANCH  22  23
ENDBRANCH  21  22
ENDBRANCH  20  21
ENDBRANCH  19  20
ENDBRANCH  18  19
ENDBRANCH  17  18
ENDBRANCH   1  17
TORSDOF 26
ENDMDL
MODEL 5
REMARK VINA RESULT:    -3.877      1.302      2.121
REMARK INTER + INTRA:         -11.248
REMARK INTER:                  -9.785
REMARK INTRA:                  -1.463
REMARK UNBOUND:                -1.478
REMARK SMILES CCCCCCCCCCCCCCCCCCCCCCCCCCCC(=O)[O-]
REMARK SMILES IDX 15 1 16 2 17 3 18 4 19 5 20 6 21 7 22 8 23 9 24 10 25 11
REMARK SMILES IDX 26 12 27 13 28 14 29 15 30 16 14 17 13 18 12 19 11 20 10 21
REMARK SMILES IDX 9 22 8 23 7 24 6 25 5 26 4 27 3 28 2 29 1 30
REMARK H PARENT
REMARK Flexibility Score: inf
ROOT
ATOM      1  C   UNL     1      -7.104  20.603  14.857  1.00  0.00     0.000 C 
ENDROOT
BRANCH   1   2
ATOM      2  C   UNL     1      -7.430  22.104  14.804  1.00  0.00     0.000 C 
BRANCH   2   3
ATOM      3  C   UNL     1      -8.864  22.378  14.320  1.00  0.00     0.000 C 
BRANCH   3   4
ATOM      4  C   UNL     1      -9.198  23.876  14.393  1.00  0.00     0.000 C 
BRANCH   4   5
ATOM      5  C   UNL     1      -8.292  24.719  13.471  1.00  0.00     0.000 C 
BRANCH   5   6
ATOM      6  C   UNL     1      -8.786  26.163  13.277  1.00  0.00     0.000 C 
BRANCH   6   7
ATOM      7  C   UNL     1      -8.440  27.078  14.464  1.00  0.00     0.000 C 
BRANCH   7   8
ATOM      8  C   UNL     1      -7.386  28.144  14.095  1.00  0.00     0.000 C 
BRANCH   8   9
ATOM      9  C   UNL     1      -6.248  28.270  15.125  1.00  0.00     0.000 C 
BRANCH   9  10
ATOM     10  C   UNL     1      -4.956  28.906  14.585  1.00  0.00     0.000 C 
BRANCH  10  11
ATOM     11  C   UNL     1      -3.953  27.863  14.061  1.00  0.00     0.000 C 
BRANCH  11  12
ATOM     12  C   UNL     1      -3.022  28.430  12.972  1.00  0.00     0.006 C 
BRANCH  12  13
ATOM     13  C   UNL     1      -1.942  27.443  12.495  1.00  0.00     0.053 C 
BRANCH  13  14
ATOM     14  C   UNL     1      -0.890  27.193  13.533  1.00  0.00     0.041 C 
ATOM     15  O   UNL     1      -0.395  28.153  14.181  1.00  0.00    -0.550 OA
ATOM     16  O   UNL     1      -0.484  25.894  13.814  1.00  0.00    -0.550 OA
ENDBRANCH  13  14
ENDBRANCH  12  13
ENDBRANCH  11  12
ENDBRANCH  10  11
ENDBRANCH   9  10
ENDBRANCH   8   9
ENDBRANCH   7   8
ENDBRANCH   6   7
ENDBRANCH   5   6
ENDBRANCH   4   5
ENDBRANCH   3   4
ENDBRANCH   2   3
ENDBRANCH   1   2
BRANCH   1  17
ATOM     17  C   UNL     1      -5.589  20.330  14.851  1.00  0.00     0.000 C 
BRANCH  17  18
ATOM     18  C   UNL     1      -5.247  18.904  14.388  1.00  0.00     0.000 C 
BRANCH  18  19
ATOM     19  C   UNL     1      -3.734  18.637  14.381  1.00  0.00     0.000 C 
BRANCH  19  20
ATOM     20  C   UNL     1      -3.199  18.510  12.949  1.00  0.00     0.000 C 
BRANCH  20  21
ATOM     21  C   UNL     1      -1.673  18.339  12.949  1.00  0.00     0.000 C 
BRANCH  21  22
ATOM     22  C   UNL     1      -1.173  17.562  14.186  1.00  0.00    -0.000 C 
BRANCH  22  23
ATOM     23  C   UNL     1      -0.450  16.250  13.836  1.00  0.00    -0.000 C 
BRANCH  23  24
ATOM     24  C   UNL     1       0.105  16.246  12.402  1.00  0.00    -0.000 C 
BRANCH  24  25
ATOM     25  C   UNL     1      -0.397  15.054  11.566  1.00  0.00    -0.000 C 
BRANCH  25  26
ATOM     26  C   UNL     1      -1.882  14.688  11.763  1.00  0.00    -0.000 C 
BRANCH  26  27
ATOM     27  C   UNL     1      -2.550  14.006  10.556  1.00  0.00    -0.000 C 
BRANCH  27  28
ATOM     28  C   UNL     1      -2.741  12.493  10.758  1.00  0.00    -0.000 C 
BRANCH  28  29
ATOM     29  C   UNL     1      -3.929  12.171  11.678  1.00  0.00    -0.003 C 
ATOM     30  C   UNL     1      -3.584  11.131  12.746  1.00  0.00     0.004 C 
ENDBRANCH  28  29
ENDBRANCH  27  28
ENDBRANCH  26  27
ENDBRANCH  25  26
ENDBRANCH  24  25
ENDBRANCH  23  24
ENDBRANCH  22  23
ENDBRANCH  21  22
ENDBRANCH  20  21
ENDBRANCH  19  20
ENDBRANCH  18  19
ENDBRANCH  17  18
ENDBRANCH   1  17
TORSDOF 26
ENDMDL
MODEL 6
REMARK VINA RESULT:    -3.824     15.627     19.449
REMARK INTER + INTRA:         -11.114
REMARK INTER:                  -8.388
REMARK INTRA:                  -2.726
REMARK UNBOUND:                -1.478
REMARK SMILES CCCCCCCCCCCCCCCCCCCCCCCCCCCC(=O)[O-]
REMARK SMILES IDX 15 1 16 2 17 3 18 4 19 5 20 6 21 7 22 8 23 9 24 10 25 11
REMARK SMILES IDX 26 12 27 13 28 14 29 15 30 16 14 17 13 18 12 19 11 20 10 21
REMARK SMILES IDX 9 22 8 23 7 24 6 25 5 26 4 27 3 28 2 29 1 30
REMARK H PARENT
REMARK Flexibility Score: inf
ROOT
ATOM      1  C   UNL     1     -13.188  10.381   4.215  1.00  0.00     0.000 C 
ENDROOT
BRANCH   1   2
ATOM      2  C   UNL     1     -13.746   9.088   3.597  1.00  0.00     0.000 C 
BRANCH   2   3
ATOM      3  C   UNL     1     -15.279   9.111   3.470  1.00  0.00     0.000 C 
BRANCH   3   4
ATOM      4  C   UNL     1     -15.856  10.450   3.954  1.00  0.00     0.000 C 
BRANCH   4   5
ATOM      5  C   UNL     1     -17.001  10.256   4.971  1.00  0.00     0.000 C 
BRANCH   5   6
ATOM      6  C   UNL     1     -18.385  10.103   4.317  1.00  0.00     0.000 C 
BRANCH   6   7
ATOM      7  C   UNL     1     -18.519  10.898   3.008  1.00  0.00     0.000 C 
BRANCH   7   8
ATOM      8  C   UNL     1     -18.763   9.983   1.789  1.00  0.00     0.000 C 
BRANCH   8   9
ATOM      9  C   UNL     1     -17.996  10.416   0.526  1.00  0.00     0.000 C 
BRANCH   9  10
ATOM     10  C   UNL     1     -18.820  10.389  -0.772  1.00  0.00     0.000 C 
BRANCH  10  11
ATOM     11  C   UNL     1     -18.103  11.079  -1.947  1.00  0.00     0.000 C 
BRANCH  11  12
ATOM     12  C   UNL     1     -17.818  12.568  -1.674  1.00  0.00     0.006 C 
BRANCH  12  13
ATOM     13  C   UNL     1     -19.084  13.428  -1.508  1.00  0.00     0.053 C 
BRANCH  13  14
ATOM     14  C   UNL     1     -18.977  14.400  -0.371  1.00  0.00     0.041 C 
ATOM     15  O   UNL     1     -19.055  13.997   0.819  1.00  0.00    -0.550 OA
ATOM     16  O   UNL     1     -18.749  15.746  -0.626  1.00  0.00    -0.550 OA
ENDBRANCH  13  14
ENDBRANCH  12  13
ENDBRANCH  11  12
ENDBRANCH  10  11
ENDBRANCH   9  10
ENDBRANCH   8   9
ENDBRANCH   7   8
ENDBRANCH   6   7
ENDBRANCH   5   6
ENDBRANCH   4   5
ENDBRANCH   3   4
ENDBRANCH   2   3
ENDBRANCH   1   2
BRANCH   1  17
ATOM     17  C   UNL     1     -12.354  10.113   5.481  1.00  0.00     0.000 C 
BRANCH  17  18
ATOM     18  C   UNL     1     -13.092   9.228   6.499  1.00  0.00     0.000 C 
BRANCH  18  19
ATOM     19  C   UNL     1     -14.083  10.027   7.360  1.00  0.00     0.000 C 
BRANCH  19  20
ATOM     20  C   UNL     1     -15.220   9.134   7.873  1.00  0.00     0.000 C 
BRANCH  20  21
ATOM     21  C   UNL     1     -15.532   9.438   9.345  1.00  0.00     0.000 C 
BRANCH  21  22
ATOM     22  C   UNL     1     -14.296   9.256  10.253  1.00  0.00    -0.000 C 
BRANCH  22  23
ATOM     23  C   UNL     1     -14.633   9.248  11.754  1.00  0.00    -0.000 C 
BRANCH  23  24
ATOM     24  C   UNL     1     -14.025  10.446  12.502  1.00  0.00    -0.000 C 
BRANCH  24  25
ATOM     25  C   UNL     1     -15.067  11.246  13.304  1.00  0.00    -0.000 C 
BRANCH  25  26
ATOM     26  C   UNL     1     -16.031  10.402  14.164  1.00  0.00    -0.000 C 
BRANCH  26  27
ATOM     27  C   UNL     1     -17.472  10.316  13.632  1.00  0.00    -0.000 C 
BRANCH  27  28
ATOM     28  C   UNL     1     -17.935  11.618  12.956  1.00  0.00    -0.000 C 
BRANCH  28  29
ATOM     29  C   UNL     1     -18.243  11.426  11.463  1.00  0.00    -0.003 C 
ATOM     30  C   UNL     1     -19.732  11.576  11.144  1.00  0.00     0.004 C 
ENDBRANCH  28  29
ENDBRANCH  27  28
ENDBRANCH  26  27
ENDBRANCH  25  26
ENDBRANCH  24  25
ENDBRANCH  23  24
ENDBRANCH  22  23
ENDBRANCH  21  22
ENDBRANCH  20  21
ENDBRANCH  19  20
ENDBRANCH  18  19
ENDBRANCH  17  18
ENDBRANCH   1  17
TORSDOF 26
ENDMDL
MODEL 7
REMARK VINA RESULT:    -3.738     15.824     19.719
REMARK INTER + INTRA:         -10.898
REMARK INTER:                  -8.129
REMARK INTRA:                  -2.769
REMARK UNBOUND:                -1.478
REMARK SMILES CCCCCCCCCCCCCCCCCCCCCCCCCCCC(=O)[O-]
REMARK SMILES IDX 15 1 16 2 17 3 18 4 19 5 20 6 21 7 22 8 23 9 24 10 25 11
REMARK SMILES IDX 26 12 27 13 28 14 29 15 30 16 14 17 13 18 12 19 11 20 10 21
REMARK SMILES IDX 9 22 8 23 7 24 6 25 5 26 4 27 3 28 2 29 1 30
REMARK H PARENT
REMARK Flexibility Score: inf
ROOT
ATOM      1  C   UNL     1     -13.232  10.558   4.891  1.00  0.00     0.000 C 
ENDROOT
BRANCH   1   2
ATOM      2  C   UNL     1     -13.660   9.530   3.831  1.00  0.00     0.000 C 
BRANCH   2   3
ATOM      3  C   UNL     1     -15.186   9.472   3.651  1.00  0.00     0.000 C 
BRANCH   3   4
ATOM      4  C   UNL     1     -15.867  10.697   4.280  1.00  0.00     0.000 C 
BRANCH   4   5
ATOM      5  C   UNL     1     -17.236  10.348   4.900  1.00  0.00     0.000 C 
BRANCH   5   6
ATOM      6  C   UNL     1     -18.392  10.363   3.884  1.00  0.00     0.000 C 
BRANCH   6   7
ATOM      7  C   UNL     1     -18.291  11.524   2.880  1.00  0.00     0.000 C 
BRANCH   7   8
ATOM      8  C   UNL     1     -18.688  11.098   1.451  1.00  0.00     0.000 C 
BRANCH   8   9
ATOM      9  C   UNL     1     -18.270   9.659   1.094  1.00  0.00     0.000 C 
BRANCH   9  10
ATOM     10  C   UNL     1     -17.994   9.418  -0.399  1.00  0.00     0.000 C 
BRANCH  10  11
ATOM     11  C   UNL     1     -17.453  10.669  -1.114  1.00  0.00     0.000 C 
BRANCH  11  12
ATOM     12  C   UNL     1     -16.101  10.416  -1.809  1.00  0.00     0.006 C 
BRANCH  12  13
ATOM     13  C   UNL     1     -15.520  11.654  -2.517  1.00  0.00     0.053 C 
BRANCH  13  14
ATOM     14  C   UNL     1     -15.860  11.697  -3.976  1.00  0.00     0.041 C 
ATOM     15  O   UNL     1     -15.510  12.680  -4.682  1.00  0.00    -0.550 OA
ATOM     16  O   UNL     1     -16.528  10.633  -4.567  1.00  0.00    -0.550 OA
ENDBRANCH  13  14
ENDBRANCH  12  13
ENDBRANCH  11  12
ENDBRANCH  10  11
ENDBRANCH   9  10
ENDBRANCH   8   9
ENDBRANCH   7   8
ENDBRANCH   6   7
ENDBRANCH   5   6
ENDBRANCH   4   5
ENDBRANCH   3   4
ENDBRANCH   2   3
ENDBRANCH   1   2
BRANCH   1  17
ATOM     17  C   UNL     1     -12.615   9.895   6.136  1.00  0.00     0.000 C 
BRANCH  17  18
ATOM     18  C   UNL     1     -13.642   9.084   6.944  1.00  0.00     0.000 C 
BRANCH  18  19
ATOM     19  C   UNL     1     -14.655   9.981   7.673  1.00  0.00     0.000 C 
BRANCH  19  20
ATOM     20  C   UNL     1     -15.600   9.151   8.551  1.00  0.00     0.000 C 
BRANCH  20  21
ATOM     21  C   UNL     1     -15.506   9.590  10.020  1.00  0.00     0.000 C 
BRANCH  21  22
ATOM     22  C   UNL     1     -14.164   9.184  10.666  1.00  0.00    -0.000 C 
BRANCH  22  23
ATOM     23  C   UNL     1     -14.162   9.299  12.200  1.00  0.00    -0.000 C 
BRANCH  23  24
ATOM     24  C   UNL     1     -14.048  10.754  12.684  1.00  0.00    -0.000 C 
BRANCH  24  25
ATOM     25  C   UNL     1     -15.258  11.205  13.521  1.00  0.00    -0.000 C 
BRANCH  25  26
ATOM     26  C   UNL     1     -16.190  10.073  14.001  1.00  0.00    -0.000 C 
BRANCH  26  27
ATOM     27  C   UNL     1     -17.628  10.140  13.458  1.00  0.00    -0.000 C 
BRANCH  27  28
ATOM     28  C   UNL     1     -17.986  11.525  12.891  1.00  0.00    -0.000 C 
BRANCH  28  29
ATOM     29  C   UNL     1     -18.349  11.471  11.398  1.00  0.00    -0.003 C 
ATOM     30  C   UNL     1     -19.853  11.601  11.152  1.00  0.00     0.004 C 
ENDBRANCH  28  29
ENDBRANCH  27  28
ENDBRANCH  26  27
ENDBRANCH  25  26
ENDBRANCH  24  25
ENDBRANCH  23  24
ENDBRANCH  22  23
ENDBRANCH  21  22
ENDBRANCH  20  21
ENDBRANCH  19  20
ENDBRANCH  18  19
ENDBRANCH  17  18
ENDBRANCH   1  17
TORSDOF 26
ENDMDL
MODEL 8
REMARK VINA RESULT:    -3.668     15.938     19.586
REMARK INTER + INTRA:         -10.720
REMARK INTER:                  -7.874
REMARK INTRA:                  -2.846
REMARK UNBOUND:                -1.478
REMARK SMILES CCCCCCCCCCCCCCCCCCCCCCCCCCCC(=O)[O-]
REMARK SMILES IDX 15 1 16 2 17 3 18 4 19 5 20 6 21 7 22 8 23 9 24 10 25 11
REMARK SMILES IDX 26 12 27 13 28 14 29 15 30 16 14 17 13 18 12 19 11 20 10 21
REMARK SMILES IDX 9 22 8 23 7 24 6 25 5 26 4 27 3 28 2 29 1 30
REMARK H PARENT
REMARK Flexibility Score: inf
ROOT
ATOM      1  C   UNL     1     -14.046  11.271   5.950  1.00  0.00     0.000 C 
ENDROOT
BRANCH   1   2
ATOM      2  C   UNL     1     -13.140  10.194   6.569  1.00  0.00     0.000 C 
BRANCH   2   3
ATOM      3  C   UNL     1     -13.942   9.032   7.181  1.00  0.00     0.000 C 
BRANCH   3   4
ATOM      4  C   UNL     1     -14.040   9.169   8.708  1.00  0.00     0.000 C 
BRANCH   4   5
ATOM      5  C   UNL     1     -15.497   9.078   9.208  1.00  0.00     0.000 C 
BRANCH   5   6
ATOM      6  C   UNL     1     -16.497   9.849   8.330  1.00  0.00     0.000 C 
BRANCH   6   7
ATOM      7  C   UNL     1     -17.744  10.307   9.105  1.00  0.00     0.000 C 
BRANCH   7   8
ATOM      8  C   UNL     1     -18.262   9.224  10.075  1.00  0.00     0.000 C 
BRANCH   8   9
ATOM      9  C   UNL     1     -18.806   9.789  11.401  1.00  0.00     0.000 C 
BRANCH   9  10
ATOM     10  C   UNL     1     -18.592   8.885  12.626  1.00  0.00     0.000 C 
BRANCH  10  11
ATOM     11  C   UNL     1     -17.137   8.900  13.129  1.00  0.00     0.000 C 
BRANCH  11  12
ATOM     12  C   UNL     1     -16.597  10.327  13.338  1.00  0.00     0.006 C 
BRANCH  12  13
ATOM     13  C   UNL     1     -15.415  10.690  12.421  1.00  0.00     0.053 C 
BRANCH  13  14
ATOM     14  C   UNL     1     -14.094  10.261  12.985  1.00  0.00     0.041 C 
ATOM     15  O   UNL     1     -13.655  10.782  14.045  1.00  0.00    -0.550 OA
ATOM     16  O   UNL     1     -13.365   9.255  12.364  1.00  0.00    -0.550 OA
ENDBRANCH  13  14
ENDBRANCH  12  13
ENDBRANCH  11  12
ENDBRANCH  10  11
ENDBRANCH   9  10
ENDBRANCH   8   9
ENDBRANCH   7   8
ENDBRANCH   6   7
ENDBRANCH   5   6
ENDBRANCH   4   5
ENDBRANCH   3   4
ENDBRANCH   2   3
ENDBRANCH   1   2
BRANCH   1  17
ATOM     17  C   UNL     1     -14.963  10.705   4.850  1.00  0.00     0.000 C 
BRANCH  17  18
ATOM     18  C   UNL     1     -16.329  11.409   4.801  1.00  0.00     0.000 C 
BRANCH  18  19
ATOM     19  C   UNL     1     -17.412  10.542   4.141  1.00  0.00     0.000 C 
BRANCH  19  20
ATOM     20  C   UNL     1     -18.212  11.343   3.105  1.00  0.00     0.000 C 
BRANCH  20  21
ATOM     21  C   UNL     1     -18.293  10.585   1.772  1.00  0.00     0.000 C 
BRANCH  21  22
ATOM     22  C   UNL     1     -17.333   9.377   1.729  1.00  0.00    -0.000 C 
BRANCH  22  23
ATOM     23  C   UNL     1     -16.670   9.169   0.356  1.00  0.00    -0.000 C 
BRANCH  23  24
ATOM     24  C   UNL     1     -17.562   9.632  -0.807  1.00  0.00    -0.000 C 
BRANCH  24  25
ATOM     25  C   UNL     1     -17.028  10.893  -1.509  1.00  0.00    -0.000 C 
BRANCH  25  26
ATOM     26  C   UNL     1     -18.063  11.672  -2.348  1.00  0.00    -0.000 C 
BRANCH  26  27
ATOM     27  C   UNL     1     -18.315  13.120  -1.891  1.00  0.00    -0.000 C 
BRANCH  27  28
ATOM     28  C   UNL     1     -19.092  13.198  -0.565  1.00  0.00    -0.000 C 
BRANCH  28  29
ATOM     29  C   UNL     1     -18.972  14.577   0.103  1.00  0.00    -0.003 C 
ATOM     30  C   UNL     1     -18.993  15.726  -0.906  1.00  0.00     0.004 C 
ENDBRANCH  28  29
ENDBRANCH  27  28
ENDBRANCH  26  27
ENDBRANCH  25  26
ENDBRANCH  24  25
ENDBRANCH  23  24
ENDBRANCH  22  23
ENDBRANCH  21  22
ENDBRANCH  20  21
ENDBRANCH  19  20
ENDBRANCH  18  19
ENDBRANCH  17  18
ENDBRANCH   1  17
TORSDOF 26
ENDMDL
MODEL 9
REMARK VINA RESULT:    -3.610     16.183     19.660
REMARK INTER + INTRA:         -10.574
REMARK INTER:                  -7.827
REMARK INTRA:                  -2.748
REMARK UNBOUND:                -1.478
REMARK SMILES CCCCCCCCCCCCCCCCCCCCCCCCCCCC(=O)[O-]
REMARK SMILES IDX 15 1 16 2 17 3 18 4 19 5 20 6 21 7 22 8 23 9 24 10 25 11
REMARK SMILES IDX 26 12 27 13 28 14 29 15 30 16 14 17 13 18 12 19 11 20 10 21
REMARK SMILES IDX 9 22 8 23 7 24 6 25 5 26 4 27 3 28 2 29 1 30
REMARK H PARENT
REMARK Flexibility Score: inf
ROOT
ATOM      1  C   UNL     1     -13.477  10.781   5.583  1.00  0.00     0.000 C 
ENDROOT
BRANCH   1   2
ATOM      2  C   UNL     1     -13.292   9.930   6.851  1.00  0.00     0.000 C 
BRANCH   2   3
ATOM      3  C   UNL     1     -14.399   8.875   7.018  1.00  0.00     0.000 C 
BRANCH   3   4
ATOM      4  C   UNL     1     -15.321   9.219   8.198  1.00  0.00     0.000 C 
BRANCH   4   5
ATOM      5  C   UNL     1     -16.372  10.285   7.823  1.00  0.00     0.000 C 
BRANCH   5   6
ATOM      6  C   UNL     1     -17.685   9.690   7.284  1.00  0.00     0.000 C 
BRANCH   6   7
ATOM      7  C   UNL     1     -18.667   9.301   8.401  1.00  0.00     0.000 C 
BRANCH   7   8
ATOM      8  C   UNL     1     -19.705  10.408   8.682  1.00  0.00     0.000 C 
BRANCH   8   9
ATOM      9  C   UNL     1     -19.788  10.816  10.166  1.00  0.00     0.000 C 
BRANCH   9  10
ATOM     10  C   UNL     1     -18.432  10.924  10.883  1.00  0.00     0.000 C 
BRANCH  10  11
ATOM     11  C   UNL     1     -18.289   9.918  12.039  1.00  0.00     0.000 C 
BRANCH  11  12
ATOM     12  C   UNL     1     -16.937   9.179  12.019  1.00  0.00     0.006 C 
BRANCH  12  13
ATOM     13  C   UNL     1     -15.758  10.045  11.538  1.00  0.00     0.053 C 
BRANCH  13  14
ATOM     14  C   UNL     1     -14.938  10.583  12.672  1.00  0.00     0.041 C 
ATOM     15  O   UNL     1     -13.790  10.118  12.903  1.00  0.00    -0.550 OA
ATOM     16  O   UNL     1     -15.424  11.627  13.448  1.00  0.00    -0.550 OA
ENDBRANCH  13  14
ENDBRANCH  12  13
ENDBRANCH  11  12
ENDBRANCH  10  11
ENDBRANCH   9  10
ENDBRANCH   8   9
ENDBRANCH   7   8
ENDBRANCH   6   7
ENDBRANCH   5   6
ENDBRANCH   4   5
ENDBRANCH   3   4
ENDBRANCH   2   3
ENDBRANCH   1   2
BRANCH   1  17
ATOM     17  C   UNL     1     -14.281  10.046   4.495  1.00  0.00     0.000 C 
BRANCH  17  18
ATOM     18  C   UNL     1     -15.627  10.726   4.195  1.00  0.00     0.000 C 
BRANCH  18  19
ATOM     19  C   UNL     1     -16.593   9.803   3.436  1.00  0.00     0.000 C 
BRANCH  19  20
ATOM     20  C   UNL     1     -18.044  10.279   3.578  1.00  0.00     0.000 C 
BRANCH  20  21
ATOM     21  C   UNL     1     -18.203  11.714   3.053  1.00  0.00     0.000 C 
BRANCH  21  22
ATOM     22  C   UNL     1     -19.622  11.981   2.506  1.00  0.00    -0.000 C 
BRANCH  22  23
ATOM     23  C   UNL     1     -19.633  12.802   1.206  1.00  0.00    -0.000 C 
BRANCH  23  24
ATOM     24  C   UNL     1     -19.036  12.033   0.016  1.00  0.00    -0.000 C 
BRANCH  24  25
ATOM     25  C   UNL     1     -19.170  12.790  -1.318  1.00  0.00    -0.000 C 
BRANCH  25  26
ATOM     26  C   UNL     1     -17.962  12.671  -2.270  1.00  0.00    -0.000 C 
BRANCH  26  27
ATOM     27  C   UNL     1     -16.874  11.681  -1.821  1.00  0.00    -0.000 C 
BRANCH  27  28
ATOM     28  C   UNL     1     -15.671  11.644  -2.780  1.00  0.00    -0.000 C 
BRANCH  28  29
ATOM     29  C   UNL     1     -15.985  12.287  -4.140  1.00  0.00    -0.003 C 
ATOM     30  C   UNL     1     -14.797  12.243  -5.102  1.00  0.00     0.004 C 
ENDBRANCH  28  29
ENDBRANCH  27  28
ENDBRANCH  26  27
ENDBRANCH  25  26
ENDBRANCH  24  25
ENDBRANCH  23  24
ENDBRANCH  22  23
ENDBRANCH  21  22
ENDBRANCH  20  21
ENDBRANCH  19  20
ENDBRANCH  18  19
ENDBRANCH  17  18
ENDBRANCH   1  17
TORSDOF 26
ENDMDL
