MODEL 1
REMARK VINA RESULT:    63.782      0.000      0.000
REMARK INTER + INTRA:          70.318
REMARK INTER:                  69.375
REMARK INTRA:                   0.944
REMARK UNBOUND:                 0.944
REMARK SMILES CC1(C)CC[C@]2(C(=O)[O-])CC[C@]3(C)C(=CC[C@H]4[C@]5(C)CC[C@H](O)C(C)(C)[C@@H]5CC[C@]43C)[C@@H]2C1
REMARK SMILES IDX 6 1 5 2 10 3 32 4 4 5 11 6 14 7 33 8 2 9 12 10 15 11 1 12
REMARK SMILES IDX 3 13 13 14 30 15 16 16 17 17 29 18 31 19 18 20 28 21 27 22
REMARK SMILES IDX 20 23 19 24 24 25 21 26 22 27 25 28 26 29 7 30 8 31 9 32
REMARK SMILES IDX 23 33
REMARK H PARENT 23 34
REMARK Flexibility Score: inf
ROOT
ATOM      1  C   UNL     1      10.660   3.817  -3.486  1.00  0.00     0.017 C 
ATOM      2  C   UNL     1       9.152   4.193  -3.426  1.00  0.00     0.014 C 
ATOM      3  C   UNL     1      10.961   2.930  -4.723  1.00  0.00     0.014 C 
ATOM      4  C   UNL     1      11.095   3.054  -2.196  1.00  0.00     0.028 C 
ATOM      5  C   UNL     1       8.226   3.044  -2.995  1.00  0.00     0.007 C 
ATOM      6  C   UNL     1      12.453   2.518  -4.821  1.00  0.00     0.013 C 
ATOM      7  C   UNL     1      12.561   2.591  -2.337  1.00  0.00    -0.064 C 
ATOM      8  C   UNL     1      10.127   1.928  -1.760  1.00  0.00     0.015 C 
ATOM      9  C   UNL     1       8.650   2.388  -1.658  1.00  0.00    -0.035 C 
ATOM     10  C   UNL     1      13.026   1.766  -3.562  1.00  0.00    -0.006 C 
ATOM     11  C   UNL     1      13.437   3.232  -1.550  1.00  0.00    -0.027 C 
ATOM     12  C   UNL     1       7.761   1.146  -1.420  1.00  0.00     0.011 C 
ATOM     13  C   UNL     1       8.437   3.351  -0.465  1.00  0.00     0.011 C 
ATOM     14  C   UNL     1      12.376   0.343  -3.503  1.00  0.00     0.017 C 
ATOM     15  C   UNL     1      14.647   1.593  -3.653  1.00  0.00    -0.020 C 
ATOM     16  C   UNL     1      14.890   3.358  -1.812  1.00  0.00     0.032 C 
ATOM     17  C   UNL     1      15.392   2.923  -3.229  1.00  0.00     0.006 C 
ATOM     18  C   UNL     1      15.182   0.490  -2.685  1.00  0.00     0.008 C 
ATOM     19  C   UNL     1      14.980   1.162  -5.124  1.00  0.00     0.012 C 
ATOM     20  C   UNL     1      17.007   2.897  -3.222  1.00  0.00    -0.025 C 
ATOM     21  C   UNL     1      16.717   0.350  -2.668  1.00  0.00     0.005 C 
ATOM     22  C   UNL     1      17.542   1.647  -2.396  1.00  0.00     0.003 C 
ATOM     23  C   UNL     1      17.616   2.915  -4.663  1.00  0.00     0.010 C 
ATOM     24  C   UNL     1      17.476   4.243  -2.563  1.00  0.00     0.012 C 
ATOM     25  C   UNL     1      19.116   1.384  -2.515  1.00  0.00    -0.006 C 
ATOM     26  C   UNL     1      19.144   2.745  -4.713  1.00  0.00     0.033 C 
ATOM     27  C   UNL     1      19.610   1.470  -3.997  1.00  0.00     0.120 C 
ATOM     28  C   UNL     1      19.921   2.392  -1.640  1.00  0.00     0.014 C 
ATOM     29  C   UNL     1      19.505  -0.013  -1.943  1.00  0.00     0.014 C 
ENDROOT
BRANCH   1  30
ATOM     30  C   UNL     1      11.422   5.137  -3.612  1.00  0.00     0.048 C 
ATOM     31  O   UNL     1      12.674   5.140  -3.769  1.00  0.00    -0.550 OA
ATOM     32  O   UNL     1      10.743   6.349  -3.669  1.00  0.00    -0.550 OA
ENDBRANCH   1  30
BRANCH  27  33
ATOM     33  O   UNL     1      19.173   0.360  -4.746  1.00  0.00    -0.393 OA
ATOM     34  H   UNL     1      19.954   0.012  -5.252  1.00  0.00     0.210 HD
ENDBRANCH  27  33
TORSDOF 2
ENDMDL
