MODEL 1
REMARK VINA RESULT:    -5.186      0.000      0.000
REMARK INTER + INTRA:          -6.342
REMARK INTER:                  -6.247
REMARK INTRA:                  -0.094
REMARK UNBOUND:                -0.094
REMARK SMILES O=c1c(O)c(-c2ccc(O)c(O)c2)oc2cc(O)cc(O)c12
REMARK SMILES IDX 5 1 3 2 2 3 1 4 22 5 20 6 19 7 17 8 16 9 15 10 14 11 6 12
REMARK SMILES IDX 7 13 8 14 9 15 13 16 11 17 10 18 12 20 4 22 21 24 18 26
REMARK H PARENT 10 19 12 21 4 23 21 25 18 27
REMARK Flexibility Score: inf
ROOT
ATOM      1  C   UNL     1      10.168  -8.931  62.170  1.00  0.00     0.180 A 
ATOM      2  C   UNL     1       9.272  -9.188  61.113  1.00  0.00     0.208 A 
ATOM      3  C   UNL     1       9.358 -10.413  60.434  1.00  0.00     0.238 A 
ATOM      4  O   UNL     1       8.567 -10.650  59.479  1.00  0.00    -0.285 OA
ATOM      5  C   UNL     1      10.319 -11.364  60.831  1.00  0.00     0.111 A 
ATOM      6  C   UNL     1      10.468 -12.625  60.202  1.00  0.00     0.134 A 
ATOM      7  C   UNL     1      11.444 -13.521  60.662  1.00  0.00     0.093 A 
ATOM      8  C   UNL     1      12.269 -13.185  61.737  1.00  0.00     0.123 A 
ATOM      9  C   UNL     1      12.127 -11.942  62.363  1.00  0.00     0.094 A 
ATOM     10  C   UNL     1      11.162 -11.034  61.918  1.00  0.00     0.146 A 
ATOM     11  O   UNL     1      11.052  -9.858  62.527  1.00  0.00    -0.452 OA
ENDROOT
BRANCH   1  12
ATOM     12  C   UNL     1      10.152  -7.656  62.922  1.00  0.00     0.025 A 
ATOM     13  C   UNL     1      10.065  -7.682  64.323  1.00  0.00     0.016 A 
ATOM     14  C   UNL     1      10.070  -6.492  65.055  1.00  0.00     0.051 A 
ATOM     15  C   UNL     1      10.177  -5.260  64.398  1.00  0.00     0.157 A 
ATOM     16  C   UNL     1      10.281  -6.417  62.267  1.00  0.00     0.062 A 
ATOM     17  C   UNL     1      10.287  -5.223  63.002  1.00  0.00     0.158 A 
BRANCH  15  18
ATOM     18  O   UNL     1      10.181  -4.070  65.123  1.00  0.00    -0.504 OA
ATOM     19  H   UNL     1      10.047  -3.173  64.673  1.00  0.00     0.293 HD
ENDBRANCH  15  18
BRANCH  17  20
ATOM     20  O   UNL     1      10.408  -3.995  62.352  1.00  0.00    -0.504 OA
ATOM     21  H   UNL     1      10.168  -3.889  61.372  1.00  0.00     0.293 HD
ENDBRANCH  17  20
ENDBRANCH   1  12
BRANCH   2  22
ATOM     22  O   UNL     1       8.296  -8.249  60.772  1.00  0.00    -0.502 OA
ATOM     23  H   UNL     1       8.436  -7.561  60.041  1.00  0.00     0.293 HD
ENDBRANCH   2  22
BRANCH   6  24
ATOM     24  O   UNL     1       9.658 -12.989  59.126  1.00  0.00    -0.507 OA
ATOM     25  H   UNL     1       9.887 -12.727  58.174  1.00  0.00     0.293 HD
ENDBRANCH   6  24
BRANCH   8  26
ATOM     26  O   UNL     1      13.230 -14.094  62.176  1.00  0.00    -0.508 OA
ATOM     27  H   UNL     1      13.876 -14.534  61.531  1.00  0.00     0.293 HD
ENDBRANCH   8  26
TORSDOF 6
ENDMDL
MODEL 2
REMARK VINA RESULT:    -5.084     11.961     13.812
REMARK INTER + INTRA:          -6.219
REMARK INTER:                  -6.024
REMARK INTRA:                  -0.194
REMARK UNBOUND:                -0.094
REMARK SMILES O=c1c(O)c(-c2ccc(O)c(O)c2)oc2cc(O)cc(O)c12
REMARK SMILES IDX 5 1 3 2 2 3 1 4 22 5 20 6 19 7 17 8 16 9 15 10 14 11 6 12
REMARK SMILES IDX 7 13 8 14 9 15 13 16 11 17 10 18 12 20 4 22 21 24 18 26
REMARK H PARENT 10 19 12 21 4 23 21 25 18 27
REMARK Flexibility Score: inf
ROOT
ATOM      1  C   UNL     1      16.047 -12.139  51.045  1.00  0.00     0.180 A 
ATOM      2  C   UNL     1      14.931 -12.997  50.999  1.00  0.00     0.208 A 
ATOM      3  C   UNL     1      13.897 -12.716  50.092  1.00  0.00     0.238 A 
ATOM      4  O   UNL     1      12.888 -13.473  50.050  1.00  0.00    -0.285 OA
ATOM      5  C   UNL     1      14.002 -11.600  49.239  1.00  0.00     0.111 A 
ATOM      6  C   UNL     1      13.006 -11.250  48.294  1.00  0.00     0.134 A 
ATOM      7  C   UNL     1      13.189 -10.128  47.473  1.00  0.00     0.093 A 
ATOM      8  C   UNL     1      14.346  -9.352  47.575  1.00  0.00     0.123 A 
ATOM      9  C   UNL     1      15.334  -9.692  48.506  1.00  0.00     0.094 A 
ATOM     10  C   UNL     1      15.169 -10.806  49.335  1.00  0.00     0.146 A 
ATOM     11  O   UNL     1      16.119 -11.103  50.214  1.00  0.00    -0.452 OA
ENDROOT
BRANCH   1  12
ATOM     12  C   UNL     1      17.169 -12.357  51.986  1.00  0.00     0.025 A 
ATOM     13  C   UNL     1      18.026 -13.453  51.796  1.00  0.00     0.016 A 
ATOM     14  C   UNL     1      19.104 -13.667  52.659  1.00  0.00     0.051 A 
ATOM     15  C   UNL     1      19.349 -12.780  53.715  1.00  0.00     0.157 A 
ATOM     16  C   UNL     1      17.432 -11.457  53.036  1.00  0.00     0.062 A 
ATOM     17  C   UNL     1      18.514 -11.671  53.901  1.00  0.00     0.158 A 
BRANCH  15  18
ATOM     18  O   UNL     1      20.422 -12.991  54.579  1.00  0.00    -0.504 OA
ATOM     19  H   UNL     1      21.282 -13.420  54.262  1.00  0.00     0.293 HD
ENDBRANCH  15  18
BRANCH  17  20
ATOM     20  O   UNL     1      18.769 -10.783  54.945  1.00  0.00    -0.504 OA
ATOM     21  H   UNL     1      18.869 -11.104  55.901  1.00  0.00     0.293 HD
ENDBRANCH  17  20
ENDBRANCH   1  12
BRANCH   2  22
ATOM     22  O   UNL     1      14.874 -14.125  51.821  1.00  0.00    -0.502 OA
ATOM     23  H   UNL     1      13.998 -14.523  52.137  1.00  0.00     0.293 HD
ENDBRANCH   2  22
BRANCH   6  24
ATOM     24  O   UNL     1      11.841 -12.007  48.168  1.00  0.00    -0.507 OA
ATOM     25  H   UNL     1      11.417 -12.186  47.264  1.00  0.00     0.293 HD
ENDBRANCH   6  24
BRANCH   8  26
ATOM     26  O   UNL     1      14.504  -8.243  46.746  1.00  0.00    -0.508 OA
ATOM     27  H   UNL     1      15.210  -7.539  46.931  1.00  0.00     0.293 HD
ENDBRANCH   8  26
TORSDOF 6
ENDMDL
MODEL 3
REMARK VINA RESULT:    -4.999      1.383      6.687
REMARK INTER + INTRA:          -6.116
REMARK INTER:                  -6.353
REMARK INTRA:                   0.237
REMARK UNBOUND:                -0.094
REMARK SMILES O=c1c(O)c(-c2ccc(O)c(O)c2)oc2cc(O)cc(O)c12
REMARK SMILES IDX 5 1 3 2 2 3 1 4 22 5 20 6 19 7 17 8 16 9 15 10 14 11 6 12
REMARK SMILES IDX 7 13 8 14 9 15 13 16 11 17 10 18 12 20 4 22 21 24 18 26
REMARK H PARENT 10 19 12 21 4 23 21 25 18 27
REMARK Flexibility Score: inf
ROOT
ATOM      1  C   UNL     1      10.381  -8.854  61.612  1.00  0.00     0.180 A 
ATOM      2  C   UNL     1       9.380  -8.480  60.694  1.00  0.00     0.208 A 
ATOM      3  C   UNL     1       8.872  -7.173  60.741  1.00  0.00     0.238 A 
ATOM      4  O   UNL     1       7.967  -6.831  59.930  1.00  0.00    -0.285 OA
ATOM      5  C   UNL     1       9.381  -6.260  61.685  1.00  0.00     0.111 A 
ATOM      6  C   UNL     1       8.926  -4.923  61.795  1.00  0.00     0.134 A 
ATOM      7  C   UNL     1       9.491  -4.073  62.757  1.00  0.00     0.093 A 
ATOM      8  C   UNL     1      10.500  -4.530  63.606  1.00  0.00     0.123 A 
ATOM      9  C   UNL     1      10.955  -5.849  63.503  1.00  0.00     0.094 A 
ATOM     10  C   UNL     1      10.403  -6.713  62.553  1.00  0.00     0.146 A 
ATOM     11  O   UNL     1      10.849  -7.962  62.480  1.00  0.00    -0.452 OA
ENDROOT
BRANCH   1  12
ATOM     12  C   UNL     1      10.954 -10.219  61.638  1.00  0.00     0.025 A 
ATOM     13  C   UNL     1      11.304 -10.797  62.869  1.00  0.00     0.016 A 
ATOM     14  C   UNL     1      11.828 -12.092  62.920  1.00  0.00     0.051 A 
ATOM     15  C   UNL     1      11.994 -12.832  61.743  1.00  0.00     0.157 A 
ATOM     16  C   UNL     1      11.104 -10.974  60.461  1.00  0.00     0.062 A 
ATOM     17  C   UNL     1      11.628 -12.274  60.512  1.00  0.00     0.158 A 
BRANCH  15  18
ATOM     18  O   UNL     1      12.518 -14.123  61.789  1.00  0.00    -0.504 OA
ATOM     19  H   UNL     1      12.998 -14.472  62.609  1.00  0.00     0.293 HD
ENDBRANCH  15  18
BRANCH  17  20
ATOM     20  O   UNL     1      11.782 -13.019  59.344  1.00  0.00    -0.504 OA
ATOM     21  H   UNL     1      12.592 -12.903  58.744  1.00  0.00     0.293 HD
ENDBRANCH  17  20
ENDBRANCH   1  12
BRANCH   2  22
ATOM     22  O   UNL     1       8.927  -9.390  59.735  1.00  0.00    -0.502 OA
ATOM     23  H   UNL     1       8.008  -9.812  59.779  1.00  0.00     0.293 HD
ENDBRANCH   2  22
BRANCH   6  24
ATOM     24  O   UNL     1       7.919  -4.438  60.960  1.00  0.00    -0.507 OA
ATOM     25  H   UNL     1       8.058  -4.341  59.960  1.00  0.00     0.293 HD
ENDBRANCH   6  24
BRANCH   8  26
ATOM     26  O   UNL     1      11.046  -3.663  64.552  1.00  0.00    -0.508 OA
ATOM     27  H   UNL     1      11.585  -4.008  65.338  1.00  0.00     0.293 HD
ENDBRANCH   8  26
TORSDOF 6
ENDMDL
MODEL 4
REMARK VINA RESULT:    -4.795     10.845     13.471
REMARK INTER + INTRA:          -5.870
REMARK INTER:                  -5.539
REMARK INTRA:                  -0.332
REMARK UNBOUND:                -0.094
REMARK SMILES O=c1c(O)c(-c2ccc(O)c(O)c2)oc2cc(O)cc(O)c12
REMARK SMILES IDX 5 1 3 2 2 3 1 4 22 5 20 6 19 7 17 8 16 9 15 10 14 11 6 12
REMARK SMILES IDX 7 13 8 14 9 15 13 16 11 17 10 18 12 20 4 22 21 24 18 26
REMARK H PARENT 10 19 12 21 4 23 21 25 18 27
REMARK Flexibility Score: inf
ROOT
ATOM      1  C   UNL     1      16.501 -12.950  51.470  1.00  0.00     0.180 A 
ATOM      2  C   UNL     1      17.694 -13.455  50.915  1.00  0.00     0.208 A 
ATOM      3  C   UNL     1      18.791 -13.683  51.760  1.00  0.00     0.238 A 
ATOM      4  O   UNL     1      19.867 -14.125  51.272  1.00  0.00    -0.285 OA
ATOM      5  C   UNL     1      18.674 -13.424  53.140  1.00  0.00     0.111 A 
ATOM      6  C   UNL     1      19.731 -13.632  54.060  1.00  0.00     0.134 A 
ATOM      7  C   UNL     1      19.532 -13.359  55.421  1.00  0.00     0.093 A 
ATOM      8  C   UNL     1      18.301 -12.885  55.880  1.00  0.00     0.123 A 
ATOM      9  C   UNL     1      17.253 -12.678  54.977  1.00  0.00     0.094 A 
ATOM     10  C   UNL     1      17.432 -12.943  53.616  1.00  0.00     0.146 A 
ATOM     11  O   UNL     1      16.422 -12.732  52.779  1.00  0.00    -0.452 OA
ENDROOT
BRANCH   1  12
ATOM     12  C   UNL     1      15.307 -12.665  50.642  1.00  0.00     0.025 A 
ATOM     13  C   UNL     1      14.285 -13.624  50.552  1.00  0.00     0.016 A 
ATOM     14  C   UNL     1      13.139 -13.369  49.793  1.00  0.00     0.051 A 
ATOM     15  C   UNL     1      12.993 -12.146  49.127  1.00  0.00     0.157 A 
ATOM     16  C   UNL     1      15.146 -11.430  49.988  1.00  0.00     0.062 A 
ATOM     17  C   UNL     1      13.995 -11.173  49.228  1.00  0.00     0.158 A 
BRANCH  15  18
ATOM     18  O   UNL     1      11.853 -11.887  48.368  1.00  0.00    -0.504 OA
ATOM     19  H   UNL     1      10.926 -12.105  48.712  1.00  0.00     0.293 HD
ENDBRANCH  15  18
BRANCH  17  20
ATOM     20  O   UNL     1      13.840  -9.952  48.575  1.00  0.00    -0.504 OA
ATOM     21  H   UNL     1      14.358  -9.128  48.860  1.00  0.00     0.293 HD
ENDBRANCH  17  20
ENDBRANCH   1  12
BRANCH   2  22
ATOM     22  O   UNL     1      17.767 -13.750  49.552  1.00  0.00    -0.502 OA
ATOM     23  H   UNL     1      17.461 -13.099  48.838  1.00  0.00     0.293 HD
ENDBRANCH   2  22
BRANCH   6  24
ATOM     24  O   UNL     1      20.971 -14.105  53.632  1.00  0.00    -0.507 OA
ATOM     25  H   UNL     1      21.572 -13.554  53.029  1.00  0.00     0.293 HD
ENDBRANCH   6  24
BRANCH   8  26
ATOM     26  O   UNL     1      18.130 -12.623  57.239  1.00  0.00    -0.508 OA
ATOM     27  H   UNL     1      18.835 -12.133  57.776  1.00  0.00     0.293 HD
ENDBRANCH   8  26
TORSDOF 6
ENDMDL
MODEL 5
REMARK VINA RESULT:    -4.768     12.293     14.186
REMARK INTER + INTRA:          -5.838
REMARK INTER:                  -5.594
REMARK INTRA:                  -0.244
REMARK UNBOUND:                -0.094
REMARK SMILES O=c1c(O)c(-c2ccc(O)c(O)c2)oc2cc(O)cc(O)c12
REMARK SMILES IDX 5 1 3 2 2 3 1 4 22 5 20 6 19 7 17 8 16 9 15 10 14 11 6 12
REMARK SMILES IDX 7 13 8 14 9 15 13 16 11 17 10 18 12 20 4 22 21 24 18 26
REMARK H PARENT 10 19 12 21 4 23 21 25 18 27
REMARK Flexibility Score: inf
ROOT
ATOM      1  C   UNL     1      15.610 -11.582  50.200  1.00  0.00     0.180 A 
ATOM      2  C   UNL     1      15.858 -10.349  49.567  1.00  0.00     0.208 A 
ATOM      3  C   UNL     1      14.858  -9.790  48.756  1.00  0.00     0.238 A 
ATOM      4  O   UNL     1      15.073  -8.691  48.175  1.00  0.00    -0.285 OA
ATOM      5  C   UNL     1      13.627 -10.459  48.607  1.00  0.00     0.111 A 
ATOM      6  C   UNL     1      12.566  -9.961  47.811  1.00  0.00     0.134 A 
ATOM      7  C   UNL     1      11.366 -10.683  47.721  1.00  0.00     0.093 A 
ATOM      8  C   UNL     1      11.206 -11.887  48.411  1.00  0.00     0.123 A 
ATOM      9  C   UNL     1      12.249 -12.383  49.198  1.00  0.00     0.094 A 
ATOM     10  C   UNL     1      13.454 -11.680  49.299  1.00  0.00     0.146 A 
ATOM     11  O   UNL     1      14.430 -12.177  50.049  1.00  0.00    -0.452 OA
ENDROOT
BRANCH   1  12
ATOM     12  C   UNL     1      16.621 -12.244  51.056  1.00  0.00     0.025 A 
ATOM     13  C   UNL     1      17.320 -13.357  50.562  1.00  0.00     0.016 A 
ATOM     14  C   UNL     1      18.294 -13.986  51.344  1.00  0.00     0.051 A 
ATOM     15  C   UNL     1      18.592 -13.501  52.624  1.00  0.00     0.157 A 
ATOM     16  C   UNL     1      16.938 -11.748  52.334  1.00  0.00     0.062 A 
ATOM     17  C   UNL     1      17.916 -12.378  53.118  1.00  0.00     0.158 A 
BRANCH  15  18
ATOM     18  O   UNL     1      19.560 -14.125  53.408  1.00  0.00    -0.504 OA
ATOM     19  H   UNL     1      20.313 -14.661  52.994  1.00  0.00     0.293 HD
ENDBRANCH  15  18
BRANCH  17  20
ATOM     20  O   UNL     1      18.224 -11.889  54.386  1.00  0.00    -0.504 OA
ATOM     21  H   UNL     1      17.869 -12.333  55.226  1.00  0.00     0.293 HD
ENDBRANCH  17  20
ENDBRANCH   1  12
BRANCH   2  22
ATOM     22  O   UNL     1      17.069  -9.682  49.770  1.00  0.00    -0.502 OA
ATOM     23  H   UNL     1      17.856  -9.782  49.141  1.00  0.00     0.293 HD
ENDBRANCH   2  22
BRANCH   6  24
ATOM     24  O   UNL     1      12.696  -8.761  47.112  1.00  0.00    -0.507 OA
ATOM     25  H   UNL     1      11.921  -8.358  46.597  1.00  0.00     0.293 HD
ENDBRANCH   6  24
BRANCH   8  26
ATOM     26  O   UNL     1      10.003 -12.583  48.305  1.00  0.00    -0.508 OA
ATOM     27  H   UNL     1       9.865 -13.475  48.765  1.00  0.00     0.293 HD
ENDBRANCH   8  26
TORSDOF 6
ENDMDL
MODEL 6
REMARK VINA RESULT:    -4.692      1.694      6.783
REMARK INTER + INTRA:          -5.746
REMARK INTER:                  -5.484
REMARK INTRA:                  -0.262
REMARK UNBOUND:                -0.094
REMARK SMILES O=c1c(O)c(-c2ccc(O)c(O)c2)oc2cc(O)cc(O)c12
REMARK SMILES IDX 5 1 3 2 2 3 1 4 22 5 20 6 19 7 17 8 16 9 15 10 14 11 6 12
REMARK SMILES IDX 7 13 8 14 9 15 13 16 11 17 10 18 12 20 4 22 21 24 18 26
REMARK H PARENT 10 19 12 21 4 23 21 25 18 27
REMARK Flexibility Score: inf
ROOT
ATOM      1  C   UNL     1       9.946  -8.628  61.946  1.00  0.00     0.180 A 
ATOM      2  C   UNL     1       9.131  -8.116  60.917  1.00  0.00     0.208 A 
ATOM      3  C   UNL     1       8.833  -6.745  60.908  1.00  0.00     0.238 A 
ATOM      4  O   UNL     1       8.095  -6.277  59.997  1.00  0.00    -0.285 OA
ATOM      5  C   UNL     1       9.365  -5.909  61.910  1.00  0.00     0.111 A 
ATOM      6  C   UNL     1       9.115  -4.515  61.970  1.00  0.00     0.134 A 
ATOM      7  C   UNL     1       9.690  -3.749  62.995  1.00  0.00     0.093 A 
ATOM      8  C   UNL     1      10.508  -4.346  63.957  1.00  0.00     0.123 A 
ATOM      9  C   UNL     1      10.758  -5.721  63.903  1.00  0.00     0.094 A 
ATOM     10  C   UNL     1      10.193  -6.502  62.891  1.00  0.00     0.146 A 
ATOM     11  O   UNL     1      10.443  -7.807  62.866  1.00  0.00    -0.452 OA
ENDROOT
BRANCH   1  12
ATOM     12  C   UNL     1      10.291 -10.065  62.035  1.00  0.00     0.025 A 
ATOM     13  C   UNL     1      11.609 -10.476  61.779  1.00  0.00     0.016 A 
ATOM     14  C   UNL     1      11.962 -11.825  61.877  1.00  0.00     0.051 A 
ATOM     15  C   UNL     1      11.006 -12.779  62.247  1.00  0.00     0.157 A 
ATOM     16  C   UNL     1       9.339 -11.025  62.426  1.00  0.00     0.062 A 
ATOM     17  C   UNL     1       9.694 -12.378  62.526  1.00  0.00     0.158 A 
BRANCH  15  18
ATOM     18  O   UNL     1      11.354 -14.125  62.344  1.00  0.00    -0.504 OA
ATOM     19  H   UNL     1      10.701 -14.860  62.101  1.00  0.00     0.293 HD
ENDBRANCH  15  18
BRANCH  17  20
ATOM     20  O   UNL     1       8.748 -13.328  62.908  1.00  0.00    -0.504 OA
ATOM     21  H   UNL     1       7.761 -13.200  62.718  1.00  0.00     0.293 HD
ENDBRANCH  17  20
ENDBRANCH   1  12
BRANCH   2  22
ATOM     22  O   UNL     1       8.657  -8.957  59.908  1.00  0.00    -0.502 OA
ATOM     23  H   UNL     1       8.373  -9.913  60.087  1.00  0.00     0.293 HD
ENDBRANCH   2  22
BRANCH   6  24
ATOM     24  O   UNL     1       8.303  -3.891  61.023  1.00  0.00    -0.507 OA
ATOM     25  H   UNL     1       7.337  -4.167  60.884  1.00  0.00     0.293 HD
ENDBRANCH   6  24
BRANCH   8  26
ATOM     26  O   UNL     1      11.067  -3.561  64.964  1.00  0.00    -0.508 OA
ATOM     27  H   UNL     1      11.886  -3.864  65.478  1.00  0.00     0.293 HD
ENDBRANCH   8  26
TORSDOF 6
ENDMDL
MODEL 7
REMARK VINA RESULT:    -4.562     11.070     13.513
REMARK INTER + INTRA:          -5.590
REMARK INTER:                  -5.265
REMARK INTRA:                  -0.325
REMARK UNBOUND:                -0.094
REMARK SMILES O=c1c(O)c(-c2ccc(O)c(O)c2)oc2cc(O)cc(O)c12
REMARK SMILES IDX 5 1 3 2 2 3 1 4 22 5 20 6 19 7 17 8 16 9 15 10 14 11 6 12
REMARK SMILES IDX 7 13 8 14 9 15 13 16 11 17 10 18 12 20 4 22 21 24 18 26
REMARK H PARENT 10 19 12 21 4 23 21 25 18 27
REMARK Flexibility Score: inf
ROOT
ATOM      1  C   UNL     1      16.261 -13.105  51.621  1.00  0.00     0.180 A 
ATOM      2  C   UNL     1      15.448 -13.387  52.737  1.00  0.00     0.208 A 
ATOM      3  C   UNL     1      16.058 -13.634  53.976  1.00  0.00     0.238 A 
ATOM      4  O   UNL     1      15.340 -13.898  54.979  1.00  0.00    -0.285 OA
ATOM      5  C   UNL     1      17.462 -13.577  54.085  1.00  0.00     0.111 A 
ATOM      6  C   UNL     1      18.155 -13.810  55.298  1.00  0.00     0.134 A 
ATOM      7  C   UNL     1      19.555 -13.726  55.327  1.00  0.00     0.093 A 
ATOM      8  C   UNL     1      20.273 -13.412  54.171  1.00  0.00     0.123 A 
ATOM      9  C   UNL     1      19.595 -13.182  52.969  1.00  0.00     0.094 A 
ATOM     10  C   UNL     1      18.200 -13.263  52.920  1.00  0.00     0.146 A 
ATOM     11  O   UNL     1      17.582 -13.045  51.765  1.00  0.00    -0.452 OA
ENDROOT
BRANCH   1  12
ATOM     12  C   UNL     1      15.693 -12.852  50.278  1.00  0.00     0.025 A 
ATOM     13  C   UNL     1      15.479 -13.930  49.405  1.00  0.00     0.016 A 
ATOM     14  C   UNL     1      14.925 -13.718  48.139  1.00  0.00     0.051 A 
ATOM     15  C   UNL     1      14.563 -12.426  47.735  1.00  0.00     0.157 A 
ATOM     16  C   UNL     1      15.309 -11.559  49.875  1.00  0.00     0.062 A 
ATOM     17  C   UNL     1      14.752 -11.346  48.606  1.00  0.00     0.158 A 
BRANCH  15  18
ATOM     18  O   UNL     1      14.012 -12.210  46.474  1.00  0.00    -0.504 OA
ATOM     19  H   UNL     1      14.524 -12.426  45.627  1.00  0.00     0.293 HD
ENDBRANCH  15  18
BRANCH  17  20
ATOM     20  O   UNL     1      14.379 -10.064  48.206  1.00  0.00    -0.504 OA
ATOM     21  H   UNL     1      14.251  -9.830  47.228  1.00  0.00     0.293 HD
ENDBRANCH  17  20
ENDBRANCH   1  12
BRANCH   2  22
ATOM     22  O   UNL     1      14.056 -13.388  52.612  1.00  0.00    -0.502 OA
ATOM     23  H   UNL     1      13.448 -12.971  53.307  1.00  0.00     0.293 HD
ENDBRANCH   2  22
BRANCH   6  24
ATOM     24  O   UNL     1      17.465 -14.123  56.469  1.00  0.00    -0.507 OA
ATOM     25  H   UNL     1      16.545 -14.549  56.448  1.00  0.00     0.293 HD
ENDBRANCH   6  24
BRANCH   8  26
ATOM     26  O   UNL     1      21.664 -13.334  54.227  1.00  0.00    -0.508 OA
ATOM     27  H   UNL     1      22.236 -14.159  54.364  1.00  0.00     0.293 HD
ENDBRANCH   8  26
TORSDOF 6
ENDMDL
MODEL 8
REMARK VINA RESULT:    -4.436      3.364      6.288
REMARK INTER + INTRA:          -5.437
REMARK INTER:                  -5.114
REMARK INTRA:                  -0.324
REMARK UNBOUND:                -0.094
REMARK SMILES O=c1c(O)c(-c2ccc(O)c(O)c2)oc2cc(O)cc(O)c12
REMARK SMILES IDX 5 1 3 2 2 3 1 4 22 5 20 6 19 7 17 8 16 9 15 10 14 11 6 12
REMARK SMILES IDX 7 13 8 14 9 15 13 16 11 17 10 18 12 20 4 22 21 24 18 26
REMARK H PARENT 10 19 12 21 4 23 21 25 18 27
REMARK Flexibility Score: inf
ROOT
ATOM      1  C   UNL     1       9.425  -3.612  62.255  1.00  0.00     0.180 A 
ATOM      2  C   UNL     1      10.147  -3.934  63.421  1.00  0.00     0.208 A 
ATOM      3  C   UNL     1      10.306  -5.285  63.768  1.00  0.00     0.238 A 
ATOM      4  O   UNL     1      10.942  -5.585  64.816  1.00  0.00    -0.285 OA
ATOM      5  C   UNL     1       9.762  -6.286  62.940  1.00  0.00     0.111 A 
ATOM      6  C   UNL     1       9.882  -7.670  63.216  1.00  0.00     0.134 A 
ATOM      7  C   UNL     1       9.319  -8.607  62.336  1.00  0.00     0.093 A 
ATOM      8  C   UNL     1       8.643  -8.189  61.188  1.00  0.00     0.123 A 
ATOM      9  C   UNL     1       8.521  -6.823  60.909  1.00  0.00     0.094 A 
ATOM     10  C   UNL     1       9.073  -5.874  61.775  1.00  0.00     0.146 A 
ATOM     11  O   UNL     1       8.938  -4.584  61.489  1.00  0.00    -0.452 OA
ENDROOT
BRANCH   1  12
ATOM     12  C   UNL     1       9.198  -2.211  61.832  1.00  0.00     0.025 A 
ATOM     13  C   UNL     1       8.098  -1.506  62.345  1.00  0.00     0.016 A 
ATOM     14  C   UNL     1       7.875  -0.176  61.976  1.00  0.00     0.051 A 
ATOM     15  C   UNL     1       8.758   0.471  61.102  1.00  0.00     0.157 A 
ATOM     16  C   UNL     1      10.093  -1.551  60.970  1.00  0.00     0.062 A 
ATOM     17  C   UNL     1       9.871  -0.217  60.602  1.00  0.00     0.158 A 
BRANCH  15  18
ATOM     18  O   UNL     1       8.539   1.796  60.730  1.00  0.00    -0.504 OA
ATOM     19  H   UNL     1       7.759   2.327  61.096  1.00  0.00     0.293 HD
ENDBRANCH  15  18
BRANCH  17  20
ATOM     20  O   UNL     1      10.755   0.434  59.742  1.00  0.00    -0.504 OA
ATOM     21  H   UNL     1      11.591   0.892  60.088  1.00  0.00     0.293 HD
ENDBRANCH  17  20
ENDBRANCH   1  12
BRANCH   2  22
ATOM     22  O   UNL     1      10.719  -2.924  64.198  1.00  0.00    -0.502 OA
ATOM     23  H   UNL     1      10.224  -2.481  64.962  1.00  0.00     0.293 HD
ENDBRANCH   2  22
BRANCH   6  24
ATOM     24  O   UNL     1      10.552  -8.119  64.354  1.00  0.00    -0.507 OA
ATOM     25  H   UNL     1      10.052  -8.466  65.165  1.00  0.00     0.293 HD
ENDBRANCH   6  24
BRANCH   8  26
ATOM     26  O   UNL     1       8.094  -9.140  60.330  1.00  0.00    -0.508 OA
ATOM     27  H   UNL     1       8.278 -10.130  60.449  1.00  0.00     0.293 HD
ENDBRANCH   8  26
TORSDOF 6
ENDMDL
