MODEL 1
REMARK VINA RESULT:    -5.885      0.000      0.000
REMARK INTER + INTRA:         -17.898
REMARK INTER:                 -13.455
REMARK INTRA:                  -4.443
REMARK UNBOUND:                -4.443
REMARK SMILES CCCCCCCCCCCCCCCCCCCCCCCC(=O)[O-]
REMARK SMILES IDX 13 1 14 2 15 3 16 4 17 5 18 6 19 7 20 8 21 9 22 10 23 11
REMARK SMILES IDX 24 12 25 13 26 14 12 15 11 16 10 17 9 18 8 19 7 20 6 21 5 22
REMARK SMILES IDX 4 23 3 24 2 25 1 26
REMARK H PARENT
REMARK Flexibility Score: inf
ROOT
ATOM      1  C   UNL     1      16.680  -5.702  12.942  1.00  0.00     0.000 C 
ENDROOT
BRANCH   1   2
ATOM      2  C   UNL     1      16.240  -7.164  13.123  1.00  0.00     0.000 C 
BRANCH   2   3
ATOM      3  C   UNL     1      15.944  -7.518  14.591  1.00  0.00     0.000 C 
BRANCH   3   4
ATOM      4  C   UNL     1      14.614  -6.924  15.082  1.00  0.00     0.000 C 
BRANCH   4   5
ATOM      5  C   UNL     1      14.812  -5.810  16.122  1.00  0.00     0.000 C 
BRANCH   5   6
ATOM      6  C   UNL     1      14.470  -4.436  15.530  1.00  0.00     0.000 C 
BRANCH   6   7
ATOM      7  C   UNL     1      14.070  -3.405  16.599  1.00  0.00     0.000 C 
BRANCH   7   8
ATOM      8  C   UNL     1      15.220  -3.027  17.554  1.00  0.00     0.000 C 
BRANCH   8   9
ATOM      9  C   UNL     1      16.501  -2.643  16.800  1.00  0.00     0.000 C 
BRANCH   9  10
ATOM     10  C   UNL     1      17.661  -3.578  17.171  1.00  0.00     0.006 C 
BRANCH  10  11
ATOM     11  C   UNL     1      18.215  -4.328  15.953  1.00  0.00     0.053 C 
BRANCH  11  12
ATOM     12  C   UNL     1      19.281  -3.542  15.253  1.00  0.00     0.041 C 
ATOM     13  O   UNL     1      19.474  -3.691  14.018  1.00  0.00    -0.550 OA
ATOM     14  O   UNL     1      20.052  -2.631  15.964  1.00  0.00    -0.550 OA
ENDBRANCH  11  12
ENDBRANCH  10  11
ENDBRANCH   9  10
ENDBRANCH   8   9
ENDBRANCH   7   8
ENDBRANCH   6   7
ENDBRANCH   5   6
ENDBRANCH   4   5
ENDBRANCH   3   4
ENDBRANCH   2   3
ENDBRANCH   1   2
BRANCH   1  15
ATOM     15  C   UNL     1      17.504  -5.483  11.661  1.00  0.00     0.000 C 
BRANCH  15  16
ATOM     16  C   UNL     1      16.773  -5.981  10.402  1.00  0.00     0.000 C 
BRANCH  16  17
ATOM     17  C   UNL     1      15.731  -4.969   9.894  1.00  0.00     0.000 C 
BRANCH  17  18
ATOM     18  C   UNL     1      14.407  -5.637   9.490  1.00  0.00    -0.000 C 
BRANCH  18  19
ATOM     19  C   UNL     1      13.198  -5.072  10.258  1.00  0.00    -0.000 C 
BRANCH  19  20
ATOM     20  C   UNL     1      13.353  -5.199  11.781  1.00  0.00    -0.000 C 
BRANCH  20  21
ATOM     21  C   UNL     1      12.468  -4.209  12.553  1.00  0.00    -0.000 C 
BRANCH  21  22
ATOM     22  C   UNL     1      12.660  -2.780  12.027  1.00  0.00    -0.000 C 
BRANCH  22  23
ATOM     23  C   UNL     1      13.749  -2.000  12.786  1.00  0.00    -0.000 C 
BRANCH  23  24
ATOM     24  C   UNL     1      15.165  -2.093  12.180  1.00  0.00    -0.000 C 
BRANCH  24  25
ATOM     25  C   UNL     1      16.306  -2.187  13.207  1.00  0.00    -0.003 C 
ATOM     26  C   UNL     1      17.121  -0.899  13.311  1.00  0.00     0.004 C 
ENDBRANCH  24  25
ENDBRANCH  23  24
ENDBRANCH  22  23
ENDBRANCH  21  22
ENDBRANCH  20  21
ENDBRANCH  19  20
ENDBRANCH  18  19
ENDBRANCH  17  18
ENDBRANCH  16  17
ENDBRANCH  15  16
ENDBRANCH   1  15
TORSDOF 22
ENDMDL
MODEL 2
REMARK VINA RESULT:    -5.822      2.713      5.495
REMARK INTER + INTRA:         -17.753
REMARK INTER:                 -13.296
REMARK INTRA:                  -4.456
REMARK UNBOUND:                -4.443
REMARK SMILES CCCCCCCCCCCCCCCCCCCCCCCC(=O)[O-]
REMARK SMILES IDX 13 1 14 2 15 3 16 4 17 5 18 6 19 7 20 8 21 9 22 10 23 11
REMARK SMILES IDX 24 12 25 13 26 14 12 15 11 16 10 17 9 18 8 19 7 20 6 21 5 22
REMARK SMILES IDX 4 23 3 24 2 25 1 26
REMARK H PARENT
REMARK Flexibility Score: inf
ROOT
ATOM      1  C   UNL     1      14.334  -3.564  16.975  1.00  0.00     0.000 C 
ENDROOT
BRANCH   1   2
ATOM      2  C   UNL     1      15.440  -2.639  17.509  1.00  0.00     0.000 C 
BRANCH   2   3
ATOM      3  C   UNL     1      16.725  -2.700  16.664  1.00  0.00     0.000 C 
BRANCH   3   4
ATOM      4  C   UNL     1      17.646  -3.859  17.078  1.00  0.00     0.000 C 
BRANCH   4   5
ATOM      5  C   UNL     1      17.851  -4.883  15.951  1.00  0.00     0.000 C 
BRANCH   5   6
ATOM      6  C   UNL     1      16.758  -5.962  15.980  1.00  0.00     0.000 C 
BRANCH   6   7
ATOM      7  C   UNL     1      16.215  -6.302  14.582  1.00  0.00     0.000 C 
BRANCH   7   8
ATOM      8  C   UNL     1      14.725  -6.703  14.579  1.00  0.00     0.000 C 
BRANCH   8   9
ATOM      9  C   UNL     1      14.065  -6.477  13.211  1.00  0.00     0.000 C 
BRANCH   9  10
ATOM     10  C   UNL     1      15.088  -5.974  12.182  1.00  0.00     0.006 C 
BRANCH  10  11
ATOM     11  C   UNL     1      14.625  -4.690  11.482  1.00  0.00     0.053 C 
BRANCH  11  12
ATOM     12  C   UNL     1      13.600  -4.970  10.427  1.00  0.00     0.041 C 
ATOM     13  O   UNL     1      12.470  -4.415  10.474  1.00  0.00    -0.550 OA
ATOM     14  O   UNL     1      13.898  -5.833   9.380  1.00  0.00    -0.550 OA
ENDBRANCH  11  12
ENDBRANCH  10  11
ENDBRANCH   9  10
ENDBRANCH   8   9
ENDBRANCH   7   8
ENDBRANCH   6   7
ENDBRANCH   5   6
ENDBRANCH   4   5
ENDBRANCH   3   4
ENDBRANCH   2   3
ENDBRANCH   1   2
BRANCH   1  15
ATOM     15  C   UNL     1      14.070  -3.370  15.472  1.00  0.00     0.000 C 
BRANCH  15  16
ATOM     16  C   UNL     1      12.568  -3.313  15.143  1.00  0.00     0.000 C 
BRANCH  16  17
ATOM     17  C   UNL     1      12.303  -2.864  13.696  1.00  0.00     0.000 C 
BRANCH  17  18
ATOM     18  C   UNL     1      12.860  -1.463  13.400  1.00  0.00    -0.000 C 
BRANCH  18  19
ATOM     19  C   UNL     1      13.394  -1.327  11.962  1.00  0.00    -0.000 C 
BRANCH  19  20
ATOM     20  C   UNL     1      14.868  -0.897  11.916  1.00  0.00    -0.000 C 
BRANCH  20  21
ATOM     21  C   UNL     1      15.610  -1.180  13.232  1.00  0.00    -0.000 C 
BRANCH  21  22
ATOM     22  C   UNL     1      17.120  -1.314  12.990  1.00  0.00    -0.000 C 
BRANCH  22  23
ATOM     23  C   UNL     1      17.608  -2.774  13.033  1.00  0.00    -0.000 C 
BRANCH  23  24
ATOM     24  C   UNL     1      19.140  -2.954  13.002  1.00  0.00    -0.000 C 
BRANCH  24  25
ATOM     25  C   UNL     1      19.620  -4.368  12.631  1.00  0.00    -0.003 C 
ATOM     26  C   UNL     1      18.499  -5.255  12.090  1.00  0.00     0.004 C 
ENDBRANCH  24  25
ENDBRANCH  23  24
ENDBRANCH  22  23
ENDBRANCH  21  22
ENDBRANCH  20  21
ENDBRANCH  19  20
ENDBRANCH  18  19
ENDBRANCH  17  18
ENDBRANCH  16  17
ENDBRANCH  15  16
ENDBRANCH   1  15
TORSDOF 22
ENDMDL
MODEL 3
REMARK VINA RESULT:    -5.819      1.496      4.047
REMARK INTER + INTRA:         -17.745
REMARK INTER:                 -13.785
REMARK INTRA:                  -3.960
REMARK UNBOUND:                -4.443
REMARK SMILES CCCCCCCCCCCCCCCCCCCCCCCC(=O)[O-]
REMARK SMILES IDX 13 1 14 2 15 3 16 4 17 5 18 6 19 7 20 8 21 9 22 10 23 11
REMARK SMILES IDX 24 12 25 13 26 14 12 15 11 16 10 17 9 18 8 19 7 20 6 21 5 22
REMARK SMILES IDX 4 23 3 24 2 25 1 26
REMARK H PARENT
REMARK Flexibility Score: inf
ROOT
ATOM      1  C   UNL     1      15.191  -5.294  15.579  1.00  0.00     0.000 C 
ENDROOT
BRANCH   1   2
ATOM      2  C   UNL     1      13.933  -4.578  16.098  1.00  0.00     0.000 C 
BRANCH   2   3
ATOM      3  C   UNL     1      14.263  -3.375  16.999  1.00  0.00     0.000 C 
BRANCH   3   4
ATOM      4  C   UNL     1      15.680  -2.831  16.758  1.00  0.00     0.000 C 
BRANCH   4   5
ATOM      5  C   UNL     1      16.453  -2.593  18.065  1.00  0.00     0.000 C 
BRANCH   5   6
ATOM      6  C   UNL     1      17.904  -3.080  17.945  1.00  0.00     0.000 C 
BRANCH   6   7
ATOM      7  C   UNL     1      18.163  -3.880  16.657  1.00  0.00     0.000 C 
BRANCH   7   8
ATOM      8  C   UNL     1      19.127  -3.180  15.679  1.00  0.00     0.000 C 
BRANCH   8   9
ATOM      9  C   UNL     1      19.254  -3.934  14.347  1.00  0.00     0.000 C 
BRANCH   9  10
ATOM     10  C   UNL     1      18.706  -3.095  13.184  1.00  0.00     0.006 C 
BRANCH  10  11
ATOM     11  C   UNL     1      17.290  -2.574  13.461  1.00  0.00     0.053 C 
BRANCH  11  12
ATOM     12  C   UNL     1      17.132  -1.144  13.042  1.00  0.00     0.041 C 
ATOM     13  O   UNL     1      16.062  -0.754  12.505  1.00  0.00    -0.550 OA
ATOM     14  O   UNL     1      18.161  -0.238  13.260  1.00  0.00    -0.550 OA
ENDBRANCH  11  12
ENDBRANCH  10  11
ENDBRANCH   9  10
ENDBRANCH   8   9
ENDBRANCH   7   8
ENDBRANCH   6   7
ENDBRANCH   5   6
ENDBRANCH   4   5
ENDBRANCH   3   4
ENDBRANCH   2   3
ENDBRANCH   1   2
BRANCH   1  15
ATOM     15  C   UNL     1      15.043  -6.825  15.568  1.00  0.00     0.000 C 
BRANCH  15  16
ATOM     16  C   UNL     1      15.658  -7.464  14.311  1.00  0.00     0.000 C 
BRANCH  16  17
ATOM     17  C   UNL     1      15.731  -6.479  13.131  1.00  0.00     0.000 C 
BRANCH  17  18
ATOM     18  C   UNL     1      17.145  -6.368  12.540  1.00  0.00    -0.000 C 
BRANCH  18  19
ATOM     19  C   UNL     1      17.138  -5.965  11.054  1.00  0.00    -0.000 C 
BRANCH  19  20
ATOM     20  C   UNL     1      16.089  -4.887  10.739  1.00  0.00    -0.000 C 
BRANCH  20  21
ATOM     21  C   UNL     1      15.144  -5.293   9.597  1.00  0.00    -0.000 C 
BRANCH  21  22
ATOM     22  C   UNL     1      13.777  -5.724  10.146  1.00  0.00    -0.000 C 
BRANCH  22  23
ATOM     23  C   UNL     1      12.912  -4.536  10.605  1.00  0.00    -0.000 C 
BRANCH  23  24
ATOM     24  C   UNL     1      12.772  -4.378  12.133  1.00  0.00    -0.000 C 
BRANCH  24  25
ATOM     25  C   UNL     1      13.617  -3.250  12.749  1.00  0.00    -0.003 C 
ATOM     26  C   UNL     1      12.771  -2.183  13.444  1.00  0.00     0.004 C 
ENDBRANCH  24  25
ENDBRANCH  23  24
ENDBRANCH  22  23
ENDBRANCH  21  22
ENDBRANCH  20  21
ENDBRANCH  19  20
ENDBRANCH  18  19
ENDBRANCH  17  18
ENDBRANCH  16  17
ENDBRANCH  15  16
ENDBRANCH   1  15
TORSDOF 22
ENDMDL
MODEL 4
REMARK VINA RESULT:    -5.816      1.535      5.103
REMARK INTER + INTRA:         -17.739
REMARK INTER:                 -13.794
REMARK INTRA:                  -3.945
REMARK UNBOUND:                -4.443
REMARK SMILES CCCCCCCCCCCCCCCCCCCCCCCC(=O)[O-]
REMARK SMILES IDX 13 1 14 2 15 3 16 4 17 5 18 6 19 7 20 8 21 9 22 10 23 11
REMARK SMILES IDX 24 12 25 13 26 14 12 15 11 16 10 17 9 18 8 19 7 20 6 21 5 22
REMARK SMILES IDX 4 23 3 24 2 25 1 26
REMARK H PARENT
REMARK Flexibility Score: inf
ROOT
ATOM      1  C   UNL     1      12.950  -3.283  14.238  1.00  0.00     0.000 C 
ENDROOT
BRANCH   1   2
ATOM      2  C   UNL     1      12.633  -1.857  13.760  1.00  0.00     0.000 C 
BRANCH   2   3
ATOM      3  C   UNL     1      13.229  -1.548  12.375  1.00  0.00     0.000 C 
BRANCH   3   4
ATOM      4  C   UNL     1      14.697  -1.988  12.255  1.00  0.00     0.000 C 
BRANCH   4   5
ATOM      5  C   UNL     1      15.681  -0.822  12.430  1.00  0.00     0.000 C 
BRANCH   5   6
ATOM      6  C   UNL     1      16.831  -1.206  13.372  1.00  0.00     0.000 C 
BRANCH   6   7
ATOM      7  C   UNL     1      17.159  -2.708  13.335  1.00  0.00     0.000 C 
BRANCH   7   8
ATOM      8  C   UNL     1      18.671  -3.011  13.357  1.00  0.00     0.000 C 
BRANCH   8   9
ATOM      9  C   UNL     1      19.046  -4.029  14.444  1.00  0.00     0.000 C 
BRANCH   9  10
ATOM     10  C   UNL     1      19.068  -3.370  15.831  1.00  0.00     0.006 C 
BRANCH  10  11
ATOM     11  C   UNL     1      17.990  -3.940  16.762  1.00  0.00     0.053 C 
BRANCH  11  12
ATOM     12  C   UNL     1      17.774  -3.070  17.962  1.00  0.00     0.041 C 
ATOM     13  O   UNL     1      18.647  -3.010  18.868  1.00  0.00    -0.550 OA
ATOM     14  O   UNL     1      16.616  -2.312  18.071  1.00  0.00    -0.550 OA
ENDBRANCH  11  12
ENDBRANCH  10  11
ENDBRANCH   9  10
ENDBRANCH   8   9
ENDBRANCH   7   8
ENDBRANCH   6   7
ENDBRANCH   5   6
ENDBRANCH   4   5
ENDBRANCH   3   4
ENDBRANCH   2   3
ENDBRANCH   1   2
BRANCH   1  15
ATOM     15  C   UNL     1      13.207  -3.359  15.753  1.00  0.00     0.000 C 
BRANCH  15  16
ATOM     16  C   UNL     1      14.487  -4.143  16.092  1.00  0.00     0.000 C 
BRANCH  16  17
ATOM     17  C   UNL     1      14.904  -5.098  14.959  1.00  0.00     0.000 C 
BRANCH  17  18
ATOM     18  C   UNL     1      15.594  -6.368  15.480  1.00  0.00    -0.000 C 
BRANCH  18  19
ATOM     19  C   UNL     1      15.874  -7.392  14.364  1.00  0.00    -0.000 C 
BRANCH  19  20
ATOM     20  C   UNL     1      15.819  -6.767  12.961  1.00  0.00    -0.000 C 
BRANCH  20  21
ATOM     21  C   UNL     1      17.203  -6.350  12.441  1.00  0.00    -0.000 C 
BRANCH  21  22
ATOM     22  C   UNL     1      17.116  -5.859  10.989  1.00  0.00    -0.000 C 
BRANCH  22  23
ATOM     23  C   UNL     1      15.775  -5.176  10.665  1.00  0.00    -0.000 C 
BRANCH  23  24
ATOM     24  C   UNL     1      15.020  -5.756   9.451  1.00  0.00    -0.000 C 
BRANCH  24  25
ATOM     25  C   UNL     1      13.490  -5.610   9.507  1.00  0.00    -0.003 C 
ATOM     26  C   UNL     1      13.004  -4.914  10.777  1.00  0.00     0.004 C 
ENDBRANCH  24  25
ENDBRANCH  23  24
ENDBRANCH  22  23
ENDBRANCH  21  22
ENDBRANCH  20  21
ENDBRANCH  19  20
ENDBRANCH  18  19
ENDBRANCH  17  18
ENDBRANCH  16  17
ENDBRANCH  15  16
ENDBRANCH   1  15
TORSDOF 22
ENDMDL
MODEL 5
REMARK VINA RESULT:    -5.749      1.792      5.696
REMARK INTER + INTRA:         -17.586
REMARK INTER:                 -14.012
REMARK INTRA:                  -3.574
REMARK UNBOUND:                -4.443
REMARK SMILES CCCCCCCCCCCCCCCCCCCCCCCC(=O)[O-]
REMARK SMILES IDX 13 1 14 2 15 3 16 4 17 5 18 6 19 7 20 8 21 9 22 10 23 11
REMARK SMILES IDX 24 12 25 13 26 14 12 15 11 16 10 17 9 18 8 19 7 20 6 21 5 22
REMARK SMILES IDX 4 23 3 24 2 25 1 26
REMARK H PARENT
REMARK Flexibility Score: inf
ROOT
ATOM      1  C   UNL     1      18.079  -4.253  12.908  1.00  0.00     0.000 C 
ENDROOT
BRANCH   1   2
ATOM      2  C   UNL     1      18.495  -5.510  12.127  1.00  0.00     0.000 C 
BRANCH   2   3
ATOM      3  C   UNL     1      17.421  -5.972  11.126  1.00  0.00     0.000 C 
BRANCH   3   4
ATOM      4  C   UNL     1      16.121  -5.161  11.244  1.00  0.00     0.000 C 
BRANCH   4   5
ATOM      5  C   UNL     1      15.157  -5.416  10.075  1.00  0.00     0.000 C 
BRANCH   5   6
ATOM      6  C   UNL     1      13.702  -5.162  10.495  1.00  0.00     0.000 C 
BRANCH   6   7
ATOM      7  C   UNL     1      13.444  -5.469  11.980  1.00  0.00     0.000 C 
BRANCH   7   8
ATOM      8  C   UNL     1      12.465  -4.485  12.653  1.00  0.00     0.000 C 
BRANCH   8   9
ATOM      9  C   UNL     1      12.446  -3.116  11.956  1.00  0.00     0.000 C 
BRANCH   9  10
ATOM     10  C   UNL     1      12.923  -2.008  12.906  1.00  0.00     0.006 C 
BRANCH  10  11
ATOM     11  C   UNL     1      14.428  -2.097  13.191  1.00  0.00     0.053 C 
BRANCH  11  12
ATOM     12  C   UNL     1      15.198  -1.053  12.443  1.00  0.00     0.041 C 
ATOM     13  O   UNL     1      16.443  -0.944  12.603  1.00  0.00    -0.550 OA
ATOM     14  O   UNL     1      14.543  -0.210  11.555  1.00  0.00    -0.550 OA
ENDBRANCH  11  12
ENDBRANCH  10  11
ENDBRANCH   9  10
ENDBRANCH   8   9
ENDBRANCH   7   8
ENDBRANCH   6   7
ENDBRANCH   5   6
ENDBRANCH   4   5
ENDBRANCH   3   4
ENDBRANCH   2   3
ENDBRANCH   1   2
BRANCH   1  15
ATOM     15  C   UNL     1      19.164  -3.163  12.904  1.00  0.00     0.000 C 
BRANCH  15  16
ATOM     16  C   UNL     1      19.287  -2.453  14.264  1.00  0.00     0.000 C 
BRANCH  16  17
ATOM     17  C   UNL     1      19.669  -3.422  15.396  1.00  0.00     0.000 C 
BRANCH  17  18
ATOM     18  C   UNL     1      19.016  -3.053  16.737  1.00  0.00    -0.000 C 
BRANCH  18  19
ATOM     19  C   UNL     1      17.648  -3.730  16.939  1.00  0.00    -0.000 C 
BRANCH  19  20
ATOM     20  C   UNL     1      16.481  -2.870  16.429  1.00  0.00    -0.000 C 
BRANCH  20  21
ATOM     21  C   UNL     1      15.229  -2.985  17.312  1.00  0.00    -0.000 C 
BRANCH  21  22
ATOM     22  C   UNL     1      14.098  -3.707  16.565  1.00  0.00    -0.000 C 
BRANCH  22  23
ATOM     23  C   UNL     1      14.611  -4.802  15.612  1.00  0.00    -0.000 C 
BRANCH  23  24
ATOM     24  C   UNL     1      14.775  -6.199  16.245  1.00  0.00    -0.000 C 
BRANCH  24  25
ATOM     25  C   UNL     1      14.827  -7.365  15.243  1.00  0.00    -0.003 C 
ATOM     26  C   UNL     1      15.938  -7.212  14.206  1.00  0.00     0.004 C 
ENDBRANCH  24  25
ENDBRANCH  23  24
ENDBRANCH  22  23
ENDBRANCH  21  22
ENDBRANCH  20  21
ENDBRANCH  19  20
ENDBRANCH  18  19
ENDBRANCH  17  18
ENDBRANCH  16  17
ENDBRANCH  15  16
ENDBRANCH   1  15
TORSDOF 22
ENDMDL
MODEL 6
REMARK VINA RESULT:    -5.741      1.276      2.851
REMARK INTER + INTRA:         -17.568
REMARK INTER:                 -13.581
REMARK INTRA:                  -3.987
REMARK UNBOUND:                -4.443
REMARK SMILES CCCCCCCCCCCCCCCCCCCCCCCC(=O)[O-]
REMARK SMILES IDX 13 1 14 2 15 3 16 4 17 5 18 6 19 7 20 8 21 9 22 10 23 11
REMARK SMILES IDX 24 12 25 13 26 14 12 15 11 16 10 17 9 18 8 19 7 20 6 21 5 22
REMARK SMILES IDX 4 23 3 24 2 25 1 26
REMARK H PARENT
REMARK Flexibility Score: inf
ROOT
ATOM      1  C   UNL     1      15.654  -7.451  14.439  1.00  0.00     0.000 C 
ENDROOT
BRANCH   1   2
ATOM      2  C   UNL     1      15.858  -6.407  15.549  1.00  0.00     0.000 C 
BRANCH   2   3
ATOM      3  C   UNL     1      14.573  -5.626  15.875  1.00  0.00     0.000 C 
BRANCH   3   4
ATOM      4  C   UNL     1      14.775  -4.104  15.797  1.00  0.00     0.000 C 
BRANCH   4   5
ATOM      5  C   UNL     1      14.373  -3.387  17.094  1.00  0.00     0.000 C 
BRANCH   5   6
ATOM      6  C   UNL     1      15.569  -2.645  17.708  1.00  0.00     0.000 C 
BRANCH   6   7
ATOM      7  C   UNL     1      16.792  -2.604  16.777  1.00  0.00     0.000 C 
BRANCH   7   8
ATOM      8  C   UNL     1      18.057  -3.237  17.390  1.00  0.00     0.000 C 
BRANCH   8   9
ATOM      9  C   UNL     1      19.291  -3.055  16.493  1.00  0.00     0.000 C 
BRANCH   9  10
ATOM     10  C   UNL     1      18.953  -3.349  15.025  1.00  0.00     0.006 C 
BRANCH  10  11
ATOM     11  C   UNL     1      19.413  -2.225  14.087  1.00  0.00     0.053 C 
BRANCH  11  12
ATOM     12  C   UNL     1      18.255  -1.436  13.556  1.00  0.00     0.041 C 
ATOM     13  O   UNL     1      17.135  -1.986  13.387  1.00  0.00    -0.550 OA
ATOM     14  O   UNL     1      18.410  -0.088  13.263  1.00  0.00    -0.550 OA
ENDBRANCH  11  12
ENDBRANCH  10  11
ENDBRANCH   9  10
ENDBRANCH   8   9
ENDBRANCH   7   8
ENDBRANCH   6   7
ENDBRANCH   5   6
ENDBRANCH   4   5
ENDBRANCH   3   4
ENDBRANCH   2   3
ENDBRANCH   1   2
BRANCH   1  15
ATOM     15  C   UNL     1      16.280  -7.025  13.100  1.00  0.00     0.000 C 
BRANCH  15  16
ATOM     16  C   UNL     1      16.882  -5.610  13.158  1.00  0.00     0.000 C 
BRANCH  16  17
ATOM     17  C   UNL     1      17.076  -5.001  11.759  1.00  0.00     0.000 C 
BRANCH  17  18
ATOM     18  C   UNL     1      16.705  -5.976  10.631  1.00  0.00    -0.000 C 
BRANCH  18  19
ATOM     19  C   UNL     1      15.846  -5.319   9.535  1.00  0.00    -0.000 C 
BRANCH  19  20
ATOM     20  C   UNL     1      14.411  -5.867   9.501  1.00  0.00    -0.000 C 
BRANCH  20  21
ATOM     21  C   UNL     1      13.419  -4.987  10.277  1.00  0.00    -0.000 C 
BRANCH  21  22
ATOM     22  C   UNL     1      13.327  -5.431  11.744  1.00  0.00    -0.000 C 
BRANCH  22  23
ATOM     23  C   UNL     1      13.308  -4.249  12.730  1.00  0.00    -0.000 C 
BRANCH  23  24
ATOM     24  C   UNL     1      14.008  -2.968  12.231  1.00  0.00    -0.000 C 
BRANCH  24  25
ATOM     25  C   UNL     1      13.486  -1.659  12.849  1.00  0.00    -0.003 C 
ATOM     26  C   UNL     1      12.468  -1.892  13.965  1.00  0.00     0.004 C 
ENDBRANCH  24  25
ENDBRANCH  23  24
ENDBRANCH  22  23
ENDBRANCH  21  22
ENDBRANCH  20  21
ENDBRANCH  19  20
ENDBRANCH  18  19
ENDBRANCH  17  18
ENDBRANCH  16  17
ENDBRANCH  15  16
ENDBRANCH   1  15
TORSDOF 22
ENDMDL
MODEL 7
REMARK VINA RESULT:    -5.737      1.919      4.313
REMARK INTER + INTRA:         -17.559
REMARK INTER:                 -13.655
REMARK INTRA:                  -3.904
REMARK UNBOUND:                -4.443
REMARK SMILES CCCCCCCCCCCCCCCCCCCCCCCC(=O)[O-]
REMARK SMILES IDX 13 1 14 2 15 3 16 4 17 5 18 6 19 7 20 8 21 9 22 10 23 11
REMARK SMILES IDX 24 12 25 13 26 14 12 15 11 16 10 17 9 18 8 19 7 20 6 21 5 22
REMARK SMILES IDX 4 23 3 24 2 25 1 26
REMARK H PARENT
REMARK Flexibility Score: inf
ROOT
ATOM      1  C   UNL     1      17.519  -2.433  13.411  1.00  0.00     0.000 C 
ENDROOT
BRANCH   1   2
ATOM      2  C   UNL     1      19.013  -2.566  13.745  1.00  0.00     0.000 C 
BRANCH   2   3
ATOM      3  C   UNL     1      19.345  -3.880  14.475  1.00  0.00     0.000 C 
BRANCH   3   4
ATOM      4  C   UNL     1      18.394  -4.155  15.652  1.00  0.00     0.000 C 
BRANCH   4   5
ATOM      5  C   UNL     1      18.699  -3.278  16.876  1.00  0.00     0.000 C 
BRANCH   5   6
ATOM      6  C   UNL     1      17.444  -3.075  17.736  1.00  0.00     0.000 C 
BRANCH   6   7
ATOM      7  C   UNL     1      16.262  -2.490  16.944  1.00  0.00     0.000 C 
BRANCH   7   8
ATOM      8  C   UNL     1      14.890  -3.034  17.390  1.00  0.00     0.000 C 
BRANCH   8   9
ATOM      9  C   UNL     1      14.052  -3.539  16.206  1.00  0.00     0.000 C 
BRANCH   9  10
ATOM     10  C   UNL     1      14.898  -4.405  15.261  1.00  0.00     0.006 C 
BRANCH  10  11
ATOM     11  C   UNL     1      15.011  -5.856  15.749  1.00  0.00     0.053 C 
BRANCH  11  12
ATOM     12  C   UNL     1      14.951  -6.831  14.614  1.00  0.00     0.041 C 
ATOM     13  O   UNL     1      14.079  -6.705  13.714  1.00  0.00    -0.550 OA
ATOM     14  O   UNL     1      15.869  -7.870  14.541  1.00  0.00    -0.550 OA
ENDBRANCH  11  12
ENDBRANCH  10  11
ENDBRANCH   9  10
ENDBRANCH   8   9
ENDBRANCH   7   8
ENDBRANCH   6   7
ENDBRANCH   5   6
ENDBRANCH   4   5
ENDBRANCH   3   4
ENDBRANCH   2   3
ENDBRANCH   1   2
BRANCH   1  15
ATOM     15  C   UNL     1      17.147  -1.032  12.897  1.00  0.00     0.000 C 
BRANCH  15  16
ATOM     16  C   UNL     1      15.633  -0.874  12.670  1.00  0.00     0.000 C 
BRANCH  16  17
ATOM     17  C   UNL     1      14.968  -2.189  12.229  1.00  0.00     0.000 C 
BRANCH  17  18
ATOM     18  C   UNL     1      13.479  -2.253  12.601  1.00  0.00    -0.000 C 
BRANCH  18  19
ATOM     19  C   UNL     1      12.847  -3.623  12.290  1.00  0.00    -0.000 C 
BRANCH  19  20
ATOM     20  C   UNL     1      12.008  -3.607  11.003  1.00  0.00    -0.000 C 
BRANCH  20  21
ATOM     21  C   UNL     1      12.387  -4.736  10.032  1.00  0.00    -0.000 C 
BRANCH  21  22
ATOM     22  C   UNL     1      13.657  -5.459  10.504  1.00  0.00    -0.000 C 
BRANCH  22  23
ATOM     23  C   UNL     1      14.695  -5.644   9.383  1.00  0.00    -0.000 C 
BRANCH  23  24
ATOM     24  C   UNL     1      16.168  -5.564   9.834  1.00  0.00    -0.000 C 
BRANCH  24  25
ATOM     25  C   UNL     1      16.393  -5.705  11.350  1.00  0.00    -0.003 C 
ATOM     26  C   UNL     1      17.871  -5.784  11.729  1.00  0.00     0.004 C 
ENDBRANCH  24  25
ENDBRANCH  23  24
ENDBRANCH  22  23
ENDBRANCH  21  22
ENDBRANCH  20  21
ENDBRANCH  19  20
ENDBRANCH  18  19
ENDBRANCH  17  18
ENDBRANCH  16  17
ENDBRANCH  15  16
ENDBRANCH   1  15
TORSDOF 22
ENDMDL
MODEL 8
REMARK VINA RESULT:    -5.678      1.432      4.285
REMARK INTER + INTRA:         -17.423
REMARK INTER:                 -13.284
REMARK INTRA:                  -4.139
REMARK UNBOUND:                -4.443
REMARK SMILES CCCCCCCCCCCCCCCCCCCCCCCC(=O)[O-]
REMARK SMILES IDX 13 1 14 2 15 3 16 4 17 5 18 6 19 7 20 8 21 9 22 10 23 11
REMARK SMILES IDX 24 12 25 13 26 14 12 15 11 16 10 17 9 18 8 19 7 20 6 21 5 22
REMARK SMILES IDX 4 23 3 24 2 25 1 26
REMARK H PARENT
REMARK Flexibility Score: inf
ROOT
ATOM      1  C   UNL     1      14.318  -2.742  13.838  1.00  0.00     0.000 C 
ENDROOT
BRANCH   1   2
ATOM      2  C   UNL     1      13.292  -3.377  14.790  1.00  0.00     0.000 C 
BRANCH   2   3
ATOM      3  C   UNL     1      13.739  -3.333  16.262  1.00  0.00     0.000 C 
BRANCH   3   4
ATOM      4  C   UNL     1      15.182  -3.825  16.453  1.00  0.00     0.000 C 
BRANCH   4   5
ATOM      5  C   UNL     1      16.114  -2.730  16.994  1.00  0.00     0.000 C 
BRANCH   5   6
ATOM      6  C   UNL     1      17.404  -3.336  17.565  1.00  0.00     0.000 C 
BRANCH   6   7
ATOM      7  C   UNL     1      18.596  -3.232  16.598  1.00  0.00     0.000 C 
BRANCH   7   8
ATOM      8  C   UNL     1      18.556  -4.267  15.456  1.00  0.00     0.000 C 
BRANCH   8   9
ATOM      9  C   UNL     1      19.685  -4.052  14.437  1.00  0.00     0.000 C 
BRANCH   9  10
ATOM     10  C   UNL     1      19.140  -3.461  13.128  1.00  0.00     0.006 C 
BRANCH  10  11
ATOM     11  C   UNL     1      17.798  -2.744  13.329  1.00  0.00     0.053 C 
BRANCH  11  12
ATOM     12  C   UNL     1      17.961  -1.255  13.349  1.00  0.00     0.041 C 
ATOM     13  O   UNL     1      16.967  -0.505  13.159  1.00  0.00    -0.550 OA
ATOM     14  O   UNL     1      19.207  -0.696  13.595  1.00  0.00    -0.550 OA
ENDBRANCH  11  12
ENDBRANCH  10  11
ENDBRANCH   9  10
ENDBRANCH   8   9
ENDBRANCH   7   8
ENDBRANCH   6   7
ENDBRANCH   5   6
ENDBRANCH   4   5
ENDBRANCH   3   4
ENDBRANCH   2   3
ENDBRANCH   1   2
BRANCH   1  15
ATOM     15  C   UNL     1      13.766  -2.538  12.417  1.00  0.00     0.000 C 
BRANCH  15  16
ATOM     16  C   UNL     1      12.370  -3.160  12.236  1.00  0.00     0.000 C 
BRANCH  16  17
ATOM     17  C   UNL     1      12.308  -4.114  11.030  1.00  0.00     0.000 C 
BRANCH  17  18
ATOM     18  C   UNL     1      13.392  -5.202  11.080  1.00  0.00    -0.000 C 
BRANCH  18  19
ATOM     19  C   UNL     1      13.881  -5.618   9.681  1.00  0.00    -0.000 C 
BRANCH  19  20
ATOM     20  C   UNL     1      15.410  -5.549   9.544  1.00  0.00    -0.000 C 
BRANCH  20  21
ATOM     21  C   UNL     1      16.092  -4.964  10.790  1.00  0.00    -0.000 C 
BRANCH  21  22
ATOM     22  C   UNL     1      17.237  -5.871  11.263  1.00  0.00    -0.000 C 
BRANCH  22  23
ATOM     23  C   UNL     1      16.877  -6.687  12.518  1.00  0.00    -0.000 C 
BRANCH  23  24
ATOM     24  C   UNL     1      15.985  -5.957  13.543  1.00  0.00    -0.000 C 
BRANCH  24  25
ATOM     25  C   UNL     1      14.784  -6.771  14.056  1.00  0.00    -0.003 C 
ATOM     26  C   UNL     1      14.923  -7.179  15.522  1.00  0.00     0.004 C 
ENDBRANCH  24  25
ENDBRANCH  23  24
ENDBRANCH  22  23
ENDBRANCH  21  22
ENDBRANCH  20  21
ENDBRANCH  19  20
ENDBRANCH  18  19
ENDBRANCH  17  18
ENDBRANCH  16  17
ENDBRANCH  15  16
ENDBRANCH   1  15
TORSDOF 22
ENDMDL
MODEL 9
REMARK VINA RESULT:    -5.671      2.377      5.625
REMARK INTER + INTRA:         -17.409
REMARK INTER:                 -13.020
REMARK INTRA:                  -4.389
REMARK UNBOUND:                -4.443
REMARK SMILES CCCCCCCCCCCCCCCCCCCCCCCC(=O)[O-]
REMARK SMILES IDX 13 1 14 2 15 3 16 4 17 5 18 6 19 7 20 8 21 9 22 10 23 11
REMARK SMILES IDX 24 12 25 13 26 14 12 15 11 16 10 17 9 18 8 19 7 20 6 21 5 22
REMARK SMILES IDX 4 23 3 24 2 25 1 26
REMARK H PARENT
REMARK Flexibility Score: inf
ROOT
ATOM      1  C   UNL     1      17.497  -3.712  16.994  1.00  0.00     0.000 C 
ENDROOT
BRANCH   1   2
ATOM      2  C   UNL     1      16.355  -2.890  17.612  1.00  0.00     0.000 C 
BRANCH   2   3
ATOM      3  C   UNL     1      15.004  -3.131  16.914  1.00  0.00     0.000 C 
BRANCH   3   4
ATOM      4  C   UNL     1      15.137  -4.022  15.669  1.00  0.00     0.000 C 
BRANCH   4   5
ATOM      5  C   UNL     1      14.599  -5.443  15.898  1.00  0.00     0.000 C 
BRANCH   5   6
ATOM      6  C   UNL     1      14.917  -6.353  14.703  1.00  0.00     0.000 C 
BRANCH   6   7
ATOM      7  C   UNL     1      15.826  -5.679  13.661  1.00  0.00     0.000 C 
BRANCH   7   8
ATOM      8  C   UNL     1      16.681  -6.674  12.851  1.00  0.00     0.000 C 
BRANCH   8   9
ATOM      9  C   UNL     1      17.129  -6.092  11.502  1.00  0.00     0.000 C 
BRANCH   9  10
ATOM     10  C   UNL     1      16.181  -4.976  11.041  1.00  0.00     0.006 C 
BRANCH  10  11
ATOM     11  C   UNL     1      15.519  -5.297   9.694  1.00  0.00     0.053 C 
BRANCH  11  12
ATOM     12  C   UNL     1      14.101  -5.748   9.865  1.00  0.00     0.041 C 
ATOM     13  O   UNL     1      13.395  -6.021   8.858  1.00  0.00    -0.550 OA
ATOM     14  O   UNL     1      13.563  -5.882  11.138  1.00  0.00    -0.550 OA
ENDBRANCH  11  12
ENDBRANCH  10  11
ENDBRANCH   9  10
ENDBRANCH   8   9
ENDBRANCH   7   8
ENDBRANCH   6   7
ENDBRANCH   5   6
ENDBRANCH   4   5
ENDBRANCH   3   4
ENDBRANCH   2   3
ENDBRANCH   1   2
BRANCH   1  15
ATOM     15  C   UNL     1      18.862  -3.011  17.104  1.00  0.00     0.000 C 
BRANCH  15  16
ATOM     16  C   UNL     1      19.698  -3.151  15.819  1.00  0.00     0.000 C 
BRANCH  16  17
ATOM     17  C   UNL     1      19.042  -4.095  14.796  1.00  0.00     0.000 C 
BRANCH  17  18
ATOM     18  C   UNL     1      18.759  -3.407  13.452  1.00  0.00    -0.000 C 
BRANCH  18  19
ATOM     19  C   UNL     1      18.844  -1.872  13.541  1.00  0.00    -0.000 C 
BRANCH  19  20
ATOM     20  C   UNL     1      17.461  -1.206  13.607  1.00  0.00    -0.000 C 
BRANCH  20  21
ATOM     21  C   UNL     1      16.386  -1.992  12.841  1.00  0.00    -0.000 C 
BRANCH  21  22
ATOM     22  C   UNL     1      15.268  -1.059  12.355  1.00  0.00    -0.000 C 
BRANCH  22  23
ATOM     23  C   UNL     1      13.877  -1.464  12.875  1.00  0.00    -0.000 C 
BRANCH  23  24
ATOM     24  C   UNL     1      13.520  -2.954  12.700  1.00  0.00    -0.000 C 
BRANCH  24  25
ATOM     25  C   UNL     1      12.127  -3.354  13.216  1.00  0.00    -0.003 C 
ATOM     26  C   UNL     1      11.870  -2.899  14.652  1.00  0.00     0.004 C 
ENDBRANCH  24  25
ENDBRANCH  23  24
ENDBRANCH  22  23
ENDBRANCH  21  22
ENDBRANCH  20  21
ENDBRANCH  19  20
ENDBRANCH  18  19
ENDBRANCH  17  18
ENDBRANCH  16  17
ENDBRANCH  15  16
ENDBRANCH   1  15
TORSDOF 22
ENDMDL
