MODEL 1
REMARK VINA RESULT:    -3.220      0.000      0.000
REMARK INTER + INTRA:          -8.385
REMARK INTER:                  -5.855
REMARK INTRA:                  -2.530
REMARK UNBOUND:                -2.530
REMARK SMILES CCCCCCCCCCCCCCCC(=O)[O-]
REMARK SMILES IDX 9 1 10 2 11 3 12 4 13 5 14 6 15 7 16 8 17 9 18 10 8 11 7 12
REMARK SMILES IDX 6 13 5 14 4 15 3 16 2 17 1 18
REMARK H PARENT
REMARK Flexibility Score: inf
ROOT
ATOM      1  C   UNL     1      -5.668  91.351 -17.262  1.00  0.00     0.000 C 
ENDROOT
BRANCH   1   2
ATOM      2  C   UNL     1      -6.213  92.454 -16.338  1.00  0.00     0.000 C 
BRANCH   2   3
ATOM      3  C   UNL     1      -7.262  91.979 -15.315  1.00  0.00     0.000 C 
BRANCH   3   4
ATOM      4  C   UNL     1      -7.257  92.788 -14.000  1.00  0.00     0.000 C 
BRANCH   4   5
ATOM      5  C   UNL     1      -5.871  93.378 -13.684  1.00  0.00     0.000 C 
BRANCH   5   6
ATOM      6  C   UNL     1      -5.457  93.170 -12.219  1.00  0.00     0.006 C 
BRANCH   6   7
ATOM      7  C   UNL     1      -4.026  93.641 -11.936  1.00  0.00     0.053 C 
BRANCH   7   8
ATOM      8  C   UNL     1      -3.911  94.148 -10.533  1.00  0.00     0.041 C 
ATOM      9  O   UNL     1      -2.949  94.891 -10.204  1.00  0.00    -0.550 OA
ATOM     10  O   UNL     1      -4.894  93.840  -9.600  1.00  0.00    -0.550 OA
ENDBRANCH   7   8
ENDBRANCH   6   7
ENDBRANCH   5   6
ENDBRANCH   4   5
ENDBRANCH   3   4
ENDBRANCH   2   3
ENDBRANCH   1   2
BRANCH   1  11
ATOM     11  C   UNL     1      -4.930  90.244 -16.494  1.00  0.00     0.000 C 
BRANCH  11  12
ATOM     12  C   UNL     1      -3.842  90.842 -15.587  1.00  0.00    -0.000 C 
BRANCH  12  13
ATOM     13  C   UNL     1      -3.876  90.268 -14.162  1.00  0.00    -0.000 C 
BRANCH  13  14
ATOM     14  C   UNL     1      -5.126  89.409 -13.901  1.00  0.00    -0.000 C 
BRANCH  14  15
ATOM     15  C   UNL     1      -5.741  89.651 -12.511  1.00  0.00    -0.000 C 
BRANCH  15  16
ATOM     16  C   UNL     1      -7.223  89.256 -12.374  1.00  0.00    -0.000 C 
BRANCH  16  17
ATOM     17  C   UNL     1      -7.833  88.751 -13.689  1.00  0.00    -0.003 C 
ATOM     18  C   UNL     1      -9.276  89.222 -13.842  1.00  0.00     0.004 C 
ENDBRANCH  16  17
ENDBRANCH  15  16
ENDBRANCH  14  15
ENDBRANCH  13  14
ENDBRANCH  12  13
ENDBRANCH  11  12
ENDBRANCH   1  11
TORSDOF 14
ENDMDL
MODEL 2
REMARK VINA RESULT:    -3.213      3.337      6.032
REMARK INTER + INTRA:          -8.372
REMARK INTER:                  -6.891
REMARK INTRA:                  -1.481
REMARK UNBOUND:                -2.530
REMARK SMILES CCCCCCCCCCCCCCCC(=O)[O-]
REMARK SMILES IDX 9 1 10 2 11 3 12 4 13 5 14 6 15 7 16 8 17 9 18 10 8 11 7 12
REMARK SMILES IDX 6 13 5 14 4 15 3 16 2 17 1 18
REMARK H PARENT
REMARK Flexibility Score: inf
ROOT
ATOM      1  C   UNL     1      -4.129  90.367 -13.355  1.00  0.00     0.000 C 
ENDROOT
BRANCH   1   2
ATOM      2  C   UNL     1      -5.260  89.349 -13.587  1.00  0.00     0.000 C 
BRANCH   2   3
ATOM      3  C   UNL     1      -6.033  89.533 -14.906  1.00  0.00     0.000 C 
BRANCH   3   4
ATOM      4  C   UNL     1      -5.217  90.237 -16.012  1.00  0.00     0.000 C 
BRANCH   4   5
ATOM      5  C   UNL     1      -5.743  91.653 -16.311  1.00  0.00     0.000 C 
BRANCH   5   6
ATOM      6  C   UNL     1      -4.622  92.634 -16.689  1.00  0.00     0.006 C 
BRANCH   6   7
ATOM      7  C   UNL     1      -3.225  92.085 -16.377  1.00  0.00     0.053 C 
BRANCH   7   8
ATOM      8  C   UNL     1      -2.408  91.997 -17.627  1.00  0.00     0.041 C 
ATOM      9  O   UNL     1      -2.237  90.886 -18.195  1.00  0.00    -0.550 OA
ATOM     10  O   UNL     1      -1.875  93.148 -18.193  1.00  0.00    -0.550 OA
ENDBRANCH   7   8
ENDBRANCH   6   7
ENDBRANCH   5   6
ENDBRANCH   4   5
ENDBRANCH   3   4
ENDBRANCH   2   3
ENDBRANCH   1   2
BRANCH   1  11
ATOM     11  C   UNL     1      -4.478  91.407 -12.279  1.00  0.00     0.000 C 
BRANCH  11  12
ATOM     12  C   UNL     1      -4.095  92.821 -12.745  1.00  0.00    -0.000 C 
BRANCH  12  13
ATOM     13  C   UNL     1      -4.582  93.915 -11.781  1.00  0.00    -0.000 C 
BRANCH  13  14
ATOM     14  C   UNL     1      -3.426  94.752 -11.205  1.00  0.00    -0.000 C 
BRANCH  14  15
ATOM     15  C   UNL     1      -3.297  94.623  -9.677  1.00  0.00    -0.000 C 
BRANCH  15  16
ATOM     16  C   UNL     1      -4.210  93.564  -9.031  1.00  0.00    -0.000 C 
BRANCH  16  17
ATOM     17  C   UNL     1      -5.165  94.153  -7.984  1.00  0.00    -0.003 C 
ATOM     18  C   UNL     1      -5.523  95.598  -8.319  1.00  0.00     0.004 C 
ENDBRANCH  16  17
ENDBRANCH  15  16
ENDBRANCH  14  15
ENDBRANCH  13  14
ENDBRANCH  12  13
ENDBRANCH  11  12
ENDBRANCH   1  11
TORSDOF 14
ENDMDL
MODEL 3
REMARK VINA RESULT:    -3.161      2.075      4.378
REMARK INTER + INTRA:          -8.279
REMARK INTER:                  -6.419
REMARK INTRA:                  -1.859
REMARK UNBOUND:                -2.530
REMARK SMILES CCCCCCCCCCCCCCCC(=O)[O-]
REMARK SMILES IDX 9 1 10 2 11 3 12 4 13 5 14 6 15 7 16 8 17 9 18 10 8 11 7 12
REMARK SMILES IDX 6 13 5 14 4 15 3 16 2 17 1 18
REMARK H PARENT
REMARK Flexibility Score: inf
ROOT
ATOM      1  C   UNL     1      -4.096  92.793 -13.007  1.00  0.00     0.000 C 
ENDROOT
BRANCH   1   2
ATOM      2  C   UNL     1      -5.247  93.671 -12.484  1.00  0.00     0.000 C 
BRANCH   2   3
ATOM      3  C   UNL     1      -4.803  94.882 -11.641  1.00  0.00     0.000 C 
BRANCH   3   4
ATOM      4  C   UNL     1      -3.346  94.791 -11.142  1.00  0.00     0.000 C 
BRANCH   4   5
ATOM      5  C   UNL     1      -3.262  94.660  -9.610  1.00  0.00     0.000 C 
BRANCH   5   6
ATOM      6  C   UNL     1      -4.537  94.064  -8.995  1.00  0.00     0.006 C 
BRANCH   6   7
ATOM      7  C   UNL     1      -4.492  92.533  -8.909  1.00  0.00     0.053 C 
BRANCH   7   8
ATOM      8  C   UNL     1      -4.699  92.084  -7.497  1.00  0.00     0.041 C 
ATOM      9  O   UNL     1      -5.628  92.576  -6.805  1.00  0.00    -0.550 OA
ATOM     10  O   UNL     1      -3.896  91.085  -6.960  1.00  0.00    -0.550 OA
ENDBRANCH   7   8
ENDBRANCH   6   7
ENDBRANCH   5   6
ENDBRANCH   4   5
ENDBRANCH   3   4
ENDBRANCH   2   3
ENDBRANCH   1   2
BRANCH   1  11
ATOM     11  C   UNL     1      -4.187  91.340 -12.517  1.00  0.00     0.000 C 
BRANCH  11  12
ATOM     12  C   UNL     1      -5.629  90.819 -12.623  1.00  0.00    -0.000 C 
BRANCH  12  13
ATOM     13  C   UNL     1      -5.704  89.396 -13.201  1.00  0.00    -0.000 C 
BRANCH  13  14
ATOM     14  C   UNL     1      -5.974  89.389 -14.716  1.00  0.00    -0.000 C 
BRANCH  14  15
ATOM     15  C   UNL     1      -6.324  90.782 -15.269  1.00  0.00    -0.000 C 
BRANCH  15  16
ATOM     16  C   UNL     1      -5.480  91.238 -16.474  1.00  0.00    -0.000 C 
BRANCH  16  17
ATOM     17  C   UNL     1      -4.010  90.808 -16.373  1.00  0.00    -0.003 C 
ATOM     18  C   UNL     1      -3.077  92.010 -16.498  1.00  0.00     0.004 C 
ENDBRANCH  16  17
ENDBRANCH  15  16
ENDBRANCH  14  15
ENDBRANCH  13  14
ENDBRANCH  12  13
ENDBRANCH  11  12
ENDBRANCH   1  11
TORSDOF 14
ENDMDL
MODEL 4
REMARK VINA RESULT:    -3.106      9.048     11.358
REMARK INTER + INTRA:          -8.179
REMARK INTER:                  -6.073
REMARK INTRA:                  -2.105
REMARK UNBOUND:                -2.530
REMARK SMILES CCCCCCCCCCCCCCCC(=O)[O-]
REMARK SMILES IDX 9 1 10 2 11 3 12 4 13 5 14 6 15 7 16 8 17 9 18 10 8 11 7 12
REMARK SMILES IDX 6 13 5 14 4 15 3 16 2 17 1 18
REMARK H PARENT
REMARK Flexibility Score: inf
ROOT
ATOM      1  C   UNL     1      -4.730  82.433  -9.700  1.00  0.00     0.000 C 
ENDROOT
BRANCH   1   2
ATOM      2  C   UNL     1      -5.286  83.824 -10.054  1.00  0.00     0.000 C 
BRANCH   2   3
ATOM      3  C   UNL     1      -6.618  84.181  -9.366  1.00  0.00     0.000 C 
BRANCH   3   4
ATOM      4  C   UNL     1      -6.783  83.549  -7.967  1.00  0.00     0.000 C 
BRANCH   4   5
ATOM      5  C   UNL     1      -8.228  83.090  -7.702  1.00  0.00     0.000 C 
BRANCH   5   6
ATOM      6  C   UNL     1      -8.924  82.562  -8.966  1.00  0.00     0.006 C 
BRANCH   6   7
ATOM      7  C   UNL     1     -10.122  81.659  -8.648  1.00  0.00     0.053 C 
BRANCH   7   8
ATOM      8  C   UNL     1     -11.405  82.384  -8.907  1.00  0.00     0.041 C 
ATOM      9  O   UNL     1     -11.402  83.627  -9.106  1.00  0.00    -0.550 OA
ATOM     10  O   UNL     1     -12.600  81.678  -8.977  1.00  0.00    -0.550 OA
ENDBRANCH   7   8
ENDBRANCH   6   7
ENDBRANCH   5   6
ENDBRANCH   4   5
ENDBRANCH   3   4
ENDBRANCH   2   3
ENDBRANCH   1   2
BRANCH   1  11
ATOM     11  C   UNL     1      -3.197  82.413  -9.606  1.00  0.00     0.000 C 
BRANCH  11  12
ATOM     12  C   UNL     1      -2.736  81.554  -8.418  1.00  0.00    -0.000 C 
BRANCH  12  13
ATOM     13  C   UNL     1      -3.689  81.643  -7.215  1.00  0.00    -0.000 C 
BRANCH  13  14
ATOM     14  C   UNL     1      -3.120  82.505  -6.074  1.00  0.00    -0.000 C 
BRANCH  14  15
ATOM     15  C   UNL     1      -3.609  83.963  -6.123  1.00  0.00    -0.000 C 
BRANCH  15  16
ATOM     16  C   UNL     1      -2.576  84.981  -6.644  1.00  0.00    -0.000 C 
BRANCH  16  17
ATOM     17  C   UNL     1      -3.046  85.721  -7.904  1.00  0.00    -0.003 C 
ATOM     18  C   UNL     1      -4.289  86.559  -7.618  1.00  0.00     0.004 C 
ENDBRANCH  16  17
ENDBRANCH  15  16
ENDBRANCH  14  15
ENDBRANCH  13  14
ENDBRANCH  12  13
ENDBRANCH  11  12
ENDBRANCH   1  11
TORSDOF 14
ENDMDL
MODEL 5
REMARK VINA RESULT:    -3.105      2.346      4.180
REMARK INTER + INTRA:          -8.176
REMARK INTER:                  -6.313
REMARK INTRA:                  -1.863
REMARK UNBOUND:                -2.530
REMARK SMILES CCCCCCCCCCCCCCCC(=O)[O-]
REMARK SMILES IDX 9 1 10 2 11 3 12 4 13 5 14 6 15 7 16 8 17 9 18 10 8 11 7 12
REMARK SMILES IDX 6 13 5 14 4 15 3 16 2 17 1 18
REMARK H PARENT
REMARK Flexibility Score: inf
ROOT
ATOM      1  C   UNL     1      -4.115  92.653 -12.254  1.00  0.00     0.000 C 
ENDROOT
BRANCH   1   2
ATOM      2  C   UNL     1      -4.467  94.103 -11.877  1.00  0.00     0.000 C 
BRANCH   2   3
ATOM      3  C   UNL     1      -3.378  94.845 -11.080  1.00  0.00     0.000 C 
BRANCH   3   4
ATOM      4  C   UNL     1      -3.308  94.435  -9.593  1.00  0.00     0.000 C 
BRANCH   4   5
ATOM      5  C   UNL     1      -4.674  94.550  -8.892  1.00  0.00     0.000 C 
BRANCH   5   6
ATOM      6  C   UNL     1      -4.989  93.336  -8.004  1.00  0.00     0.006 C 
BRANCH   6   7
ATOM      7  C   UNL     1      -4.449  92.023  -8.582  1.00  0.00     0.053 C 
BRANCH   7   8
ATOM      8  C   UNL     1      -4.569  90.922  -7.577  1.00  0.00     0.041 C 
ATOM      9  O   UNL     1      -5.624  90.239  -7.508  1.00  0.00    -0.550 OA
ATOM     10  O   UNL     1      -3.497  90.617  -6.747  1.00  0.00    -0.550 OA
ENDBRANCH   7   8
ENDBRANCH   6   7
ENDBRANCH   5   6
ENDBRANCH   4   5
ENDBRANCH   3   4
ENDBRANCH   2   3
ENDBRANCH   1   2
BRANCH   1  11
ATOM     11  C   UNL     1      -4.105  92.419 -13.772  1.00  0.00     0.000 C 
BRANCH  11  12
ATOM     12  C   UNL     1      -4.182  90.918 -14.092  1.00  0.00    -0.000 C 
BRANCH  12  13
ATOM     13  C   UNL     1      -5.435  90.547 -14.902  1.00  0.00    -0.000 C 
BRANCH  13  14
ATOM     14  C   UNL     1      -5.987  89.159 -14.532  1.00  0.00    -0.000 C 
BRANCH  14  15
ATOM     15  C   UNL     1      -7.028  89.210 -13.399  1.00  0.00    -0.000 C 
BRANCH  15  16
ATOM     16  C   UNL     1      -6.511  88.771 -12.017  1.00  0.00    -0.000 C 
BRANCH  16  17
ATOM     17  C   UNL     1      -6.377  89.937 -11.028  1.00  0.00    -0.003 C 
ATOM     18  C   UNL     1      -7.328  91.075 -11.388  1.00  0.00     0.004 C 
ENDBRANCH  16  17
ENDBRANCH  15  16
ENDBRANCH  14  15
ENDBRANCH  13  14
ENDBRANCH  12  13
ENDBRANCH  11  12
ENDBRANCH   1  11
TORSDOF 14
ENDMDL
MODEL 6
REMARK VINA RESULT:    -3.092      2.616      4.807
REMARK INTER + INTRA:          -8.153
REMARK INTER:                  -6.142
REMARK INTRA:                  -2.010
REMARK UNBOUND:                -2.530
REMARK SMILES CCCCCCCCCCCCCCCC(=O)[O-]
REMARK SMILES IDX 9 1 10 2 11 3 12 4 13 5 14 6 15 7 16 8 17 9 18 10 8 11 7 12
REMARK SMILES IDX 6 13 5 14 4 15 3 16 2 17 1 18
REMARK H PARENT
REMARK Flexibility Score: inf
ROOT
ATOM      1  C   UNL     1      -4.928  94.952 -11.661  1.00  0.00     0.000 C 
ENDROOT
BRANCH   1   2
ATOM      2  C   UNL     1      -3.487  94.874 -11.129  1.00  0.00     0.000 C 
BRANCH   2   3
ATOM      3  C   UNL     1      -3.371  94.674  -9.605  1.00  0.00     0.000 C 
BRANCH   3   4
ATOM      4  C   UNL     1      -4.696  94.899  -8.847  1.00  0.00     0.000 C 
BRANCH   4   5
ATOM      5  C   UNL     1      -5.082  93.689  -7.977  1.00  0.00     0.000 C 
BRANCH   5   6
ATOM      6  C   UNL     1      -5.006  92.359  -8.744  1.00  0.00     0.006 C 
BRANCH   6   7
ATOM      7  C   UNL     1      -4.111  91.326  -8.048  1.00  0.00     0.053 C 
BRANCH   7   8
ATOM      8  C   UNL     1      -4.829  90.020  -7.913  1.00  0.00     0.041 C 
ATOM      9  O   UNL     1      -5.480  89.552  -8.883  1.00  0.00    -0.550 OA
ATOM     10  O   UNL     1      -4.738  89.296  -6.731  1.00  0.00    -0.550 OA
ENDBRANCH   7   8
ENDBRANCH   6   7
ENDBRANCH   5   6
ENDBRANCH   4   5
ENDBRANCH   3   4
ENDBRANCH   2   3
ENDBRANCH   1   2
BRANCH   1  11
ATOM     11  C   UNL     1      -5.343  93.693 -12.437  1.00  0.00     0.000 C 
BRANCH  11  12
ATOM     12  C   UNL     1      -4.126  92.796 -12.712  1.00  0.00    -0.000 C 
BRANCH  12  13
ATOM     13  C   UNL     1      -4.315  91.363 -12.188  1.00  0.00    -0.000 C 
BRANCH  13  14
ATOM     14  C   UNL     1      -5.797  90.960 -12.092  1.00  0.00    -0.000 C 
BRANCH  14  15
ATOM     15  C   UNL     1      -6.062  89.528 -12.590  1.00  0.00    -0.000 C 
BRANCH  15  16
ATOM     16  C   UNL     1      -6.709  89.430 -13.984  1.00  0.00    -0.000 C 
BRANCH  16  17
ATOM     17  C   UNL     1      -5.703  89.622 -15.127  1.00  0.00    -0.003 C 
ATOM     18  C   UNL     1      -5.868  90.991 -15.780  1.00  0.00     0.004 C 
ENDBRANCH  16  17
ENDBRANCH  15  16
ENDBRANCH  14  15
ENDBRANCH  13  14
ENDBRANCH  12  13
ENDBRANCH  11  12
ENDBRANCH   1  11
TORSDOF 14
ENDMDL
MODEL 7
REMARK VINA RESULT:    -3.055      6.077      8.183
REMARK INTER + INTRA:          -8.086
REMARK INTER:                  -6.207
REMARK INTRA:                  -1.878
REMARK UNBOUND:                -2.530
REMARK SMILES CCCCCCCCCCCCCCCC(=O)[O-]
REMARK SMILES IDX 9 1 10 2 11 3 12 4 13 5 14 6 15 7 16 8 17 9 18 10 8 11 7 12
REMARK SMILES IDX 6 13 5 14 4 15 3 16 2 17 1 18
REMARK H PARENT
REMARK Flexibility Score: inf
ROOT
ATOM      1  C   UNL     1      -3.004  85.525  -7.904  1.00  0.00     0.000 C 
ENDROOT
BRANCH   1   2
ATOM      2  C   UNL     1      -1.875  86.428  -7.377  1.00  0.00     0.000 C 
BRANCH   2   3
ATOM      3  C   UNL     1      -2.291  87.389  -6.247  1.00  0.00     0.000 C 
BRANCH   3   4
ATOM      4  C   UNL     1      -3.788  87.302  -5.878  1.00  0.00     0.000 C 
BRANCH   4   5
ATOM      5  C   UNL     1      -4.497  88.663  -5.998  1.00  0.00     0.000 C 
BRANCH   5   6
ATOM      6  C   UNL     1      -4.188  89.378  -7.323  1.00  0.00     0.006 C 
BRANCH   6   7
ATOM      7  C   UNL     1      -3.835  90.858  -7.127  1.00  0.00     0.053 C 
BRANCH   7   8
ATOM      8  C   UNL     1      -4.792  91.726  -7.881  1.00  0.00     0.041 C 
ATOM      9  O   UNL     1      -6.006  91.404  -7.970  1.00  0.00    -0.550 OA
ATOM     10  O   UNL     1      -4.353  92.918  -8.446  1.00  0.00    -0.550 OA
ENDBRANCH   7   8
ENDBRANCH   6   7
ENDBRANCH   5   6
ENDBRANCH   4   5
ENDBRANCH   3   4
ENDBRANCH   2   3
ENDBRANCH   1   2
BRANCH   1  11
ATOM     11  C   UNL     1      -2.932  84.096  -7.344  1.00  0.00     0.000 C 
BRANCH  11  12
ATOM     12  C   UNL     1      -3.228  83.065  -8.444  1.00  0.00    -0.000 C 
BRANCH  12  13
ATOM     13  C   UNL     1      -4.730  82.773  -8.596  1.00  0.00    -0.000 C 
BRANCH  13  14
ATOM     14  C   UNL     1      -5.272  83.174  -9.980  1.00  0.00    -0.000 C 
BRANCH  14  15
ATOM     15  C   UNL     1      -6.246  84.364  -9.920  1.00  0.00    -0.000 C 
BRANCH  15  16
ATOM     16  C   UNL     1      -5.636  85.728 -10.293  1.00  0.00    -0.000 C 
BRANCH  16  17
ATOM     17  C   UNL     1      -6.069  86.857  -9.348  1.00  0.00    -0.003 C 
ATOM     18  C   UNL     1      -6.634  86.297  -8.045  1.00  0.00     0.004 C 
ENDBRANCH  16  17
ENDBRANCH  15  16
ENDBRANCH  14  15
ENDBRANCH  13  14
ENDBRANCH  12  13
ENDBRANCH  11  12
ENDBRANCH   1  11
TORSDOF 14
ENDMDL
MODEL 8
REMARK VINA RESULT:    -3.022      6.893      9.467
REMARK INTER + INTRA:          -8.026
REMARK INTER:                  -5.875
REMARK INTRA:                  -2.151
REMARK UNBOUND:                -2.530
REMARK SMILES CCCCCCCCCCCCCCCC(=O)[O-]
REMARK SMILES IDX 9 1 10 2 11 3 12 4 13 5 14 6 15 7 16 8 17 9 18 10 8 11 7 12
REMARK SMILES IDX 6 13 5 14 4 15 3 16 2 17 1 18
REMARK H PARENT
REMARK Flexibility Score: inf
ROOT
ATOM      1  C   UNL     1      -3.438  81.840  -8.057  1.00  0.00     0.000 C 
ENDROOT
BRANCH   1   2
ATOM      2  C   UNL     1      -3.492  82.355  -9.505  1.00  0.00     0.000 C 
BRANCH   2   3
ATOM      3  C   UNL     1      -4.866  82.893  -9.949  1.00  0.00     0.000 C 
BRANCH   3   4
ATOM      4  C   UNL     1      -5.843  83.138  -8.780  1.00  0.00     0.000 C 
BRANCH   4   5
ATOM      5  C   UNL     1      -6.379  84.581  -8.760  1.00  0.00     0.000 C 
BRANCH   5   6
ATOM      6  C   UNL     1      -5.586  85.521  -9.682  1.00  0.00     0.006 C 
BRANCH   6   7
ATOM      7  C   UNL     1      -6.478  86.550 -10.385  1.00  0.00     0.053 C 
BRANCH   7   8
ATOM      8  C   UNL     1      -6.642  87.768  -9.533  1.00  0.00     0.041 C 
ATOM      9  O   UNL     1      -7.598  87.847  -8.717  1.00  0.00    -0.550 OA
ATOM     10  O   UNL     1      -5.710  88.797  -9.603  1.00  0.00    -0.550 OA
ENDBRANCH   7   8
ENDBRANCH   6   7
ENDBRANCH   5   6
ENDBRANCH   4   5
ENDBRANCH   3   4
ENDBRANCH   2   3
ENDBRANCH   1   2
BRANCH   1  11
ATOM     11  C   UNL     1      -2.366  82.548  -7.214  1.00  0.00     0.000 C 
BRANCH  11  12
ATOM     12  C   UNL     1      -2.973  83.727  -6.438  1.00  0.00    -0.000 C 
BRANCH  12  13
ATOM     13  C   UNL     1      -2.139  85.012  -6.561  1.00  0.00    -0.000 C 
BRANCH  13  14
ATOM     14  C   UNL     1      -2.518  85.845  -7.798  1.00  0.00    -0.000 C 
BRANCH  14  15
ATOM     15  C   UNL     1      -3.088  87.229  -7.437  1.00  0.00    -0.000 C 
BRANCH  15  16
ATOM     16  C   UNL     1      -4.354  87.205  -6.560  1.00  0.00    -0.000 C 
BRANCH  16  17
ATOM     17  C   UNL     1      -4.829  88.607  -6.154  1.00  0.00    -0.003 C 
ATOM     18  C   UNL     1      -3.887  89.682  -6.689  1.00  0.00     0.004 C 
ENDBRANCH  16  17
ENDBRANCH  15  16
ENDBRANCH  14  15
ENDBRANCH  13  14
ENDBRANCH  12  13
ENDBRANCH  11  12
ENDBRANCH   1  11
TORSDOF 14
ENDMDL
MODEL 9
REMARK VINA RESULT:    -3.001      2.693      5.803
REMARK INTER + INTRA:          -7.988
REMARK INTER:                  -5.663
REMARK INTRA:                  -2.325
REMARK UNBOUND:                -2.530
REMARK SMILES CCCCCCCCCCCCCCCC(=O)[O-]
REMARK SMILES IDX 9 1 10 2 11 3 12 4 13 5 14 6 15 7 16 8 17 9 18 10 8 11 7 12
REMARK SMILES IDX 6 13 5 14 4 15 3 16 2 17 1 18
REMARK H PARENT
REMARK Flexibility Score: inf
ROOT
ATOM      1  C   UNL     1      -6.099  93.889 -12.200  1.00  0.00     0.000 C 
ENDROOT
BRANCH   1   2
ATOM      2  C   UNL     1      -5.499  93.041 -13.333  1.00  0.00     0.000 C 
BRANCH   2   3
ATOM      3  C   UNL     1      -4.122  92.425 -13.019  1.00  0.00     0.000 C 
BRANCH   3   4
ATOM      4  C   UNL     1      -4.127  90.882 -12.978  1.00  0.00     0.000 C 
BRANCH   4   5
ATOM      5  C   UNL     1      -4.514  90.264 -14.333  1.00  0.00     0.000 C 
BRANCH   5   6
ATOM      6  C   UNL     1      -5.601  89.185 -14.206  1.00  0.00     0.006 C 
BRANCH   6   7
ATOM      7  C   UNL     1      -6.222  89.135 -12.804  1.00  0.00     0.053 C 
BRANCH   7   8
ATOM      8  C   UNL     1      -7.657  89.554 -12.854  1.00  0.00     0.041 C 
ATOM      9  O   UNL     1      -8.029  90.608 -12.274  1.00  0.00    -0.550 OA
ATOM     10  O   UNL     1      -8.575  88.808 -13.581  1.00  0.00    -0.550 OA
ENDBRANCH   7   8
ENDBRANCH   6   7
ENDBRANCH   5   6
ENDBRANCH   4   5
ENDBRANCH   3   4
ENDBRANCH   2   3
ENDBRANCH   1   2
BRANCH   1  11
ATOM     11  C   UNL     1      -5.861  95.395 -12.394  1.00  0.00     0.000 C 
BRANCH  11  12
ATOM     12  C   UNL     1      -5.100  95.985 -11.197  1.00  0.00    -0.000 C 
BRANCH  12  13
ATOM     13  C   UNL     1      -3.656  95.464 -11.097  1.00  0.00    -0.000 C 
BRANCH  13  14
ATOM     14  C   UNL     1      -3.383  94.731  -9.772  1.00  0.00    -0.000 C 
BRANCH  14  15
ATOM     15  C   UNL     1      -4.582  94.770  -8.808  1.00  0.00    -0.000 C 
BRANCH  15  16
ATOM     16  C   UNL     1      -5.114  93.392  -8.371  1.00  0.00    -0.000 C 
BRANCH  16  17
ATOM     17  C   UNL     1      -4.581  92.241  -9.237  1.00  0.00    -0.003 C 
ATOM     18  C   UNL     1      -5.690  91.252  -9.580  1.00  0.00     0.004 C 
ENDBRANCH  16  17
ENDBRANCH  15  16
ENDBRANCH  14  15
ENDBRANCH  13  14
ENDBRANCH  12  13
ENDBRANCH  11  12
ENDBRANCH   1  11
TORSDOF 14
ENDMDL
