MODEL 1
REMARK VINA RESULT:    -7.660      0.000      0.000
REMARK INTER + INTRA:          -9.297
REMARK INTER:                  -9.003
REMARK INTRA:                  -0.294
REMARK UNBOUND:                -0.294
REMARK SMILES O=c1cc(-c2ccc(O)c(O)c2)oc2cc(O)cc(O)c12
REMARK SMILES IDX 4 1 3 2 2 3 1 4 21 5 19 6 18 7 16 8 15 9 14 10 13 11 5 12
REMARK SMILES IDX 6 13 7 14 8 15 12 16 10 17 9 18 11 20 20 22 17 24
REMARK H PARENT 9 19 11 21 20 23 17 25
REMARK Flexibility Score: inf
ROOT
ATOM      1  C   UNL     1      -1.265  -0.106  27.408  1.00  0.00     0.138 A 
ATOM      2  C   UNL     1      -2.561   0.350  27.688  1.00  0.00     0.100 A 
ATOM      3  C   UNL     1      -3.083   0.203  28.973  1.00  0.00     0.197 A 
ATOM      4  O   UNL     1      -4.223   0.679  29.209  1.00  0.00    -0.289 OA
ATOM      5  C   UNL     1      -2.313  -0.434  29.975  1.00  0.00     0.107 A 
ATOM      6  C   UNL     1      -2.757  -0.675  31.309  1.00  0.00     0.134 A 
ATOM      7  C   UNL     1      -1.866  -1.209  32.248  1.00  0.00     0.093 A 
ATOM      8  C   UNL     1      -0.564  -1.565  31.884  1.00  0.00     0.123 A 
ATOM      9  C   UNL     1      -0.138  -1.383  30.571  1.00  0.00     0.094 A 
ATOM     10  C   UNL     1      -0.993  -0.821  29.620  1.00  0.00     0.146 A 
ATOM     11  O   UNL     1      -0.543  -0.650  28.382  1.00  0.00    -0.456 OA
ENDROOT
BRANCH   1  12
ATOM     12  C   UNL     1      -0.661   0.025  26.058  1.00  0.00     0.021 A 
ATOM     13  C   UNL     1       0.730  -0.106  25.907  1.00  0.00     0.016 A 
ATOM     14  C   UNL     1       1.321   0.004  24.645  1.00  0.00     0.051 A 
ATOM     15  C   UNL     1       0.532   0.240  23.513  1.00  0.00     0.157 A 
ATOM     16  C   UNL     1      -1.451   0.249  24.912  1.00  0.00     0.062 A 
ATOM     17  C   UNL     1      -0.857   0.358  23.647  1.00  0.00     0.158 A 
BRANCH  15  18
ATOM     18  O   UNL     1       1.118   0.353  22.255  1.00  0.00    -0.504 OA
ATOM     19  H   UNL     1       0.564   0.536  21.426  1.00  0.00     0.293 HD
ENDBRANCH  15  18
BRANCH  17  20
ATOM     20  O   UNL     1      -1.641   0.581  22.516  1.00  0.00    -0.504 OA
ATOM     21  H   UNL     1      -1.235   0.895  21.643  1.00  0.00     0.293 HD
ENDBRANCH  17  20
ENDBRANCH   1  12
BRANCH   6  22
ATOM     22  O   UNL     1      -4.061  -0.435  31.755  1.00  0.00    -0.507 OA
ATOM     23  H   UNL     1      -4.332   0.321  32.365  1.00  0.00     0.293 HD
ENDBRANCH   6  22
BRANCH   8  24
ATOM     24  O   UNL     1       0.311  -2.110  32.820  1.00  0.00    -0.508 OA
ATOM     25  H   UNL     1       0.869  -2.930  32.610  1.00  0.00     0.293 HD
ENDBRANCH   8  24
TORSDOF 5
ENDMDL
MODEL 2
REMARK VINA RESULT:    -7.585      1.191      2.682
REMARK INTER + INTRA:          -9.209
REMARK INTER:                  -8.901
REMARK INTRA:                  -0.308
REMARK UNBOUND:                -0.294
REMARK SMILES O=c1cc(-c2ccc(O)c(O)c2)oc2cc(O)cc(O)c12
REMARK SMILES IDX 4 1 3 2 2 3 1 4 21 5 19 6 18 7 16 8 15 9 14 10 13 11 5 12
REMARK SMILES IDX 6 13 7 14 8 15 12 16 10 17 9 18 11 20 20 22 17 24
REMARK H PARENT 9 19 11 21 20 23 17 25
REMARK Flexibility Score: inf
ROOT
ATOM      1  C   UNL     1      -0.933  -0.302  27.389  1.00  0.00     0.138 A 
ATOM      2  C   UNL     1      -0.180  -1.070  28.287  1.00  0.00     0.100 A 
ATOM      3  C   UNL     1      -0.639  -1.257  29.591  1.00  0.00     0.197 A 
ATOM      4  O   UNL     1       0.028  -2.002  30.355  1.00  0.00    -0.289 OA
ATOM      5  C   UNL     1      -1.845  -0.643  30.006  1.00  0.00     0.107 A 
ATOM      6  C   UNL     1      -2.389  -0.730  31.322  1.00  0.00     0.134 A 
ATOM      7  C   UNL     1      -3.649  -0.179  31.586  1.00  0.00     0.093 A 
ATOM      8  C   UNL     1      -4.357   0.508  30.596  1.00  0.00     0.123 A 
ATOM      9  C   UNL     1      -3.810   0.644  29.322  1.00  0.00     0.094 A 
ATOM     10  C   UNL     1      -2.570   0.076  29.019  1.00  0.00     0.146 A 
ATOM     11  O   UNL     1      -2.091   0.216  27.788  1.00  0.00    -0.456 OA
ENDROOT
BRANCH   1  12
ATOM     12  C   UNL     1      -0.492  -0.072  25.991  1.00  0.00     0.021 A 
ATOM     13  C   UNL     1       0.879  -0.117  25.682  1.00  0.00     0.016 A 
ATOM     14  C   UNL     1       1.319   0.088  24.371  1.00  0.00     0.051 A 
ATOM     15  C   UNL     1       0.397   0.334  23.347  1.00  0.00     0.157 A 
ATOM     16  C   UNL     1      -1.415   0.163  24.952  1.00  0.00     0.062 A 
ATOM     17  C   UNL     1      -0.972   0.368  23.637  1.00  0.00     0.158 A 
BRANCH  15  18
ATOM     18  O   UNL     1       0.833   0.541  22.040  1.00  0.00    -0.504 OA
ATOM     19  H   UNL     1       1.773   0.860  21.838  1.00  0.00     0.293 HD
ENDBRANCH  15  18
BRANCH  17  20
ATOM     20  O   UNL     1      -1.888   0.601  22.612  1.00  0.00    -0.504 OA
ATOM     21  H   UNL     1      -1.686   1.245  21.857  1.00  0.00     0.293 HD
ENDBRANCH  17  20
ENDBRANCH   1  12
BRANCH   6  22
ATOM     22  O   UNL     1      -1.728  -1.320  32.405  1.00  0.00    -0.507 OA
ATOM     23  H   UNL     1      -1.074  -2.084  32.334  1.00  0.00     0.293 HD
ENDBRANCH   6  22
BRANCH   8  24
ATOM     24  O   UNL     1      -5.602   1.067  30.871  1.00  0.00    -0.508 OA
ATOM     25  H   UNL     1      -6.448   0.509  30.858  1.00  0.00     0.293 HD
ENDBRANCH   8  24
TORSDOF 5
ENDMDL
MODEL 3
REMARK VINA RESULT:    -7.545      5.313     11.249
REMARK INTER + INTRA:          -9.162
REMARK INTER:                  -8.853
REMARK INTRA:                  -0.309
REMARK UNBOUND:                -0.294
REMARK SMILES O=c1cc(-c2ccc(O)c(O)c2)oc2cc(O)cc(O)c12
REMARK SMILES IDX 4 1 3 2 2 3 1 4 21 5 19 6 18 7 16 8 15 9 14 10 13 11 5 12
REMARK SMILES IDX 6 13 7 14 8 15 12 16 10 17 9 18 11 20 20 22 17 24
REMARK H PARENT 9 19 11 21 20 23 17 25
REMARK Flexibility Score: inf
ROOT
ATOM      1  C   UNL     1       0.699   0.009  19.679  1.00  0.00     0.138 A 
ATOM      2  C   UNL     1      -0.104  -0.598  18.704  1.00  0.00     0.100 A 
ATOM      3  C   UNL     1       0.357  -0.695  17.391  1.00  0.00     0.197 A 
ATOM      4  O   UNL     1      -0.359  -1.300  16.553  1.00  0.00    -0.289 OA
ATOM      5  C   UNL     1       1.618  -0.150  17.047  1.00  0.00     0.107 A 
ATOM      6  C   UNL     1       2.173  -0.154  15.732  1.00  0.00     0.134 A 
ATOM      7  C   UNL     1       3.479   0.309  15.533  1.00  0.00     0.093 A 
ATOM      8  C   UNL     1       4.228   0.831  16.591  1.00  0.00     0.123 A 
ATOM      9  C   UNL     1       3.675   0.888  17.869  1.00  0.00     0.094 A 
ATOM     10  C   UNL     1       2.387   0.402  18.106  1.00  0.00     0.146 A 
ATOM     11  O   UNL     1       1.903   0.462  19.341  1.00  0.00    -0.456 OA
ENDROOT
BRANCH   1  12
ATOM     12  C   UNL     1       0.258   0.138  21.091  1.00  0.00     0.021 A 
ATOM     13  C   UNL     1      -1.116   0.172  21.385  1.00  0.00     0.016 A 
ATOM     14  C   UNL     1      -1.557   0.284  22.707  1.00  0.00     0.051 A 
ATOM     15  C   UNL     1      -0.633   0.356  23.756  1.00  0.00     0.157 A 
ATOM     16  C   UNL     1       1.182   0.197  22.153  1.00  0.00     0.062 A 
ATOM     17  C   UNL     1       0.739   0.309  23.479  1.00  0.00     0.158 A 
BRANCH  15  18
ATOM     18  O   UNL     1      -1.068   0.471  25.074  1.00  0.00    -0.504 OA
ATOM     19  H   UNL     1      -1.548  -0.289  25.542  1.00  0.00     0.293 HD
ENDBRANCH  15  18
BRANCH  17  20
ATOM     20  O   UNL     1       1.656   0.369  24.527  1.00  0.00    -0.504 OA
ATOM     21  H   UNL     1       2.017  -0.471  24.964  1.00  0.00     0.293 HD
ENDBRANCH  17  20
ENDBRANCH   1  12
BRANCH   6  22
ATOM     22  O   UNL     1       1.480  -0.574  14.592  1.00  0.00    -0.507 OA
ATOM     23  H   UNL     1       1.081  -1.491  14.466  1.00  0.00     0.293 HD
ENDBRANCH   6  22
BRANCH   8  24
ATOM     24  O   UNL     1       5.521   1.304  16.381  1.00  0.00    -0.508 OA
ATOM     25  H   UNL     1       5.692   2.212  15.964  1.00  0.00     0.293 HD
ENDBRANCH   8  24
TORSDOF 5
ENDMDL
MODEL 4
REMARK VINA RESULT:    -7.458      5.238     11.348
REMARK INTER + INTRA:          -9.060
REMARK INTER:                  -8.771
REMARK INTRA:                  -0.289
REMARK UNBOUND:                -0.294
REMARK SMILES O=c1cc(-c2ccc(O)c(O)c2)oc2cc(O)cc(O)c12
REMARK SMILES IDX 4 1 3 2 2 3 1 4 21 5 19 6 18 7 16 8 15 9 14 10 13 11 5 12
REMARK SMILES IDX 6 13 7 14 8 15 12 16 10 17 9 18 11 20 20 22 17 24
REMARK H PARENT 9 19 11 21 20 23 17 25
REMARK Flexibility Score: inf
ROOT
ATOM      1  C   UNL     1       0.971   0.274  19.936  1.00  0.00     0.138 A 
ATOM      2  C   UNL     1       2.238   0.829  19.709  1.00  0.00     0.100 A 
ATOM      3  C   UNL     1       2.787   0.796  18.427  1.00  0.00     0.197 A 
ATOM      4  O   UNL     1       3.897   1.358  18.242  1.00  0.00    -0.289 OA
ATOM      5  C   UNL     1       2.075   0.175  17.373  1.00  0.00     0.107 A 
ATOM      6  C   UNL     1       2.554   0.046  16.035  1.00  0.00     0.134 A 
ATOM      7  C   UNL     1       1.713  -0.485  15.049  1.00  0.00     0.093 A 
ATOM      8  C   UNL     1       0.432  -0.946  15.366  1.00  0.00     0.123 A 
ATOM      9  C   UNL     1      -0.024  -0.874  16.680  1.00  0.00     0.094 A 
ATOM     10  C   UNL     1       0.779  -0.318  17.679  1.00  0.00     0.146 A 
ATOM     11  O   UNL     1       0.300  -0.254  18.917  1.00  0.00    -0.456 OA
ENDROOT
BRANCH   1  12
ATOM     12  C   UNL     1       0.340   0.281  21.280  1.00  0.00     0.021 A 
ATOM     13  C   UNL     1      -1.061   0.282  21.386  1.00  0.00     0.016 A 
ATOM     14  C   UNL     1      -1.678   0.280  22.640  1.00  0.00     0.051 A 
ATOM     15  C   UNL     1      -0.907   0.269  23.807  1.00  0.00     0.157 A 
ATOM     16  C   UNL     1       1.111   0.256  22.459  1.00  0.00     0.062 A 
ATOM     17  C   UNL     1       0.491   0.253  23.717  1.00  0.00     0.158 A 
BRANCH  15  18
ATOM     18  O   UNL     1      -1.519   0.270  25.059  1.00  0.00    -0.504 OA
ATOM     19  H   UNL     1      -2.094   1.044  25.367  1.00  0.00     0.293 HD
ENDBRANCH  15  18
BRANCH  17  20
ATOM     20  O   UNL     1       1.257   0.231  24.882  1.00  0.00    -0.504 OA
ATOM     21  H   UNL     1       2.201  -0.135  24.888  1.00  0.00     0.293 HD
ENDBRANCH  17  20
ENDBRANCH   1  12
BRANCH   6  22
ATOM     22  O   UNL     1       3.846   0.396  15.629  1.00  0.00    -0.507 OA
ATOM     23  H   UNL     1       4.587   0.683  16.250  1.00  0.00     0.293 HD
ENDBRANCH   6  22
BRANCH   8  24
ATOM     24  O   UNL     1      -0.392  -1.487  14.382  1.00  0.00    -0.508 OA
ATOM     25  H   UNL     1      -0.861  -2.376  14.514  1.00  0.00     0.293 HD
ENDBRANCH   8  24
TORSDOF 5
ENDMDL
MODEL 5
REMARK VINA RESULT:    -6.913      1.911      4.138
REMARK INTER + INTRA:          -8.419
REMARK INTER:                  -8.143
REMARK INTRA:                  -0.276
REMARK UNBOUND:                -0.294
REMARK SMILES O=c1cc(-c2ccc(O)c(O)c2)oc2cc(O)cc(O)c12
REMARK SMILES IDX 4 1 3 2 2 3 1 4 21 5 19 6 18 7 16 8 15 9 14 10 13 11 5 12
REMARK SMILES IDX 6 13 7 14 8 15 12 16 10 17 9 18 11 20 20 22 17 24
REMARK H PARENT 9 19 11 21 20 23 17 25
REMARK Flexibility Score: inf
ROOT
ATOM      1  C   UNL     1      -0.160  -0.345  24.591  1.00  0.00     0.138 A 
ATOM      2  C   UNL     1       0.768  -1.217  25.176  1.00  0.00     0.100 A 
ATOM      3  C   UNL     1       0.704  -1.477  26.545  1.00  0.00     0.197 A 
ATOM      4  O   UNL     1       1.511  -2.312  27.029  1.00  0.00    -0.289 OA
ATOM      5  C   UNL     1      -0.277  -0.835  27.337  1.00  0.00     0.107 A 
ATOM      6  C   UNL     1      -0.411  -0.993  28.749  1.00  0.00     0.134 A 
ATOM      7  C   UNL     1      -1.493  -0.398  29.410  1.00  0.00     0.093 A 
ATOM      8  C   UNL     1      -2.410   0.398  28.720  1.00  0.00     0.123 A 
ATOM      9  C   UNL     1      -2.257   0.602  27.350  1.00  0.00     0.094 A 
ATOM     10  C   UNL     1      -1.208  -0.006  26.657  1.00  0.00     0.146 A 
ATOM     11  O   UNL     1      -1.106   0.202  25.348  1.00  0.00    -0.456 OA
ENDROOT
BRANCH   1  12
ATOM     12  C   UNL     1      -0.137  -0.032  23.140  1.00  0.00     0.021 A 
ATOM     13  C   UNL     1      -1.333  -0.086  22.402  1.00  0.00     0.016 A 
ATOM     14  C   UNL     1      -1.338   0.212  21.037  1.00  0.00     0.051 A 
ATOM     15  C   UNL     1      -0.153   0.577  20.388  1.00  0.00     0.157 A 
ATOM     16  C   UNL     1       1.050   0.349  22.484  1.00  0.00     0.062 A 
ATOM     17  C   UNL     1       1.043   0.649  21.114  1.00  0.00     0.158 A 
BRANCH  15  18
ATOM     18  O   UNL     1      -0.154   0.873  19.027  1.00  0.00    -0.504 OA
ATOM     19  H   UNL     1       0.707   1.037  18.519  1.00  0.00     0.293 HD
ENDBRANCH  15  18
BRANCH  17  20
ATOM     20  O   UNL     1       2.220   1.024  20.467  1.00  0.00    -0.504 OA
ATOM     21  H   UNL     1       3.125   0.917  20.910  1.00  0.00     0.293 HD
ENDBRANCH  17  20
ENDBRANCH   1  12
BRANCH   6  22
ATOM     22  O   UNL     1       0.497  -1.696  29.547  1.00  0.00    -0.507 OA
ATOM     23  H   UNL     1       0.762  -1.436  30.485  1.00  0.00     0.293 HD
ENDBRANCH   6  22
BRANCH   8  24
ATOM     24  O   UNL     1      -3.474   0.999  29.388  1.00  0.00    -0.508 OA
ATOM     25  H   UNL     1      -3.538   0.990  30.400  1.00  0.00     0.293 HD
ENDBRANCH   8  24
TORSDOF 5
ENDMDL
MODEL 6
REMARK VINA RESULT:    -6.911      5.739      8.685
REMARK INTER + INTRA:          -8.416
REMARK INTER:                  -8.124
REMARK INTRA:                  -0.293
REMARK UNBOUND:                -0.294
REMARK SMILES O=c1cc(-c2ccc(O)c(O)c2)oc2cc(O)cc(O)c12
REMARK SMILES IDX 4 1 3 2 2 3 1 4 21 5 19 6 18 7 16 8 15 9 14 10 13 11 5 12
REMARK SMILES IDX 6 13 7 14 8 15 12 16 10 17 9 18 11 20 20 22 17 24
REMARK H PARENT 9 19 11 21 20 23 17 25
REMARK Flexibility Score: inf
ROOT
ATOM      1  C   UNL     1       1.353  -0.257  19.622  1.00  0.00     0.138 A 
ATOM      2  C   UNL     1       1.525   0.630  20.694  1.00  0.00     0.100 A 
ATOM      3  C   UNL     1       0.908   0.364  21.917  1.00  0.00     0.197 A 
ATOM      4  O   UNL     1       1.132   1.144  22.877  1.00  0.00    -0.289 OA
ATOM      5  C   UNL     1       0.088  -0.782  22.055  1.00  0.00     0.107 A 
ATOM      6  C   UNL     1      -0.624  -1.132  23.242  1.00  0.00     0.134 A 
ATOM      7  C   UNL     1      -1.311  -2.351  23.300  1.00  0.00     0.093 A 
ATOM      8  C   UNL     1      -1.361  -3.204  22.194  1.00  0.00     0.123 A 
ATOM      9  C   UNL     1      -0.714  -2.845  21.013  1.00  0.00     0.094 A 
ATOM     10  C   UNL     1       0.008  -1.652  20.936  1.00  0.00     0.146 A 
ATOM     11  O   UNL     1       0.623  -1.354  19.796  1.00  0.00    -0.456 OA
ENDROOT
BRANCH   1  12
ATOM     12  C   UNL     1       1.985  -0.022  18.300  1.00  0.00     0.021 A 
ATOM     13  C   UNL     1       1.481  -0.680  17.165  1.00  0.00     0.016 A 
ATOM     14  C   UNL     1       2.054  -0.468  15.908  1.00  0.00     0.051 A 
ATOM     15  C   UNL     1       3.135   0.410  15.763  1.00  0.00     0.157 A 
ATOM     16  C   UNL     1       3.065   0.871  18.145  1.00  0.00     0.062 A 
ATOM     17  C   UNL     1       3.639   1.083  16.883  1.00  0.00     0.158 A 
BRANCH  15  18
ATOM     18  O   UNL     1       3.710   0.621  14.512  1.00  0.00    -0.504 OA
ATOM     19  H   UNL     1       4.522   0.098  14.206  1.00  0.00     0.293 HD
ENDBRANCH  15  18
BRANCH  17  20
ATOM     20  O   UNL     1       4.708   1.965  16.733  1.00  0.00    -0.504 OA
ATOM     21  H   UNL     1       5.237   2.297  17.530  1.00  0.00     0.293 HD
ENDBRANCH  17  20
ENDBRANCH   1  12
BRANCH   6  22
ATOM     22  O   UNL     1      -0.709  -0.314  24.373  1.00  0.00    -0.507 OA
ATOM     23  H   UNL     1      -1.547  -0.163  24.913  1.00  0.00     0.293 HD
ENDBRANCH   6  22
BRANCH   8  24
ATOM     24  O   UNL     1      -2.060  -4.407  22.255  1.00  0.00    -0.508 OA
ATOM     25  H   UNL     1      -1.671  -5.265  21.882  1.00  0.00     0.293 HD
ENDBRANCH   8  24
TORSDOF 5
ENDMDL
MODEL 7
REMARK VINA RESULT:    -6.879      3.373      9.169
REMARK INTER + INTRA:          -8.379
REMARK INTER:                  -8.103
REMARK INTRA:                  -0.275
REMARK UNBOUND:                -0.294
REMARK SMILES O=c1cc(-c2ccc(O)c(O)c2)oc2cc(O)cc(O)c12
REMARK SMILES IDX 4 1 3 2 2 3 1 4 21 5 19 6 18 7 16 8 15 9 14 10 13 11 5 12
REMARK SMILES IDX 6 13 7 14 8 15 12 16 10 17 9 18 11 20 20 22 17 24
REMARK H PARENT 9 19 11 21 20 23 17 25
REMARK Flexibility Score: inf
ROOT
ATOM      1  C   UNL     1      -0.079  -0.319  22.442  1.00  0.00     0.138 A 
ATOM      2  C   UNL     1      -1.009  -1.144  21.794  1.00  0.00     0.100 A 
ATOM      3  C   UNL     1      -0.955  -1.290  20.408  1.00  0.00     0.197 A 
ATOM      4  O   UNL     1      -1.762  -2.085  19.862  1.00  0.00    -0.289 OA
ATOM      5  C   UNL     1       0.018  -0.579  19.664  1.00  0.00     0.107 A 
ATOM      6  C   UNL     1       0.141  -0.619  18.243  1.00  0.00     0.134 A 
ATOM      7  C   UNL     1       1.214   0.034  17.624  1.00  0.00     0.093 A 
ATOM      8  C   UNL     1       2.135   0.774  18.372  1.00  0.00     0.123 A 
ATOM      9  C   UNL     1       1.992   0.863  19.755  1.00  0.00     0.094 A 
ATOM     10  C   UNL     1       0.951   0.195  20.403  1.00  0.00     0.146 A 
ATOM     11  O   UNL     1       0.859   0.293  21.725  1.00  0.00    -0.456 OA
ENDROOT
BRANCH   1  12
ATOM     12  C   UNL     1      -0.091  -0.128  23.914  1.00  0.00     0.021 A 
ATOM     13  C   UNL     1       1.106  -0.263  24.639  1.00  0.00     0.016 A 
ATOM     14  C   UNL     1       1.122  -0.079  26.024  1.00  0.00     0.051 A 
ATOM     15  C   UNL     1      -0.055   0.250  26.707  1.00  0.00     0.157 A 
ATOM     16  C   UNL     1      -1.269   0.216  24.606  1.00  0.00     0.062 A 
ATOM     17  C   UNL     1      -1.252   0.401  25.996  1.00  0.00     0.158 A 
BRANCH  15  18
ATOM     18  O   UNL     1      -0.044   0.431  28.088  1.00  0.00    -0.504 OA
ATOM     19  H   UNL     1       0.129  -0.340  28.723  1.00  0.00     0.293 HD
ENDBRANCH  15  18
BRANCH  17  20
ATOM     20  O   UNL     1      -2.420   0.740  26.677  1.00  0.00    -0.504 OA
ATOM     21  H   UNL     1      -3.249   1.053  26.186  1.00  0.00     0.293 HD
ENDBRANCH  17  20
ENDBRANCH   1  12
BRANCH   6  22
ATOM     22  O   UNL     1      -0.771  -1.257  17.396  1.00  0.00    -0.507 OA
ATOM     23  H   UNL     1      -0.893  -1.048  16.417  1.00  0.00     0.293 HD
ENDBRANCH   6  22
BRANCH   8  24
ATOM     24  O   UNL     1       3.191   1.434  17.747  1.00  0.00    -0.508 OA
ATOM     25  H   UNL     1       3.141   1.712  16.774  1.00  0.00     0.293 HD
ENDBRANCH   8  24
TORSDOF 5
ENDMDL
MODEL 8
REMARK VINA RESULT:    -6.800      6.206      9.553
REMARK INTER + INTRA:          -8.286
REMARK INTER:                  -8.011
REMARK INTRA:                  -0.275
REMARK UNBOUND:                -0.294
REMARK SMILES O=c1cc(-c2ccc(O)c(O)c2)oc2cc(O)cc(O)c12
REMARK SMILES IDX 4 1 3 2 2 3 1 4 21 5 19 6 18 7 16 8 15 9 14 10 13 11 5 12
REMARK SMILES IDX 6 13 7 14 8 15 12 16 10 17 9 18 11 20 20 22 17 24
REMARK H PARENT 9 19 11 21 20 23 17 25
REMARK Flexibility Score: inf
ROOT
ATOM      1  C   UNL     1       1.550  -1.014  18.613  1.00  0.00     0.138 A 
ATOM      2  C   UNL     1       1.418  -2.408  18.542  1.00  0.00     0.100 A 
ATOM      3  C   UNL     1       0.721  -3.089  19.540  1.00  0.00     0.197 A 
ATOM      4  O   UNL     1       0.566  -4.331  19.415  1.00  0.00    -0.289 OA
ATOM      5  C   UNL     1       0.180  -2.371  20.634  1.00  0.00     0.107 A 
ATOM      6  C   UNL     1      -0.514  -2.964  21.730  1.00  0.00     0.134 A 
ATOM      7  C   UNL     1      -1.107  -2.143  22.697  1.00  0.00     0.093 A 
ATOM      8  C   UNL     1      -0.979  -0.752  22.638  1.00  0.00     0.123 A 
ATOM      9  C   UNL     1      -0.257  -0.167  21.600  1.00  0.00     0.094 A 
ATOM     10  C   UNL     1       0.316  -0.958  20.602  1.00  0.00     0.146 A 
ATOM     11  O   UNL     1       0.984  -0.359  19.622  1.00  0.00    -0.456 OA
ENDROOT
BRANCH   1  12
ATOM     12  C   UNL     1       2.281  -0.241  17.579  1.00  0.00     0.021 A 
ATOM     13  C   UNL     1       3.235   0.713  17.974  1.00  0.00     0.016 A 
ATOM     14  C   UNL     1       3.942   1.447  17.018  1.00  0.00     0.051 A 
ATOM     15  C   UNL     1       3.714   1.237  15.653  1.00  0.00     0.157 A 
ATOM     16  C   UNL     1       2.065  -0.457  16.203  1.00  0.00     0.062 A 
ATOM     17  C   UNL     1       2.777   0.280  15.245  1.00  0.00     0.158 A 
BRANCH  15  18
ATOM     18  O   UNL     1       4.416   1.969  14.698  1.00  0.00    -0.504 OA
ATOM     19  H   UNL     1       3.999   2.763  14.227  1.00  0.00     0.293 HD
ENDBRANCH  15  18
BRANCH  17  20
ATOM     20  O   UNL     1       2.560   0.064  13.885  1.00  0.00    -0.504 OA
ATOM     21  H   UNL     1       1.904  -0.634  13.557  1.00  0.00     0.293 HD
ENDBRANCH  17  20
ENDBRANCH   1  12
BRANCH   6  22
ATOM     22  O   UNL     1      -0.627  -4.344  21.930  1.00  0.00    -0.507 OA
ATOM     23  H   UNL     1      -0.729  -5.026  21.195  1.00  0.00     0.293 HD
ENDBRANCH   6  22
BRANCH   8  24
ATOM     24  O   UNL     1      -1.559   0.057  23.613  1.00  0.00    -0.508 OA
ATOM     25  H   UNL     1      -1.808   1.020  23.422  1.00  0.00     0.293 HD
ENDBRANCH   8  24
TORSDOF 5
ENDMDL
MODEL 9
REMARK VINA RESULT:    -6.669      2.098      7.066
REMARK INTER + INTRA:          -8.133
REMARK INTER:                  -7.844
REMARK INTRA:                  -0.288
REMARK UNBOUND:                -0.294
REMARK SMILES O=c1cc(-c2ccc(O)c(O)c2)oc2cc(O)cc(O)c12
REMARK SMILES IDX 4 1 3 2 2 3 1 4 21 5 19 6 18 7 16 8 15 9 14 10 13 11 5 12
REMARK SMILES IDX 6 13 7 14 8 15 12 16 10 17 9 18 11 20 20 22 17 24
REMARK H PARENT 9 19 11 21 20 23 17 25
REMARK Flexibility Score: inf
ROOT
ATOM      1  C   UNL     1      -1.855  -1.380  28.184  1.00  0.00     0.138 A 
ATOM      2  C   UNL     1      -1.587  -2.736  27.955  1.00  0.00     0.100 A 
ATOM      3  C   UNL     1      -0.986  -3.131  26.760  1.00  0.00     0.197 A 
ATOM      4  O   UNL     1      -0.701  -4.347  26.611  1.00  0.00    -0.289 OA
ATOM      5  C   UNL     1      -0.682  -2.162  25.774  1.00  0.00     0.107 A 
ATOM      6  C   UNL     1      -0.106  -2.452  24.500  1.00  0.00     0.134 A 
ATOM      7  C   UNL     1       0.258  -1.400  23.652  1.00  0.00     0.093 A 
ATOM      8  C   UNL     1       0.014  -0.070  24.005  1.00  0.00     0.123 A 
ATOM      9  C   UNL     1      -0.597   0.221  25.223  1.00  0.00     0.094 A 
ATOM     10  C   UNL     1      -0.941  -0.806  26.106  1.00  0.00     0.146 A 
ATOM     11  O   UNL     1      -1.508  -0.484  27.264  1.00  0.00    -0.456 OA
ENDROOT
BRANCH   1  12
ATOM     12  C   UNL     1      -2.493  -0.905  29.438  1.00  0.00     0.021 A 
ATOM     13  C   UNL     1      -1.987  -1.337  30.676  1.00  0.00     0.016 A 
ATOM     14  C   UNL     1      -2.565  -0.897  31.871  1.00  0.00     0.051 A 
ATOM     15  C   UNL     1      -3.651  -0.015  31.848  1.00  0.00     0.157 A 
ATOM     16  C   UNL     1      -3.578  -0.006  29.422  1.00  0.00     0.062 A 
ATOM     17  C   UNL     1      -4.156   0.435  30.621  1.00  0.00     0.158 A 
BRANCH  15  18
ATOM     18  O   UNL     1      -4.230   0.423  33.037  1.00  0.00    -0.504 OA
ATOM     19  H   UNL     1      -4.976   1.109  33.042  1.00  0.00     0.293 HD
ENDBRANCH  15  18
BRANCH  17  20
ATOM     20  O   UNL     1      -5.230   1.323  30.602  1.00  0.00    -0.504 OA
ATOM     21  H   UNL     1      -6.143   1.043  30.267  1.00  0.00     0.293 HD
ENDBRANCH  17  20
ENDBRANCH   1  12
BRANCH   6  22
ATOM     22  O   UNL     1       0.102  -3.747  24.014  1.00  0.00    -0.507 OA
ATOM     23  H   UNL     1       0.904  -4.038  23.476  1.00  0.00     0.293 HD
ENDBRANCH   6  22
BRANCH   8  24
ATOM     24  O   UNL     1       0.365   0.969  23.148  1.00  0.00    -0.508 OA
ATOM     25  H   UNL     1       0.220   1.939  23.405  1.00  0.00     0.293 HD
ENDBRANCH   8  24
TORSDOF 5
ENDMDL
