MODEL 1
REMARK VINA RESULT:    -3.856      0.000      0.000
REMARK INTER + INTRA:          -3.856
REMARK INTER:                  -3.856
REMARK INTRA:                   0.000
REMARK UNBOUND:                 0.000
REMARK SMILES CC1(C)O[C@]2(C)CC[C@H]1CC2
REMARK SMILES IDX 1 1 2 2 9 3 8 4 7 5 5 6 4 7 11 8 10 9 6 10 3 11
REMARK H PARENT
REMARK Flexibility Score: inf
ROOT
ATOM      1  C   UNL     1      -3.367  81.634  -7.288  1.00  0.00     0.042 C 
ATOM      2  C   UNL     1      -3.719  82.621  -8.422  1.00  0.00     0.066 C 
ATOM      3  C   UNL     1      -5.272  82.901  -8.456  1.00  0.00     0.021 C 
ATOM      4  C   UNL     1      -5.559  83.932  -9.575  1.00  0.00     0.009 C 
ATOM      5  C   UNL     1      -4.632  85.157  -9.387  1.00  0.00     0.035 C 
ATOM      6  C   UNL     1      -3.788  84.986  -8.091  1.00  0.00     0.066 C 
ATOM      7  O   UNL     1      -2.965  83.825  -8.217  1.00  0.00    -0.369 OA
ATOM      8  C   UNL     1      -4.750  84.802  -6.882  1.00  0.00     0.035 C 
ATOM      9  C   UNL     1      -5.675  83.585  -7.129  1.00  0.00     0.009 C 
ATOM     10  C   UNL     1      -2.888  86.207  -7.875  1.00  0.00     0.042 C 
ATOM     11  C   UNL     1      -3.250  81.982  -9.748  1.00  0.00     0.042 C 
ENDROOT
TORSDOF 0
ENDMDL
MODEL 2
REMARK VINA RESULT:    -3.798      7.576      8.732
REMARK INTER + INTRA:          -3.798
REMARK INTER:                  -3.798
REMARK INTRA:                   0.000
REMARK UNBOUND:                 0.000
REMARK SMILES CC1(C)O[C@]2(C)CC[C@H]1CC2
REMARK SMILES IDX 1 1 2 2 9 3 8 4 7 5 5 6 4 7 11 8 10 9 6 10 3 11
REMARK H PARENT
REMARK Flexibility Score: inf
ROOT
ATOM      1  C   UNL     1     -11.208  82.485  -7.249  1.00  0.00     0.042 C 
ATOM      2  C   UNL     1     -11.496  82.333  -8.759  1.00  0.00     0.066 C 
ATOM      3  C   UNL     1     -12.588  81.221  -9.008  1.00  0.00     0.021 C 
ATOM      4  C   UNL     1     -12.874  81.148 -10.528  1.00  0.00     0.009 C 
ATOM      5  C   UNL     1     -13.191  82.569 -11.054  1.00  0.00     0.035 C 
ATOM      6  C   UNL     1     -13.206  83.578  -9.870  1.00  0.00     0.066 C 
ATOM      7  O   UNL     1     -11.912  83.610  -9.264  1.00  0.00    -0.369 OA
ATOM      8  C   UNL     1     -14.251  83.107  -8.818  1.00  0.00     0.035 C 
ATOM      9  C   UNL     1     -13.910  81.674  -8.344  1.00  0.00     0.009 C 
ATOM     10  C   UNL     1     -13.551  84.984 -10.372  1.00  0.00     0.042 C 
ATOM     11  C   UNL     1     -10.166  81.956  -9.444  1.00  0.00     0.042 C 
ENDROOT
TORSDOF 0
ENDMDL
MODEL 3
REMARK VINA RESULT:    -3.793      1.357      3.030
REMARK INTER + INTRA:          -3.793
REMARK INTER:                  -3.793
REMARK INTRA:                   0.000
REMARK UNBOUND:                 0.000
REMARK SMILES CC1(C)O[C@]2(C)CC[C@H]1CC2
REMARK SMILES IDX 1 1 2 2 9 3 8 4 7 5 5 6 4 7 11 8 10 9 6 10 3 11
REMARK H PARENT
REMARK Flexibility Score: inf
ROOT
ATOM      1  C   UNL     1      -3.993  81.356  -6.608  1.00  0.00     0.042 C 
ATOM      2  C   UNL     1      -4.174  82.821  -7.062  1.00  0.00     0.066 C 
ATOM      3  C   UNL     1      -3.056  83.225  -8.101  1.00  0.00     0.021 C 
ATOM      4  C   UNL     1      -3.316  84.681  -8.559  1.00  0.00     0.009 C 
ATOM      5  C   UNL     1      -4.785  84.811  -9.027  1.00  0.00     0.035 C 
ATOM      6  C   UNL     1      -5.483  83.422  -8.968  1.00  0.00     0.066 C 
ATOM      7  O   UNL     1      -5.491  82.957  -7.617  1.00  0.00    -0.369 OA
ATOM      8  C   UNL     1      -4.685  82.418  -9.849  1.00  0.00     0.035 C 
ATOM      9  C   UNL     1      -3.218  82.343  -9.362  1.00  0.00     0.009 C 
ATOM     10  C   UNL     1      -6.930  83.530  -9.460  1.00  0.00     0.042 C 
ATOM     11  C   UNL     1      -4.091  83.706  -5.800  1.00  0.00     0.042 C 
ENDROOT
TORSDOF 0
ENDMDL
MODEL 4
REMARK VINA RESULT:    -3.650      1.010      3.308
REMARK INTER + INTRA:          -3.650
REMARK INTER:                  -3.650
REMARK INTRA:                   0.000
REMARK UNBOUND:                 0.000
REMARK SMILES CC1(C)O[C@]2(C)CC[C@H]1CC2
REMARK SMILES IDX 1 1 2 2 9 3 8 4 7 5 5 6 4 7 11 8 10 9 6 10 3 11
REMARK H PARENT
REMARK Flexibility Score: inf
ROOT
ATOM      1  C   UNL     1      -4.687  86.170  -8.942  1.00  0.00     0.042 C 
ATOM      2  C   UNL     1      -4.379  84.935  -8.067  1.00  0.00     0.066 C 
ATOM      3  C   UNL     1      -5.715  84.223  -7.619  1.00  0.00     0.021 C 
ATOM      4  C   UNL     1      -5.346  82.968  -6.790  1.00  0.00     0.009 C 
ATOM      5  C   UNL     1      -4.331  82.114  -7.587  1.00  0.00     0.035 C 
ATOM      6  C   UNL     1      -4.089  82.749  -8.986  1.00  0.00     0.066 C 
ATOM      7  O   UNL     1      -3.532  84.054  -8.819  1.00  0.00    -0.369 OA
ATOM      8  C   UNL     1      -5.451  82.867  -9.730  1.00  0.00     0.035 C 
ATOM      9  C   UNL     1      -6.440  83.704  -8.883  1.00  0.00     0.009 C 
ATOM     10  C   UNL     1      -3.111  81.896  -9.799  1.00  0.00     0.042 C 
ATOM     11  C   UNL     1      -3.586  85.431  -6.838  1.00  0.00     0.042 C 
ENDROOT
TORSDOF 0
ENDMDL
MODEL 5
REMARK VINA RESULT:    -3.646      7.931      9.334
REMARK INTER + INTRA:          -3.646
REMARK INTER:                  -3.646
REMARK INTRA:                   0.000
REMARK UNBOUND:                 0.000
REMARK SMILES CC1(C)O[C@]2(C)CC[C@H]1CC2
REMARK SMILES IDX 1 1 2 2 9 3 8 4 7 5 5 6 4 7 11 8 10 9 6 10 3 11
REMARK H PARENT
REMARK Flexibility Score: inf
ROOT
ATOM      1  C   UNL     1     -12.771  80.212  -7.321  1.00  0.00     0.042 C 
ATOM      2  C   UNL     1     -13.379  81.314  -8.216  1.00  0.00     0.066 C 
ATOM      3  C   UNL     1     -12.595  82.672  -8.038  1.00  0.00     0.021 C 
ATOM      4  C   UNL     1     -13.212  83.723  -8.993  1.00  0.00     0.009 C 
ATOM      5  C   UNL     1     -13.275  83.134 -10.423  1.00  0.00     0.035 C 
ATOM      6  C   UNL     1     -12.617  81.725 -10.443  1.00  0.00     0.066 C 
ATOM      7  O   UNL     1     -13.346  80.854  -9.575  1.00  0.00    -0.369 OA
ATOM      8  C   UNL     1     -11.151  81.844  -9.933  1.00  0.00     0.035 C 
ATOM      9  C   UNL     1     -11.138  82.463  -8.515  1.00  0.00     0.009 C 
ATOM     10  C   UNL     1     -12.642  81.143 -11.860  1.00  0.00     0.042 C 
ATOM     11  C   UNL     1     -14.857  81.479  -7.802  1.00  0.00     0.042 C 
ENDROOT
TORSDOF 0
ENDMDL
MODEL 6
REMARK VINA RESULT:    -3.586      1.342      3.084
REMARK INTER + INTRA:          -3.586
REMARK INTER:                  -3.586
REMARK INTRA:                   0.000
REMARK UNBOUND:                 0.000
REMARK SMILES CC1(C)O[C@]2(C)CC[C@H]1CC2
REMARK SMILES IDX 1 1 2 2 9 3 8 4 7 5 5 6 4 7 11 8 10 9 6 10 3 11
REMARK H PARENT
REMARK Flexibility Score: inf
ROOT
ATOM      1  C   UNL     1      -7.476  83.302  -9.122  1.00  0.00     0.042 C 
ATOM      2  C   UNL     1      -6.120  84.037  -9.196  1.00  0.00     0.066 C 
ATOM      3  C   UNL     1      -5.682  84.545  -7.768  1.00  0.00     0.021 C 
ATOM      4  C   UNL     1      -4.298  85.226  -7.893  1.00  0.00     0.009 C 
ATOM      5  C   UNL     1      -3.325  84.269  -8.623  1.00  0.00     0.035 C 
ATOM      6  C   UNL     1      -4.032  82.912  -8.905  1.00  0.00     0.066 C 
ATOM      7  O   UNL     1      -5.154  83.137  -9.761  1.00  0.00    -0.369 OA
ATOM      8  C   UNL     1      -4.529  82.311  -7.558  1.00  0.00     0.035 C 
ATOM      9  C   UNL     1      -5.474  83.314  -6.853  1.00  0.00     0.009 C 
ATOM     10  C   UNL     1      -3.070  81.942  -9.599  1.00  0.00     0.042 C 
ATOM     11  C   UNL     1      -6.294  85.224 -10.168  1.00  0.00     0.042 C 
ENDROOT
TORSDOF 0
ENDMDL
MODEL 7
REMARK VINA RESULT:    -3.572      1.234      3.051
REMARK INTER + INTRA:          -3.572
REMARK INTER:                  -3.572
REMARK INTRA:                   0.000
REMARK UNBOUND:                 0.000
REMARK SMILES CC1(C)O[C@]2(C)CC[C@H]1CC2
REMARK SMILES IDX 1 1 2 2 9 3 8 4 7 5 5 6 4 7 11 8 10 9 6 10 3 11
REMARK H PARENT
REMARK Flexibility Score: inf
ROOT
ATOM      1  C   UNL     1      -5.674  84.888  -6.264  1.00  0.00     0.042 C 
ATOM      2  C   UNL     1      -5.821  84.008  -7.525  1.00  0.00     0.066 C 
ATOM      3  C   UNL     1      -5.590  84.862  -8.832  1.00  0.00     0.021 C 
ATOM      4  C   UNL     1      -5.698  83.923 -10.057  1.00  0.00     0.009 C 
ATOM      5  C   UNL     1      -4.768  82.704  -9.845  1.00  0.00     0.035 C 
ATOM      6  C   UNL     1      -3.970  82.873  -8.521  1.00  0.00     0.066 C 
ATOM      7  O   UNL     1      -4.885  82.925  -7.425  1.00  0.00    -0.369 OA
ATOM      8  C   UNL     1      -3.168  84.205  -8.581  1.00  0.00     0.035 C 
ATOM      9  C   UNL     1      -4.135  85.389  -8.822  1.00  0.00     0.009 C 
ATOM     10  C   UNL     1      -3.020  81.688  -8.315  1.00  0.00     0.042 C 
ATOM     11  C   UNL     1      -7.246  83.414  -7.506  1.00  0.00     0.042 C 
ENDROOT
TORSDOF 0
ENDMDL
MODEL 8
REMARK VINA RESULT:    -3.570      1.261      2.569
REMARK INTER + INTRA:          -3.570
REMARK INTER:                  -3.570
REMARK INTRA:                   0.000
REMARK UNBOUND:                 0.000
REMARK SMILES CC1(C)O[C@]2(C)CC[C@H]1CC2
REMARK SMILES IDX 1 1 2 2 9 3 8 4 7 5 5 6 4 7 11 8 10 9 6 10 3 11
REMARK H PARENT
REMARK Flexibility Score: inf
ROOT
ATOM      1  C   UNL     1      -7.157  83.449  -7.581  1.00  0.00     0.042 C 
ATOM      2  C   UNL     1      -5.613  83.401  -7.587  1.00  0.00     0.066 C 
ATOM      3  C   UNL     1      -5.078  82.831  -8.958  1.00  0.00     0.021 C 
ATOM      4  C   UNL     1      -3.531  82.854  -8.928  1.00  0.00     0.009 C 
ATOM      5  C   UNL     1      -3.052  84.270  -8.525  1.00  0.00     0.035 C 
ATOM      6  C   UNL     1      -4.276  85.218  -8.374  1.00  0.00     0.066 C 
ATOM      7  O   UNL     1      -5.124  84.727  -7.335  1.00  0.00    -0.369 OA
ATOM      8  C   UNL     1      -5.068  85.238  -9.714  1.00  0.00     0.035 C 
ATOM      9  C   UNL     1      -5.499  83.800 -10.089  1.00  0.00     0.009 C 
ATOM     10  C   UNL     1      -3.814  86.632  -8.007  1.00  0.00     0.042 C 
ATOM     11  C   UNL     1      -5.177  82.498  -6.413  1.00  0.00     0.042 C 
ENDROOT
TORSDOF 0
ENDMDL
MODEL 9
REMARK VINA RESULT:    -3.534      9.299     10.756
REMARK INTER + INTRA:          -3.534
REMARK INTER:                  -3.534
REMARK INTRA:                   0.000
REMARK UNBOUND:                 0.000
REMARK SMILES CC1(C)O[C@]2(C)CC[C@H]1CC2
REMARK SMILES IDX 1 1 2 2 9 3 8 4 7 5 5 6 4 7 11 8 10 9 6 10 3 11
REMARK H PARENT
REMARK Flexibility Score: inf
ROOT
ATOM      1  C   UNL     1      -6.322  92.725 -13.718  1.00  0.00     0.042 C 
ATOM      2  C   UNL     1      -4.894  92.190 -13.962  1.00  0.00     0.066 C 
ATOM      3  C   UNL     1      -4.903  90.618 -14.096  1.00  0.00     0.021 C 
ATOM      4  C   UNL     1      -3.460  90.143 -14.390  1.00  0.00     0.009 C 
ATOM      5  C   UNL     1      -2.896  90.944 -15.589  1.00  0.00     0.035 C 
ATOM      6  C   UNL     1      -3.994  91.890 -16.155  1.00  0.00     0.066 C 
ATOM      7  O   UNL     1      -4.377  92.822 -15.142  1.00  0.00    -0.369 OA
ATOM      8  C   UNL     1      -5.233  91.040 -16.561  1.00  0.00     0.035 C 
ATOM      9  C   UNL     1      -5.742  90.237 -15.340  1.00  0.00     0.009 C 
ATOM     10  C   UNL     1      -3.459  92.665 -17.363  1.00  0.00     0.042 C 
ATOM     11  C   UNL     1      -4.028  92.631 -12.762  1.00  0.00     0.042 C 
ENDROOT
TORSDOF 0
ENDMDL
