MODEL 1
REMARK VINA RESULT:    27.546      0.000      0.000
REMARK INTER + INTRA:          32.927
REMARK INTER:                  33.182
REMARK INTRA:                  -0.255
REMARK UNBOUND:                -0.255
REMARK SMILES O=c1c(O)c(-c2ccc(O)c(O)c2)oc2cc(O)cc(O)c12
REMARK SMILES IDX 5 1 3 2 2 3 1 4 22 5 20 6 19 7 17 8 16 9 15 10 14 11 6 12
REMARK SMILES IDX 7 13 8 14 9 15 13 16 11 17 10 18 12 20 4 22 21 24 18 26
REMARK H PARENT 10 19 12 21 4 23 21 25 18 27
REMARK Flexibility Score: inf
ROOT
ATOM      1  C   UNL     1     -22.814  28.684  -7.348  1.00  0.00     0.180 A 
ATOM      2  C   UNL     1     -24.140  28.295  -7.603  1.00  0.00     0.208 A 
ATOM      3  C   UNL     1     -25.041  29.242  -8.116  1.00  0.00     0.238 A 
ATOM      4  O   UNL     1     -26.212  28.873  -8.393  1.00  0.00    -0.285 OA
ATOM      5  C   UNL     1     -24.609  30.570  -8.353  1.00  0.00     0.111 A 
ATOM      6  C   UNL     1     -25.447  31.620  -8.833  1.00  0.00     0.134 A 
ATOM      7  C   UNL     1     -24.882  32.861  -9.155  1.00  0.00     0.093 A 
ATOM      8  C   UNL     1     -23.526  33.110  -8.952  1.00  0.00     0.123 A 
ATOM      9  C   UNL     1     -22.709  32.107  -8.427  1.00  0.00     0.094 A 
ATOM     10  C   UNL     1     -23.235  30.848  -8.130  1.00  0.00     0.146 A 
ATOM     11  O   UNL     1     -22.422  29.918  -7.642  1.00  0.00    -0.452 OA
ENDROOT
BRANCH   1  12
ATOM     12  C   UNL     1     -21.813  27.750  -6.783  1.00  0.00     0.025 A 
ATOM     13  C   UNL     1     -20.745  27.315  -7.584  1.00  0.00     0.016 A 
ATOM     14  C   UNL     1     -19.778  26.451  -7.066  1.00  0.00     0.051 A 
ATOM     15  C   UNL     1     -19.853  26.019  -5.739  1.00  0.00     0.157 A 
ATOM     16  C   UNL     1     -21.876  27.332  -5.442  1.00  0.00     0.062 A 
ATOM     17  C   UNL     1     -20.905  26.465  -4.920  1.00  0.00     0.158 A 
BRANCH  15  18
ATOM     18  O   UNL     1     -18.875  25.155  -5.250  1.00  0.00    -0.504 OA
ATOM     19  H   UNL     1     -18.647  25.102  -4.264  1.00  0.00     0.293 HD
ENDBRANCH  15  18
BRANCH  17  20
ATOM     20  O   UNL     1     -20.979  26.050  -3.591  1.00  0.00    -0.504 OA
ATOM     21  H   UNL     1     -20.154  25.750  -3.083  1.00  0.00     0.293 HD
ENDBRANCH  17  20
ENDBRANCH   1  12
BRANCH   2  22
ATOM     22  O   UNL     1     -24.539  26.974  -7.382  1.00  0.00    -0.502 OA
ATOM     23  H   UNL     1     -24.042  26.353  -6.755  1.00  0.00     0.293 HD
ENDBRANCH   2  22
BRANCH   6  24
ATOM     24  O   UNL     1     -26.832  31.507  -8.985  1.00  0.00    -0.507 OA
ATOM     25  H   UNL     1     -27.291  31.092  -9.782  1.00  0.00     0.293 HD
ENDBRANCH   6  24
BRANCH   8  26
ATOM     26  O   UNL     1     -23.002  34.361  -9.269  1.00  0.00    -0.508 OA
ATOM     27  H   UNL     1     -22.455  34.891  -8.600  1.00  0.00     0.293 HD
ENDBRANCH   8  26
TORSDOF 6
ENDMDL
MODEL 2
REMARK VINA RESULT:    28.537      1.334      2.803
REMARK INTER + INTRA:          34.121
REMARK INTER:                  33.937
REMARK INTRA:                   0.184
REMARK UNBOUND:                -0.255
REMARK SMILES O=c1c(O)c(-c2ccc(O)c(O)c2)oc2cc(O)cc(O)c12
REMARK SMILES IDX 5 1 3 2 2 3 1 4 22 5 20 6 19 7 17 8 16 9 15 10 14 11 6 12
REMARK SMILES IDX 7 13 8 14 9 15 13 16 11 17 10 18 12 20 4 22 21 24 18 26
REMARK H PARENT 10 19 12 21 4 23 21 25 18 27
REMARK Flexibility Score: inf
ROOT
ATOM      1  C   UNL     1     -22.405  29.027  -7.405  1.00  0.00     0.180 A 
ATOM      2  C   UNL     1     -21.919  30.110  -8.159  1.00  0.00     0.208 A 
ATOM      3  C   UNL     1     -22.827  31.064  -8.644  1.00  0.00     0.238 A 
ATOM      4  O   UNL     1     -22.379  32.059  -9.272  1.00  0.00    -0.285 OA
ATOM      5  C   UNL     1     -24.211  30.917  -8.384  1.00  0.00     0.111 A 
ATOM      6  C   UNL     1     -25.224  31.802  -8.861  1.00  0.00     0.134 A 
ATOM      7  C   UNL     1     -26.546  31.632  -8.433  1.00  0.00     0.093 A 
ATOM      8  C   UNL     1     -26.904  30.573  -7.600  1.00  0.00     0.123 A 
ATOM      9  C   UNL     1     -25.931  29.667  -7.176  1.00  0.00     0.094 A 
ATOM     10  C   UNL     1     -24.597  29.831  -7.556  1.00  0.00     0.146 A 
ATOM     11  O   UNL     1     -23.700  28.952  -7.122  1.00  0.00    -0.452 OA
ENDROOT
BRANCH   1  12
ATOM     12  C   UNL     1     -21.513  27.968  -6.881  1.00  0.00     0.025 A 
ATOM     13  C   UNL     1     -20.443  27.514  -7.668  1.00  0.00     0.016 A 
ATOM     14  C   UNL     1     -19.577  26.531  -7.186  1.00  0.00     0.051 A 
ATOM     15  C   UNL     1     -19.755  25.997  -5.906  1.00  0.00     0.157 A 
ATOM     16  C   UNL     1     -21.679  27.445  -5.586  1.00  0.00     0.062 A 
ATOM     17  C   UNL     1     -20.809  26.459  -5.099  1.00  0.00     0.158 A 
BRANCH  15  18
ATOM     18  O   UNL     1     -18.876  25.015  -5.452  1.00  0.00    -0.504 OA
ATOM     19  H   UNL     1     -18.555  24.982  -4.491  1.00  0.00     0.293 HD
ENDBRANCH  15  18
BRANCH  17  20
ATOM     20  O   UNL     1     -20.985  25.941  -3.817  1.00  0.00    -0.504 OA
ATOM     21  H   UNL     1     -20.434  25.159  -3.481  1.00  0.00     0.293 HD
ENDBRANCH  17  20
ENDBRANCH   1  12
BRANCH   2  22
ATOM     22  O   UNL     1     -20.547  30.248  -8.385  1.00  0.00    -0.502 OA
ATOM     23  H   UNL     1     -20.167  30.493  -9.292  1.00  0.00     0.293 HD
ENDBRANCH   2  22
BRANCH   6  24
ATOM     24  O   UNL     1     -24.990  32.838  -9.770  1.00  0.00    -0.507 OA
ATOM     25  H   UNL     1     -25.030  32.742 -10.773  1.00  0.00     0.293 HD
ENDBRANCH   6  24
BRANCH   8  26
ATOM     26  O   UNL     1     -28.232  30.426  -7.207  1.00  0.00    -0.508 OA
ATOM     27  H   UNL     1     -28.875  29.836  -7.723  1.00  0.00     0.293 HD
ENDBRANCH   8  26
TORSDOF 6
ENDMDL
MODEL 3
REMARK VINA RESULT:    30.147      3.300      6.551
REMARK INTER + INTRA:          36.060
REMARK INTER:                  35.605
REMARK INTRA:                   0.455
REMARK UNBOUND:                -0.255
REMARK SMILES O=c1c(O)c(-c2ccc(O)c(O)c2)oc2cc(O)cc(O)c12
REMARK SMILES IDX 5 1 3 2 2 3 1 4 22 5 20 6 19 7 17 8 16 9 15 10 14 11 6 12
REMARK SMILES IDX 7 13 8 14 9 15 13 16 11 17 10 18 12 20 4 22 21 24 18 26
REMARK H PARENT 10 19 12 21 4 23 21 25 18 27
REMARK Flexibility Score: inf
ROOT
ATOM      1  C   UNL     1     -24.879  31.263  -8.236  1.00  0.00     0.180 A 
ATOM      2  C   UNL     1     -26.163  31.628  -7.797  1.00  0.00     0.208 A 
ATOM      3  C   UNL     1     -27.066  30.621  -7.422  1.00  0.00     0.238 A 
ATOM      4  O   UNL     1     -28.195  30.956  -6.978  1.00  0.00    -0.285 OA
ATOM      5  C   UNL     1     -26.680  29.261  -7.506  1.00  0.00     0.111 A 
ATOM      6  C   UNL     1     -27.527  28.157  -7.190  1.00  0.00     0.134 A 
ATOM      7  C   UNL     1     -26.998  26.860  -7.184  1.00  0.00     0.093 A 
ATOM      8  C   UNL     1     -25.673  26.620  -7.545  1.00  0.00     0.123 A 
ATOM      9  C   UNL     1     -24.852  27.688  -7.913  1.00  0.00     0.094 A 
ATOM     10  C   UNL     1     -25.340  28.996  -7.894  1.00  0.00     0.146 A 
ATOM     11  O   UNL     1     -24.524  29.984  -8.241  1.00  0.00    -0.452 OA
ENDROOT
BRANCH   1  12
ATOM     12  C   UNL     1     -23.880  32.267  -8.672  1.00  0.00     0.025 A 
ATOM     13  C   UNL     1     -22.589  31.847  -9.027  1.00  0.00     0.016 A 
ATOM     14  C   UNL     1     -21.638  32.774  -9.460  1.00  0.00     0.051 A 
ATOM     15  C   UNL     1     -21.965  34.129  -9.561  1.00  0.00     0.157 A 
ATOM     16  C   UNL     1     -24.214  33.628  -8.793  1.00  0.00     0.062 A 
ATOM     17  C   UNL     1     -23.262  34.559  -9.230  1.00  0.00     0.158 A 
BRANCH  15  18
ATOM     18  O   UNL     1     -20.995  35.031  -9.994  1.00  0.00    -0.504 OA
ATOM     19  H   UNL     1     -20.551  35.689  -9.364  1.00  0.00     0.293 HD
ENDBRANCH  15  18
BRANCH  17  20
ATOM     20  O   UNL     1     -23.599  35.907  -9.341  1.00  0.00    -0.504 OA
ATOM     21  H   UNL     1     -24.543  36.234  -9.166  1.00  0.00     0.293 HD
ENDBRANCH  17  20
ENDBRANCH   1  12
BRANCH   2  22
ATOM     22  O   UNL     1     -26.516  32.977  -7.700  1.00  0.00    -0.502 OA
ATOM     23  H   UNL     1     -27.458  33.307  -7.876  1.00  0.00     0.293 HD
ENDBRANCH   2  22
BRANCH   6  24
ATOM     24  O   UNL     1     -28.890  28.276  -6.904  1.00  0.00    -0.507 OA
ATOM     25  H   UNL     1     -29.626  28.252  -7.594  1.00  0.00     0.293 HD
ENDBRANCH   6  24
BRANCH   8  26
ATOM     26  O   UNL     1     -25.185  25.316  -7.543  1.00  0.00    -0.508 OA
ATOM     27  H   UNL     1     -25.473  24.642  -8.243  1.00  0.00     0.293 HD
ENDBRANCH   8  26
TORSDOF 6
ENDMDL
