MODEL 1
REMARK VINA RESULT:    -8.925      0.000      0.000
REMARK INTER + INTRA:         -16.729
REMARK INTER:                 -14.664
REMARK INTRA:                  -2.064
REMARK UNBOUND:                -2.064
REMARK SMILES C[C@@H]1O[C@H](OC[C@H]2O[C@H](Oc3c(-c4ccc(O)c(O)c4)oc4cc(O)cc(O)c4c3=O)[C@H](O)[C@H](O)[C@H]2O)[C@H](O)[C@@H](O)[C@H]1O
REMARK SMILES IDX 7 1 36 2 34 3 32 4 9 5 8 6 6 7 5 8 4 9 1 10 2 11 42 12 3 13
REMARK SMILES IDX 40 14 38 15 43 16 41 18 39 20 37 22 35 24 10 26 11 27 12 28
REMARK SMILES IDX 30 29 21 30 29 31 31 32 22 33 27 34 23 35 26 36 24 37 13 38
REMARK SMILES IDX 20 39 14 40 18 41 15 42 16 43 19 44 17 46 28 48 25 50 33 52
REMARK H PARENT 43 17 41 19 39 21 37 23 35 25 19 45 17 47 28 49 25 51 33 53
REMARK Flexibility Score: inf
ROOT
ATOM      1  C   UNL     1      -2.032 -14.937  27.932  1.00  0.00     0.180 C 
ATOM      2  C   UNL     1      -1.106 -14.947  26.675  1.00  0.00     0.177 C 
ATOM      3  C   UNL     1       0.191 -15.811  27.056  1.00  0.00     0.180 C 
ATOM      4  C   UNL     1      -0.149 -17.002  28.027  1.00  0.00     0.214 C 
ATOM      5  C   UNL     1      -1.689 -17.304  27.913  1.00  0.00     0.339 C 
ATOM      6  O   UNL     1      -2.554 -16.216  28.268  1.00  0.00    -0.332 OA
ENDROOT
BRANCH   1   7
ATOM      7  C   UNL     1      -3.170 -13.880  27.807  1.00  0.00     0.198 C 
BRANCH   7   8
ATOM      8  O   UNL     1      -3.358 -13.117  28.995  1.00  0.00    -0.347 OA
BRANCH   8   9
ATOM      9  C   UNL     1      -4.160 -13.775  29.996  1.00  0.00     0.281 C 
ATOM     10  C   UNL     1      -4.162 -11.666  32.671  1.00  0.00     0.041 C 
ATOM     11  C   UNL     1      -4.406 -13.167  32.396  1.00  0.00     0.150 C 
ATOM     12  C   UNL     1      -5.913 -13.482  32.378  1.00  0.00     0.174 C 
ATOM     13  O   UNL     1      -3.620 -13.688  31.329  1.00  0.00    -0.344 OA
ATOM     14  C   UNL     1      -6.398 -14.124  31.048  1.00  0.00     0.179 C 
ATOM     15  C   UNL     1      -5.672 -13.504  29.847  1.00  0.00     0.202 C 
BRANCH  12  16
ATOM     16  O   UNL     1      -6.217 -14.307  33.468  1.00  0.00    -0.388 OA
ATOM     17  H   UNL     1      -5.459 -14.944  33.581  1.00  0.00     0.211 HD
ENDBRANCH  12  16
BRANCH  14  18
ATOM     18  O   UNL     1      -6.264 -15.547  31.032  1.00  0.00    -0.387 OA
ATOM     19  H   UNL     1      -6.242 -15.905  31.954  1.00  0.00     0.211 HD
ENDBRANCH  14  18
BRANCH  15  20
ATOM     20  O   UNL     1      -5.994 -12.138  29.572  1.00  0.00    -0.385 OA
ATOM     21  H   UNL     1      -6.712 -12.133  28.852  1.00  0.00     0.211 HD
ENDBRANCH  15  20
ENDBRANCH   8   9
ENDBRANCH   7   8
ENDBRANCH   1   7
BRANCH   2  22
ATOM     22  O   UNL     1      -1.857 -15.441  25.556  1.00  0.00    -0.387 OA
ATOM     23  H   UNL     1      -1.308 -16.170  25.096  1.00  0.00     0.211 HD
ENDBRANCH   2  22
BRANCH   3  24
ATOM     24  O   UNL     1       1.183 -14.943  27.578  1.00  0.00    -0.387 OA
ATOM     25  H   UNL     1       1.847 -15.501  28.108  1.00  0.00     0.211 HD
ENDBRANCH   3  24
BRANCH   5  26
ATOM     26  O   UNL     1      -2.170 -18.511  28.498  1.00  0.00    -0.454 OA
BRANCH  26  27
ATOM     27  C   UNL     1      -1.546 -19.807  28.597  1.00  0.00     0.214 A 
ATOM     28  C   UNL     1      -1.538 -20.785  27.582  1.00  0.00     0.180 A 
ATOM     29  C   UNL     1      -1.017 -20.205  29.825  1.00  0.00     0.239 A 
ATOM     30  O   UNL     1      -1.709 -22.046  27.944  1.00  0.00    -0.452 OA
ATOM     31  C   UNL     1      -0.896 -21.578  30.119  1.00  0.00     0.111 A 
ATOM     32  O   UNL     1      -0.788 -19.341  30.707  1.00  0.00    -0.285 OA
ATOM     33  C   UNL     1      -1.479 -22.471  29.187  1.00  0.00     0.146 A 
ATOM     34  C   UNL     1      -0.342 -22.100  31.320  1.00  0.00     0.134 A 
ATOM     35  C   UNL     1      -1.812 -23.768  29.569  1.00  0.00     0.094 A 
ATOM     36  C   UNL     1      -0.639 -23.420  31.669  1.00  0.00     0.093 A 
ATOM     37  C   UNL     1      -1.463 -24.202  30.859  1.00  0.00     0.123 A 
BRANCH  28  38
ATOM     38  C   UNL     1      -0.748 -20.557  26.343  1.00  0.00     0.025 A 
ATOM     39  C   UNL     1      -1.427 -19.839  25.347  1.00  0.00     0.062 A 
ATOM     40  C   UNL     1       0.626 -20.789  26.181  1.00  0.00     0.016 A 
ATOM     41  C   UNL     1      -0.764 -19.343  24.212  1.00  0.00     0.158 A 
ATOM     42  C   UNL     1       1.269 -20.337  25.024  1.00  0.00     0.051 A 
ATOM     43  C   UNL     1       0.570 -19.652  24.033  1.00  0.00     0.157 A 
BRANCH  41  44
ATOM     44  O   UNL     1      -1.432 -18.600  23.243  1.00  0.00    -0.504 OA
ATOM     45  H   UNL     1      -1.558 -17.579  23.357  1.00  0.00     0.293 HD
ENDBRANCH  41  44
BRANCH  43  46
ATOM     46  O   UNL     1       1.279 -19.250  22.891  1.00  0.00    -0.504 OA
ATOM     47  H   UNL     1       0.899 -19.435  21.989  1.00  0.00     0.293 HD
ENDBRANCH  43  46
ENDBRANCH  28  38
BRANCH  34  48
ATOM     48  O   UNL     1       0.531 -21.387  32.169  1.00  0.00    -0.507 OA
ATOM     49  H   UNL     1       0.638 -21.569  33.152  1.00  0.00     0.293 HD
ENDBRANCH  34  48
BRANCH  37  50
ATOM     50  O   UNL     1      -1.928 -25.408  31.384  1.00  0.00    -0.508 OA
ATOM     51  H   UNL     1      -2.851 -25.500  31.795  1.00  0.00     0.293 HD
ENDBRANCH  37  50
ENDBRANCH  26  27
ENDBRANCH   5  26
BRANCH   4  52
ATOM     52  O   UNL     1       0.297 -16.742  29.328  1.00  0.00    -0.384 OA
ATOM     53  H   UNL     1       1.131 -16.249  29.263  1.00  0.00     0.211 HD
ENDBRANCH   4  52
TORSDOF 16
ENDMDL
MODEL 2
REMARK VINA RESULT:    -8.920      3.815      8.217
REMARK INTER + INTRA:         -16.721
REMARK INTER:                 -14.946
REMARK INTRA:                  -1.775
REMARK UNBOUND:                -2.064
REMARK SMILES C[C@@H]1O[C@H](OC[C@H]2O[C@H](Oc3c(-c4ccc(O)c(O)c4)oc4cc(O)cc(O)c4c3=O)[C@H](O)[C@H](O)[C@H]2O)[C@H](O)[C@@H](O)[C@H]1O
REMARK SMILES IDX 7 1 36 2 34 3 32 4 9 5 8 6 6 7 5 8 4 9 1 10 2 11 42 12 3 13
REMARK SMILES IDX 40 14 38 15 43 16 41 18 39 20 37 22 35 24 10 26 11 27 12 28
REMARK SMILES IDX 30 29 21 30 29 31 31 32 22 33 27 34 23 35 26 36 24 37 13 38
REMARK SMILES IDX 20 39 14 40 18 41 15 42 16 43 19 44 17 46 28 48 25 50 33 52
REMARK H PARENT 43 17 41 19 39 21 37 23 35 25 19 45 17 47 28 49 25 51 33 53
REMARK Flexibility Score: inf
ROOT
ATOM      1  C   UNL     1      -7.036 -15.057  31.492  1.00  0.00     0.180 C 
ATOM      2  C   UNL     1      -7.506 -13.761  30.761  1.00  0.00     0.177 C 
ATOM      3  C   UNL     1      -6.440 -12.614  31.110  1.00  0.00     0.180 C 
ATOM      4  C   UNL     1      -4.978 -13.180  31.249  1.00  0.00     0.214 C 
ATOM      5  C   UNL     1      -4.915 -14.565  30.503  1.00  0.00     0.339 C 
ATOM      6  O   UNL     1      -5.803 -15.572  31.008  1.00  0.00    -0.332 OA
ENDROOT
BRANCH   1   7
ATOM      7  C   UNL     1      -8.141 -16.156  31.495  1.00  0.00     0.198 C 
BRANCH   7   8
ATOM      8  O   UNL     1      -9.013 -16.076  30.371  1.00  0.00    -0.347 OA
BRANCH   8   9
ATOM      9  C   UNL     1     -10.377 -16.445  30.658  1.00  0.00     0.281 C 
ATOM     10  C   UNL     1     -11.948 -16.488  27.636  1.00  0.00     0.041 C 
ATOM     11  C   UNL     1     -12.335 -16.359  29.127  1.00  0.00     0.150 C 
ATOM     12  C   UNL     1     -12.887 -17.691  29.667  1.00  0.00     0.174 C 
ATOM     13  O   UNL     1     -11.355 -15.692  29.916  1.00  0.00    -0.344 OA
ATOM     14  C   UNL     1     -12.100 -18.238  30.891  1.00  0.00     0.179 C 
ATOM     15  C   UNL     1     -10.597 -17.971  30.737  1.00  0.00     0.202 C 
BRANCH  12  16
ATOM     16  O   UNL     1     -14.242 -17.528  29.980  1.00  0.00    -0.388 OA
ATOM     17  H   UNL     1     -14.302 -17.334  30.955  1.00  0.00     0.211 HD
ENDBRANCH  12  16
BRANCH  14  18
ATOM     18  O   UNL     1     -12.574 -17.722  32.136  1.00  0.00    -0.387 OA
ATOM     19  H   UNL     1     -12.744 -16.750  32.069  1.00  0.00     0.211 HD
ENDBRANCH  14  18
BRANCH  15  20
ATOM     20  O   UNL     1      -9.945 -18.707  29.699  1.00  0.00    -0.385 OA
ATOM     21  H   UNL     1     -10.198 -18.275  28.814  1.00  0.00     0.211 HD
ENDBRANCH  15  20
ENDBRANCH   8   9
ENDBRANCH   7   8
ENDBRANCH   1   7
BRANCH   2  22
ATOM     22  O   UNL     1      -7.652 -14.050  29.363  1.00  0.00    -0.387 OA
ATOM     23  H   UNL     1      -8.544 -14.531  29.225  1.00  0.00     0.211 HD
ENDBRANCH   2  22
BRANCH   3  24
ATOM     24  O   UNL     1      -6.874 -11.923  32.269  1.00  0.00    -0.387 OA
ATOM     25  H   UNL     1      -6.747 -10.927  32.112  1.00  0.00     0.211 HD
ENDBRANCH   3  24
BRANCH   5  26
ATOM     26  O   UNL     1      -3.628 -15.130  30.270  1.00  0.00    -0.454 OA
BRANCH  26  27
ATOM     27  C   UNL     1      -2.716 -14.939  29.170  1.00  0.00     0.214 A 
ATOM     28  C   UNL     1      -2.594 -13.758  28.411  1.00  0.00     0.180 A 
ATOM     29  C   UNL     1      -1.981 -16.032  28.710  1.00  0.00     0.239 A 
ATOM     30  O   UNL     1      -2.432 -13.882  27.104  1.00  0.00    -0.452 OA
ATOM     31  C   UNL     1      -1.517 -16.050  27.379  1.00  0.00     0.111 A 
ATOM     32  O   UNL     1      -1.862 -17.046  29.441  1.00  0.00    -0.285 OA
ATOM     33  C   UNL     1      -1.977 -15.003  26.543  1.00  0.00     0.146 A 
ATOM     34  C   UNL     1      -0.732 -17.091  26.812  1.00  0.00     0.134 A 
ATOM     35  C   UNL     1      -1.961 -15.150  25.159  1.00  0.00     0.094 A 
ATOM     36  C   UNL     1      -0.679 -17.199  25.421  1.00  0.00     0.093 A 
ATOM     37  C   UNL     1      -1.385 -16.309  24.610  1.00  0.00     0.123 A 
BRANCH  28  38
ATOM     38  C   UNL     1      -2.016 -12.537  29.033  1.00  0.00     0.025 A 
ATOM     39  C   UNL     1      -2.633 -11.339  28.642  1.00  0.00     0.062 A 
ATOM     40  C   UNL     1      -1.102 -12.502  30.097  1.00  0.00     0.016 A 
ATOM     41  C   UNL     1      -2.367 -10.124  29.295  1.00  0.00     0.158 A 
ATOM     42  C   UNL     1      -0.804 -11.280  30.710  1.00  0.00     0.051 A 
ATOM     43  C   UNL     1      -1.405 -10.097  30.285  1.00  0.00     0.157 A 
BRANCH  41  44
ATOM     44  O   UNL     1      -3.008  -8.944  28.930  1.00  0.00    -0.504 OA
ATOM     45  H   UNL     1      -2.995  -8.121  29.558  1.00  0.00     0.293 HD
ENDBRANCH  41  44
BRANCH  43  46
ATOM     46  O   UNL     1      -1.039  -8.909  30.934  1.00  0.00    -0.504 OA
ATOM     47  H   UNL     1      -0.076  -8.731  31.123  1.00  0.00     0.293 HD
ENDBRANCH  43  46
ENDBRANCH  28  38
BRANCH  34  48
ATOM     48  O   UNL     1       0.041 -18.003  27.562  1.00  0.00    -0.507 OA
ATOM     49  H   UNL     1       0.337 -18.902  27.226  1.00  0.00     0.293 HD
ENDBRANCH  34  48
BRANCH  37  50
ATOM     50  O   UNL     1      -1.501 -16.621  23.255  1.00  0.00    -0.508 OA
ATOM     51  H   UNL     1      -1.340 -17.559  22.900  1.00  0.00     0.293 HD
ENDBRANCH  37  50
ENDBRANCH  26  27
ENDBRANCH   5  26
BRANCH   4  52
ATOM     52  O   UNL     1      -4.574 -13.223  32.589  1.00  0.00    -0.384 OA
ATOM     53  H   UNL     1      -3.883 -12.552  32.711  1.00  0.00     0.211 HD
ENDBRANCH   4  52
TORSDOF 16
ENDMDL
MODEL 3
REMARK VINA RESULT:    -8.648      4.720      8.879
REMARK INTER + INTRA:         -16.273
REMARK INTER:                 -14.497
REMARK INTRA:                  -1.776
REMARK UNBOUND:                -2.064
REMARK SMILES C[C@@H]1O[C@H](OC[C@H]2O[C@H](Oc3c(-c4ccc(O)c(O)c4)oc4cc(O)cc(O)c4c3=O)[C@H](O)[C@H](O)[C@H]2O)[C@H](O)[C@@H](O)[C@H]1O
REMARK SMILES IDX 7 1 36 2 34 3 32 4 9 5 8 6 6 7 5 8 4 9 1 10 2 11 42 12 3 13
REMARK SMILES IDX 40 14 38 15 43 16 41 18 39 20 37 22 35 24 10 26 11 27 12 28
REMARK SMILES IDX 30 29 21 30 29 31 31 32 22 33 27 34 23 35 26 36 24 37 13 38
REMARK SMILES IDX 20 39 14 40 18 41 15 42 16 43 19 44 17 46 28 48 25 50 33 52
REMARK H PARENT 43 17 41 19 39 21 37 23 35 25 19 45 17 47 28 49 25 51 33 53
REMARK Flexibility Score: inf
ROOT
ATOM      1  C   UNL     1      -7.253 -15.125  30.461  1.00  0.00     0.180 C 
ATOM      2  C   UNL     1      -7.221 -13.920  31.453  1.00  0.00     0.177 C 
ATOM      3  C   UNL     1      -5.693 -13.716  31.892  1.00  0.00     0.180 C 
ATOM      4  C   UNL     1      -4.686 -14.048  30.729  1.00  0.00     0.214 C 
ATOM      5  C   UNL     1      -5.469 -13.968  29.366  1.00  0.00     0.339 C 
ATOM      6  O   UNL     1      -6.571 -14.878  29.238  1.00  0.00    -0.332 OA
ENDROOT
BRANCH   1   7
ATOM      7  C   UNL     1      -8.705 -15.628  30.203  1.00  0.00     0.198 C 
BRANCH   7   8
ATOM      8  O   UNL     1      -9.030 -16.802  30.941  1.00  0.00    -0.347 OA
BRANCH   8   9
ATOM      9  C   UNL     1     -10.446 -17.034  31.083  1.00  0.00     0.281 C 
ATOM     10  C   UNL     1     -11.742 -16.601  27.962  1.00  0.00     0.041 C 
ATOM     11  C   UNL     1     -12.242 -16.571  29.424  1.00  0.00     0.150 C 
ATOM     12  C   UNL     1     -12.981 -17.874  29.777  1.00  0.00     0.174 C 
ATOM     13  O   UNL     1     -11.268 -16.103  30.352  1.00  0.00    -0.344 OA
ATOM     14  C   UNL     1     -12.368 -18.625  30.993  1.00  0.00     0.179 C 
ATOM     15  C   UNL     1     -10.838 -18.524  30.982  1.00  0.00     0.202 C 
BRANCH  12  16
ATOM     16  O   UNL     1     -14.332 -17.584  30.001  1.00  0.00    -0.388 OA
ATOM     17  H   UNL     1     -14.806 -17.675  29.130  1.00  0.00     0.211 HD
ENDBRANCH  12  16
BRANCH  14  18
ATOM     18  O   UNL     1     -12.890 -18.180  32.246  1.00  0.00    -0.387 OA
ATOM     19  H   UNL     1     -13.721 -18.668  32.471  1.00  0.00     0.211 HD
ENDBRANCH  14  18
BRANCH  15  20
ATOM     20  O   UNL     1     -10.181 -19.228  29.925  1.00  0.00    -0.385 OA
ATOM     21  H   UNL     1      -9.246 -19.461  30.248  1.00  0.00     0.211 HD
ENDBRANCH  15  20
ENDBRANCH   8   9
ENDBRANCH   7   8
ENDBRANCH   1   7
BRANCH   2  22
ATOM     22  O   UNL     1      -7.827 -12.786  30.815  1.00  0.00    -0.387 OA
ATOM     23  H   UNL     1      -7.613 -11.953  31.369  1.00  0.00     0.211 HD
ENDBRANCH   2  22
BRANCH   3  24
ATOM     24  O   UNL     1      -5.447 -14.476  33.064  1.00  0.00    -0.387 OA
ATOM     25  H   UNL     1      -5.398 -15.457  32.803  1.00  0.00     0.211 HD
ENDBRANCH   3  24
BRANCH   5  26
ATOM     26  O   UNL     1      -4.704 -13.968  28.164  1.00  0.00    -0.454 OA
BRANCH  26  27
ATOM     27  C   UNL     1      -3.294 -13.742  27.962  1.00  0.00     0.214 A 
ATOM     28  C   UNL     1      -2.662 -12.482  27.975  1.00  0.00     0.180 A 
ATOM     29  C   UNL     1      -2.488 -14.819  27.590  1.00  0.00     0.239 A 
ATOM     30  O   UNL     1      -1.718 -12.260  27.076  1.00  0.00    -0.452 OA
ATOM     31  C   UNL     1      -1.291 -14.582  26.886  1.00  0.00     0.111 A 
ATOM     32  O   UNL     1      -2.908 -15.990  27.761  1.00  0.00    -0.285 OA
ATOM     33  C   UNL     1      -1.068 -13.249  26.462  1.00  0.00     0.146 A 
ATOM     34  C   UNL     1      -0.377 -15.595  26.485  1.00  0.00     0.134 A 
ATOM     35  C   UNL     1      -0.189 -12.982  25.415  1.00  0.00     0.094 A 
ATOM     36  C   UNL     1       0.537 -15.300  25.471  1.00  0.00     0.093 A 
ATOM     37  C   UNL     1       0.546 -14.045  24.863  1.00  0.00     0.123 A 
BRANCH  28  38
ATOM     38  C   UNL     1      -2.547 -11.728  29.251  1.00  0.00     0.025 A 
ATOM     39  C   UNL     1      -1.472 -12.122  30.063  1.00  0.00     0.062 A 
ATOM     40  C   UNL     1      -3.249 -10.562  29.591  1.00  0.00     0.016 A 
ATOM     41  C   UNL     1      -1.083 -11.375  31.187  1.00  0.00     0.158 A 
ATOM     42  C   UNL     1      -2.889  -9.851  30.741  1.00  0.00     0.051 A 
ATOM     43  C   UNL     1      -1.838 -10.277  31.550  1.00  0.00     0.157 A 
BRANCH  41  44
ATOM     44  O   UNL     1       0.006 -11.747  31.970  1.00  0.00    -0.504 OA
ATOM     45  H   UNL     1       0.212 -12.746  32.143  1.00  0.00     0.293 HD
ENDBRANCH  41  44
BRANCH  43  46
ATOM     46  O   UNL     1      -1.550  -9.523  32.698  1.00  0.00    -0.504 OA
ATOM     47  H   UNL     1      -1.770  -9.897  33.596  1.00  0.00     0.293 HD
ENDBRANCH  43  46
ENDBRANCH  28  38
BRANCH  34  48
ATOM     48  O   UNL     1      -0.296 -16.873  27.078  1.00  0.00    -0.507 OA
ATOM     49  H   UNL     1      -1.064 -17.519  27.136  1.00  0.00     0.293 HD
ENDBRANCH  34  48
BRANCH  37  50
ATOM     50  O   UNL     1       1.295 -13.897  23.696  1.00  0.00    -0.508 OA
ATOM     51  H   UNL     1       1.811 -14.667  23.282  1.00  0.00     0.293 HD
ENDBRANCH  37  50
ENDBRANCH  26  27
ENDBRANCH   5  26
BRANCH   4  52
ATOM     52  O   UNL     1      -4.032 -15.265  30.952  1.00  0.00    -0.384 OA
ATOM     53  H   UNL     1      -3.811 -15.314  31.896  1.00  0.00     0.211 HD
ENDBRANCH   4  52
TORSDOF 16
ENDMDL
MODEL 4
REMARK VINA RESULT:    -8.530      4.965      8.953
REMARK INTER + INTRA:         -16.080
REMARK INTER:                 -14.402
REMARK INTRA:                  -1.679
REMARK UNBOUND:                -2.064
REMARK SMILES C[C@@H]1O[C@H](OC[C@H]2O[C@H](Oc3c(-c4ccc(O)c(O)c4)oc4cc(O)cc(O)c4c3=O)[C@H](O)[C@H](O)[C@H]2O)[C@H](O)[C@@H](O)[C@H]1O
REMARK SMILES IDX 7 1 36 2 34 3 32 4 9 5 8 6 6 7 5 8 4 9 1 10 2 11 42 12 3 13
REMARK SMILES IDX 40 14 38 15 43 16 41 18 39 20 37 22 35 24 10 26 11 27 12 28
REMARK SMILES IDX 30 29 21 30 29 31 31 32 22 33 27 34 23 35 26 36 24 37 13 38
REMARK SMILES IDX 20 39 14 40 18 41 15 42 16 43 19 44 17 46 28 48 25 50 33 52
REMARK H PARENT 43 17 41 19 39 21 37 23 35 25 19 45 17 47 28 49 25 51 33 53
REMARK Flexibility Score: inf
ROOT
ATOM      1  C   UNL     1      -7.023 -15.103  31.493  1.00  0.00     0.180 C 
ATOM      2  C   UNL     1      -7.542 -13.775  30.855  1.00  0.00     0.177 C 
ATOM      3  C   UNL     1      -6.464 -12.639  31.198  1.00  0.00     0.180 C 
ATOM      4  C   UNL     1      -4.993 -13.199  31.225  1.00  0.00     0.214 C 
ATOM      5  C   UNL     1      -4.966 -14.544  30.409  1.00  0.00     0.339 C 
ATOM      6  O   UNL     1      -5.817 -15.583  30.913  1.00  0.00    -0.332 OA
ENDROOT
BRANCH   1   7
ATOM      7  C   UNL     1      -8.120 -16.209  31.505  1.00  0.00     0.198 C 
BRANCH   7   8
ATOM      8  O   UNL     1      -8.986 -16.151  30.376  1.00  0.00    -0.347 OA
BRANCH   8   9
ATOM      9  C   UNL     1     -10.354 -16.504  30.665  1.00  0.00     0.281 C 
ATOM     10  C   UNL     1     -11.888 -16.709  27.631  1.00  0.00     0.041 C 
ATOM     11  C   UNL     1     -12.293 -16.499  29.108  1.00  0.00     0.150 C 
ATOM     12  C   UNL     1     -12.853 -17.800  29.712  1.00  0.00     0.174 C 
ATOM     13  O   UNL     1     -11.322 -15.791  29.872  1.00  0.00    -0.344 OA
ATOM     14  C   UNL     1     -12.081 -18.281  30.973  1.00  0.00     0.179 C 
ATOM     15  C   UNL     1     -10.576 -18.023  30.823  1.00  0.00     0.202 C 
BRANCH  12  16
ATOM     16  O   UNL     1     -14.211 -17.620  29.999  1.00  0.00    -0.388 OA
ATOM     17  H   UNL     1     -14.730 -17.983  29.230  1.00  0.00     0.211 HD
ENDBRANCH  12  16
BRANCH  14  18
ATOM     18  O   UNL     1     -12.570 -17.699  32.183  1.00  0.00    -0.387 OA
ATOM     19  H   UNL     1     -13.477 -17.326  32.050  1.00  0.00     0.211 HD
ENDBRANCH  14  18
BRANCH  15  20
ATOM     20  O   UNL     1      -9.912 -18.814  29.834  1.00  0.00    -0.385 OA
ATOM     21  H   UNL     1     -10.594 -19.469  29.460  1.00  0.00     0.211 HD
ENDBRANCH  15  20
ENDBRANCH   8   9
ENDBRANCH   7   8
ENDBRANCH   1   7
BRANCH   2  22
ATOM     22  O   UNL     1      -7.767 -13.997  29.455  1.00  0.00    -0.387 OA
ATOM     23  H   UNL     1      -7.651 -14.995  29.265  1.00  0.00     0.211 HD
ENDBRANCH   2  22
BRANCH   3  24
ATOM     24  O   UNL     1      -6.832 -12.009  32.414  1.00  0.00    -0.387 OA
ATOM     25  H   UNL     1      -7.807 -11.730  32.346  1.00  0.00     0.211 HD
ENDBRANCH   3  24
BRANCH   5  26
ATOM     26  O   UNL     1      -3.691 -15.087  30.074  1.00  0.00    -0.454 OA
BRANCH  26  27
ATOM     27  C   UNL     1      -2.532 -14.448  29.503  1.00  0.00     0.214 A 
ATOM     28  C   UNL     1      -1.577 -13.702  30.224  1.00  0.00     0.180 A 
ATOM     29  C   UNL     1      -2.387 -14.435  28.116  1.00  0.00     0.239 A 
ATOM     30  O   UNL     1      -1.114 -12.595  29.666  1.00  0.00    -0.452 OA
ATOM     31  C   UNL     1      -1.622 -13.421  27.504  1.00  0.00     0.111 A 
ATOM     32  O   UNL     1      -3.053 -15.240  27.419  1.00  0.00    -0.285 OA
ATOM     33  C   UNL     1      -1.176 -12.378  28.352  1.00  0.00     0.146 A 
ATOM     34  C   UNL     1      -1.378 -13.327  26.107  1.00  0.00     0.134 A 
ATOM     35  C   UNL     1      -0.818 -11.143  27.817  1.00  0.00     0.094 A 
ATOM     36  C   UNL     1      -0.967 -12.097  25.587  1.00  0.00     0.093 A 
ATOM     37  C   UNL     1      -0.807 -10.990  26.421  1.00  0.00     0.123 A 
BRANCH  28  38
ATOM     38  C   UNL     1      -0.665 -14.392  31.174  1.00  0.00     0.025 A 
ATOM     39  C   UNL     1      -0.206 -13.585  32.226  1.00  0.00     0.062 A 
ATOM     40  C   UNL     1      -0.417 -15.771  31.232  1.00  0.00     0.016 A 
ATOM     41  C   UNL     1       0.476 -14.127  33.329  1.00  0.00     0.158 A 
ATOM     42  C   UNL     1       0.307 -16.297  32.307  1.00  0.00     0.051 A 
ATOM     43  C   UNL     1       0.780 -15.474  33.327  1.00  0.00     0.157 A 
BRANCH  41  44
ATOM     44  O   UNL     1       0.898 -13.330  34.389  1.00  0.00    -0.504 OA
ATOM     45  H   UNL     1       1.896 -13.302  34.662  1.00  0.00     0.293 HD
ENDBRANCH  41  44
BRANCH  43  46
ATOM     46  O   UNL     1       1.517 -16.071  34.360  1.00  0.00    -0.504 OA
ATOM     47  H   UNL     1       1.162 -16.890  34.804  1.00  0.00     0.293 HD
ENDBRANCH  43  46
ENDBRANCH  28  38
BRANCH  34  48
ATOM     48  O   UNL     1      -1.478 -14.409  25.207  1.00  0.00    -0.507 OA
ATOM     49  H   UNL     1      -1.503 -15.374  25.485  1.00  0.00     0.293 HD
ENDBRANCH  34  48
BRANCH  37  50
ATOM     50  O   UNL     1      -0.649  -9.743  25.815  1.00  0.00    -0.508 OA
ATOM     51  H   UNL     1      -0.211  -8.961  26.291  1.00  0.00     0.293 HD
ENDBRANCH  37  50
ENDBRANCH  26  27
ENDBRANCH   5  26
BRANCH   4  52
ATOM     52  O   UNL     1      -4.511 -13.304  32.535  1.00  0.00    -0.384 OA
ATOM     53  H   UNL     1      -4.526 -12.417  32.929  1.00  0.00     0.211 HD
ENDBRANCH   4  52
TORSDOF 16
ENDMDL
MODEL 5
REMARK VINA RESULT:    -8.522      2.406      8.273
REMARK INTER + INTRA:         -16.066
REMARK INTER:                 -13.342
REMARK INTRA:                  -2.724
REMARK UNBOUND:                -2.064
REMARK SMILES C[C@@H]1O[C@H](OC[C@H]2O[C@H](Oc3c(-c4ccc(O)c(O)c4)oc4cc(O)cc(O)c4c3=O)[C@H](O)[C@H](O)[C@H]2O)[C@H](O)[C@@H](O)[C@H]1O
REMARK SMILES IDX 7 1 36 2 34 3 32 4 9 5 8 6 6 7 5 8 4 9 1 10 2 11 42 12 3 13
REMARK SMILES IDX 40 14 38 15 43 16 41 18 39 20 37 22 35 24 10 26 11 27 12 28
REMARK SMILES IDX 30 29 21 30 29 31 31 32 22 33 27 34 23 35 26 36 24 37 13 38
REMARK SMILES IDX 20 39 14 40 18 41 15 42 16 43 19 44 17 46 28 48 25 50 33 52
REMARK H PARENT 43 17 41 19 39 21 37 23 35 25 19 45 17 47 28 49 25 51 33 53
REMARK Flexibility Score: inf
ROOT
ATOM      1  C   UNL     1      -1.495 -18.114  26.056  1.00  0.00     0.180 C 
ATOM      2  C   UNL     1      -0.613 -17.925  24.782  1.00  0.00     0.177 C 
ATOM      3  C   UNL     1      -0.802 -16.407  24.304  1.00  0.00     0.180 C 
ATOM      4  C   UNL     1      -0.992 -15.418  25.514  1.00  0.00     0.214 C 
ATOM      5  C   UNL     1      -0.425 -16.112  26.808  1.00  0.00     0.339 C 
ATOM      6  O   UNL     1      -1.063 -17.344  27.171  1.00  0.00    -0.332 OA
ENDROOT
BRANCH   1   7
ATOM      7  C   UNL     1      -1.651 -19.617  26.439  1.00  0.00     0.198 C 
BRANCH   7   8
ATOM      8  O   UNL     1      -0.796 -20.014  27.507  1.00  0.00    -0.347 OA
BRANCH   8   9
ATOM      9  C   UNL     1      -1.490 -20.581  28.636  1.00  0.00     0.281 C 
ATOM     10  C   UNL     1      -0.094 -23.653  29.096  1.00  0.00     0.041 C 
ATOM     11  C   UNL     1      -1.411 -22.928  29.455  1.00  0.00     0.150 C 
ATOM     12  C   UNL     1      -1.403 -22.474  30.926  1.00  0.00     0.174 C 
ATOM     13  O   UNL     1      -1.821 -21.974  28.481  1.00  0.00    -0.344 OA
ATOM     14  C   UNL     1      -1.612 -20.944  31.104  1.00  0.00     0.179 C 
ATOM     15  C   UNL     1      -0.893 -20.162  29.997  1.00  0.00     0.202 C 
BRANCH  12  16
ATOM     16  O   UNL     1      -2.377 -23.194  31.628  1.00  0.00    -0.388 OA
ATOM     17  H   UNL     1      -2.786 -23.842  30.992  1.00  0.00     0.211 HD
ENDBRANCH  12  16
BRANCH  14  18
ATOM     18  O   UNL     1      -2.990 -20.571  31.164  1.00  0.00    -0.387 OA
ATOM     19  H   UNL     1      -3.556 -21.358  31.361  1.00  0.00     0.211 HD
ENDBRANCH  14  18
BRANCH  15  20
ATOM     20  O   UNL     1       0.536 -20.204  30.043  1.00  0.00    -0.385 OA
ATOM     21  H   UNL     1       0.869 -19.244  30.039  1.00  0.00     0.211 HD
ENDBRANCH  15  20
ENDBRANCH   8   9
ENDBRANCH   7   8
ENDBRANCH   1   7
BRANCH   2  22
ATOM     22  O   UNL     1       0.735 -18.300  25.099  1.00  0.00    -0.387 OA
ATOM     23  H   UNL     1       1.333 -18.049  24.308  1.00  0.00     0.211 HD
ENDBRANCH   2  22
BRANCH   3  24
ATOM     24  O   UNL     1      -1.871 -16.348  23.374  1.00  0.00    -0.387 OA
ATOM     25  H   UNL     1      -2.684 -16.787  23.796  1.00  0.00     0.211 HD
ENDBRANCH   3  24
BRANCH   5  26
ATOM     26  O   UNL     1      -0.248 -15.302  27.967  1.00  0.00    -0.454 OA
BRANCH  26  27
ATOM     27  C   UNL     1      -1.222 -14.797  28.902  1.00  0.00     0.214 A 
ATOM     28  C   UNL     1      -1.690 -15.484  30.041  1.00  0.00     0.180 A 
ATOM     29  C   UNL     1      -1.869 -13.595  28.614  1.00  0.00     0.239 A 
ATOM     30  O   UNL     1      -2.980 -15.399  30.322  1.00  0.00    -0.452 OA
ATOM     31  C   UNL     1      -3.141 -13.338  29.166  1.00  0.00     0.111 A 
ATOM     32  O   UNL     1      -1.377 -12.820  27.756  1.00  0.00    -0.285 OA
ATOM     33  C   UNL     1      -3.748 -14.411  29.862  1.00  0.00     0.146 A 
ATOM     34  C   UNL     1      -3.878 -12.138  28.969  1.00  0.00     0.134 A 
ATOM     35  C   UNL     1      -5.127 -14.434  30.053  1.00  0.00     0.094 A 
ATOM     36  C   UNL     1      -5.252 -12.156  29.215  1.00  0.00     0.093 A 
ATOM     37  C   UNL     1      -5.884 -13.327  29.636  1.00  0.00     0.123 A 
BRANCH  28  38
ATOM     38  C   UNL     1      -0.778 -15.710  31.193  1.00  0.00     0.025 A 
ATOM     39  C   UNL     1      -0.094 -16.936  31.159  1.00  0.00     0.062 A 
ATOM     40  C   UNL     1      -0.390 -14.755  32.144  1.00  0.00     0.016 A 
ATOM     41  C   UNL     1       0.965 -17.215  32.039  1.00  0.00     0.158 A 
ATOM     42  C   UNL     1       0.631 -15.060  33.051  1.00  0.00     0.051 A 
ATOM     43  C   UNL     1       1.276 -16.294  33.020  1.00  0.00     0.157 A 
BRANCH  41  44
ATOM     44  O   UNL     1       1.665 -18.416  31.980  1.00  0.00    -0.504 OA
ATOM     45  H   UNL     1       1.219 -19.301  32.278  1.00  0.00     0.293 HD
ENDBRANCH  41  44
BRANCH  43  46
ATOM     46  O   UNL     1       2.274 -16.534  33.975  1.00  0.00    -0.504 OA
ATOM     47  H   UNL     1       3.225 -16.334  33.750  1.00  0.00     0.293 HD
ENDBRANCH  43  46
ENDBRANCH  28  38
BRANCH  34  48
ATOM     48  O   UNL     1      -3.305 -10.906  28.585  1.00  0.00    -0.507 OA
ATOM     49  H   UNL     1      -3.262 -10.095  29.176  1.00  0.00     0.293 HD
ENDBRANCH  34  48
BRANCH  37  50
ATOM     50  O   UNL     1      -7.279 -13.351  29.614  1.00  0.00    -0.508 OA
ATOM     51  H   UNL     1      -7.827 -13.701  30.394  1.00  0.00     0.293 HD
ENDBRANCH  37  50
ENDBRANCH  26  27
ENDBRANCH   5  26
BRANCH   4  52
ATOM     52  O   UNL     1      -2.321 -14.990  25.619  1.00  0.00    -0.384 OA
ATOM     53  H   UNL     1      -2.513 -14.429  24.850  1.00  0.00     0.211 HD
ENDBRANCH   4  52
TORSDOF 16
ENDMDL
MODEL 6
REMARK VINA RESULT:    -8.393      1.594      1.979
REMARK INTER + INTRA:         -15.855
REMARK INTER:                 -13.842
REMARK INTRA:                  -2.013
REMARK UNBOUND:                -2.064
REMARK SMILES C[C@@H]1O[C@H](OC[C@H]2O[C@H](Oc3c(-c4ccc(O)c(O)c4)oc4cc(O)cc(O)c4c3=O)[C@H](O)[C@H](O)[C@H]2O)[C@H](O)[C@@H](O)[C@H]1O
REMARK SMILES IDX 7 1 36 2 34 3 32 4 9 5 8 6 6 7 5 8 4 9 1 10 2 11 42 12 3 13
REMARK SMILES IDX 40 14 38 15 43 16 41 18 39 20 37 22 35 24 10 26 11 27 12 28
REMARK SMILES IDX 30 29 21 30 29 31 31 32 22 33 27 34 23 35 26 36 24 37 13 38
REMARK SMILES IDX 20 39 14 40 18 41 15 42 16 43 19 44 17 46 28 48 25 50 33 52
REMARK H PARENT 43 17 41 19 39 21 37 23 35 25 19 45 17 47 28 49 25 51 33 53
REMARK Flexibility Score: inf
ROOT
ATOM      1  C   UNL     1      -1.504 -15.351  26.851  1.00  0.00     0.180 C 
ATOM      2  C   UNL     1      -0.831 -15.358  25.442  1.00  0.00     0.177 C 
ATOM      3  C   UNL     1       0.345 -16.447  25.490  1.00  0.00     0.180 C 
ATOM      4  C   UNL     1      -0.015 -17.676  26.405  1.00  0.00     0.214 C 
ATOM      5  C   UNL     1      -1.580 -17.725  26.566  1.00  0.00     0.339 C 
ATOM      6  O   UNL     1      -2.169 -16.565  27.173  1.00  0.00    -0.332 OA
ENDROOT
BRANCH   1   7
ATOM      7  C   UNL     1      -2.448 -14.126  27.038  1.00  0.00     0.198 C 
BRANCH   7   8
ATOM      8  O   UNL     1      -3.816 -14.493  27.197  1.00  0.00    -0.347 OA
BRANCH   8   9
ATOM      9  C   UNL     1      -4.272 -14.484  28.564  1.00  0.00     0.281 C 
ATOM     10  C   UNL     1      -3.474 -11.394  29.755  1.00  0.00     0.041 C 
ATOM     11  C   UNL     1      -3.782 -12.797  30.325  1.00  0.00     0.150 C 
ATOM     12  C   UNL     1      -5.222 -12.863  30.868  1.00  0.00     0.174 C 
ATOM     13  O   UNL     1      -3.354 -13.863  29.484  1.00  0.00    -0.344 OA
ATOM     14  C   UNL     1      -6.083 -13.976  30.207  1.00  0.00     0.179 C 
ATOM     15  C   UNL     1      -5.760 -14.100  28.712  1.00  0.00     0.202 C 
BRANCH  12  16
ATOM     16  O   UNL     1      -5.176 -13.030  32.257  1.00  0.00    -0.388 OA
ATOM     17  H   UNL     1      -4.539 -13.772  32.448  1.00  0.00     0.211 HD
ENDBRANCH  12  16
BRANCH  14  18
ATOM     18  O   UNL     1      -5.953 -15.243  30.854  1.00  0.00    -0.387 OA
ATOM     19  H   UNL     1      -5.629 -15.928  30.218  1.00  0.00     0.211 HD
ENDBRANCH  14  18
BRANCH  15  20
ATOM     20  O   UNL     1      -6.159 -12.991  27.902  1.00  0.00    -0.385 OA
ATOM     21  H   UNL     1      -5.649 -12.176  28.230  1.00  0.00     0.211 HD
ENDBRANCH  15  20
ENDBRANCH   8   9
ENDBRANCH   7   8
ENDBRANCH   1   7
BRANCH   2  22
ATOM     22  O   UNL     1      -1.842 -15.599  24.452  1.00  0.00    -0.387 OA
ATOM     23  H   UNL     1      -1.380 -15.767  23.555  1.00  0.00     0.211 HD
ENDBRANCH   2  22
BRANCH   3  24
ATOM     24  O   UNL     1       1.548 -15.806  25.882  1.00  0.00    -0.387 OA
ATOM     25  H   UNL     1       2.322 -16.435  25.690  1.00  0.00     0.211 HD
ENDBRANCH   3  24
BRANCH   5  26
ATOM     26  O   UNL     1      -2.149 -18.904  27.129  1.00  0.00    -0.454 OA
BRANCH  26  27
ATOM     27  C   UNL     1      -1.507 -20.066  27.692  1.00  0.00     0.214 A 
ATOM     28  C   UNL     1      -1.261 -21.272  27.004  1.00  0.00     0.180 A 
ATOM     29  C   UNL     1      -1.217 -20.078  29.056  1.00  0.00     0.239 A 
ATOM     30  O   UNL     1      -1.452 -22.403  27.662  1.00  0.00    -0.452 OA
ATOM     31  C   UNL     1      -1.104 -21.308  29.734  1.00  0.00     0.111 A 
ATOM     32  O   UNL     1      -1.200 -18.995  29.692  1.00  0.00    -0.285 OA
ATOM     33  C   UNL     1      -1.456 -22.464  28.994  1.00  0.00     0.146 A 
ATOM     34  C   UNL     1      -0.779 -21.444  31.111  1.00  0.00     0.134 A 
ATOM     35  C   UNL     1      -1.808 -23.639  29.652  1.00  0.00     0.094 A 
ATOM     36  C   UNL     1      -1.088 -22.646  31.750  1.00  0.00     0.093 A 
ATOM     37  C   UNL     1      -1.705 -23.685  31.053  1.00  0.00     0.123 A 
BRANCH  28  38
ATOM     38  C   UNL     1      -0.251 -21.306  25.913  1.00  0.00     0.025 A 
ATOM     39  C   UNL     1       0.821 -22.181  26.144  1.00  0.00     0.062 A 
ATOM     40  C   UNL     1      -0.388 -20.739  24.638  1.00  0.00     0.016 A 
ATOM     41  C   UNL     1       1.741 -22.506  25.132  1.00  0.00     0.158 A 
ATOM     42  C   UNL     1       0.560 -21.026  23.650  1.00  0.00     0.051 A 
ATOM     43  C   UNL     1       1.634 -21.874  23.909  1.00  0.00     0.157 A 
BRANCH  41  44
ATOM     44  O   UNL     1       2.782 -23.402  25.353  1.00  0.00    -0.504 OA
ATOM     45  H   UNL     1       3.084 -24.053  24.606  1.00  0.00     0.293 HD
ENDBRANCH  41  44
BRANCH  43  46
ATOM     46  O   UNL     1       2.556 -22.096  22.875  1.00  0.00    -0.504 OA
ATOM     47  H   UNL     1       2.370 -22.804  22.199  1.00  0.00     0.293 HD
ENDBRANCH  43  46
ENDBRANCH  28  38
BRANCH  34  48
ATOM     48  O   UNL     1      -0.118 -20.456  31.874  1.00  0.00    -0.507 OA
ATOM     49  H   UNL     1       0.102 -19.536  31.537  1.00  0.00     0.293 HD
ENDBRANCH  34  48
BRANCH  37  50
ATOM     50  O   UNL     1      -2.217 -24.748  31.797  1.00  0.00    -0.508 OA
ATOM     51  H   UNL     1      -1.679 -25.210  32.524  1.00  0.00     0.293 HD
ENDBRANCH  37  50
ENDBRANCH  26  27
ENDBRANCH   5  26
BRANCH   4  52
ATOM     52  O   UNL     1       0.692 -17.638  27.613  1.00  0.00    -0.384 OA
ATOM     53  H   UNL     1       0.093 -17.935  28.316  1.00  0.00     0.211 HD
ENDBRANCH   4  52
TORSDOF 16
ENDMDL
MODEL 7
REMARK VINA RESULT:    -8.386      2.509      9.590
REMARK INTER + INTRA:         -15.843
REMARK INTER:                 -13.866
REMARK INTRA:                  -1.977
REMARK UNBOUND:                -2.064
REMARK SMILES C[C@@H]1O[C@H](OC[C@H]2O[C@H](Oc3c(-c4ccc(O)c(O)c4)oc4cc(O)cc(O)c4c3=O)[C@H](O)[C@H](O)[C@H]2O)[C@H](O)[C@@H](O)[C@H]1O
REMARK SMILES IDX 7 1 36 2 34 3 32 4 9 5 8 6 6 7 5 8 4 9 1 10 2 11 42 12 3 13
REMARK SMILES IDX 40 14 38 15 43 16 41 18 39 20 37 22 35 24 10 26 11 27 12 28
REMARK SMILES IDX 30 29 21 30 29 31 31 32 22 33 27 34 23 35 26 36 24 37 13 38
REMARK SMILES IDX 20 39 14 40 18 41 15 42 16 43 19 44 17 46 28 48 25 50 33 52
REMARK H PARENT 43 17 41 19 39 21 37 23 35 25 19 45 17 47 28 49 25 51 33 53
REMARK Flexibility Score: inf
ROOT
ATOM      1  C   UNL     1      -1.196 -18.307  27.908  1.00  0.00     0.180 C 
ATOM      2  C   UNL     1      -1.242 -19.226  29.169  1.00  0.00     0.177 C 
ATOM      3  C   UNL     1      -0.247 -18.584  30.251  1.00  0.00     0.180 C 
ATOM      4  C   UNL     1      -0.231 -17.012  30.190  1.00  0.00     0.214 C 
ATOM      5  C   UNL     1      -1.549 -16.535  29.474  1.00  0.00     0.339 C 
ATOM      6  O   UNL     1      -1.720 -17.004  28.129  1.00  0.00    -0.332 OA
ENDROOT
BRANCH   1   7
ATOM      7  C   UNL     1      -1.869 -18.980  26.674  1.00  0.00     0.198 C 
BRANCH   7   8
ATOM      8  O   UNL     1      -1.817 -20.403  26.715  1.00  0.00    -0.347 OA
BRANCH   8   9
ATOM      9  C   UNL     1      -1.091 -20.996  25.619  1.00  0.00     0.281 C 
ATOM     10  C   UNL     1       1.474 -18.849  24.977  1.00  0.00     0.041 C 
ATOM     11  C   UNL     1       0.698 -19.960  24.235  1.00  0.00     0.150 C 
ATOM     12  C   UNL     1       1.509 -21.268  24.205  1.00  0.00     0.174 C 
ATOM     13  O   UNL     1      -0.672 -20.052  24.615  1.00  0.00    -0.344 OA
ATOM     14  C   UNL     1       0.764 -22.476  24.840  1.00  0.00     0.179 C 
ATOM     15  C   UNL     1      -0.041 -22.035  26.070  1.00  0.00     0.202 C 
BRANCH  12  16
ATOM     16  O   UNL     1       1.870 -21.548  22.881  1.00  0.00    -0.388 OA
ATOM     17  H   UNL     1       1.563 -22.474  22.677  1.00  0.00     0.211 HD
ENDBRANCH  12  16
BRANCH  14  18
ATOM     18  O   UNL     1      -0.077 -23.165  23.913  1.00  0.00    -0.387 OA
ATOM     19  H   UNL     1      -0.911 -22.657  23.754  1.00  0.00     0.211 HD
ENDBRANCH  14  18
BRANCH  15  20
ATOM     20  O   UNL     1       0.735 -21.625  27.199  1.00  0.00    -0.385 OA
ATOM     21  H   UNL     1       0.433 -20.688  27.452  1.00  0.00     0.211 HD
ENDBRANCH  15  20
ENDBRANCH   8   9
ENDBRANCH   7   8
ENDBRANCH   1   7
BRANCH   2  22
ATOM     22  O   UNL     1      -2.606 -19.350  29.597  1.00  0.00    -0.387 OA
ATOM     23  H   UNL     1      -3.146 -18.589  29.176  1.00  0.00     0.211 HD
ENDBRANCH   2  22
BRANCH   3  24
ATOM     24  O   UNL     1       1.041 -19.153  30.084  1.00  0.00    -0.387 OA
ATOM     25  H   UNL     1       1.657 -18.760  30.790  1.00  0.00     0.211 HD
ENDBRANCH   3  24
BRANCH   5  26
ATOM     26  O   UNL     1      -1.875 -15.149  29.545  1.00  0.00    -0.454 OA
BRANCH  26  27
ATOM     27  C   UNL     1      -3.126 -14.506  29.858  1.00  0.00     0.214 A 
ATOM     28  C   UNL     1      -3.518 -14.066  31.139  1.00  0.00     0.180 A 
ATOM     29  C   UNL     1      -4.102 -14.417  28.864  1.00  0.00     0.239 A 
ATOM     30  O   UNL     1      -4.777 -14.260  31.496  1.00  0.00    -0.452 OA
ATOM     31  C   UNL     1      -5.459 -14.306  29.228  1.00  0.00     0.111 A 
ATOM     32  O   UNL     1      -3.774 -14.580  27.663  1.00  0.00    -0.285 OA
ATOM     33  C   UNL     1      -5.750 -14.453  30.606  1.00  0.00     0.146 A 
ATOM     34  C   UNL     1      -6.533 -14.176  28.306  1.00  0.00     0.134 A 
ATOM     35  C   UNL     1      -7.033 -14.803  31.020  1.00  0.00     0.094 A 
ATOM     36  C   UNL     1      -7.824 -14.477  28.745  1.00  0.00     0.093 A 
ATOM     37  C   UNL     1      -8.050 -14.901  30.055  1.00  0.00     0.123 A 
BRANCH  28  38
ATOM     38  C   UNL     1      -2.826 -12.909  31.765  1.00  0.00     0.025 A 
ATOM     39  C   UNL     1      -1.677 -13.246  32.497  1.00  0.00     0.062 A 
ATOM     40  C   UNL     1      -3.082 -11.553  31.512  1.00  0.00     0.016 A 
ATOM     41  C   UNL     1      -0.783 -12.268  32.962  1.00  0.00     0.158 A 
ATOM     42  C   UNL     1      -2.216 -10.581  32.022  1.00  0.00     0.051 A 
ATOM     43  C   UNL     1      -1.097 -10.936  32.772  1.00  0.00     0.157 A 
BRANCH  41  44
ATOM     44  O   UNL     1       0.375 -12.607  33.655  1.00  0.00    -0.504 OA
ATOM     45  H   UNL     1       0.918 -13.448  33.394  1.00  0.00     0.293 HD
ENDBRANCH  41  44
BRANCH  43  46
ATOM     46  O   UNL     1      -0.287  -9.904  33.269  1.00  0.00    -0.504 OA
ATOM     47  H   UNL     1      -0.612  -9.353  34.033  1.00  0.00     0.293 HD
ENDBRANCH  43  46
ENDBRANCH  28  38
BRANCH  34  48
ATOM     48  O   UNL     1      -6.391 -13.714  26.979  1.00  0.00    -0.507 OA
ATOM     49  H   UNL     1      -6.023 -14.267  26.225  1.00  0.00     0.293 HD
ENDBRANCH  34  48
BRANCH  37  50
ATOM     50  O   UNL     1      -9.306 -15.430  30.355  1.00  0.00    -0.508 OA
ATOM     51  H   UNL     1     -10.144 -15.151  29.856  1.00  0.00     0.293 HD
ENDBRANCH  37  50
ENDBRANCH  26  27
ENDBRANCH   5  26
BRANCH   4  52
ATOM     52  O   UNL     1       0.950 -16.536  29.607  1.00  0.00    -0.384 OA
ATOM     53  H   UNL     1       0.856 -15.578  29.486  1.00  0.00     0.211 HD
ENDBRANCH   4  52
TORSDOF 16
ENDMDL
MODEL 8
REMARK VINA RESULT:    -8.381      2.281      8.365
REMARK INTER + INTRA:         -15.836
REMARK INTER:                 -13.803
REMARK INTRA:                  -2.033
REMARK UNBOUND:                -2.064
REMARK SMILES C[C@@H]1O[C@H](OC[C@H]2O[C@H](Oc3c(-c4ccc(O)c(O)c4)oc4cc(O)cc(O)c4c3=O)[C@H](O)[C@H](O)[C@H]2O)[C@H](O)[C@@H](O)[C@H]1O
REMARK SMILES IDX 7 1 36 2 34 3 32 4 9 5 8 6 6 7 5 8 4 9 1 10 2 11 42 12 3 13
REMARK SMILES IDX 40 14 38 15 43 16 41 18 39 20 37 22 35 24 10 26 11 27 12 28
REMARK SMILES IDX 30 29 21 30 29 31 31 32 22 33 27 34 23 35 26 36 24 37 13 38
REMARK SMILES IDX 20 39 14 40 18 41 15 42 16 43 19 44 17 46 28 48 25 50 33 52
REMARK H PARENT 43 17 41 19 39 21 37 23 35 25 19 45 17 47 28 49 25 51 33 53
REMARK Flexibility Score: inf
ROOT
ATOM      1  C   UNL     1      -1.307 -17.764  25.972  1.00  0.00     0.180 C 
ATOM      2  C   UNL     1       0.119 -17.131  26.019  1.00  0.00     0.177 C 
ATOM      3  C   UNL     1      -0.054 -15.565  25.718  1.00  0.00     0.180 C 
ATOM      4  C   UNL     1      -1.397 -14.989  26.303  1.00  0.00     0.214 C 
ATOM      5  C   UNL     1      -1.899 -15.964  27.432  1.00  0.00     0.339 C 
ATOM      6  O   UNL     1      -2.171 -17.307  27.004  1.00  0.00    -0.332 OA
ENDROOT
BRANCH   1   7
ATOM      7  C   UNL     1      -1.251 -19.321  25.936  1.00  0.00     0.198 C 
BRANCH   7   8
ATOM      8  O   UNL     1      -0.448 -19.876  26.973  1.00  0.00    -0.347 OA
BRANCH   8   9
ATOM      9  C   UNL     1      -1.203 -20.384  28.092  1.00  0.00     0.281 C 
ATOM     10  C   UNL     1       0.542 -23.093  29.195  1.00  0.00     0.041 C 
ATOM     11  C   UNL     1      -0.902 -22.549  29.280  1.00  0.00     0.150 C 
ATOM     12  C   UNL     1      -1.162 -21.897  30.650  1.00  0.00     0.174 C 
ATOM     13  O   UNL     1      -1.307 -21.820  28.125  1.00  0.00    -0.344 OA
ATOM     14  C   UNL     1      -1.611 -20.411  30.556  1.00  0.00     0.179 C 
ATOM     15  C   UNL     1      -0.865 -19.687  29.428  1.00  0.00     0.202 C 
BRANCH  12  16
ATOM     16  O   UNL     1      -2.110 -22.659  31.343  1.00  0.00    -0.388 OA
ATOM     17  H   UNL     1      -1.774 -22.781  32.273  1.00  0.00     0.211 HD
ENDBRANCH  12  16
BRANCH  14  18
ATOM     18  O   UNL     1      -3.023 -20.263  30.398  1.00  0.00    -0.387 OA
ATOM     19  H   UNL     1      -3.228 -19.684  29.622  1.00  0.00     0.211 HD
ENDBRANCH  14  18
BRANCH  15  20
ATOM     20  O   UNL     1       0.535 -19.489  29.643  1.00  0.00    -0.385 OA
ATOM     21  H   UNL     1       0.654 -19.178  30.603  1.00  0.00     0.211 HD
ENDBRANCH  15  20
ENDBRANCH   8   9
ENDBRANCH   7   8
ENDBRANCH   1   7
BRANCH   2  22
ATOM     22  O   UNL     1       0.718 -17.443  27.285  1.00  0.00    -0.387 OA
ATOM     23  H   UNL     1       1.236 -16.622  27.608  1.00  0.00     0.211 HD
ENDBRANCH   2  22
BRANCH   3  24
ATOM     24  O   UNL     1       0.074 -15.349  24.323  1.00  0.00    -0.387 OA
ATOM     25  H   UNL     1      -0.603 -14.643  24.046  1.00  0.00     0.211 HD
ENDBRANCH   3  24
BRANCH   5  26
ATOM     26  O   UNL     1      -2.949 -15.507  28.280  1.00  0.00    -0.454 OA
BRANCH  26  27
ATOM     27  C   UNL     1      -2.886 -14.858  29.565  1.00  0.00     0.214 A 
ATOM     28  C   UNL     1      -3.736 -13.818  29.994  1.00  0.00     0.180 A 
ATOM     29  C   UNL     1      -1.830 -15.168  30.423  1.00  0.00     0.239 A 
ATOM     30  O   UNL     1      -3.194 -12.827  30.682  1.00  0.00    -0.452 OA
ATOM     31  C   UNL     1      -1.425 -14.232  31.396  1.00  0.00     0.111 A 
ATOM     32  O   UNL     1      -1.164 -16.214  30.226  1.00  0.00    -0.285 OA
ATOM     33  C   UNL     1      -2.033 -12.955  31.326  1.00  0.00     0.146 A 
ATOM     34  C   UNL     1      -0.388 -14.451  32.343  1.00  0.00     0.134 A 
ATOM     35  C   UNL     1      -1.420 -11.851  31.913  1.00  0.00     0.094 A 
ATOM     36  C   UNL     1       0.185 -13.341  32.967  1.00  0.00     0.093 A 
ATOM     37  C   UNL     1      -0.248 -12.050  32.662  1.00  0.00     0.123 A 
BRANCH  28  38
ATOM     38  C   UNL     1      -5.170 -14.101  30.265  1.00  0.00     0.025 A 
ATOM     39  C   UNL     1      -5.984 -14.117  29.121  1.00  0.00     0.062 A 
ATOM     40  C   UNL     1      -5.712 -14.554  31.477  1.00  0.00     0.016 A 
ATOM     41  C   UNL     1      -7.308 -14.585  29.164  1.00  0.00     0.158 A 
ATOM     42  C   UNL     1      -7.047 -14.970  31.522  1.00  0.00     0.051 A 
ATOM     43  C   UNL     1      -7.846 -14.950  30.382  1.00  0.00     0.157 A 
BRANCH  41  44
ATOM     44  O   UNL     1      -8.101 -14.635  28.021  1.00  0.00    -0.504 OA
ATOM     45  H   UNL     1      -8.655 -15.481  27.801  1.00  0.00     0.293 HD
ENDBRANCH  41  44
BRANCH  43  46
ATOM     46  O   UNL     1      -9.181 -15.361  30.512  1.00  0.00    -0.504 OA
ATOM     47  H   UNL     1      -9.909 -14.682  30.465  1.00  0.00     0.293 HD
ENDBRANCH  43  46
ENDBRANCH  28  38
BRANCH  34  48
ATOM     48  O   UNL     1       0.076 -15.725  32.735  1.00  0.00    -0.507 OA
ATOM     49  H   UNL     1       0.962 -16.113  32.460  1.00  0.00     0.293 HD
ENDBRANCH  34  48
BRANCH  37  50
ATOM     50  O   UNL     1       0.529 -10.984  33.117  1.00  0.00    -0.508 OA
ATOM     51  H   UNL     1       0.258 -10.419  33.916  1.00  0.00     0.293 HD
ENDBRANCH  37  50
ENDBRANCH  26  27
ENDBRANCH   5  26
BRANCH   4  52
ATOM     52  O   UNL     1      -2.331 -14.745  25.289  1.00  0.00    -0.384 OA
ATOM     53  H   UNL     1      -1.894 -14.909  24.438  1.00  0.00     0.211 HD
ENDBRANCH   4  52
TORSDOF 16
ENDMDL
MODEL 9
REMARK VINA RESULT:    -8.299      2.738      9.594
REMARK INTER + INTRA:         -15.701
REMARK INTER:                 -13.251
REMARK INTRA:                  -2.449
REMARK UNBOUND:                -2.064
REMARK SMILES C[C@@H]1O[C@H](OC[C@H]2O[C@H](Oc3c(-c4ccc(O)c(O)c4)oc4cc(O)cc(O)c4c3=O)[C@H](O)[C@H](O)[C@H]2O)[C@H](O)[C@@H](O)[C@H]1O
REMARK SMILES IDX 7 1 36 2 34 3 32 4 9 5 8 6 6 7 5 8 4 9 1 10 2 11 42 12 3 13
REMARK SMILES IDX 40 14 38 15 43 16 41 18 39 20 37 22 35 24 10 26 11 27 12 28
REMARK SMILES IDX 30 29 21 30 29 31 31 32 22 33 27 34 23 35 26 36 24 37 13 38
REMARK SMILES IDX 20 39 14 40 18 41 15 42 16 43 19 44 17 46 28 48 25 50 33 52
REMARK H PARENT 43 17 41 19 39 21 37 23 35 25 19 45 17 47 28 49 25 51 33 53
REMARK Flexibility Score: inf
ROOT
ATOM      1  C   UNL     1      -0.114 -17.427  27.113  1.00  0.00     0.180 C 
ATOM      2  C   UNL     1      -1.318 -18.141  26.421  1.00  0.00     0.177 C 
ATOM      3  C   UNL     1      -2.573 -18.004  27.410  1.00  0.00     0.180 C 
ATOM      4  C   UNL     1      -2.568 -16.642  28.198  1.00  0.00     0.214 C 
ATOM      5  C   UNL     1      -1.657 -15.625  27.414  1.00  0.00     0.339 C 
ATOM      6  O   UNL     1      -0.288 -16.024  27.260  1.00  0.00    -0.332 OA
ENDROOT
BRANCH   1   7
ATOM      7  C   UNL     1       1.238 -17.755  26.410  1.00  0.00     0.198 C 
BRANCH   7   8
ATOM      8  O   UNL     1       1.078 -18.179  25.059  1.00  0.00    -0.347 OA
BRANCH   8   9
ATOM      9  C   UNL     1       1.564 -19.512  24.800  1.00  0.00     0.281 C 
ATOM     10  C   UNL     1      -0.219 -21.536  26.881  1.00  0.00     0.041 C 
ATOM     11  C   UNL     1       1.120 -21.579  26.110  1.00  0.00     0.150 C 
ATOM     12  C   UNL     1       0.989 -22.428  24.832  1.00  0.00     0.174 C 
ATOM     13  O   UNL     1       1.750 -20.308  25.986  1.00  0.00    -0.344 OA
ATOM     14  C   UNL     1       1.349 -21.653  23.533  1.00  0.00     0.179 C 
ATOM     15  C   UNL     1       0.860 -20.201  23.611  1.00  0.00     0.202 C 
BRANCH  12  16
ATOM     16  O   UNL     1       1.784 -23.573  24.964  1.00  0.00    -0.388 OA
ATOM     17  H   UNL     1       1.591 -23.970  25.857  1.00  0.00     0.211 HD
ENDBRANCH  12  16
BRANCH  14  18
ATOM     18  O   UNL     1       2.744 -21.695  23.225  1.00  0.00    -0.387 OA
ATOM     19  H   UNL     1       2.933 -21.189  22.396  1.00  0.00     0.211 HD
ENDBRANCH  14  18
BRANCH  15  20
ATOM     20  O   UNL     1      -0.559 -20.028  23.594  1.00  0.00    -0.385 OA
ATOM     21  H   UNL     1      -0.836 -19.877  22.628  1.00  0.00     0.211 HD
ENDBRANCH  15  20
ENDBRANCH   8   9
ENDBRANCH   7   8
ENDBRANCH   1   7
BRANCH   2  22
ATOM     22  O   UNL     1      -1.505 -17.566  25.120  1.00  0.00    -0.387 OA
ATOM     23  H   UNL     1      -2.374 -17.026  25.128  1.00  0.00     0.211 HD
ENDBRANCH   2  22
BRANCH   3  24
ATOM     24  O   UNL     1      -2.606 -19.133  28.267  1.00  0.00    -0.387 OA
ATOM     25  H   UNL     1      -3.579 -19.376  28.437  1.00  0.00     0.211 HD
ENDBRANCH   3  24
BRANCH   5  26
ATOM     26  O   UNL     1      -1.719 -14.254  27.796  1.00  0.00    -0.454 OA
BRANCH  26  27
ATOM     27  C   UNL     1      -2.367 -13.633  28.924  1.00  0.00     0.214 A 
ATOM     28  C   UNL     1      -3.587 -12.927  28.874  1.00  0.00     0.180 A 
ATOM     29  C   UNL     1      -1.697 -13.596  30.147  1.00  0.00     0.239 A 
ATOM     30  O   UNL     1      -3.686 -11.822  29.594  1.00  0.00    -0.452 OA
ATOM     31  C   UNL     1      -2.011 -12.590  31.083  1.00  0.00     0.111 A 
ATOM     32  O   UNL     1      -0.726 -14.369  30.341  1.00  0.00    -0.285 OA
ATOM     33  C   UNL     1      -2.894 -11.576  30.638  1.00  0.00     0.146 A 
ATOM     34  C   UNL     1      -1.418 -12.473  32.371  1.00  0.00     0.134 A 
ATOM     35  C   UNL     1      -2.925 -10.340  31.279  1.00  0.00     0.094 A 
ATOM     36  C   UNL     1      -1.501 -11.245  33.029  1.00  0.00     0.093 A 
ATOM     37  C   UNL     1      -2.144 -10.159  32.433  1.00  0.00     0.123 A 
BRANCH  28  38
ATOM     38  C   UNL     1      -4.854 -13.660  28.615  1.00  0.00     0.025 A 
ATOM     39  C   UNL     1      -5.748 -13.673  29.697  1.00  0.00     0.062 A 
ATOM     40  C   UNL     1      -5.305 -14.121  27.369  1.00  0.00     0.016 A 
ATOM     41  C   UNL     1      -7.072 -14.121  29.555  1.00  0.00     0.158 A 
ATOM     42  C   UNL     1      -6.609 -14.613  27.248  1.00  0.00     0.051 A 
ATOM     43  C   UNL     1      -7.471 -14.646  28.342  1.00  0.00     0.157 A 
BRANCH  41  44
ATOM     44  O   UNL     1      -7.967 -14.099  30.620  1.00  0.00    -0.504 OA
ATOM     45  H   UNL     1      -8.748 -13.421  30.638  1.00  0.00     0.293 HD
ENDBRANCH  41  44
BRANCH  43  46
ATOM     46  O   UNL     1      -8.755 -15.175  28.147  1.00  0.00    -0.504 OA
ATOM     47  H   UNL     1      -8.857 -16.133  27.894  1.00  0.00     0.293 HD
ENDBRANCH  43  46
ENDBRANCH  28  38
BRANCH  34  48
ATOM     48  O   UNL     1      -0.788 -13.534  33.055  1.00  0.00    -0.507 OA
ATOM     49  H   UNL     1      -0.046 -13.414  33.722  1.00  0.00     0.293 HD
ENDBRANCH  34  48
BRANCH  37  50
ATOM     50  O   UNL     1      -1.969  -8.905  33.019  1.00  0.00    -0.508 OA
ATOM     51  H   UNL     1      -1.268  -8.732  33.732  1.00  0.00     0.293 HD
ENDBRANCH  37  50
ENDBRANCH  26  27
ENDBRANCH   5  26
BRANCH   4  52
ATOM     52  O   UNL     1      -2.209 -16.829  29.538  1.00  0.00    -0.384 OA
ATOM     53  H   UNL     1      -1.249 -16.705  29.608  1.00  0.00     0.211 HD
ENDBRANCH   4  52
TORSDOF 16
ENDMDL
