MODEL 1
REMARK VINA RESULT:    -6.447      0.000      0.000
REMARK INTER + INTRA:          -8.091
REMARK INTER:                  -7.766
REMARK INTRA:                  -0.325
REMARK UNBOUND:                -0.325
REMARK SMILES O=c1c(O)c(-c2ccc(O)c(O)c2)oc2cc(O)cc(O)c12
REMARK SMILES IDX 5 1 3 2 2 3 1 4 22 5 20 6 19 7 17 8 16 9 15 10 14 11 6 12
REMARK SMILES IDX 7 13 8 14 9 15 13 16 11 17 10 18 12 20 4 22 21 24 18 26
REMARK H PARENT 10 19 12 21 4 23 21 25 18 27
REMARK Flexibility Score: inf
ROOT
ATOM      1  C   UNL     1      14.049  -0.373  33.398  1.00  0.00     0.180 A 
ATOM      2  C   UNL     1      14.774   0.469  32.533  1.00  0.00     0.208 A 
ATOM      3  C   UNL     1      16.150   0.244  32.363  1.00  0.00     0.238 A 
ATOM      4  O   UNL     1      16.812   0.998  31.600  1.00  0.00    -0.285 OA
ATOM      5  C   UNL     1      16.770  -0.825  33.042  1.00  0.00     0.111 A 
ATOM      6  C   UNL     1      18.149  -1.122  32.923  1.00  0.00     0.134 A 
ATOM      7  C   UNL     1      18.690  -2.209  33.625  1.00  0.00     0.093 A 
ATOM      8  C   UNL     1      17.882  -3.004  34.439  1.00  0.00     0.123 A 
ATOM      9  C   UNL     1      16.519  -2.716  34.562  1.00  0.00     0.094 A 
ATOM     10  C   UNL     1      15.961  -1.636  33.872  1.00  0.00     0.146 A 
ATOM     11  O   UNL     1      14.665  -1.380  34.010  1.00  0.00    -0.452 OA
ENDROOT
BRANCH   1  12
ATOM     12  C   UNL     1      12.601  -0.188  33.643  1.00  0.00     0.025 A 
ATOM     13  C   UNL     1      12.130   0.739  34.589  1.00  0.00     0.016 A 
ATOM     14  C   UNL     1      10.759   0.878  34.820  1.00  0.00     0.051 A 
ATOM     15  C   UNL     1       9.840   0.087  34.124  1.00  0.00     0.157 A 
ATOM     16  C   UNL     1      11.676  -0.996  32.961  1.00  0.00     0.062 A 
ATOM     17  C   UNL     1      10.300  -0.858  33.192  1.00  0.00     0.158 A 
BRANCH  15  18
ATOM     18  O   UNL     1       8.478   0.250  34.375  1.00  0.00    -0.504 OA
ATOM     19  H   UNL     1       7.894  -0.514  34.694  1.00  0.00     0.293 HD
ENDBRANCH  15  18
BRANCH  17  20
ATOM     20  O   UNL     1       9.389  -1.655  32.500  1.00  0.00    -0.504 OA
ATOM     21  H   UNL     1       8.484  -1.888  32.891  1.00  0.00     0.293 HD
ENDBRANCH  17  20
ENDBRANCH   1  12
BRANCH   2  22
ATOM     22  O   UNL     1      14.126   1.490  31.833  1.00  0.00    -0.502 OA
ATOM     23  H   UNL     1      13.165   1.410  31.524  1.00  0.00     0.293 HD
ENDBRANCH   2  22
BRANCH   6  24
ATOM     24  O   UNL     1      18.984  -0.347  32.115  1.00  0.00    -0.507 OA
ATOM     25  H   UNL     1      19.784   0.147  32.494  1.00  0.00     0.293 HD
ENDBRANCH   6  24
BRANCH   8  26
ATOM     26  O   UNL     1      18.444  -4.079  35.125  1.00  0.00    -0.508 OA
ATOM     27  H   UNL     1      18.744  -3.993  36.089  1.00  0.00     0.293 HD
ENDBRANCH   8  26
TORSDOF 6
ENDMDL
MODEL 2
REMARK VINA RESULT:    -6.310     16.817     18.501
REMARK INTER + INTRA:          -7.925
REMARK INTER:                  -7.676
REMARK INTRA:                  -0.250
REMARK UNBOUND:                -0.325
REMARK SMILES O=c1c(O)c(-c2ccc(O)c(O)c2)oc2cc(O)cc(O)c12
REMARK SMILES IDX 5 1 3 2 2 3 1 4 22 5 20 6 19 7 17 8 16 9 15 10 14 11 6 12
REMARK SMILES IDX 7 13 8 14 9 15 13 16 11 17 10 18 12 20 4 22 21 24 18 26
REMARK H PARENT 10 19 12 21 4 23 21 25 18 27
REMARK Flexibility Score: inf
ROOT
ATOM      1  C   UNL     1      18.377 -13.545  21.523  1.00  0.00     0.180 A 
ATOM      2  C   UNL     1      18.284 -12.426  22.374  1.00  0.00     0.208 A 
ATOM      3  C   UNL     1      18.627 -12.574  23.727  1.00  0.00     0.238 A 
ATOM      4  O   UNL     1      18.539 -11.583  24.501  1.00  0.00    -0.285 OA
ATOM      5  C   UNL     1      19.074 -13.825  24.200  1.00  0.00     0.111 A 
ATOM      6  C   UNL     1      19.443 -14.056  25.548  1.00  0.00     0.134 A 
ATOM      7  C   UNL     1      19.885 -15.329  25.939  1.00  0.00     0.093 A 
ATOM      8  C   UNL     1      19.968 -16.370  25.013  1.00  0.00     0.123 A 
ATOM      9  C   UNL     1      19.604 -16.148  23.681  1.00  0.00     0.094 A 
ATOM     10  C   UNL     1      19.159 -14.888  23.271  1.00  0.00     0.146 A 
ATOM     11  O   UNL     1      18.816 -14.705  22.002  1.00  0.00    -0.452 OA
ENDROOT
BRANCH   1  12
ATOM     12  C   UNL     1      18.015 -13.473  20.089  1.00  0.00     0.025 A 
ATOM     13  C   UNL     1      16.842 -14.073  19.598  1.00  0.00     0.016 A 
ATOM     14  C   UNL     1      16.535 -14.013  18.236  1.00  0.00     0.051 A 
ATOM     15  C   UNL     1      17.396 -13.368  17.344  1.00  0.00     0.157 A 
ATOM     16  C   UNL     1      18.888 -12.845  19.187  1.00  0.00     0.062 A 
ATOM     17  C   UNL     1      18.581 -12.783  17.820  1.00  0.00     0.158 A 
BRANCH  15  18
ATOM     18  O   UNL     1      17.061 -13.323  15.991  1.00  0.00    -0.504 OA
ATOM     19  H   UNL     1      17.738 -13.083  15.276  1.00  0.00     0.293 HD
ENDBRANCH  15  18
BRANCH  17  20
ATOM     20  O   UNL     1      19.448 -12.145  16.934  1.00  0.00    -0.504 OA
ATOM     21  H   UNL     1      20.406 -12.455  16.812  1.00  0.00     0.293 HD
ENDBRANCH  17  20
ENDBRANCH   1  12
BRANCH   2  22
ATOM     22  O   UNL     1      17.888 -11.186  21.869  1.00  0.00    -0.502 OA
ATOM     23  H   UNL     1      17.773 -11.015  20.877  1.00  0.00     0.293 HD
ENDBRANCH   2  22
BRANCH   6  24
ATOM     24  O   UNL     1      19.372 -13.036  26.497  1.00  0.00    -0.507 OA
ATOM     25  H   UNL     1      18.492 -12.602  26.749  1.00  0.00     0.293 HD
ENDBRANCH   6  24
BRANCH   8  26
ATOM     26  O   UNL     1      20.413 -17.624  25.427  1.00  0.00    -0.508 OA
ATOM     27  H   UNL     1      21.310 -17.744  25.882  1.00  0.00     0.293 HD
ENDBRANCH   8  26
TORSDOF 6
ENDMDL
MODEL 3
REMARK VINA RESULT:    -6.194      1.449      2.934
REMARK INTER + INTRA:          -7.786
REMARK INTER:                  -7.640
REMARK INTRA:                  -0.146
REMARK UNBOUND:                -0.325
REMARK SMILES O=c1c(O)c(-c2ccc(O)c(O)c2)oc2cc(O)cc(O)c12
REMARK SMILES IDX 5 1 3 2 2 3 1 4 22 5 20 6 19 7 17 8 16 9 15 10 14 11 6 12
REMARK SMILES IDX 7 13 8 14 9 15 13 16 11 17 10 18 12 20 4 22 21 24 18 26
REMARK H PARENT 10 19 12 21 4 23 21 25 18 27
REMARK Flexibility Score: inf
ROOT
ATOM      1  C   UNL     1      14.830  -0.603  33.645  1.00  0.00     0.180 A 
ATOM      2  C   UNL     1      15.329  -1.899  33.880  1.00  0.00     0.208 A 
ATOM      3  C   UNL     1      16.688  -2.156  33.639  1.00  0.00     0.238 A 
ATOM      4  O   UNL     1      17.145  -3.315  33.835  1.00  0.00    -0.285 OA
ATOM      5  C   UNL     1      17.525  -1.114  33.191  1.00  0.00     0.111 A 
ATOM      6  C   UNL     1      18.906  -1.288  32.929  1.00  0.00     0.134 A 
ATOM      7  C   UNL     1      19.674  -0.197  32.493  1.00  0.00     0.093 A 
ATOM      8  C   UNL     1      19.091   1.059  32.315  1.00  0.00     0.123 A 
ATOM      9  C   UNL     1      17.728   1.237  32.571  1.00  0.00     0.094 A 
ATOM     10  C   UNL     1      16.945   0.163  33.005  1.00  0.00     0.146 A 
ATOM     11  O   UNL     1      15.652   0.358  33.236  1.00  0.00    -0.452 OA
ENDROOT
BRANCH   1  12
ATOM     12  C   UNL     1      13.405  -0.260  33.858  1.00  0.00     0.025 A 
ATOM     13  C   UNL     1      13.011   0.649  34.854  1.00  0.00     0.016 A 
ATOM     14  C   UNL     1      11.659   0.939  35.053  1.00  0.00     0.051 A 
ATOM     15  C   UNL     1      10.680   0.317  34.271  1.00  0.00     0.157 A 
ATOM     16  C   UNL     1      12.419  -0.899  33.089  1.00  0.00     0.062 A 
ATOM     17  C   UNL     1      11.060  -0.609  33.286  1.00  0.00     0.158 A 
BRANCH  15  18
ATOM     18  O   UNL     1       9.339   0.627  34.490  1.00  0.00    -0.504 OA
ATOM     19  H   UNL     1       8.670   0.691  33.732  1.00  0.00     0.293 HD
ENDBRANCH  15  18
BRANCH  17  20
ATOM     20  O   UNL     1      10.089  -1.239  32.508  1.00  0.00    -0.504 OA
ATOM     21  H   UNL     1       9.801  -0.862  31.612  1.00  0.00     0.293 HD
ENDBRANCH  17  20
ENDBRANCH   1  12
BRANCH   2  22
ATOM     22  O   UNL     1      14.490  -2.902  34.373  1.00  0.00    -0.502 OA
ATOM     23  H   UNL     1      14.296  -3.010  35.361  1.00  0.00     0.293 HD
ENDBRANCH   2  22
BRANCH   6  24
ATOM     24  O   UNL     1      19.518  -2.531  33.098  1.00  0.00    -0.507 OA
ATOM     25  H   UNL     1      19.739  -3.128  32.310  1.00  0.00     0.293 HD
ENDBRANCH   6  24
BRANCH   8  26
ATOM     26  O   UNL     1      19.877   2.125  31.882  1.00  0.00    -0.508 OA
ATOM     27  H   UNL     1      19.860   2.438  30.919  1.00  0.00     0.293 HD
ENDBRANCH   8  26
TORSDOF 6
ENDMDL
MODEL 4
REMARK VINA RESULT:    -6.099     14.750     17.182
REMARK INTER + INTRA:          -7.671
REMARK INTER:                  -7.342
REMARK INTRA:                  -0.329
REMARK UNBOUND:                -0.325
REMARK SMILES O=c1c(O)c(-c2ccc(O)c(O)c2)oc2cc(O)cc(O)c12
REMARK SMILES IDX 5 1 3 2 2 3 1 4 22 5 20 6 19 7 17 8 16 9 15 10 14 11 6 12
REMARK SMILES IDX 7 13 8 14 9 15 13 16 11 17 10 18 12 20 4 22 21 24 18 26
REMARK H PARENT 10 19 12 21 4 23 21 25 18 27
REMARK Flexibility Score: inf
ROOT
ATOM      1  C   UNL     1      19.879 -14.012  25.397  1.00  0.00     0.180 A 
ATOM      2  C   UNL     1      21.207 -14.158  24.953  1.00  0.00     0.208 A 
ATOM      3  C   UNL     1      21.494 -13.961  23.593  1.00  0.00     0.238 A 
ATOM      4  O   UNL     1      22.677 -14.099  23.182  1.00  0.00    -0.285 OA
ATOM      5  C   UNL     1      20.456 -13.603  22.707  1.00  0.00     0.111 A 
ATOM      6  C   UNL     1      20.660 -13.382  21.324  1.00  0.00     0.134 A 
ATOM      7  C   UNL     1      19.577 -13.021  20.510  1.00  0.00     0.093 A 
ATOM      8  C   UNL     1      18.298 -12.874  21.050  1.00  0.00     0.123 A 
ATOM      9  C   UNL     1      18.089 -13.092  22.415  1.00  0.00     0.094 A 
ATOM     10  C   UNL     1      19.155 -13.454  23.243  1.00  0.00     0.146 A 
ATOM     11  O   UNL     1      18.929 -13.659  24.535  1.00  0.00    -0.452 OA
ENDROOT
BRANCH   1  12
ATOM     12  C   UNL     1      19.495 -14.222  26.811  1.00  0.00     0.025 A 
ATOM     13  C   UNL     1      19.168 -15.498  27.300  1.00  0.00     0.016 A 
ATOM     14  C   UNL     1      18.785 -15.667  28.634  1.00  0.00     0.051 A 
ATOM     15  C   UNL     1      18.710 -14.568  29.493  1.00  0.00     0.157 A 
ATOM     16  C   UNL     1      19.398 -13.116  27.672  1.00  0.00     0.062 A 
ATOM     17  C   UNL     1      19.014 -13.284  29.010  1.00  0.00     0.158 A 
BRANCH  15  18
ATOM     18  O   UNL     1      18.327 -14.768  30.819  1.00  0.00    -0.504 OA
ATOM     19  H   UNL     1      17.355 -14.861  31.091  1.00  0.00     0.293 HD
ENDBRANCH  15  18
BRANCH  17  20
ATOM     20  O   UNL     1      18.934 -12.182  29.861  1.00  0.00    -0.504 OA
ATOM     21  H   UNL     1      18.097 -11.614  29.915  1.00  0.00     0.293 HD
ENDBRANCH  17  20
ENDBRANCH   1  12
BRANCH   2  22
ATOM     22  O   UNL     1      22.225 -14.463  25.860  1.00  0.00    -0.502 OA
ATOM     23  H   UNL     1      23.196 -14.539  25.580  1.00  0.00     0.293 HD
ENDBRANCH   2  22
BRANCH   6  24
ATOM     24  O   UNL     1      21.928 -13.520  20.754  1.00  0.00    -0.507 OA
ATOM     25  H   UNL     1      22.072 -14.038  19.895  1.00  0.00     0.293 HD
ENDBRANCH   6  24
BRANCH   8  26
ATOM     26  O   UNL     1      17.239 -12.513  20.219  1.00  0.00    -0.508 OA
ATOM     27  H   UNL     1      17.395 -12.207  19.265  1.00  0.00     0.293 HD
ENDBRANCH   8  26
TORSDOF 6
ENDMDL
MODEL 5
REMARK VINA RESULT:    -6.069     13.855     16.614
REMARK INTER + INTRA:          -7.635
REMARK INTER:                  -7.370
REMARK INTRA:                  -0.266
REMARK UNBOUND:                -0.325
REMARK SMILES O=c1c(O)c(-c2ccc(O)c(O)c2)oc2cc(O)cc(O)c12
REMARK SMILES IDX 5 1 3 2 2 3 1 4 22 5 20 6 19 7 17 8 16 9 15 10 14 11 6 12
REMARK SMILES IDX 7 13 8 14 9 15 13 16 11 17 10 18 12 20 4 22 21 24 18 26
REMARK H PARENT 10 19 12 21 4 23 21 25 18 27
REMARK Flexibility Score: inf
ROOT
ATOM      1  C   UNL     1      19.250 -14.403  26.481  1.00  0.00     0.180 A 
ATOM      2  C   UNL     1      19.172 -15.674  27.082  1.00  0.00     0.208 A 
ATOM      3  C   UNL     1      19.111 -15.760  28.482  1.00  0.00     0.238 A 
ATOM      4  O   UNL     1      19.052 -16.893  29.032  1.00  0.00    -0.285 OA
ATOM      5  C   UNL     1      19.110 -14.580  29.253  1.00  0.00     0.111 A 
ATOM      6  C   UNL     1      19.047 -14.578  30.667  1.00  0.00     0.134 A 
ATOM      7  C   UNL     1      19.041 -13.360  31.362  1.00  0.00     0.093 A 
ATOM      8  C   UNL     1      19.095 -12.147  30.674  1.00  0.00     0.123 A 
ATOM      9  C   UNL     1      19.158 -12.141  29.277  1.00  0.00     0.094 A 
ATOM     10  C   UNL     1      19.166 -13.344  28.565  1.00  0.00     0.146 A 
ATOM     11  O   UNL     1      19.231 -13.311  27.240  1.00  0.00    -0.452 OA
ENDROOT
BRANCH   1  12
ATOM     12  C   UNL     1      19.335 -14.231  25.013  1.00  0.00     0.025 A 
ATOM     13  C   UNL     1      20.539 -13.863  24.387  1.00  0.00     0.016 A 
ATOM     14  C   UNL     1      20.589 -13.683  23.002  1.00  0.00     0.051 A 
ATOM     15  C   UNL     1      19.440 -13.854  22.225  1.00  0.00     0.157 A 
ATOM     16  C   UNL     1      18.178 -14.381  24.231  1.00  0.00     0.062 A 
ATOM     17  C   UNL     1      18.227 -14.201  22.841  1.00  0.00     0.158 A 
BRANCH  15  18
ATOM     18  O   UNL     1      19.521 -13.670  20.845  1.00  0.00    -0.504 OA
ATOM     19  H   UNL     1      18.707 -13.728  20.245  1.00  0.00     0.293 HD
ENDBRANCH  15  18
BRANCH  17  20
ATOM     20  O   UNL     1      17.075 -14.366  22.072  1.00  0.00    -0.504 OA
ATOM     21  H   UNL     1      16.151 -14.218  22.462  1.00  0.00     0.293 HD
ENDBRANCH  17  20
ENDBRANCH   1  12
BRANCH   2  22
ATOM     22  O   UNL     1      19.124 -16.826  26.293  1.00  0.00    -0.502 OA
ATOM     23  H   UNL     1      19.395 -16.828  25.317  1.00  0.00     0.293 HD
ENDBRANCH   2  22
BRANCH   6  24
ATOM     24  O   UNL     1      18.991 -15.775  31.385  1.00  0.00    -0.507 OA
ATOM     25  H   UNL     1      19.593 -16.559  31.161  1.00  0.00     0.293 HD
ENDBRANCH   6  24
BRANCH   8  26
ATOM     26  O   UNL     1      19.086 -10.951  31.389  1.00  0.00    -0.508 OA
ATOM     27  H   UNL     1      19.198 -10.056  30.925  1.00  0.00     0.293 HD
ENDBRANCH   8  26
TORSDOF 6
ENDMDL
MODEL 6
REMARK VINA RESULT:    -6.006     13.446     16.106
REMARK INTER + INTRA:          -7.559
REMARK INTER:                  -7.296
REMARK INTRA:                  -0.263
REMARK UNBOUND:                -0.325
REMARK SMILES O=c1c(O)c(-c2ccc(O)c(O)c2)oc2cc(O)cc(O)c12
REMARK SMILES IDX 5 1 3 2 2 3 1 4 22 5 20 6 19 7 17 8 16 9 15 10 14 11 6 12
REMARK SMILES IDX 7 13 8 14 9 15 13 16 11 17 10 18 12 20 4 22 21 24 18 26
REMARK H PARENT 10 19 12 21 4 23 21 25 18 27
REMARK Flexibility Score: inf
ROOT
ATOM      1  C   UNL     1      19.684 -14.011  26.854  1.00  0.00     0.180 A 
ATOM      2  C   UNL     1      20.771 -14.827  27.222  1.00  0.00     0.208 A 
ATOM      3  C   UNL     1      21.305 -14.705  28.515  1.00  0.00     0.238 A 
ATOM      4  O   UNL     1      22.285 -15.422  28.852  1.00  0.00    -0.285 OA
ATOM      5  C   UNL     1      20.733 -13.788  29.420  1.00  0.00     0.111 A 
ATOM      6  C   UNL     1      21.207 -13.606  30.742  1.00  0.00     0.134 A 
ATOM      7  C   UNL     1      20.577 -12.678  31.586  1.00  0.00     0.093 A 
ATOM      8  C   UNL     1      19.485 -11.933  31.136  1.00  0.00     0.123 A 
ATOM      9  C   UNL     1      19.013 -12.107  29.832  1.00  0.00     0.094 A 
ATOM     10  C   UNL     1      19.627 -13.025  28.975  1.00  0.00     0.146 A 
ATOM     11  O   UNL     1      19.162 -13.168  27.740  1.00  0.00    -0.452 OA
ENDROOT
BRANCH   1  12
ATOM     12  C   UNL     1      19.080 -14.069  25.504  1.00  0.00     0.025 A 
ATOM     13  C   UNL     1      19.290 -13.046  24.563  1.00  0.00     0.016 A 
ATOM     14  C   UNL     1      18.688 -13.111  23.303  1.00  0.00     0.051 A 
ATOM     15  C   UNL     1      17.860 -14.186  22.969  1.00  0.00     0.157 A 
ATOM     16  C   UNL     1      18.230 -15.137  25.173  1.00  0.00     0.062 A 
ATOM     17  C   UNL     1      17.626 -15.204  23.909  1.00  0.00     0.158 A 
BRANCH  15  18
ATOM     18  O   UNL     1      17.276 -14.225  21.703  1.00  0.00    -0.504 OA
ATOM     19  H   UNL     1      17.823 -14.150  20.854  1.00  0.00     0.293 HD
ENDBRANCH  15  18
BRANCH  17  20
ATOM     20  O   UNL     1      16.795 -16.275  23.585  1.00  0.00    -0.504 OA
ATOM     21  H   UNL     1      16.150 -16.670  24.260  1.00  0.00     0.293 HD
ENDBRANCH  17  20
ENDBRANCH   1  12
BRANCH   2  22
ATOM     22  O   UNL     1      21.288 -15.764  26.323  1.00  0.00    -0.502 OA
ATOM     23  H   UNL     1      22.283 -15.875  26.167  1.00  0.00     0.293 HD
ENDBRANCH   2  22
BRANCH   6  24
ATOM     24  O   UNL     1      22.296 -14.337  31.222  1.00  0.00    -0.507 OA
ATOM     25  H   UNL     1      23.166 -14.396  30.706  1.00  0.00     0.293 HD
ENDBRANCH   6  24
BRANCH   8  26
ATOM     26  O   UNL     1      18.878 -11.020  31.995  1.00  0.00    -0.508 OA
ATOM     27  H   UNL     1      18.086 -11.281  32.572  1.00  0.00     0.293 HD
ENDBRANCH   8  26
TORSDOF 6
ENDMDL
MODEL 7
REMARK VINA RESULT:    -5.988     16.339     18.597
REMARK INTER + INTRA:          -7.538
REMARK INTER:                  -7.257
REMARK INTRA:                  -0.280
REMARK UNBOUND:                -0.325
REMARK SMILES O=c1c(O)c(-c2ccc(O)c(O)c2)oc2cc(O)cc(O)c12
REMARK SMILES IDX 5 1 3 2 2 3 1 4 22 5 20 6 19 7 17 8 16 9 15 10 14 11 6 12
REMARK SMILES IDX 7 13 8 14 9 15 13 16 11 17 10 18 12 20 4 22 21 24 18 26
REMARK H PARENT 10 19 12 21 4 23 21 25 18 27
REMARK Flexibility Score: inf
ROOT
ATOM      1  C   UNL     1      19.502 -14.986  23.869  1.00  0.00     0.180 A 
ATOM      2  C   UNL     1      20.587 -15.668  23.284  1.00  0.00     0.208 A 
ATOM      3  C   UNL     1      20.800 -15.543  21.902  1.00  0.00     0.238 A 
ATOM      4  O   UNL     1      21.761 -16.157  21.365  1.00  0.00    -0.285 OA
ATOM      5  C   UNL     1      19.943 -14.727  21.136  1.00  0.00     0.111 A 
ATOM      6  C   UNL     1      20.091 -14.544  19.739  1.00  0.00     0.134 A 
ATOM      7  C   UNL     1      19.201 -13.708  19.049  1.00  0.00     0.093 A 
ATOM      8  C   UNL     1      18.170 -13.052  19.724  1.00  0.00     0.123 A 
ATOM      9  C   UNL     1      18.018 -13.229  21.103  1.00  0.00     0.094 A 
ATOM     10  C   UNL     1      18.893 -14.059  21.810  1.00  0.00     0.146 A 
ATOM     11  O   UNL     1      18.724 -14.214  23.117  1.00  0.00    -0.452 OA
ENDROOT
BRANCH   1  12
ATOM     12  C   UNL     1      19.201 -15.084  25.315  1.00  0.00     0.025 A 
ATOM     13  C   UNL     1      18.604 -16.231  25.864  1.00  0.00     0.016 A 
ATOM     14  C   UNL     1      18.307 -16.290  27.228  1.00  0.00     0.051 A 
ATOM     15  C   UNL     1      18.587 -15.203  28.061  1.00  0.00     0.157 A 
ATOM     16  C   UNL     1      19.463 -13.985  26.151  1.00  0.00     0.062 A 
ATOM     17  C   UNL     1      19.165 -14.043  27.520  1.00  0.00     0.158 A 
BRANCH  15  18
ATOM     18  O   UNL     1      18.282 -15.292  29.419  1.00  0.00    -0.504 OA
ATOM     19  H   UNL     1      17.417 -14.929  29.801  1.00  0.00     0.293 HD
ENDBRANCH  15  18
BRANCH  17  20
ATOM     20  O   UNL     1      19.441 -12.952  28.344  1.00  0.00    -0.504 OA
ATOM     21  H   UNL     1      19.311 -11.999  28.024  1.00  0.00     0.293 HD
ENDBRANCH  17  20
ENDBRANCH   1  12
BRANCH   2  22
ATOM     22  O   UNL     1      21.451 -16.430  24.074  1.00  0.00    -0.502 OA
ATOM     23  H   UNL     1      21.445 -16.384  25.086  1.00  0.00     0.293 HD
ENDBRANCH   2  22
BRANCH   6  24
ATOM     24  O   UNL     1      21.112 -15.185  19.035  1.00  0.00    -0.507 OA
ATOM     25  H   UNL     1      21.848 -14.664  18.572  1.00  0.00     0.293 HD
ENDBRANCH   6  24
BRANCH   8  26
ATOM     26  O   UNL     1      17.301 -12.226  19.015  1.00  0.00    -0.508 OA
ATOM     27  H   UNL     1      17.313 -11.220  19.132  1.00  0.00     0.293 HD
ENDBRANCH   8  26
TORSDOF 6
ENDMDL
MODEL 8
REMARK VINA RESULT:    -5.927     15.824     18.177
REMARK INTER + INTRA:          -7.464
REMARK INTER:                  -7.148
REMARK INTRA:                  -0.316
REMARK UNBOUND:                -0.325
REMARK SMILES O=c1c(O)c(-c2ccc(O)c(O)c2)oc2cc(O)cc(O)c12
REMARK SMILES IDX 5 1 3 2 2 3 1 4 22 5 20 6 19 7 17 8 16 9 15 10 14 11 6 12
REMARK SMILES IDX 7 13 8 14 9 15 13 16 11 17 10 18 12 20 4 22 21 24 18 26
REMARK H PARENT 10 19 12 21 4 23 21 25 18 27
REMARK Flexibility Score: inf
ROOT
ATOM      1  C   UNL     1      18.744 -15.192  24.076  1.00  0.00     0.180 A 
ATOM      2  C   UNL     1      18.089 -16.380  24.455  1.00  0.00     0.208 A 
ATOM      3  C   UNL     1      17.966 -16.679  25.822  1.00  0.00     0.238 A 
ATOM      4  O   UNL     1      17.392 -17.745  26.174  1.00  0.00    -0.285 OA
ATOM      5  C   UNL     1      18.479 -15.782  26.781  1.00  0.00     0.111 A 
ATOM      6  C   UNL     1      18.392 -16.007  28.176  1.00  0.00     0.134 A 
ATOM      7  C   UNL     1      18.919 -15.060  29.067  1.00  0.00     0.093 A 
ATOM      8  C   UNL     1      19.528 -13.896  28.593  1.00  0.00     0.123 A 
ATOM      9  C   UNL     1      19.617 -13.669  27.216  1.00  0.00     0.094 A 
ATOM     10  C   UNL     1      19.099 -14.600  26.311  1.00  0.00     0.146 A 
ATOM     11  O   UNL     1      19.201 -14.362  25.009  1.00  0.00    -0.452 OA
ENDROOT
BRANCH   1  12
ATOM     12  C   UNL     1      18.929 -14.816  22.656  1.00  0.00     0.025 A 
ATOM     13  C   UNL     1      19.968 -15.363  21.883  1.00  0.00     0.016 A 
ATOM     14  C   UNL     1      20.139 -14.974  20.552  1.00  0.00     0.051 A 
ATOM     15  C   UNL     1      19.286 -14.028  19.977  1.00  0.00     0.157 A 
ATOM     16  C   UNL     1      18.088 -13.850  22.081  1.00  0.00     0.062 A 
ATOM     17  C   UNL     1      18.257 -13.459  20.745  1.00  0.00     0.158 A 
BRANCH  15  18
ATOM     18  O   UNL     1      19.479 -13.661  18.645  1.00  0.00    -0.504 OA
ATOM     19  H   UNL     1      18.970 -12.897  18.217  1.00  0.00     0.293 HD
ENDBRANCH  15  18
BRANCH  17  20
ATOM     20  O   UNL     1      17.407 -12.509  20.180  1.00  0.00    -0.504 OA
ATOM     21  H   UNL     1      17.227 -12.484  19.183  1.00  0.00     0.293 HD
ENDBRANCH  17  20
ENDBRANCH   1  12
BRANCH   2  22
ATOM     22  O   UNL     1      17.546 -17.227  23.487  1.00  0.00    -0.502 OA
ATOM     23  H   UNL     1      16.767 -17.845  23.682  1.00  0.00     0.293 HD
ENDBRANCH   2  22
BRANCH   6  24
ATOM     24  O   UNL     1      17.789 -17.160  28.682  1.00  0.00    -0.507 OA
ATOM     25  H   UNL     1      18.271 -17.774  29.328  1.00  0.00     0.293 HD
ENDBRANCH   6  24
BRANCH   8  26
ATOM     26  O   UNL     1      20.042 -12.972  29.500  1.00  0.00    -0.508 OA
ATOM     27  H   UNL     1      19.546 -12.734  30.351  1.00  0.00     0.293 HD
ENDBRANCH   8  26
TORSDOF 6
ENDMDL
MODEL 9
REMARK VINA RESULT:    -5.750     16.330     17.442
REMARK INTER + INTRA:          -7.251
REMARK INTER:                  -7.092
REMARK INTRA:                  -0.159
REMARK UNBOUND:                -0.325
REMARK SMILES O=c1c(O)c(-c2ccc(O)c(O)c2)oc2cc(O)cc(O)c12
REMARK SMILES IDX 5 1 3 2 2 3 1 4 22 5 20 6 19 7 17 8 16 9 15 10 14 11 6 12
REMARK SMILES IDX 7 13 8 14 9 15 13 16 11 17 10 18 12 20 4 22 21 24 18 26
REMARK H PARENT 10 19 12 21 4 23 21 25 18 27
REMARK Flexibility Score: inf
ROOT
ATOM      1  C   UNL     1      20.200 -13.959  24.075  1.00  0.00     0.180 A 
ATOM      2  C   UNL     1      21.605 -13.924  24.172  1.00  0.00     0.208 A 
ATOM      3  C   UNL     1      22.207 -14.239  25.401  1.00  0.00     0.238 A 
ATOM      4  O   UNL     1      23.463 -14.201  25.504  1.00  0.00    -0.285 OA
ATOM      5  C   UNL     1      21.401 -14.602  26.499  1.00  0.00     0.111 A 
ATOM      6  C   UNL     1      21.929 -14.938  27.769  1.00  0.00     0.134 A 
ATOM      7  C   UNL     1      21.060 -15.297  28.811  1.00  0.00     0.093 A 
ATOM      8  C   UNL     1      19.679 -15.329  28.607  1.00  0.00     0.123 A 
ATOM      9  C   UNL     1      19.152 -14.997  27.356  1.00  0.00     0.094 A 
ATOM     10  C   UNL     1      20.000 -14.635  26.305  1.00  0.00     0.146 A 
ATOM     11  O   UNL     1      19.474 -14.320  25.128  1.00  0.00    -0.452 OA
ENDROOT
BRANCH   1  12
ATOM     12  C   UNL     1      19.492 -13.622  22.819  1.00  0.00     0.025 A 
ATOM     13  C   UNL     1      19.650 -14.397  21.658  1.00  0.00     0.016 A 
ATOM     14  C   UNL     1      18.990 -14.044  20.477  1.00  0.00     0.051 A 
ATOM     15  C   UNL     1      18.176 -12.909  20.434  1.00  0.00     0.157 A 
ATOM     16  C   UNL     1      18.690 -12.470  22.767  1.00  0.00     0.062 A 
ATOM     17  C   UNL     1      18.026 -12.115  21.583  1.00  0.00     0.158 A 
BRANCH  15  18
ATOM     18  O   UNL     1      17.528 -12.584  19.243  1.00  0.00    -0.504 OA
ATOM     19  H   UNL     1      16.732 -13.109  18.901  1.00  0.00     0.293 HD
ENDBRANCH  15  18
BRANCH  17  20
ATOM     20  O   UNL     1      17.221 -10.977  21.545  1.00  0.00    -0.504 OA
ATOM     21  H   UNL     1      16.436 -10.904  20.908  1.00  0.00     0.293 HD
ENDBRANCH  17  20
ENDBRANCH   1  12
BRANCH   2  22
ATOM     22  O   UNL     1      22.383 -13.611  23.055  1.00  0.00    -0.502 OA
ATOM     23  H   UNL     1      21.976 -13.360  22.163  1.00  0.00     0.293 HD
ENDBRANCH   2  22
BRANCH   6  24
ATOM     24  O   UNL     1      23.305 -14.918  28.004  1.00  0.00    -0.507 OA
ATOM     25  H   UNL     1      23.830 -15.769  28.168  1.00  0.00     0.293 HD
ENDBRANCH   6  24
BRANCH   8  26
ATOM     26  O   UNL     1      18.838 -15.690  29.658  1.00  0.00    -0.508 OA
ATOM     27  H   UNL     1      19.094 -15.518  30.624  1.00  0.00     0.293 HD
ENDBRANCH   8  26
TORSDOF 6
ENDMDL
