MODEL 1
REMARK VINA RESULT:    -3.023      0.000      0.000
REMARK INTER + INTRA:         -13.269
REMARK INTER:                  -7.617
REMARK INTRA:                  -5.652
REMARK UNBOUND:                -5.652
REMARK SMILES CCCCCCCCCCCCCCCCCCCCCCCCCCCC(=O)[O-]
REMARK SMILES IDX 15 1 16 2 17 3 18 4 19 5 20 6 21 7 22 8 23 9 24 10 25 11
REMARK SMILES IDX 26 12 27 13 28 14 29 15 30 16 14 17 13 18 12 19 11 20 10 21
REMARK SMILES IDX 9 22 8 23 7 24 6 25 5 26 4 27 3 28 2 29 1 30
REMARK H PARENT
REMARK Flexibility Score: inf
ROOT
ATOM      1  C   UNL     1      -3.262  42.230  96.818  1.00  0.00     0.000 C 
ENDROOT
BRANCH   1   2
ATOM      2  C   UNL     1      -2.371  41.017  97.131  1.00  0.00     0.000 C 
BRANCH   2   3
ATOM      3  C   UNL     1      -1.811  40.363  95.854  1.00  0.00     0.000 C 
BRANCH   3   4
ATOM      4  C   UNL     1      -1.532  38.860  96.027  1.00  0.00     0.000 C 
BRANCH   4   5
ATOM      5  C   UNL     1      -1.290  38.092  94.716  1.00  0.00     0.000 C 
BRANCH   5   6
ATOM      6  C   UNL     1      -1.278  38.991  93.460  1.00  0.00     0.000 C 
BRANCH   6   7
ATOM      7  C   UNL     1      -2.507  38.753  92.563  1.00  0.00     0.000 C 
BRANCH   7   8
ATOM      8  C   UNL     1      -3.323  40.041  92.323  1.00  0.00     0.000 C 
BRANCH   8   9
ATOM      9  C   UNL     1      -4.704  40.037  93.013  1.00  0.00     0.000 C 
BRANCH   9  10
ATOM     10  C   UNL     1      -4.849  39.037  94.174  1.00  0.00     0.000 C 
BRANCH  10  11
ATOM     11  C   UNL     1      -5.477  39.617  95.457  1.00  0.00     0.000 C 
BRANCH  11  12
ATOM     12  C   UNL     1      -5.765  38.560  96.546  1.00  0.00     0.006 C 
BRANCH  12  13
ATOM     13  C   UNL     1      -5.346  38.994  97.962  1.00  0.00     0.053 C 
BRANCH  13  14
ATOM     14  C   UNL     1      -4.267  38.117  98.524  1.00  0.00     0.041 C 
ATOM     15  O   UNL     1      -4.168  36.915  98.151  1.00  0.00    -0.550 OA
ATOM     16  O   UNL     1      -3.366  38.626  99.448  1.00  0.00    -0.550 OA
ENDBRANCH  13  14
ENDBRANCH  12  13
ENDBRANCH  11  12
ENDBRANCH  10  11
ENDBRANCH   9  10
ENDBRANCH   8   9
ENDBRANCH   7   8
ENDBRANCH   6   7
ENDBRANCH   5   6
ENDBRANCH   4   5
ENDBRANCH   3   4
ENDBRANCH   2   3
ENDBRANCH   1   2
BRANCH   1  17
ATOM     17  C   UNL     1      -3.298  42.559  95.314  1.00  0.00     0.000 C 
BRANCH  17  18
ATOM     18  C   UNL     1      -3.487  44.065  95.038  1.00  0.00     0.000 C 
BRANCH  18  19
ATOM     19  C   UNL     1      -2.270  44.934  95.411  1.00  0.00     0.000 C 
BRANCH  19  20
ATOM     20  C   UNL     1      -2.458  45.839  96.645  1.00  0.00     0.000 C 
BRANCH  20  21
ATOM     21  C   UNL     1      -3.921  46.079  97.062  1.00  0.00     0.000 C 
BRANCH  21  22
ATOM     22  C   UNL     1      -4.116  46.103  98.587  1.00  0.00    -0.000 C 
BRANCH  22  23
ATOM     23  C   UNL     1      -5.381  45.355  99.036  1.00  0.00    -0.000 C 
BRANCH  23  24
ATOM     24  C   UNL     1      -6.025  44.549  97.894  1.00  0.00    -0.000 C 
BRANCH  24  25
ATOM     25  C   UNL     1      -6.451  43.133  98.326  1.00  0.00    -0.000 C 
BRANCH  25  26
ATOM     26  C   UNL     1      -7.032  42.253  97.205  1.00  0.00    -0.000 C 
BRANCH  26  27
ATOM     27  C   UNL     1      -8.143  42.957  96.407  1.00  0.00    -0.000 C 
BRANCH  27  28
ATOM     28  C   UNL     1      -8.038  42.690  94.896  1.00  0.00    -0.000 C 
BRANCH  28  29
ATOM     29  C   UNL     1      -6.859  43.434  94.252  1.00  0.00    -0.003 C 
ATOM     30  C   UNL     1      -6.730  43.082  92.773  1.00  0.00     0.004 C 
ENDBRANCH  28  29
ENDBRANCH  27  28
ENDBRANCH  26  27
ENDBRANCH  25  26
ENDBRANCH  24  25
ENDBRANCH  23  24
ENDBRANCH  22  23
ENDBRANCH  21  22
ENDBRANCH  20  21
ENDBRANCH  19  20
ENDBRANCH  18  19
ENDBRANCH  17  18
ENDBRANCH   1  17
TORSDOF 26
ENDMDL
MODEL 2
REMARK VINA RESULT:    -2.957     14.120     17.389
REMARK INTER + INTRA:         -13.103
REMARK INTER:                  -8.655
REMARK INTRA:                  -4.448
REMARK UNBOUND:                -5.652
REMARK SMILES CCCCCCCCCCCCCCCCCCCCCCCCCCCC(=O)[O-]
REMARK SMILES IDX 15 1 16 2 17 3 18 4 19 5 20 6 21 7 22 8 23 9 24 10 25 11
REMARK SMILES IDX 26 12 27 13 28 14 29 15 30 16 14 17 13 18 12 19 11 20 10 21
REMARK SMILES IDX 9 22 8 23 7 24 6 25 5 26 4 27 3 28 2 29 1 30
REMARK H PARENT
REMARK Flexibility Score: inf
ROOT
ATOM      1  C   UNL     1     -20.751  34.394  95.104  1.00  0.00     0.000 C 
ENDROOT
BRANCH   1   2
ATOM      2  C   UNL     1     -20.022  35.156  93.985  1.00  0.00     0.000 C 
BRANCH   2   3
ATOM      3  C   UNL     1     -18.497  35.182  94.198  1.00  0.00     0.000 C 
BRANCH   3   4
ATOM      4  C   UNL     1     -17.719  34.618  92.996  1.00  0.00     0.000 C 
BRANCH   4   5
ATOM      5  C   UNL     1     -17.262  35.671  91.971  1.00  0.00     0.000 C 
BRANCH   5   6
ATOM      6  C   UNL     1     -17.370  35.201  90.504  1.00  0.00     0.000 C 
BRANCH   6   7
ATOM      7  C   UNL     1     -18.390  36.029  89.701  1.00  0.00     0.000 C 
BRANCH   7   8
ATOM      8  C   UNL     1     -19.377  36.794  90.609  1.00  0.00     0.000 C 
BRANCH   8   9
ATOM      9  C   UNL     1     -19.286  38.328  90.471  1.00  0.00     0.000 C 
BRANCH   9  10
ATOM     10  C   UNL     1     -18.661  39.054  91.675  1.00  0.00     0.000 C 
BRANCH  10  11
ATOM     11  C   UNL     1     -19.424  38.885  93.004  1.00  0.00     0.000 C 
BRANCH  11  12
ATOM     12  C   UNL     1     -20.177  40.154  93.459  1.00  0.00     0.006 C 
BRANCH  12  13
ATOM     13  C   UNL     1     -19.285  41.404  93.566  1.00  0.00     0.053 C 
BRANCH  13  14
ATOM     14  C   UNL     1     -18.367  41.341  94.750  1.00  0.00     0.041 C 
ATOM     15  O   UNL     1     -18.837  41.188  95.911  1.00  0.00    -0.550 OA
ATOM     16  O   UNL     1     -16.994  41.439  94.573  1.00  0.00    -0.550 OA
ENDBRANCH  13  14
ENDBRANCH  12  13
ENDBRANCH  11  12
ENDBRANCH  10  11
ENDBRANCH   9  10
ENDBRANCH   8   9
ENDBRANCH   7   8
ENDBRANCH   6   7
ENDBRANCH   5   6
ENDBRANCH   4   5
ENDBRANCH   3   4
ENDBRANCH   2   3
ENDBRANCH   1   2
BRANCH   1  17
ATOM     17  C   UNL     1     -20.738  32.871  94.881  1.00  0.00     0.000 C 
BRANCH  17  18
ATOM     18  C   UNL     1     -19.842  32.127  95.892  1.00  0.00     0.000 C 
BRANCH  18  19
ATOM     19  C   UNL     1     -18.850  31.137  95.249  1.00  0.00     0.000 C 
BRANCH  19  20
ATOM     20  C   UNL     1     -18.844  31.115  93.709  1.00  0.00     0.000 C 
BRANCH  20  21
ATOM     21  C   UNL     1     -18.406  29.781  93.076  1.00  0.00     0.000 C 
BRANCH  21  22
ATOM     22  C   UNL     1     -18.041  28.712  94.120  1.00  0.00    -0.000 C 
BRANCH  22  23
ATOM     23  C   UNL     1     -16.550  28.340  94.090  1.00  0.00    -0.000 C 
BRANCH  23  24
ATOM     24  C   UNL     1     -15.778  28.906  95.296  1.00  0.00    -0.000 C 
BRANCH  24  25
ATOM     25  C   UNL     1     -14.797  30.027  94.907  1.00  0.00    -0.000 C 
BRANCH  25  26
ATOM     26  C   UNL     1     -14.737  30.355  93.404  1.00  0.00    -0.000 C 
BRANCH  26  27
ATOM     27  C   UNL     1     -15.212  31.782  93.084  1.00  0.00    -0.000 C 
BRANCH  27  28
ATOM     28  C   UNL     1     -15.656  31.938  91.620  1.00  0.00    -0.000 C 
BRANCH  28  29
ATOM     29  C   UNL     1     -15.647  30.602  90.861  1.00  0.00    -0.003 C 
ATOM     30  C   UNL     1     -16.789  30.536  89.852  1.00  0.00     0.004 C 
ENDBRANCH  28  29
ENDBRANCH  27  28
ENDBRANCH  26  27
ENDBRANCH  25  26
ENDBRANCH  24  25
ENDBRANCH  23  24
ENDBRANCH  22  23
ENDBRANCH  21  22
ENDBRANCH  20  21
ENDBRANCH  19  20
ENDBRANCH  18  19
ENDBRANCH  17  18
ENDBRANCH   1  17
TORSDOF 26
ENDMDL
MODEL 3
REMARK VINA RESULT:    -2.902      3.219      6.795
REMARK INTER + INTRA:         -12.964
REMARK INTER:                  -8.101
REMARK INTRA:                  -4.863
REMARK UNBOUND:                -5.652
REMARK SMILES CCCCCCCCCCCCCCCCCCCCCCCCCCCC(=O)[O-]
REMARK SMILES IDX 15 1 16 2 17 3 18 4 19 5 20 6 21 7 22 8 23 9 24 10 25 11
REMARK SMILES IDX 26 12 27 13 28 14 29 15 30 16 14 17 13 18 12 19 11 20 10 21
REMARK SMILES IDX 9 22 8 23 7 24 6 25 5 26 4 27 3 28 2 29 1 30
REMARK H PARENT
REMARK Flexibility Score: inf
ROOT
ATOM      1  C   UNL     1      -3.562  45.519  94.346  1.00  0.00     0.000 C 
ENDROOT
BRANCH   1   2
ATOM      2  C   UNL     1      -2.050  45.633  94.599  1.00  0.00     0.000 C 
BRANCH   2   3
ATOM      3  C   UNL     1      -1.706  46.791  95.553  1.00  0.00     0.000 C 
BRANCH   3   4
ATOM      4  C   UNL     1      -1.977  46.449  97.028  1.00  0.00     0.000 C 
BRANCH   4   5
ATOM      5  C   UNL     1      -3.342  46.921  97.560  1.00  0.00     0.000 C 
BRANCH   5   6
ATOM      6  C   UNL     1      -4.016  45.919  98.522  1.00  0.00     0.000 C 
BRANCH   6   7
ATOM      7  C   UNL     1      -5.407  45.482  98.026  1.00  0.00     0.000 C 
BRANCH   7   8
ATOM      8  C   UNL     1      -5.819  44.095  98.564  1.00  0.00     0.000 C 
BRANCH   8   9
ATOM      9  C   UNL     1      -6.628  43.253  97.555  1.00  0.00     0.000 C 
BRANCH   9  10
ATOM     10  C   UNL     1      -7.672  44.038  96.742  1.00  0.00     0.000 C 
BRANCH  10  11
ATOM     11  C   UNL     1      -9.085  43.421  96.729  1.00  0.00     0.000 C 
BRANCH  11  12
ATOM     12  C   UNL     1      -9.848  43.574  98.063  1.00  0.00     0.006 C 
BRANCH  12  13
ATOM     13  C   UNL     1      -9.441  44.817  98.874  1.00  0.00     0.053 C 
BRANCH  13  14
ATOM     14  C   UNL     1     -10.334  45.989  98.594  1.00  0.00     0.041 C 
ATOM     15  O   UNL     1     -10.244  47.036  99.292  1.00  0.00    -0.550 OA
ATOM     16  O   UNL     1     -11.256  45.930  97.559  1.00  0.00    -0.550 OA
ENDBRANCH  13  14
ENDBRANCH  12  13
ENDBRANCH  11  12
ENDBRANCH  10  11
ENDBRANCH   9  10
ENDBRANCH   8   9
ENDBRANCH   7   8
ENDBRANCH   6   7
ENDBRANCH   5   6
ENDBRANCH   4   5
ENDBRANCH   3   4
ENDBRANCH   2   3
ENDBRANCH   1   2
BRANCH   1  17
ATOM     17  C   UNL     1      -4.155  44.219  94.917  1.00  0.00     0.000 C 
BRANCH  17  18
ATOM     18  C   UNL     1      -3.079  43.160  95.235  1.00  0.00     0.000 C 
BRANCH  18  19
ATOM     19  C   UNL     1      -3.040  42.721  96.712  1.00  0.00     0.000 C 
BRANCH  19  20
ATOM     20  C   UNL     1      -3.411  41.249  96.974  1.00  0.00     0.000 C 
BRANCH  20  21
ATOM     21  C   UNL     1      -2.264  40.371  97.506  1.00  0.00     0.000 C 
BRANCH  21  22
ATOM     22  C   UNL     1      -1.981  39.147  96.618  1.00  0.00    -0.000 C 
BRANCH  22  23
ATOM     23  C   UNL     1      -1.116  39.490  95.395  1.00  0.00    -0.000 C 
BRANCH  23  24
ATOM     24  C   UNL     1      -1.714  38.953  94.082  1.00  0.00    -0.000 C 
BRANCH  24  25
ATOM     25  C   UNL     1      -2.740  39.913  93.453  1.00  0.00    -0.000 C 
BRANCH  25  26
ATOM     26  C   UNL     1      -4.200  39.688  93.886  1.00  0.00    -0.000 C 
BRANCH  26  27
ATOM     27  C   UNL     1      -5.160  40.753  93.329  1.00  0.00    -0.000 C 
BRANCH  27  28
ATOM     28  C   UNL     1      -6.173  41.236  94.381  1.00  0.00    -0.000 C 
BRANCH  28  29
ATOM     29  C   UNL     1      -7.595  41.350  93.813  1.00  0.00    -0.003 C 
ATOM     30  C   UNL     1      -7.843  42.737  93.228  1.00  0.00     0.004 C 
ENDBRANCH  28  29
ENDBRANCH  27  28
ENDBRANCH  26  27
ENDBRANCH  25  26
ENDBRANCH  24  25
ENDBRANCH  23  24
ENDBRANCH  22  23
ENDBRANCH  21  22
ENDBRANCH  20  21
ENDBRANCH  19  20
ENDBRANCH  18  19
ENDBRANCH  17  18
ENDBRANCH   1  17
TORSDOF 26
ENDMDL
MODEL 4
REMARK VINA RESULT:    -2.889     12.451     15.330
REMARK INTER + INTRA:         -12.933
REMARK INTER:                  -7.888
REMARK INTRA:                  -5.045
REMARK UNBOUND:                -5.652
REMARK SMILES CCCCCCCCCCCCCCCCCCCCCCCCCCCC(=O)[O-]
REMARK SMILES IDX 15 1 16 2 17 3 18 4 19 5 20 6 21 7 22 8 23 9 24 10 25 11
REMARK SMILES IDX 26 12 27 13 28 14 29 15 30 16 14 17 13 18 12 19 11 20 10 21
REMARK SMILES IDX 9 22 8 23 7 24 6 25 5 26 4 27 3 28 2 29 1 30
REMARK H PARENT
REMARK Flexibility Score: inf
ROOT
ATOM      1  C   UNL     1     -19.124  39.536  92.010  1.00  0.00     0.000 C 
ENDROOT
BRANCH   1   2
ATOM      2  C   UNL     1     -19.148  38.912  90.605  1.00  0.00     0.000 C 
BRANCH   2   3
ATOM      3  C   UNL     1     -19.296  37.380  90.652  1.00  0.00     0.000 C 
BRANCH   3   4
ATOM      4  C   UNL     1     -19.646  36.772  89.283  1.00  0.00     0.000 C 
BRANCH   4   5
ATOM      5  C   UNL     1     -18.800  35.550  88.884  1.00  0.00     0.000 C 
BRANCH   5   6
ATOM      6  C   UNL     1     -17.325  35.639  89.330  1.00  0.00     0.000 C 
BRANCH   6   7
ATOM      7  C   UNL     1     -16.580  34.304  89.149  1.00  0.00     0.000 C 
BRANCH   7   8
ATOM      8  C   UNL     1     -16.582  33.446  90.432  1.00  0.00     0.000 C 
BRANCH   8   9
ATOM      9  C   UNL     1     -16.521  34.275  91.733  1.00  0.00     0.000 C 
BRANCH   9  10
ATOM     10  C   UNL     1     -17.380  33.735  92.890  1.00  0.00     0.000 C 
BRANCH  10  11
ATOM     11  C   UNL     1     -18.208  34.800  93.636  1.00  0.00     0.000 C 
BRANCH  11  12
ATOM     12  C   UNL     1     -19.507  34.253  94.269  1.00  0.00     0.006 C 
BRANCH  12  13
ATOM     13  C   UNL     1     -19.428  32.769  94.668  1.00  0.00     0.053 C 
BRANCH  13  14
ATOM     14  C   UNL     1     -19.279  32.591  96.150  1.00  0.00     0.041 C 
ATOM     15  O   UNL     1     -19.580  31.492  96.690  1.00  0.00    -0.550 OA
ATOM     16  O   UNL     1     -18.799  33.633  96.931  1.00  0.00    -0.550 OA
ENDBRANCH  13  14
ENDBRANCH  12  13
ENDBRANCH  11  12
ENDBRANCH  10  11
ENDBRANCH   9  10
ENDBRANCH   8   9
ENDBRANCH   7   8
ENDBRANCH   6   7
ENDBRANCH   5   6
ENDBRANCH   4   5
ENDBRANCH   3   4
ENDBRANCH   2   3
ENDBRANCH   1   2
BRANCH   1  17
ATOM     17  C   UNL     1     -20.537  39.762  92.576  1.00  0.00     0.000 C 
BRANCH  17  18
ATOM     18  C   UNL     1     -20.685  39.266  94.029  1.00  0.00     0.000 C 
BRANCH  18  19
ATOM     19  C   UNL     1     -19.723  38.121  94.407  1.00  0.00     0.000 C 
BRANCH  19  20
ATOM     20  C   UNL     1     -19.468  37.945  95.916  1.00  0.00     0.000 C 
BRANCH  20  21
ATOM     21  C   UNL     1     -19.743  39.193  96.775  1.00  0.00     0.000 C 
BRANCH  21  22
ATOM     22  C   UNL     1     -18.471  40.003  97.082  1.00  0.00    -0.000 C 
BRANCH  22  23
ATOM     23  C   UNL     1     -18.490  41.401  96.445  1.00  0.00    -0.000 C 
BRANCH  23  24
ATOM     24  C   UNL     1     -17.639  41.476  95.164  1.00  0.00    -0.000 C 
BRANCH  24  25
ATOM     25  C   UNL     1     -16.371  40.605  95.235  1.00  0.00    -0.000 C 
BRANCH  25  26
ATOM     26  C   UNL     1     -16.019  39.852  93.940  1.00  0.00    -0.000 C 
BRANCH  26  27
ATOM     27  C   UNL     1     -16.157  38.326  94.080  1.00  0.00    -0.000 C 
BRANCH  27  28
ATOM     28  C   UNL     1     -16.092  37.606  92.723  1.00  0.00    -0.000 C 
BRANCH  28  29
ATOM     29  C   UNL     1     -14.941  38.118  91.844  1.00  0.00    -0.003 C 
ATOM     30  C   UNL     1     -15.459  38.629  90.503  1.00  0.00     0.004 C 
ENDBRANCH  28  29
ENDBRANCH  27  28
ENDBRANCH  26  27
ENDBRANCH  25  26
ENDBRANCH  24  25
ENDBRANCH  23  24
ENDBRANCH  22  23
ENDBRANCH  21  22
ENDBRANCH  20  21
ENDBRANCH  19  20
ENDBRANCH  18  19
ENDBRANCH  17  18
ENDBRANCH   1  17
TORSDOF 26
ENDMDL
MODEL 5
REMARK VINA RESULT:    -2.866     12.162     14.986
REMARK INTER + INTRA:         -12.874
REMARK INTER:                  -7.974
REMARK INTRA:                  -4.900
REMARK UNBOUND:                -5.652
REMARK SMILES CCCCCCCCCCCCCCCCCCCCCCCCCCCC(=O)[O-]
REMARK SMILES IDX 15 1 16 2 17 3 18 4 19 5 20 6 21 7 22 8 23 9 24 10 25 11
REMARK SMILES IDX 26 12 27 13 28 14 29 15 30 16 14 17 13 18 12 19 11 20 10 21
REMARK SMILES IDX 9 22 8 23 7 24 6 25 5 26 4 27 3 28 2 29 1 30
REMARK H PARENT
REMARK Flexibility Score: inf
ROOT
ATOM      1  C   UNL     1     -19.623  37.040  90.704  1.00  0.00     0.000 C 
ENDROOT
BRANCH   1   2
ATOM      2  C   UNL     1     -19.072  36.192  89.547  1.00  0.00     0.000 C 
BRANCH   2   3
ATOM      3  C   UNL     1     -17.539  36.057  89.603  1.00  0.00     0.000 C 
BRANCH   3   4
ATOM      4  C   UNL     1     -17.043  34.687  89.111  1.00  0.00     0.000 C 
BRANCH   4   5
ATOM      5  C   UNL     1     -16.694  33.687  90.228  1.00  0.00     0.000 C 
BRANCH   5   6
ATOM      6  C   UNL     1     -15.655  34.218  91.239  1.00  0.00     0.000 C 
BRANCH   6   7
ATOM      7  C   UNL     1     -16.159  34.129  92.691  1.00  0.00     0.000 C 
BRANCH   7   8
ATOM      8  C   UNL     1     -17.644  34.527  92.828  1.00  0.00     0.000 C 
BRANCH   8   9
ATOM      9  C   UNL     1     -17.874  35.770  93.713  1.00  0.00     0.000 C 
BRANCH   9  10
ATOM     10  C   UNL     1     -19.156  35.735  94.564  1.00  0.00     0.000 C 
BRANCH  10  11
ATOM     11  C   UNL     1     -20.273  34.822  94.019  1.00  0.00     0.000 C 
BRANCH  11  12
ATOM     12  C   UNL     1     -20.647  33.658  94.964  1.00  0.00     0.006 C 
BRANCH  12  13
ATOM     13  C   UNL     1     -19.934  32.335  94.635  1.00  0.00     0.053 C 
BRANCH  13  14
ATOM     14  C   UNL     1     -18.915  31.971  95.673  1.00  0.00     0.041 C 
ATOM     15  O   UNL     1     -18.997  30.871  96.285  1.00  0.00    -0.550 OA
ATOM     16  O   UNL     1     -17.870  32.839  95.957  1.00  0.00    -0.550 OA
ENDBRANCH  13  14
ENDBRANCH  12  13
ENDBRANCH  11  12
ENDBRANCH  10  11
ENDBRANCH   9  10
ENDBRANCH   8   9
ENDBRANCH   7   8
ENDBRANCH   6   7
ENDBRANCH   5   6
ENDBRANCH   4   5
ENDBRANCH   3   4
ENDBRANCH   2   3
ENDBRANCH   1   2
BRANCH   1  17
ATOM     17  C   UNL     1     -19.088  38.484  90.680  1.00  0.00     0.000 C 
BRANCH  17  18
ATOM     18  C   UNL     1     -18.536  38.939  92.047  1.00  0.00     0.000 C 
BRANCH  18  19
ATOM     19  C   UNL     1     -19.613  39.131  93.132  1.00  0.00     0.000 C 
BRANCH  19  20
ATOM     20  C   UNL     1     -19.974  40.594  93.454  1.00  0.00     0.000 C 
BRANCH  20  21
ATOM     21  C   UNL     1     -18.805  41.457  93.965  1.00  0.00     0.000 C 
BRANCH  21  22
ATOM     22  C   UNL     1     -18.651  41.416  95.494  1.00  0.00    -0.000 C 
BRANCH  22  23
ATOM     23  C   UNL     1     -17.295  40.844  95.939  1.00  0.00    -0.000 C 
BRANCH  23  24
ATOM     24  C   UNL     1     -16.202  41.022  94.870  1.00  0.00    -0.000 C 
BRANCH  24  25
ATOM     25  C   UNL     1     -15.145  39.903  94.901  1.00  0.00    -0.000 C 
BRANCH  25  26
ATOM     26  C   UNL     1     -15.608  38.546  94.339  1.00  0.00    -0.000 C 
BRANCH  26  27
ATOM     27  C   UNL     1     -14.584  37.916  93.381  1.00  0.00    -0.000 C 
BRANCH  27  28
ATOM     28  C   UNL     1     -15.160  37.690  91.973  1.00  0.00    -0.000 C 
BRANCH  28  29
ATOM     29  C   UNL     1     -14.887  38.874  91.033  1.00  0.00    -0.003 C 
ATOM     30  C   UNL     1     -13.510  39.477  91.294  1.00  0.00     0.004 C 
ENDBRANCH  28  29
ENDBRANCH  27  28
ENDBRANCH  26  27
ENDBRANCH  25  26
ENDBRANCH  24  25
ENDBRANCH  23  24
ENDBRANCH  22  23
ENDBRANCH  21  22
ENDBRANCH  20  21
ENDBRANCH  19  20
ENDBRANCH  18  19
ENDBRANCH  17  18
ENDBRANCH   1  17
TORSDOF 26
ENDMDL
MODEL 6
REMARK VINA RESULT:    -2.853     12.294     15.854
REMARK INTER + INTRA:         -12.841
REMARK INTER:                  -7.843
REMARK INTRA:                  -4.998
REMARK UNBOUND:                -5.652
REMARK SMILES CCCCCCCCCCCCCCCCCCCCCCCCCCCC(=O)[O-]
REMARK SMILES IDX 15 1 16 2 17 3 18 4 19 5 20 6 21 7 22 8 23 9 24 10 25 11
REMARK SMILES IDX 26 12 27 13 28 14 29 15 30 16 14 17 13 18 12 19 11 20 10 21
REMARK SMILES IDX 9 22 8 23 7 24 6 25 5 26 4 27 3 28 2 29 1 30
REMARK H PARENT
REMARK Flexibility Score: inf
ROOT
ATOM      1  C   UNL     1     -17.293  40.919  95.950  1.00  0.00     0.000 C 
ENDROOT
BRANCH   1   2
ATOM      2  C   UNL     1     -17.398  41.418  94.499  1.00  0.00     0.000 C 
BRANCH   2   3
ATOM      3  C   UNL     1     -18.846  41.383  93.978  1.00  0.00     0.000 C 
BRANCH   3   4
ATOM      4  C   UNL     1     -19.054  40.342  92.864  1.00  0.00     0.000 C 
BRANCH   4   5
ATOM      5  C   UNL     1     -20.309  39.466  93.023  1.00  0.00     0.000 C 
BRANCH   5   6
ATOM      6  C   UNL     1     -20.240  38.131  92.251  1.00  0.00     0.000 C 
BRANCH   6   7
ATOM      7  C   UNL     1     -19.456  38.261  90.933  1.00  0.00     0.000 C 
BRANCH   7   8
ATOM      8  C   UNL     1     -19.227  36.900  90.242  1.00  0.00     0.000 C 
BRANCH   8   9
ATOM      9  C   UNL     1     -17.759  36.425  90.279  1.00  0.00     0.000 C 
BRANCH   9  10
ATOM     10  C   UNL     1     -17.363  35.633  91.538  1.00  0.00     0.000 C 
BRANCH  10  11
ATOM     11  C   UNL     1     -16.210  36.248  92.357  1.00  0.00     0.000 C 
BRANCH  11  12
ATOM     12  C   UNL     1     -16.548  37.618  92.985  1.00  0.00     0.006 C 
BRANCH  12  13
ATOM     13  C   UNL     1     -15.636  38.763  92.512  1.00  0.00     0.053 C 
BRANCH  13  14
ATOM     14  C   UNL     1     -14.603  39.121  93.540  1.00  0.00     0.041 C 
ATOM     15  O   UNL     1     -13.622  39.849  93.226  1.00  0.00    -0.550 OA
ATOM     16  O   UNL     1     -14.729  38.660  94.843  1.00  0.00    -0.550 OA
ENDBRANCH  13  14
ENDBRANCH  12  13
ENDBRANCH  11  12
ENDBRANCH  10  11
ENDBRANCH   9  10
ENDBRANCH   8   9
ENDBRANCH   7   8
ENDBRANCH   6   7
ENDBRANCH   5   6
ENDBRANCH   4   5
ENDBRANCH   3   4
ENDBRANCH   2   3
ENDBRANCH   1   2
BRANCH   1  17
ATOM     17  C   UNL     1     -18.531  41.285  96.788  1.00  0.00     0.000 C 
BRANCH  17  18
ATOM     18  C   UNL     1     -19.135  40.071  97.522  1.00  0.00     0.000 C 
BRANCH  18  19
ATOM     19  C   UNL     1     -20.352  39.444  96.813  1.00  0.00     0.000 C 
BRANCH  19  20
ATOM     20  C   UNL     1     -20.186  37.970  96.394  1.00  0.00     0.000 C 
BRANCH  20  21
ATOM     21  C   UNL     1     -18.817  37.615  95.785  1.00  0.00     0.000 C 
BRANCH  21  22
ATOM     22  C   UNL     1     -18.536  36.103  95.776  1.00  0.00    -0.000 C 
BRANCH  22  23
ATOM     23  C   UNL     1     -19.329  35.359  94.690  1.00  0.00    -0.000 C 
BRANCH  23  24
ATOM     24  C   UNL     1     -18.980  33.861  94.627  1.00  0.00    -0.000 C 
BRANCH  24  25
ATOM     25  C   UNL     1     -17.463  33.599  94.623  1.00  0.00    -0.000 C 
BRANCH  25  26
ATOM     26  C   UNL     1     -17.053  32.122  94.477  1.00  0.00    -0.000 C 
BRANCH  26  27
ATOM     27  C   UNL     1     -17.129  31.622  93.024  1.00  0.00    -0.000 C 
BRANCH  27  28
ATOM     28  C   UNL     1     -18.203  30.537  92.834  1.00  0.00    -0.000 C 
BRANCH  28  29
ATOM     29  C   UNL     1     -18.571  29.841  94.153  1.00  0.00    -0.003 C 
ATOM     30  C   UNL     1     -18.067  28.401  94.173  1.00  0.00     0.004 C 
ENDBRANCH  28  29
ENDBRANCH  27  28
ENDBRANCH  26  27
ENDBRANCH  25  26
ENDBRANCH  24  25
ENDBRANCH  23  24
ENDBRANCH  22  23
ENDBRANCH  21  22
ENDBRANCH  20  21
ENDBRANCH  19  20
ENDBRANCH  18  19
ENDBRANCH  17  18
ENDBRANCH   1  17
TORSDOF 26
ENDMDL
MODEL 7
REMARK VINA RESULT:    -2.842     11.510     14.971
REMARK INTER + INTRA:         -12.815
REMARK INTER:                  -7.156
REMARK INTRA:                  -5.658
REMARK UNBOUND:                -5.652
REMARK SMILES CCCCCCCCCCCCCCCCCCCCCCCCCCCC(=O)[O-]
REMARK SMILES IDX 15 1 16 2 17 3 18 4 19 5 20 6 21 7 22 8 23 9 24 10 25 11
REMARK SMILES IDX 26 12 27 13 28 14 29 15 30 16 14 17 13 18 12 19 11 20 10 21
REMARK SMILES IDX 9 22 8 23 7 24 6 25 5 26 4 27 3 28 2 29 1 30
REMARK H PARENT
REMARK Flexibility Score: inf
ROOT
ATOM      1  C   UNL     1     -17.305  41.106  95.562  1.00  0.00     0.000 C 
ENDROOT
BRANCH   1   2
ATOM      2  C   UNL     1     -17.734  40.789  94.120  1.00  0.00     0.000 C 
BRANCH   2   3
ATOM      3  C   UNL     1     -19.064  41.469  93.747  1.00  0.00     0.000 C 
BRANCH   3   4
ATOM      4  C   UNL     1     -20.116  40.475  93.227  1.00  0.00     0.000 C 
BRANCH   4   5
ATOM      5  C   UNL     1     -19.540  39.223  92.542  1.00  0.00     0.000 C 
BRANCH   5   6
ATOM      6  C   UNL     1     -20.442  37.976  92.662  1.00  0.00     0.000 C 
BRANCH   6   7
ATOM      7  C   UNL     1     -19.952  36.816  91.775  1.00  0.00     0.000 C 
BRANCH   7   8
ATOM      8  C   UNL     1     -19.081  37.300  90.596  1.00  0.00     0.000 C 
BRANCH   8   9
ATOM      9  C   UNL     1     -18.456  36.152  89.775  1.00  0.00     0.000 C 
BRANCH   9  10
ATOM     10  C   UNL     1     -16.919  36.173  89.693  1.00  0.00     0.000 C 
BRANCH  10  11
ATOM     11  C   UNL     1     -16.220  34.932  90.286  1.00  0.00     0.000 C 
BRANCH  11  12
ATOM     12  C   UNL     1     -16.958  34.314  91.493  1.00  0.00     0.006 C 
BRANCH  12  13
ATOM     13  C   UNL     1     -16.030  33.608  92.496  1.00  0.00     0.053 C 
BRANCH  13  14
ATOM     14  C   UNL     1     -16.069  32.116  92.346  1.00  0.00     0.041 C 
ATOM     15  O   UNL     1     -16.805  31.421  93.100  1.00  0.00    -0.550 OA
ATOM     16  O   UNL     1     -15.305  31.494  91.368  1.00  0.00    -0.550 OA
ENDBRANCH  13  14
ENDBRANCH  12  13
ENDBRANCH  11  12
ENDBRANCH  10  11
ENDBRANCH   9  10
ENDBRANCH   8   9
ENDBRANCH   7   8
ENDBRANCH   6   7
ENDBRANCH   5   6
ENDBRANCH   4   5
ENDBRANCH   3   4
ENDBRANCH   2   3
ENDBRANCH   1   2
BRANCH   1  17
ATOM     17  C   UNL     1     -18.490  41.533  96.446  1.00  0.00     0.000 C 
BRANCH  17  18
ATOM     18  C   UNL     1     -18.902  40.445  97.460  1.00  0.00     0.000 C 
BRANCH  18  19
ATOM     19  C   UNL     1     -20.214  39.716  97.107  1.00  0.00     0.000 C 
BRANCH  19  20
ATOM     20  C   UNL     1     -20.052  38.433  96.270  1.00  0.00     0.000 C 
BRANCH  20  21
ATOM     21  C   UNL     1     -18.697  37.717  96.426  1.00  0.00     0.000 C 
BRANCH  21  22
ATOM     22  C   UNL     1     -18.723  36.264  95.922  1.00  0.00    -0.000 C 
BRANCH  22  23
ATOM     23  C   UNL     1     -17.851  36.054  94.674  1.00  0.00    -0.000 C 
BRANCH  23  24
ATOM     24  C   UNL     1     -16.701  37.073  94.581  1.00  0.00    -0.000 C 
BRANCH  24  25
ATOM     25  C   UNL     1     -16.454  37.569  93.144  1.00  0.00    -0.000 C 
BRANCH  25  26
ATOM     26  C   UNL     1     -14.982  37.568  92.694  1.00  0.00    -0.000 C 
BRANCH  26  27
ATOM     27  C   UNL     1     -14.558  38.892  92.034  1.00  0.00    -0.000 C 
BRANCH  27  28
ATOM     28  C   UNL     1     -13.511  39.652  92.866  1.00  0.00    -0.000 C 
BRANCH  28  29
ATOM     29  C   UNL     1     -14.063  40.108  94.225  1.00  0.00    -0.003 C 
ATOM     30  C   UNL     1     -13.214  39.569  95.372  1.00  0.00     0.004 C 
ENDBRANCH  28  29
ENDBRANCH  27  28
ENDBRANCH  26  27
ENDBRANCH  25  26
ENDBRANCH  24  25
ENDBRANCH  23  24
ENDBRANCH  22  23
ENDBRANCH  21  22
ENDBRANCH  20  21
ENDBRANCH  19  20
ENDBRANCH  18  19
ENDBRANCH  17  18
ENDBRANCH   1  17
TORSDOF 26
ENDMDL
MODEL 8
REMARK VINA RESULT:    -2.831     12.735     15.569
REMARK INTER + INTRA:         -12.785
REMARK INTER:                  -7.691
REMARK INTRA:                  -5.094
REMARK UNBOUND:                -5.652
REMARK SMILES CCCCCCCCCCCCCCCCCCCCCCCCCCCC(=O)[O-]
REMARK SMILES IDX 15 1 16 2 17 3 18 4 19 5 20 6 21 7 22 8 23 9 24 10 25 11
REMARK SMILES IDX 26 12 27 13 28 14 29 15 30 16 14 17 13 18 12 19 11 20 10 21
REMARK SMILES IDX 9 22 8 23 7 24 6 25 5 26 4 27 3 28 2 29 1 30
REMARK H PARENT
REMARK Flexibility Score: inf
ROOT
ATOM      1  C   UNL     1     -20.668  37.853  92.636  1.00  0.00     0.000 C 
ENDROOT
BRANCH   1   2
ATOM      2  C   UNL     1     -20.111  36.634  91.882  1.00  0.00     0.000 C 
BRANCH   2   3
ATOM      3  C   UNL     1     -19.599  37.004  90.478  1.00  0.00     0.000 C 
BRANCH   3   4
ATOM      4  C   UNL     1     -18.170  36.499  90.213  1.00  0.00     0.000 C 
BRANCH   4   5
ATOM      5  C   UNL     1     -17.078  37.169  91.066  1.00  0.00     0.000 C 
BRANCH   5   6
ATOM      6  C   UNL     1     -16.322  36.192  91.992  1.00  0.00     0.000 C 
BRANCH   6   7
ATOM      7  C   UNL     1     -16.375  34.743  91.475  1.00  0.00     0.000 C 
BRANCH   7   8
ATOM      8  C   UNL     1     -16.953  33.763  92.518  1.00  0.00     0.000 C 
BRANCH   8   9
ATOM      9  C   UNL     1     -17.760  34.453  93.638  1.00  0.00     0.000 C 
BRANCH   9  10
ATOM     10  C   UNL     1     -18.990  33.671  94.130  1.00  0.00     0.000 C 
BRANCH  10  11
ATOM     11  C   UNL     1     -18.694  32.599  95.199  1.00  0.00     0.000 C 
BRANCH  11  12
ATOM     12  C   UNL     1     -19.254  31.201  94.855  1.00  0.00     0.006 C 
BRANCH  12  13
ATOM     13  C   UNL     1     -18.655  30.586  93.578  1.00  0.00     0.053 C 
BRANCH  13  14
ATOM     14  C   UNL     1     -17.875  29.338  93.867  1.00  0.00     0.041 C 
ATOM     15  O   UNL     1     -17.219  28.773  92.949  1.00  0.00    -0.550 OA
ATOM     16  O   UNL     1     -17.864  28.805  95.149  1.00  0.00    -0.550 OA
ENDBRANCH  13  14
ENDBRANCH  12  13
ENDBRANCH  11  12
ENDBRANCH  10  11
ENDBRANCH   9  10
ENDBRANCH   8   9
ENDBRANCH   7   8
ENDBRANCH   6   7
ENDBRANCH   5   6
ENDBRANCH   4   5
ENDBRANCH   3   4
ENDBRANCH   2   3
ENDBRANCH   1   2
BRANCH   1  17
ATOM     17  C   UNL     1     -19.944  39.158  92.256  1.00  0.00     0.000 C 
BRANCH  17  18
ATOM     18  C   UNL     1     -20.459  40.378  93.048  1.00  0.00     0.000 C 
BRANCH  18  19
ATOM     19  C   UNL     1     -19.347  41.318  93.555  1.00  0.00     0.000 C 
BRANCH  19  20
ATOM     20  C   UNL     1     -17.972  40.656  93.775  1.00  0.00     0.000 C 
BRANCH  20  21
ATOM     21  C   UNL     1     -17.215  41.127  95.030  1.00  0.00     0.000 C 
BRANCH  21  22
ATOM     22  C   UNL     1     -18.146  41.435  96.214  1.00  0.00    -0.000 C 
BRANCH  22  23
ATOM     23  C   UNL     1     -18.456  40.193  97.065  1.00  0.00    -0.000 C 
BRANCH  23  24
ATOM     24  C   UNL     1     -19.948  39.818  97.040  1.00  0.00    -0.000 C 
BRANCH  24  25
ATOM     25  C   UNL     1     -20.215  38.457  96.371  1.00  0.00    -0.000 C 
BRANCH  25  26
ATOM     26  C   UNL     1     -18.975  37.767  95.773  1.00  0.00    -0.000 C 
BRANCH  26  27
ATOM     27  C   UNL     1     -18.568  36.499  96.543  1.00  0.00    -0.000 C 
BRANCH  27  28
ATOM     28  C   UNL     1     -17.044  36.384  96.717  1.00  0.00    -0.000 C 
BRANCH  28  29
ATOM     29  C   UNL     1     -16.272  37.153  95.635  1.00  0.00    -0.003 C 
ATOM     30  C   UNL     1     -15.329  38.178  96.256  1.00  0.00     0.004 C 
ENDBRANCH  28  29
ENDBRANCH  27  28
ENDBRANCH  26  27
ENDBRANCH  25  26
ENDBRANCH  24  25
ENDBRANCH  23  24
ENDBRANCH  22  23
ENDBRANCH  21  22
ENDBRANCH  20  21
ENDBRANCH  19  20
ENDBRANCH  18  19
ENDBRANCH  17  18
ENDBRANCH   1  17
TORSDOF 26
ENDMDL
MODEL 9
REMARK VINA RESULT:    -2.814     11.684     15.355
REMARK INTER + INTRA:         -12.744
REMARK INTER:                  -7.483
REMARK INTRA:                  -5.261
REMARK UNBOUND:                -5.652
REMARK SMILES CCCCCCCCCCCCCCCCCCCCCCCCCCCC(=O)[O-]
REMARK SMILES IDX 15 1 16 2 17 3 18 4 19 5 20 6 21 7 22 8 23 9 24 10 25 11
REMARK SMILES IDX 26 12 27 13 28 14 29 15 30 16 14 17 13 18 12 19 11 20 10 21
REMARK SMILES IDX 9 22 8 23 7 24 6 25 5 26 4 27 3 28 2 29 1 30
REMARK H PARENT
REMARK Flexibility Score: inf
ROOT
ATOM      1  C   UNL     1     -16.347  40.219  95.625  1.00  0.00     0.000 C 
ENDROOT
BRANCH   1   2
ATOM      2  C   UNL     1     -16.976  41.304  94.737  1.00  0.00     0.000 C 
BRANCH   2   3
ATOM      3  C   UNL     1     -18.507  41.365  94.890  1.00  0.00     0.000 C 
BRANCH   3   4
ATOM      4  C   UNL     1     -19.249  41.078  93.574  1.00  0.00     0.000 C 
BRANCH   4   5
ATOM      5  C   UNL     1     -20.407  40.071  93.691  1.00  0.00     0.000 C 
BRANCH   5   6
ATOM      6  C   UNL     1     -20.375  38.957  92.622  1.00  0.00     0.000 C 
BRANCH   6   7
ATOM      7  C   UNL     1     -19.355  39.250  91.507  1.00  0.00     0.000 C 
BRANCH   7   8
ATOM      8  C   UNL     1     -18.693  37.968  90.958  1.00  0.00     0.000 C 
BRANCH   8   9
ATOM      9  C   UNL     1     -17.401  37.570  91.703  1.00  0.00     0.000 C 
BRANCH   9  10
ATOM     10  C   UNL     1     -16.599  38.746  92.289  1.00  0.00     0.000 C 
BRANCH  10  11
ATOM     11  C   UNL     1     -15.095  38.742  91.949  1.00  0.00     0.000 C 
BRANCH  11  12
ATOM     12  C   UNL     1     -14.175  38.593  93.180  1.00  0.00     0.006 C 
BRANCH  12  13
ATOM     13  C   UNL     1     -12.988  39.571  93.193  1.00  0.00     0.053 C 
BRANCH  13  14
ATOM     14  C   UNL     1     -12.932  40.373  94.460  1.00  0.00     0.041 C 
ATOM     15  O   UNL     1     -13.251  41.593  94.453  1.00  0.00    -0.550 OA
ATOM     16  O   UNL     1     -12.540  39.771  95.648  1.00  0.00    -0.550 OA
ENDBRANCH  13  14
ENDBRANCH  12  13
ENDBRANCH  11  12
ENDBRANCH  10  11
ENDBRANCH   9  10
ENDBRANCH   8   9
ENDBRANCH   7   8
ENDBRANCH   6   7
ENDBRANCH   5   6
ENDBRANCH   4   5
ENDBRANCH   3   4
ENDBRANCH   2   3
ENDBRANCH   1   2
BRANCH   1  17
ATOM     17  C   UNL     1     -17.405  39.321  96.292  1.00  0.00     0.000 C 
BRANCH  17  18
ATOM     18  C   UNL     1     -17.328  37.855  95.817  1.00  0.00     0.000 C 
BRANCH  18  19
ATOM     19  C   UNL     1     -18.674  37.275  95.336  1.00  0.00     0.000 C 
BRANCH  19  20
ATOM     20  C   UNL     1     -18.611  35.843  94.770  1.00  0.00     0.000 C 
BRANCH  20  21
ATOM     21  C   UNL     1     -19.847  35.406  93.962  1.00  0.00     0.000 C 
BRANCH  21  22
ATOM     22  C   UNL     1     -20.492  34.118  94.500  1.00  0.00    -0.000 C 
BRANCH  22  23
ATOM     23  C   UNL     1     -19.883  33.663  95.835  1.00  0.00    -0.000 C 
BRANCH  23  24
ATOM     24  C   UNL     1     -19.805  32.130  95.955  1.00  0.00    -0.000 C 
BRANCH  24  25
ATOM     25  C   UNL     1     -19.324  31.451  94.660  1.00  0.00    -0.000 C 
BRANCH  25  26
ATOM     26  C   UNL     1     -17.797  31.422  94.462  1.00  0.00    -0.000 C 
BRANCH  26  27
ATOM     27  C   UNL     1     -17.376  31.719  93.013  1.00  0.00    -0.000 C 
BRANCH  27  28
ATOM     28  C   UNL     1     -16.951  33.183  92.815  1.00  0.00    -0.000 C 
BRANCH  28  29
ATOM     29  C   UNL     1     -15.795  33.587  93.741  1.00  0.00    -0.003 C 
ATOM     30  C   UNL     1     -15.321  35.006  93.442  1.00  0.00     0.004 C 
ENDBRANCH  28  29
ENDBRANCH  27  28
ENDBRANCH  26  27
ENDBRANCH  25  26
ENDBRANCH  24  25
ENDBRANCH  23  24
ENDBRANCH  22  23
ENDBRANCH  21  22
ENDBRANCH  20  21
ENDBRANCH  19  20
ENDBRANCH  18  19
ENDBRANCH  17  18
ENDBRANCH   1  17
TORSDOF 26
ENDMDL
