MODEL 1
REMARK VINA RESULT:    -3.738      0.000      0.000
REMARK INTER + INTRA:         -11.962
REMARK INTER:                  -8.545
REMARK INTRA:                  -3.417
REMARK UNBOUND:                -3.417
REMARK SMILES CCCCCCCCCCCCCCCCCCCCCCCC(=O)[O-]
REMARK SMILES IDX 13 1 14 2 15 3 16 4 17 5 18 6 19 7 20 8 21 9 22 10 23 11
REMARK SMILES IDX 24 12 25 13 26 14 12 15 11 16 10 17 9 18 8 19 7 20 6 21 5 22
REMARK SMILES IDX 4 23 3 24 2 25 1 26
REMARK H PARENT
REMARK Flexibility Score: inf
ROOT
ATOM      1  C   UNL     1      23.501  21.029  18.125  1.00  0.00     0.000 C 
ENDROOT
BRANCH   1   2
ATOM      2  C   UNL     1      24.357  21.865  19.093  1.00  0.00     0.000 C 
BRANCH   2   3
ATOM      3  C   UNL     1      25.691  22.309  18.471  1.00  0.00     0.000 C 
BRANCH   3   4
ATOM      4  C   UNL     1      25.594  23.678  17.778  1.00  0.00     0.000 C 
BRANCH   4   5
ATOM      5  C   UNL     1      26.088  23.599  16.328  1.00  0.00     0.000 C 
BRANCH   5   6
ATOM      6  C   UNL     1      25.158  22.721  15.479  1.00  0.00     0.000 C 
BRANCH   6   7
ATOM      7  C   UNL     1      24.898  23.302  14.080  1.00  0.00     0.000 C 
BRANCH   7   8
ATOM      8  C   UNL     1      23.684  22.672  13.365  1.00  0.00     0.000 C 
BRANCH   8   9
ATOM      9  C   UNL     1      22.415  22.720  14.229  1.00  0.00     0.000 C 
BRANCH   9  10
ATOM     10  C   UNL     1      21.171  22.977  13.371  1.00  0.00     0.006 C 
BRANCH  10  11
ATOM     11  C   UNL     1      21.460  22.714  11.890  1.00  0.00     0.053 C 
BRANCH  11  12
ATOM     12  C   UNL     1      21.116  23.913  11.066  1.00  0.00     0.041 C 
ATOM     13  O   UNL     1      20.923  25.028  11.620  1.00  0.00    -0.550 OA
ATOM     14  O   UNL     1      21.051  23.812   9.681  1.00  0.00    -0.550 OA
ENDBRANCH  11  12
ENDBRANCH  10  11
ENDBRANCH   9  10
ENDBRANCH   8   9
ENDBRANCH   7   8
ENDBRANCH   6   7
ENDBRANCH   5   6
ENDBRANCH   4   5
ENDBRANCH   3   4
ENDBRANCH   2   3
ENDBRANCH   1   2
BRANCH   1  15
ATOM     15  C   UNL     1      22.180  21.720  17.740  1.00  0.00     0.000 C 
BRANCH  15  16
ATOM     16  C   UNL     1      21.929  23.084  18.409  1.00  0.00     0.000 C 
BRANCH  16  17
ATOM     17  C   UNL     1      22.035  24.263  17.427  1.00  0.00     0.000 C 
BRANCH  17  18
ATOM     18  C   UNL     1      22.397  25.590  18.121  1.00  0.00    -0.000 C 
BRANCH  18  19
ATOM     19  C   UNL     1      21.853  25.747  19.554  1.00  0.00    -0.000 C 
BRANCH  19  20
ATOM     20  C   UNL     1      22.960  26.000  20.590  1.00  0.00    -0.000 C 
BRANCH  20  21
ATOM     21  C   UNL     1      24.345  26.172  19.948  1.00  0.00    -0.000 C 
BRANCH  21  22
ATOM     22  C   UNL     1      25.043  27.472  20.384  1.00  0.00    -0.000 C 
BRANCH  22  23
ATOM     23  C   UNL     1      25.134  28.499  19.235  1.00  0.00    -0.000 C 
BRANCH  23  24
ATOM     24  C   UNL     1      24.377  29.811  19.516  1.00  0.00    -0.000 C 
BRANCH  24  25
ATOM     25  C   UNL     1      22.869  29.755  19.226  1.00  0.00    -0.003 C 
ATOM     26  C   UNL     1      22.029  29.583  20.492  1.00  0.00     0.004 C 
ENDBRANCH  24  25
ENDBRANCH  23  24
ENDBRANCH  22  23
ENDBRANCH  21  22
ENDBRANCH  20  21
ENDBRANCH  19  20
ENDBRANCH  18  19
ENDBRANCH  17  18
ENDBRANCH  16  17
ENDBRANCH  15  16
ENDBRANCH   1  15
TORSDOF 22
ENDMDL
MODEL 2
REMARK VINA RESULT:    -3.688      1.992      3.606
REMARK INTER + INTRA:         -11.848
REMARK INTER:                  -8.307
REMARK INTRA:                  -3.541
REMARK UNBOUND:                -3.417
REMARK SMILES CCCCCCCCCCCCCCCCCCCCCCCC(=O)[O-]
REMARK SMILES IDX 13 1 14 2 15 3 16 4 17 5 18 6 19 7 20 8 21 9 22 10 23 11
REMARK SMILES IDX 24 12 25 13 26 14 12 15 11 16 10 17 9 18 8 19 7 20 6 21 5 22
REMARK SMILES IDX 4 23 3 24 2 25 1 26
REMARK H PARENT
REMARK Flexibility Score: inf
ROOT
ATOM      1  C   UNL     1      25.477  23.336  17.533  1.00  0.00     0.000 C 
ENDROOT
BRANCH   1   2
ATOM      2  C   UNL     1      25.512  22.270  18.642  1.00  0.00     0.000 C 
BRANCH   2   3
ATOM      3  C   UNL     1      24.128  21.664  18.925  1.00  0.00     0.000 C 
BRANCH   3   4
ATOM      4  C   UNL     1      23.639  20.748  17.792  1.00  0.00     0.000 C 
BRANCH   4   5
ATOM      5  C   UNL     1      22.116  20.830  17.634  1.00  0.00     0.000 C 
BRANCH   5   6
ATOM      6  C   UNL     1      21.601  22.229  18.002  1.00  0.00     0.000 C 
BRANCH   6   7
ATOM      7  C   UNL     1      20.988  22.976  16.806  1.00  0.00     0.000 C 
BRANCH   7   8
ATOM      8  C   UNL     1      21.180  22.247  15.459  1.00  0.00     0.000 C 
BRANCH   8   9
ATOM      9  C   UNL     1      21.434  23.225  14.303  1.00  0.00     0.000 C 
BRANCH   9  10
ATOM     10  C   UNL     1      22.688  22.831  13.512  1.00  0.00     0.006 C 
BRANCH  10  11
ATOM     11  C   UNL     1      23.844  22.479  14.452  1.00  0.00     0.053 C 
BRANCH  11  12
ATOM     12  C   UNL     1      25.157  22.823  13.824  1.00  0.00     0.041 C 
ATOM     13  O   UNL     1      25.653  23.971  13.984  1.00  0.00    -0.550 OA
ATOM     14  O   UNL     1      25.855  21.866  13.099  1.00  0.00    -0.550 OA
ENDBRANCH  11  12
ENDBRANCH  10  11
ENDBRANCH   9  10
ENDBRANCH   8   9
ENDBRANCH   7   8
ENDBRANCH   6   7
ENDBRANCH   5   6
ENDBRANCH   4   5
ENDBRANCH   3   4
ENDBRANCH   2   3
ENDBRANCH   1   2
BRANCH   1  15
ATOM     15  C   UNL     1      25.209  24.754  18.070  1.00  0.00     0.000 C 
BRANCH  15  16
ATOM     16  C   UNL     1      23.727  25.168  18.129  1.00  0.00     0.000 C 
BRANCH  16  17
ATOM     17  C   UNL     1      23.222  25.391  19.564  1.00  0.00     0.000 C 
BRANCH  17  18
ATOM     18  C   UNL     1      21.695  25.571  19.641  1.00  0.00    -0.000 C 
BRANCH  18  19
ATOM     19  C   UNL     1      21.202  27.025  19.521  1.00  0.00    -0.000 C 
BRANCH  19  20
ATOM     20  C   UNL     1      21.600  27.894  20.725  1.00  0.00    -0.000 C 
BRANCH  20  21
ATOM     21  C   UNL     1      21.350  29.391  20.485  1.00  0.00    -0.000 C 
BRANCH  21  22
ATOM     22  C   UNL     1      22.371  30.014  19.517  1.00  0.00    -0.000 C 
BRANCH  22  23
ATOM     23  C   UNL     1      23.828  29.746  19.954  1.00  0.00    -0.000 C 
BRANCH  23  24
ATOM     24  C   UNL     1      24.590  28.794  19.013  1.00  0.00    -0.000 C 
BRANCH  24  25
ATOM     25  C   UNL     1      25.760  28.045  19.672  1.00  0.00    -0.003 C 
ATOM     26  C   UNL     1      26.955  27.872  18.733  1.00  0.00     0.004 C 
ENDBRANCH  24  25
ENDBRANCH  23  24
ENDBRANCH  22  23
ENDBRANCH  21  22
ENDBRANCH  20  21
ENDBRANCH  19  20
ENDBRANCH  18  19
ENDBRANCH  17  18
ENDBRANCH  16  17
ENDBRANCH  15  16
ENDBRANCH   1  15
TORSDOF 22
ENDMDL
MODEL 3
REMARK VINA RESULT:    -3.617      3.084      7.564
REMARK INTER + INTRA:         -11.685
REMARK INTER:                  -8.053
REMARK INTRA:                  -3.632
REMARK UNBOUND:                -3.417
REMARK SMILES CCCCCCCCCCCCCCCCCCCCCCCC(=O)[O-]
REMARK SMILES IDX 13 1 14 2 15 3 16 4 17 5 18 6 19 7 20 8 21 9 22 10 23 11
REMARK SMILES IDX 24 12 25 13 26 14 12 15 11 16 10 17 9 18 8 19 7 20 6 21 5 22
REMARK SMILES IDX 4 23 3 24 2 25 1 26
REMARK H PARENT
REMARK Flexibility Score: inf
ROOT
ATOM      1  C   UNL     1      26.142  23.770  16.916  1.00  0.00     0.000 C 
ENDROOT
BRANCH   1   2
ATOM      2  C   UNL     1      25.163  24.725  17.622  1.00  0.00     0.000 C 
BRANCH   2   3
ATOM      3  C   UNL     1      23.722  24.584  17.105  1.00  0.00     0.000 C 
BRANCH   3   4
ATOM      4  C   UNL     1      22.703  25.324  17.984  1.00  0.00     0.000 C 
BRANCH   4   5
ATOM      5  C   UNL     1      22.365  24.512  19.241  1.00  0.00     0.000 C 
BRANCH   5   6
ATOM      6  C   UNL     1      21.591  25.366  20.254  1.00  0.00     0.000 C 
BRANCH   6   7
ATOM      7  C   UNL     1      20.876  26.563  19.607  1.00  0.00     0.000 C 
BRANCH   7   8
ATOM      8  C   UNL     1      21.061  27.886  20.381  1.00  0.00     0.000 C 
BRANCH   8   9
ATOM      9  C   UNL     1      21.643  28.997  19.497  1.00  0.00     0.000 C 
BRANCH   9  10
ATOM     10  C   UNL     1      23.020  29.443  20.003  1.00  0.00     0.006 C 
BRANCH  10  11
ATOM     11  C   UNL     1      23.643  28.380  20.913  1.00  0.00     0.053 C 
BRANCH  11  12
ATOM     12  C   UNL     1      24.754  27.669  20.209  1.00  0.00     0.041 C 
ATOM     13  O   UNL     1      25.174  26.564  20.644  1.00  0.00    -0.550 OA
ATOM     14  O   UNL     1      25.297  28.204  19.047  1.00  0.00    -0.550 OA
ENDBRANCH  11  12
ENDBRANCH  10  11
ENDBRANCH   9  10
ENDBRANCH   8   9
ENDBRANCH   7   8
ENDBRANCH   6   7
ENDBRANCH   5   6
ENDBRANCH   4   5
ENDBRANCH   3   4
ENDBRANCH   2   3
ENDBRANCH   1   2
BRANCH   1  15
ATOM     15  C   UNL     1      25.766  22.287  17.088  1.00  0.00     0.000 C 
BRANCH  15  16
ATOM     16  C   UNL     1      25.534  21.828  18.539  1.00  0.00     0.000 C 
BRANCH  16  17
ATOM     17  C   UNL     1      24.138  21.223  18.763  1.00  0.00     0.000 C 
BRANCH  17  18
ATOM     18  C   UNL     1      23.389  20.944  17.447  1.00  0.00    -0.000 C 
BRANCH  18  19
ATOM     19  C   UNL     1      21.873  20.713  17.595  1.00  0.00    -0.000 C 
BRANCH  19  20
ATOM     20  C   UNL     1      21.099  20.953  16.289  1.00  0.00    -0.000 C 
BRANCH  20  21
ATOM     21  C   UNL     1      21.256  22.389  15.763  1.00  0.00    -0.000 C 
BRANCH  21  22
ATOM     22  C   UNL     1      20.983  22.500  14.253  1.00  0.00    -0.000 C 
BRANCH  22  23
ATOM     23  C   UNL     1      22.274  22.749  13.444  1.00  0.00    -0.000 C 
BRANCH  23  24
ATOM     24  C   UNL     1      23.562  22.625  14.279  1.00  0.00    -0.000 C 
BRANCH  24  25
ATOM     25  C   UNL     1      24.823  23.180  13.597  1.00  0.00    -0.003 C 
ATOM     26  C   UNL     1      25.860  22.096  13.299  1.00  0.00     0.004 C 
ENDBRANCH  24  25
ENDBRANCH  23  24
ENDBRANCH  22  23
ENDBRANCH  21  22
ENDBRANCH  20  21
ENDBRANCH  19  20
ENDBRANCH  18  19
ENDBRANCH  17  18
ENDBRANCH  16  17
ENDBRANCH  15  16
ENDBRANCH   1  15
TORSDOF 22
ENDMDL
MODEL 4
REMARK VINA RESULT:    -3.507      3.159      7.536
REMARK INTER + INTRA:         -11.435
REMARK INTER:                  -7.978
REMARK INTRA:                  -3.457
REMARK UNBOUND:                -3.417
REMARK SMILES CCCCCCCCCCCCCCCCCCCCCCCC(=O)[O-]
REMARK SMILES IDX 13 1 14 2 15 3 16 4 17 5 18 6 19 7 20 8 21 9 22 10 23 11
REMARK SMILES IDX 24 12 25 13 26 14 12 15 11 16 10 17 9 18 8 19 7 20 6 21 5 22
REMARK SMILES IDX 4 23 3 24 2 25 1 26
REMARK H PARENT
REMARK Flexibility Score: inf
ROOT
ATOM      1  C   UNL     1      26.010  23.645  15.531  1.00  0.00     0.000 C 
ENDROOT
BRANCH   1   2
ATOM      2  C   UNL     1      25.579  24.573  16.681  1.00  0.00     0.000 C 
BRANCH   2   3
ATOM      3  C   UNL     1      24.118  24.353  17.104  1.00  0.00     0.000 C 
BRANCH   3   4
ATOM      4  C   UNL     1      23.688  25.279  18.252  1.00  0.00     0.000 C 
BRANCH   4   5
ATOM      5  C   UNL     1      22.833  24.526  19.278  1.00  0.00     0.000 C 
BRANCH   5   6
ATOM      6  C   UNL     1      21.616  25.363  19.698  1.00  0.00     0.000 C 
BRANCH   6   7
ATOM      7  C   UNL     1      21.563  26.734  19.003  1.00  0.00     0.000 C 
BRANCH   7   8
ATOM      8  C   UNL     1      21.469  27.921  19.985  1.00  0.00     0.000 C 
BRANCH   8   9
ATOM      9  C   UNL     1      22.696  28.840  19.900  1.00  0.00     0.000 C 
BRANCH   9  10
ATOM     10  C   UNL     1      23.606  28.663  21.122  1.00  0.00     0.006 C 
BRANCH  10  11
ATOM     11  C   UNL     1      24.720  27.652  20.837  1.00  0.00     0.053 C 
BRANCH  11  12
ATOM     12  C   UNL     1      25.783  28.266  19.983  1.00  0.00     0.041 C 
ATOM     13  O   UNL     1      26.038  27.784  18.846  1.00  0.00    -0.550 OA
ATOM     14  O   UNL     1      26.462  29.396  20.420  1.00  0.00    -0.550 OA
ENDBRANCH  11  12
ENDBRANCH  10  11
ENDBRANCH   9  10
ENDBRANCH   8   9
ENDBRANCH   7   8
ENDBRANCH   6   7
ENDBRANCH   5   6
ENDBRANCH   4   5
ENDBRANCH   3   4
ENDBRANCH   2   3
ENDBRANCH   1   2
BRANCH   1  15
ATOM     15  C   UNL     1      24.910  22.652  15.115  1.00  0.00     0.000 C 
BRANCH  15  16
ATOM     16  C   UNL     1      24.597  22.604  13.608  1.00  0.00     0.000 C 
BRANCH  16  17
ATOM     17  C   UNL     1      23.090  22.639  13.306  1.00  0.00     0.000 C 
BRANCH  17  18
ATOM     18  C   UNL     1      22.243  23.046  14.526  1.00  0.00    -0.000 C 
BRANCH  18  19
ATOM     19  C   UNL     1      21.242  21.980  15.011  1.00  0.00    -0.000 C 
BRANCH  19  20
ATOM     20  C   UNL     1      21.144  21.903  16.543  1.00  0.00    -0.000 C 
BRANCH  20  21
ATOM     21  C   UNL     1      21.054  20.459  17.059  1.00  0.00    -0.000 C 
BRANCH  21  22
ATOM     22  C   UNL     1      22.347  19.995  17.751  1.00  0.00    -0.000 C 
BRANCH  22  23
ATOM     23  C   UNL     1      23.425  21.100  17.776  1.00  0.00    -0.000 C 
BRANCH  23  24
ATOM     24  C   UNL     1      24.129  21.248  19.138  1.00  0.00    -0.000 C 
BRANCH  24  25
ATOM     25  C   UNL     1      25.550  21.829  19.064  1.00  0.00    -0.003 C 
ATOM     26  C   UNL     1      26.475  21.017  18.156  1.00  0.00     0.004 C 
ENDBRANCH  24  25
ENDBRANCH  23  24
ENDBRANCH  22  23
ENDBRANCH  21  22
ENDBRANCH  20  21
ENDBRANCH  19  20
ENDBRANCH  18  19
ENDBRANCH  17  18
ENDBRANCH  16  17
ENDBRANCH  15  16
ENDBRANCH   1  15
TORSDOF 22
ENDMDL
MODEL 5
REMARK VINA RESULT:    -3.477      3.864      8.159
REMARK INTER + INTRA:         -11.365
REMARK INTER:                  -7.661
REMARK INTRA:                  -3.705
REMARK UNBOUND:                -3.417
REMARK SMILES CCCCCCCCCCCCCCCCCCCCCCCC(=O)[O-]
REMARK SMILES IDX 13 1 14 2 15 3 16 4 17 5 18 6 19 7 20 8 21 9 22 10 23 11
REMARK SMILES IDX 24 12 25 13 26 14 12 15 11 16 10 17 9 18 8 19 7 20 6 21 5 22
REMARK SMILES IDX 4 23 3 24 2 25 1 26
REMARK H PARENT
REMARK Flexibility Score: inf
ROOT
ATOM      1  C   UNL     1      25.376  23.254  15.140  1.00  0.00     0.000 C 
ENDROOT
BRANCH   1   2
ATOM      2  C   UNL     1      23.847  23.429  15.131  1.00  0.00     0.000 C 
BRANCH   2   3
ATOM      3  C   UNL     1      23.098  22.108  15.370  1.00  0.00     0.000 C 
BRANCH   3   4
ATOM      4  C   UNL     1      21.784  22.304  16.142  1.00  0.00     0.000 C 
BRANCH   4   5
ATOM      5  C   UNL     1      21.501  23.792  16.381  1.00  0.00     0.000 C 
BRANCH   5   6
ATOM      6  C   UNL     1      21.107  24.048  17.842  1.00  0.00     0.000 C 
BRANCH   6   7
ATOM      7  C   UNL     1      21.748  25.319  18.423  1.00  0.00     0.000 C 
BRANCH   7   8
ATOM      8  C   UNL     1      21.977  25.253  19.948  1.00  0.00     0.000 C 
BRANCH   8   9
ATOM      9  C   UNL     1      22.540  26.568  20.506  1.00  0.00     0.000 C 
BRANCH   9  10
ATOM     10  C   UNL     1      23.622  27.142  19.583  1.00  0.00     0.006 C 
BRANCH  10  11
ATOM     11  C   UNL     1      24.991  27.136  20.269  1.00  0.00     0.053 C 
BRANCH  11  12
ATOM     12  C   UNL     1      25.889  28.165  19.661  1.00  0.00     0.041 C 
ATOM     13  O   UNL     1      25.783  29.375  19.996  1.00  0.00    -0.550 OA
ATOM     14  O   UNL     1      26.874  27.785  18.757  1.00  0.00    -0.550 OA
ENDBRANCH  11  12
ENDBRANCH  10  11
ENDBRANCH   9  10
ENDBRANCH   8   9
ENDBRANCH   7   8
ENDBRANCH   6   7
ENDBRANCH   5   6
ENDBRANCH   4   5
ENDBRANCH   3   4
ENDBRANCH   2   3
ENDBRANCH   1   2
BRANCH   1  15
ATOM     15  C   UNL     1      26.070  24.088  16.233  1.00  0.00     0.000 C 
BRANCH  15  16
ATOM     16  C   UNL     1      25.147  24.617  17.346  1.00  0.00     0.000 C 
BRANCH  16  17
ATOM     17  C   UNL     1      25.323  23.870  18.678  1.00  0.00     0.000 C 
BRANCH  17  18
ATOM     18  C   UNL     1      24.389  22.653  18.811  1.00  0.00    -0.000 C 
BRANCH  18  19
ATOM     19  C   UNL     1      24.997  21.311  18.362  1.00  0.00    -0.000 C 
BRANCH  19  20
ATOM     20  C   UNL     1      26.497  21.197  18.678  1.00  0.00    -0.000 C 
BRANCH  20  21
ATOM     21  C   UNL     1      27.287  20.503  17.558  1.00  0.00    -0.000 C 
BRANCH  21  22
ATOM     22  C   UNL     1      27.996  19.224  18.039  1.00  0.00    -0.000 C 
BRANCH  22  23
ATOM     23  C   UNL     1      29.272  18.922  17.224  1.00  0.00    -0.000 C 
BRANCH  23  24
ATOM     24  C   UNL     1      29.095  17.791  16.194  1.00  0.00    -0.000 C 
BRANCH  24  25
ATOM     25  C   UNL     1      29.493  18.165  14.757  1.00  0.00    -0.003 C 
ATOM     26  C   UNL     1      30.156  19.541  14.666  1.00  0.00     0.004 C 
ENDBRANCH  24  25
ENDBRANCH  23  24
ENDBRANCH  22  23
ENDBRANCH  21  22
ENDBRANCH  20  21
ENDBRANCH  19  20
ENDBRANCH  18  19
ENDBRANCH  17  18
ENDBRANCH  16  17
ENDBRANCH  15  16
ENDBRANCH   1  15
TORSDOF 22
ENDMDL
MODEL 6
REMARK VINA RESULT:    -3.459      3.917      5.853
REMARK INTER + INTRA:         -11.324
REMARK INTER:                  -8.453
REMARK INTRA:                  -2.871
REMARK UNBOUND:                -3.417
REMARK SMILES CCCCCCCCCCCCCCCCCCCCCCCC(=O)[O-]
REMARK SMILES IDX 13 1 14 2 15 3 16 4 17 5 18 6 19 7 20 8 21 9 22 10 23 11
REMARK SMILES IDX 24 12 25 13 26 14 12 15 11 16 10 17 9 18 8 19 7 20 6 21 5 22
REMARK SMILES IDX 4 23 3 24 2 25 1 26
REMARK H PARENT
REMARK Flexibility Score: inf
ROOT
ATOM      1  C   UNL     1      24.831  23.039  13.993  1.00  0.00     0.000 C 
ENDROOT
BRANCH   1   2
ATOM      2  C   UNL     1      25.365  22.881  15.428  1.00  0.00     0.000 C 
BRANCH   2   3
ATOM      3  C   UNL     1      25.836  24.212  16.034  1.00  0.00     0.000 C 
BRANCH   3   4
ATOM      4  C   UNL     1      25.281  24.449  17.447  1.00  0.00     0.000 C 
BRANCH   4   5
ATOM      5  C   UNL     1      24.754  23.145  18.058  1.00  0.00     0.000 C 
BRANCH   5   6
ATOM      6  C   UNL     1      25.824  22.478  18.934  1.00  0.00     0.000 C 
BRANCH   6   7
ATOM      7  C   UNL     1      26.085  21.012  18.550  1.00  0.00     0.000 C 
BRANCH   7   8
ATOM      8  C   UNL     1      27.359  20.814  17.701  1.00  0.00     0.000 C 
BRANCH   8   9
ATOM      9  C   UNL     1      28.088  19.508  18.049  1.00  0.00     0.000 C 
BRANCH   9  10
ATOM     10  C   UNL     1      29.174  19.189  17.015  1.00  0.00     0.006 C 
BRANCH  10  11
ATOM     11  C   UNL     1      29.105  17.723  16.578  1.00  0.00     0.053 C 
BRANCH  11  12
ATOM     12  C   UNL     1      29.140  17.615  15.087  1.00  0.00     0.041 C 
ATOM     13  O   UNL     1      29.870  18.391  14.414  1.00  0.00    -0.550 OA
ATOM     14  O   UNL     1      28.403  16.630  14.442  1.00  0.00    -0.550 OA
ENDBRANCH  11  12
ENDBRANCH  10  11
ENDBRANCH   9  10
ENDBRANCH   8   9
ENDBRANCH   7   8
ENDBRANCH   6   7
ENDBRANCH   5   6
ENDBRANCH   4   5
ENDBRANCH   3   4
ENDBRANCH   2   3
ENDBRANCH   1   2
BRANCH   1  15
ATOM     15  C   UNL     1      23.331  22.712  13.871  1.00  0.00     0.000 C 
BRANCH  15  16
ATOM     16  C   UNL     1      22.591  22.496  15.203  1.00  0.00     0.000 C 
BRANCH  16  17
ATOM     17  C   UNL     1      21.378  23.426  15.373  1.00  0.00     0.000 C 
BRANCH  17  18
ATOM     18  C   UNL     1      21.345  24.124  16.745  1.00  0.00    -0.000 C 
BRANCH  18  19
ATOM     19  C   UNL     1      21.174  23.184  17.953  1.00  0.00    -0.000 C 
BRANCH  19  20
ATOM     20  C   UNL     1      21.377  23.895  19.301  1.00  0.00    -0.000 C 
BRANCH  20  21
ATOM     21  C   UNL     1      21.957  25.309  19.142  1.00  0.00    -0.000 C 
BRANCH  21  22
ATOM     22  C   UNL     1      22.921  25.684  20.281  1.00  0.00    -0.000 C 
BRANCH  22  23
ATOM     23  C   UNL     1      23.584  27.060  20.055  1.00  0.00    -0.000 C 
BRANCH  23  24
ATOM     24  C   UNL     1      25.054  27.122  20.512  1.00  0.00    -0.000 C 
BRANCH  24  25
ATOM     25  C   UNL     1      25.913  28.158  19.768  1.00  0.00    -0.003 C 
ATOM     26  C   UNL     1      26.720  27.545  18.623  1.00  0.00     0.004 C 
ENDBRANCH  24  25
ENDBRANCH  23  24
ENDBRANCH  22  23
ENDBRANCH  21  22
ENDBRANCH  20  21
ENDBRANCH  19  20
ENDBRANCH  18  19
ENDBRANCH  17  18
ENDBRANCH  16  17
ENDBRANCH  15  16
ENDBRANCH   1  15
TORSDOF 22
ENDMDL
MODEL 7
REMARK VINA RESULT:    -3.457      2.849      6.918
REMARK INTER + INTRA:         -11.319
REMARK INTER:                  -7.508
REMARK INTRA:                  -3.812
REMARK UNBOUND:                -3.417
REMARK SMILES CCCCCCCCCCCCCCCCCCCCCCCC(=O)[O-]
REMARK SMILES IDX 13 1 14 2 15 3 16 4 17 5 18 6 19 7 20 8 21 9 22 10 23 11
REMARK SMILES IDX 24 12 25 13 26 14 12 15 11 16 10 17 9 18 8 19 7 20 6 21 5 22
REMARK SMILES IDX 4 23 3 24 2 25 1 26
REMARK H PARENT
REMARK Flexibility Score: inf
ROOT
ATOM      1  C   UNL     1      21.243  23.937  18.618  1.00  0.00     0.000 C 
ENDROOT
BRANCH   1   2
ATOM      2  C   UNL     1      21.839  24.897  17.573  1.00  0.00     0.000 C 
BRANCH   2   3
ATOM      3  C   UNL     1      23.149  25.548  18.045  1.00  0.00     0.000 C 
BRANCH   3   4
ATOM      4  C   UNL     1      23.272  25.585  19.577  1.00  0.00     0.000 C 
BRANCH   4   5
ATOM      5  C   UNL     1      24.689  25.987  20.006  1.00  0.00     0.000 C 
BRANCH   5   6
ATOM      6  C   UNL     1      25.545  26.363  18.788  1.00  0.00     0.000 C 
BRANCH   6   7
ATOM      7  C   UNL     1      26.154  27.771  18.894  1.00  0.00     0.000 C 
BRANCH   7   8
ATOM      8  C   UNL     1      25.654  28.569  20.117  1.00  0.00     0.000 C 
BRANCH   8   9
ATOM      9  C   UNL     1      24.659  29.670  19.723  1.00  0.00     0.000 C 
BRANCH   9  10
ATOM     10  C   UNL     1      23.271  29.399  20.314  1.00  0.00     0.006 C 
BRANCH  10  11
ATOM     11  C   UNL     1      22.182  30.125  19.517  1.00  0.00     0.053 C 
BRANCH  11  12
ATOM     12  C   UNL     1      21.863  29.379  18.262  1.00  0.00     0.041 C 
ATOM     13  O   UNL     1      21.097  28.379  18.297  1.00  0.00    -0.550 OA
ATOM     14  O   UNL     1      22.374  29.811  17.044  1.00  0.00    -0.550 OA
ENDBRANCH  11  12
ENDBRANCH  10  11
ENDBRANCH   9  10
ENDBRANCH   8   9
ENDBRANCH   7   8
ENDBRANCH   6   7
ENDBRANCH   5   6
ENDBRANCH   4   5
ENDBRANCH   3   4
ENDBRANCH   2   3
ENDBRANCH   1   2
BRANCH   1  15
ATOM     15  C   UNL     1      21.004  22.520  18.066  1.00  0.00     0.000 C 
BRANCH  15  16
ATOM     16  C   UNL     1      22.036  22.030  17.034  1.00  0.00     0.000 C 
BRANCH  16  17
ATOM     17  C   UNL     1      22.822  20.797  17.510  1.00  0.00     0.000 C 
BRANCH  17  18
ATOM     18  C   UNL     1      23.600  21.049  18.815  1.00  0.00    -0.000 C 
BRANCH  18  19
ATOM     19  C   UNL     1      24.676  22.148  18.731  1.00  0.00    -0.000 C 
BRANCH  19  20
ATOM     20  C   UNL     1      26.044  21.614  18.277  1.00  0.00    -0.000 C 
BRANCH  20  21
ATOM     21  C   UNL     1      26.504  22.222  16.943  1.00  0.00    -0.000 C 
BRANCH  21  22
ATOM     22  C   UNL     1      25.779  23.538  16.611  1.00  0.00    -0.000 C 
BRANCH  22  23
ATOM     23  C   UNL     1      25.673  23.778  15.089  1.00  0.00    -0.000 C 
BRANCH  23  24
ATOM     24  C   UNL     1      24.360  23.260  14.471  1.00  0.00    -0.000 C 
BRANCH  24  25
ATOM     25  C   UNL     1      24.545  22.205  13.368  1.00  0.00    -0.003 C 
ATOM     26  C   UNL     1      26.015  21.944  13.039  1.00  0.00     0.004 C 
ENDBRANCH  24  25
ENDBRANCH  23  24
ENDBRANCH  22  23
ENDBRANCH  21  22
ENDBRANCH  20  21
ENDBRANCH  19  20
ENDBRANCH  18  19
ENDBRANCH  17  18
ENDBRANCH  16  17
ENDBRANCH  15  16
ENDBRANCH   1  15
TORSDOF 22
ENDMDL
MODEL 8
REMARK VINA RESULT:    -3.439      2.799      7.443
REMARK INTER + INTRA:         -11.279
REMARK INTER:                  -7.889
REMARK INTRA:                  -3.391
REMARK UNBOUND:                -3.417
REMARK SMILES CCCCCCCCCCCCCCCCCCCCCCCC(=O)[O-]
REMARK SMILES IDX 13 1 14 2 15 3 16 4 17 5 18 6 19 7 20 8 21 9 22 10 23 11
REMARK SMILES IDX 24 12 25 13 26 14 12 15 11 16 10 17 9 18 8 19 7 20 6 21 5 22
REMARK SMILES IDX 4 23 3 24 2 25 1 26
REMARK H PARENT
REMARK Flexibility Score: inf
ROOT
ATOM      1  C   UNL     1      21.972  23.760  16.608  1.00  0.00     0.000 C 
ENDROOT
BRANCH   1   2
ATOM      2  C   UNL     1      21.425  24.681  17.714  1.00  0.00     0.000 C 
BRANCH   2   3
ATOM      3  C   UNL     1      22.492  25.638  18.269  1.00  0.00     0.000 C 
BRANCH   3   4
ATOM      4  C   UNL     1      23.061  25.173  19.618  1.00  0.00     0.000 C 
BRANCH   4   5
ATOM      5  C   UNL     1      22.838  26.230  20.706  1.00  0.00     0.000 C 
BRANCH   5   6
ATOM      6  C   UNL     1      21.586  27.068  20.407  1.00  0.00     0.000 C 
BRANCH   6   7
ATOM      7  C   UNL     1      21.691  28.510  20.931  1.00  0.00     0.000 C 
BRANCH   7   8
ATOM      8  C   UNL     1      23.121  29.086  20.870  1.00  0.00     0.000 C 
BRANCH   8   9
ATOM      9  C   UNL     1      23.363  29.900  19.591  1.00  0.00     0.000 C 
BRANCH   9  10
ATOM     10  C   UNL     1      24.606  29.401  18.845  1.00  0.00     0.006 C 
BRANCH  10  11
ATOM     11  C   UNL     1      25.528  28.612  19.778  1.00  0.00     0.053 C 
BRANCH  11  12
ATOM     12  C   UNL     1      26.425  27.709  18.992  1.00  0.00     0.041 C 
ATOM     13  O   UNL     1      25.982  26.626  18.526  1.00  0.00    -0.550 OA
ATOM     14  O   UNL     1      27.739  28.082  18.736  1.00  0.00    -0.550 OA
ENDBRANCH  11  12
ENDBRANCH  10  11
ENDBRANCH   9  10
ENDBRANCH   8   9
ENDBRANCH   7   8
ENDBRANCH   6   7
ENDBRANCH   5   6
ENDBRANCH   4   5
ENDBRANCH   3   4
ENDBRANCH   2   3
ENDBRANCH   1   2
BRANCH   1  15
ATOM     15  C   UNL     1      21.555  22.290  16.788  1.00  0.00     0.000 C 
BRANCH  15  16
ATOM     16  C   UNL     1      22.000  21.633  18.108  1.00  0.00     0.000 C 
BRANCH  16  17
ATOM     17  C   UNL     1      23.367  20.938  18.002  1.00  0.00     0.000 C 
BRANCH  17  18
ATOM     18  C   UNL     1      24.420  21.541  18.950  1.00  0.00    -0.000 C 
BRANCH  18  19
ATOM     19  C   UNL     1      25.699  22.056  18.262  1.00  0.00    -0.000 C 
BRANCH  19  20
ATOM     20  C   UNL     1      25.530  23.461  17.659  1.00  0.00    -0.000 C 
BRANCH  20  21
ATOM     21  C   UNL     1      25.943  23.524  16.181  1.00  0.00    -0.000 C 
BRANCH  21  22
ATOM     22  C   UNL     1      25.078  22.619  15.285  1.00  0.00    -0.000 C 
BRANCH  22  23
ATOM     23  C   UNL     1      24.604  23.345  14.007  1.00  0.00    -0.000 C 
BRANCH  23  24
ATOM     24  C   UNL     1      23.549  22.559  13.206  1.00  0.00    -0.000 C 
BRANCH  24  25
ATOM     25  C   UNL     1      22.128  23.142  13.275  1.00  0.00    -0.003 C 
ATOM     26  C   UNL     1      21.659  23.719  11.939  1.00  0.00     0.004 C 
ENDBRANCH  24  25
ENDBRANCH  23  24
ENDBRANCH  22  23
ENDBRANCH  21  22
ENDBRANCH  20  21
ENDBRANCH  19  20
ENDBRANCH  18  19
ENDBRANCH  17  18
ENDBRANCH  16  17
ENDBRANCH  15  16
ENDBRANCH   1  15
TORSDOF 22
ENDMDL
MODEL 9
REMARK VINA RESULT:    -3.318      3.284      7.290
REMARK INTER + INTRA:         -11.003
REMARK INTER:                  -7.362
REMARK INTRA:                  -3.641
REMARK UNBOUND:                -3.417
REMARK SMILES CCCCCCCCCCCCCCCCCCCCCCCC(=O)[O-]
REMARK SMILES IDX 13 1 14 2 15 3 16 4 17 5 18 6 19 7 20 8 21 9 22 10 23 11
REMARK SMILES IDX 24 12 25 13 26 14 12 15 11 16 10 17 9 18 8 19 7 20 6 21 5 22
REMARK SMILES IDX 4 23 3 24 2 25 1 26
REMARK H PARENT
REMARK Flexibility Score: inf
ROOT
ATOM      1  C   UNL     1      21.853  22.141  14.884  1.00  0.00     0.000 C 
ENDROOT
BRANCH   1   2
ATOM      2  C   UNL     1      22.082  23.627  15.210  1.00  0.00     0.000 C 
BRANCH   2   3
ATOM      3  C   UNL     1      21.350  24.073  16.486  1.00  0.00     0.000 C 
BRANCH   3   4
ATOM      4  C   UNL     1      22.263  24.841  17.454  1.00  0.00     0.000 C 
BRANCH   4   5
ATOM      5  C   UNL     1      21.505  25.243  18.726  1.00  0.00     0.000 C 
BRANCH   5   6
ATOM      6  C   UNL     1      22.300  24.859  19.982  1.00  0.00     0.000 C 
BRANCH   6   7
ATOM      7  C   UNL     1      22.688  26.074  20.840  1.00  0.00     0.000 C 
BRANCH   7   8
ATOM      8  C   UNL     1      22.502  27.425  20.117  1.00  0.00     0.000 C 
BRANCH   8   9
ATOM      9  C   UNL     1      23.125  28.590  20.900  1.00  0.00     0.000 C 
BRANCH   9  10
ATOM     10  C   UNL     1      24.621  28.728  20.590  1.00  0.00     0.006 C 
BRANCH  10  11
ATOM     11  C   UNL     1      24.918  28.356  19.134  1.00  0.00     0.053 C 
BRANCH  11  12
ATOM     12  C   UNL     1      26.012  27.340  19.062  1.00  0.00     0.041 C 
ATOM     13  O   UNL     1      25.858  26.205  19.587  1.00  0.00    -0.550 OA
ATOM     14  O   UNL     1      27.187  27.628  18.379  1.00  0.00    -0.550 OA
ENDBRANCH  11  12
ENDBRANCH  10  11
ENDBRANCH   9  10
ENDBRANCH   8   9
ENDBRANCH   7   8
ENDBRANCH   6   7
ENDBRANCH   5   6
ENDBRANCH   4   5
ENDBRANCH   3   4
ENDBRANCH   2   3
ENDBRANCH   1   2
BRANCH   1  15
ATOM     15  C   UNL     1      20.875  21.455  15.855  1.00  0.00     0.000 C 
BRANCH  15  16
ATOM     16  C   UNL     1      21.482  20.341  16.728  1.00  0.00     0.000 C 
BRANCH  16  17
ATOM     17  C   UNL     1      22.091  20.868  18.037  1.00  0.00     0.000 C 
BRANCH  17  18
ATOM     18  C   UNL     1      23.618  21.055  17.956  1.00  0.00    -0.000 C 
BRANCH  18  19
ATOM     19  C   UNL     1      24.228  21.933  19.065  1.00  0.00    -0.000 C 
BRANCH  19  20
ATOM     20  C   UNL     1      25.266  22.935  18.533  1.00  0.00    -0.000 C 
BRANCH  20  21
ATOM     21  C   UNL     1      25.581  22.727  17.044  1.00  0.00    -0.000 C 
BRANCH  21  22
ATOM     22  C   UNL     1      25.622  24.048  16.256  1.00  0.00    -0.000 C 
BRANCH  22  23
ATOM     23  C   UNL     1      25.618  23.818  14.729  1.00  0.00    -0.000 C 
BRANCH  23  24
ATOM     24  C   UNL     1      25.656  22.332  14.327  1.00  0.00    -0.000 C 
BRANCH  24  25
ATOM     25  C   UNL     1      26.173  22.067  12.904  1.00  0.00    -0.003 C 
ATOM     26  C   UNL     1      25.128  21.397  12.010  1.00  0.00     0.004 C 
ENDBRANCH  24  25
ENDBRANCH  23  24
ENDBRANCH  22  23
ENDBRANCH  21  22
ENDBRANCH  20  21
ENDBRANCH  19  20
ENDBRANCH  18  19
ENDBRANCH  17  18
ENDBRANCH  16  17
ENDBRANCH  15  16
ENDBRANCH   1  15
TORSDOF 22
ENDMDL
