MODEL 1
REMARK VINA RESULT:    -5.734      0.000      0.000
REMARK INTER + INTRA:          -7.205
REMARK INTER:                  -6.907
REMARK INTRA:                  -0.298
REMARK UNBOUND:                -0.298
REMARK SMILES O=c1c(O)c(-c2ccc(O)cc2O)oc2cc(O)cc(O)c12
REMARK SMILES IDX 5 1 3 2 2 3 1 4 22 5 20 6 19 7 17 8 16 9 15 10 14 11 6 12
REMARK SMILES IDX 8 13 7 14 9 15 11 16 12 17 10 18 13 20 4 22 21 24 18 26
REMARK H PARENT 10 19 13 21 4 23 21 25 18 27
REMARK Flexibility Score: inf
ROOT
ATOM      1  C   UNL     1     117.839  73.464  43.917  1.00  0.00     0.184 A 
ATOM      2  C   UNL     1     118.251  73.743  42.600  1.00  0.00     0.208 A 
ATOM      3  C   UNL     1     119.537  73.355  42.195  1.00  0.00     0.238 A 
ATOM      4  O   UNL     1     119.918  73.609  41.019  1.00  0.00    -0.285 OA
ATOM      5  C   UNL     1     120.381  72.683  43.102  1.00  0.00     0.111 A 
ATOM      6  C   UNL     1     121.689  72.255  42.770  1.00  0.00     0.134 A 
ATOM      7  C   UNL     1     122.464  71.585  43.729  1.00  0.00     0.093 A 
ATOM      8  C   UNL     1     121.960  71.335  45.006  1.00  0.00     0.123 A 
ATOM      9  C   UNL     1     120.668  71.755  45.339  1.00  0.00     0.094 A 
ATOM     10  C   UNL     1     119.880  72.426  44.399  1.00  0.00     0.146 A 
ATOM     11  O   UNL     1     118.659  72.818  44.743  1.00  0.00    -0.451 OA
ENDROOT
BRANCH   1  12
ATOM     12  C   UNL     1     116.504  73.860  44.419  1.00  0.00     0.063 A 
ATOM     13  C   UNL     1     114.079  73.842  44.204  1.00  0.00     0.047 A 
ATOM     14  C   UNL     1     115.338  73.447  43.747  1.00  0.00     0.020 A 
ATOM     15  C   UNL     1     113.963  74.662  45.329  1.00  0.00     0.119 A 
ATOM     16  C   UNL     1     115.117  75.090  45.998  1.00  0.00     0.093 A 
ATOM     17  C   UNL     1     116.386  74.696  45.547  1.00  0.00     0.130 A 
BRANCH  15  18
ATOM     18  O   UNL     1     112.700  75.047  45.772  1.00  0.00    -0.508 OA
ATOM     19  H   UNL     1     112.563  75.459  46.688  1.00  0.00     0.293 HD
ENDBRANCH  15  18
BRANCH  17  20
ATOM     20  O   UNL     1     117.527  75.125  46.226  1.00  0.00    -0.507 OA
ATOM     21  H   UNL     1     117.526  75.271  47.229  1.00  0.00     0.293 HD
ENDBRANCH  17  20
ENDBRANCH   1  12
BRANCH   2  22
ATOM     22  O   UNL     1     117.378  74.375  41.710  1.00  0.00    -0.502 OA
ATOM     23  H   UNL     1     117.515  75.329  41.400  1.00  0.00     0.293 HD
ENDBRANCH   2  22
BRANCH   6  24
ATOM     24  O   UNL     1     122.222  72.490  41.503  1.00  0.00    -0.507 OA
ATOM     25  H   UNL     1     122.672  71.756  40.969  1.00  0.00     0.293 HD
ENDBRANCH   6  24
BRANCH   8  26
ATOM     26  O   UNL     1     122.751  70.666  45.938  1.00  0.00    -0.508 OA
ATOM     27  H   UNL     1     123.550  71.113  46.372  1.00  0.00     0.293 HD
ENDBRANCH   8  26
TORSDOF 6
ENDMDL
MODEL 2
REMARK VINA RESULT:    -5.705      1.389      1.884
REMARK INTER + INTRA:          -7.169
REMARK INTER:                  -7.023
REMARK INTRA:                  -0.147
REMARK UNBOUND:                -0.298
REMARK SMILES O=c1c(O)c(-c2ccc(O)cc2O)oc2cc(O)cc(O)c12
REMARK SMILES IDX 5 1 3 2 2 3 1 4 22 5 20 6 19 7 17 8 16 9 15 10 14 11 6 12
REMARK SMILES IDX 8 13 7 14 9 15 11 16 12 17 10 18 13 20 4 22 21 24 18 26
REMARK H PARENT 10 19 13 21 4 23 21 25 18 27
REMARK Flexibility Score: inf
ROOT
ATOM      1  C   UNL     1     117.927  73.630  44.275  1.00  0.00     0.184 A 
ATOM      2  C   UNL     1     117.773  73.867  42.896  1.00  0.00     0.208 A 
ATOM      3  C   UNL     1     118.836  73.562  42.032  1.00  0.00     0.238 A 
ATOM      4  O   UNL     1     118.712  73.778  40.796  1.00  0.00    -0.285 OA
ATOM      5  C   UNL     1     120.025  73.013  42.556  1.00  0.00     0.111 A 
ATOM      6  C   UNL     1     121.140  72.675  41.754  1.00  0.00     0.134 A 
ATOM      7  C   UNL     1     122.285  72.125  42.351  1.00  0.00     0.093 A 
ATOM      8  C   UNL     1     122.335  71.907  43.729  1.00  0.00     0.123 A 
ATOM      9  C   UNL     1     121.236  72.240  44.528  1.00  0.00     0.094 A 
ATOM     10  C   UNL     1     120.087  72.791  43.952  1.00  0.00     0.146 A 
ATOM     11  O   UNL     1     119.059  73.101  44.733  1.00  0.00    -0.451 OA
ENDROOT
BRANCH   1  12
ATOM     12  C   UNL     1     116.855  73.945  45.246  1.00  0.00     0.063 A 
ATOM     13  C   UNL     1     116.087  75.125  47.233  1.00  0.00     0.047 A 
ATOM     14  C   UNL     1     117.089  74.848  46.299  1.00  0.00     0.020 A 
ATOM     15  C   UNL     1     114.843  74.498  47.136  1.00  0.00     0.119 A 
ATOM     16  C   UNL     1     114.602  73.587  46.099  1.00  0.00     0.093 A 
ATOM     17  C   UNL     1     115.602  73.305  45.157  1.00  0.00     0.130 A 
BRANCH  15  18
ATOM     18  O   UNL     1     113.853  74.785  48.074  1.00  0.00    -0.508 OA
ATOM     19  H   UNL     1     113.599  74.120  48.795  1.00  0.00     0.293 HD
ENDBRANCH  15  18
BRANCH  17  20
ATOM     20  O   UNL     1     115.349  72.400  44.126  1.00  0.00    -0.507 OA
ATOM     21  H   UNL     1     116.070  72.126  43.469  1.00  0.00     0.293 HD
ENDBRANCH  17  20
ENDBRANCH   1  12
BRANCH   2  22
ATOM     22  O   UNL     1     116.569  74.374  42.399  1.00  0.00    -0.502 OA
ATOM     23  H   UNL     1     115.669  74.006  42.679  1.00  0.00     0.293 HD
ENDBRANCH   2  22
BRANCH   6  24
ATOM     24  O   UNL     1     121.122  72.879  40.374  1.00  0.00    -0.507 OA
ATOM     25  H   UNL     1     121.273  72.120  39.720  1.00  0.00     0.293 HD
ENDBRANCH   6  24
BRANCH   8  26
ATOM     26  O   UNL     1     123.484  71.360  44.296  1.00  0.00    -0.508 OA
ATOM     27  H   UNL     1     123.647  71.390  45.296  1.00  0.00     0.293 HD
ENDBRANCH   8  26
TORSDOF 6
ENDMDL
MODEL 3
REMARK VINA RESULT:    -5.693      1.439      3.069
REMARK INTER + INTRA:          -7.156
REMARK INTER:                  -7.412
REMARK INTRA:                   0.256
REMARK UNBOUND:                -0.298
REMARK SMILES O=c1c(O)c(-c2ccc(O)cc2O)oc2cc(O)cc(O)c12
REMARK SMILES IDX 5 1 3 2 2 3 1 4 22 5 20 6 19 7 17 8 16 9 15 10 14 11 6 12
REMARK SMILES IDX 8 13 7 14 9 15 11 16 12 17 10 18 13 20 4 22 21 24 18 26
REMARK H PARENT 10 19 13 21 4 23 21 25 18 27
REMARK Flexibility Score: inf
ROOT
ATOM      1  C   UNL     1     117.976  73.484  44.549  1.00  0.00     0.184 A 
ATOM      2  C   UNL     1     118.950  73.426  45.563  1.00  0.00     0.208 A 
ATOM      3  C   UNL     1     120.282  73.161  45.209  1.00  0.00     0.238 A 
ATOM      4  O   UNL     1     121.162  73.098  46.110  1.00  0.00    -0.285 OA
ATOM      5  C   UNL     1     120.620  72.975  43.852  1.00  0.00     0.111 A 
ATOM      6  C   UNL     1     121.938  72.708  43.412  1.00  0.00     0.134 A 
ATOM      7  C   UNL     1     122.193  72.543  42.042  1.00  0.00     0.093 A 
ATOM      8  C   UNL     1     121.161  72.640  41.108  1.00  0.00     0.123 A 
ATOM      9  C   UNL     1     119.856  72.903  41.537  1.00  0.00     0.094 A 
ATOM     10  C   UNL     1     119.580  73.069  42.898  1.00  0.00     0.146 A 
ATOM     11  O   UNL     1     118.332  73.314  43.278  1.00  0.00    -0.451 OA
ENDROOT
BRANCH   1  12
ATOM     12  C   UNL     1     116.549  73.741  44.851  1.00  0.00     0.063 A 
ATOM     13  C   UNL     1     114.660  73.613  46.382  1.00  0.00     0.047 A 
ATOM     14  C   UNL     1     116.012  73.396  46.105  1.00  0.00     0.020 A 
ATOM     15  C   UNL     1     113.823  74.166  45.410  1.00  0.00     0.119 A 
ATOM     16  C   UNL     1     114.343  74.500  44.153  1.00  0.00     0.093 A 
ATOM     17  C   UNL     1     115.700  74.288  43.868  1.00  0.00     0.130 A 
BRANCH  15  18
ATOM     18  O   UNL     1     112.477  74.376  45.701  1.00  0.00    -0.508 OA
ATOM     19  H   UNL     1     112.031  73.933  46.495  1.00  0.00     0.293 HD
ENDBRANCH  15  18
BRANCH  17  20
ATOM     20  O   UNL     1     116.207  74.631  42.614  1.00  0.00    -0.507 OA
ATOM     21  H   UNL     1     116.834  74.016  42.108  1.00  0.00     0.293 HD
ENDBRANCH  17  20
ENDBRANCH   1  12
BRANCH   2  22
ATOM     22  O   UNL     1     118.595  73.654  46.895  1.00  0.00    -0.502 OA
ATOM     23  H   UNL     1     118.517  72.905  47.572  1.00  0.00     0.293 HD
ENDBRANCH   2  22
BRANCH   6  24
ATOM     24  O   UNL     1     122.992  72.606  44.321  1.00  0.00    -0.507 OA
ATOM     25  H   UNL     1     123.429  71.717  44.534  1.00  0.00     0.293 HD
ENDBRANCH   6  24
BRANCH   8  26
ATOM     26  O   UNL     1     121.442  72.473  39.754  1.00  0.00    -0.508 OA
ATOM     27  H   UNL     1     122.162  73.016  39.291  1.00  0.00     0.293 HD
ENDBRANCH   8  26
TORSDOF 6
ENDMDL
MODEL 4
REMARK VINA RESULT:    -5.668      3.958      7.072
REMARK INTER + INTRA:          -7.126
REMARK INTER:                  -6.703
REMARK INTRA:                  -0.423
REMARK UNBOUND:                -0.298
REMARK SMILES O=c1c(O)c(-c2ccc(O)cc2O)oc2cc(O)cc(O)c12
REMARK SMILES IDX 5 1 3 2 2 3 1 4 22 5 20 6 19 7 17 8 16 9 15 10 14 11 6 12
REMARK SMILES IDX 8 13 7 14 9 15 11 16 12 17 10 18 13 20 4 22 21 24 18 26
REMARK H PARENT 10 19 13 21 4 23 21 25 18 27
REMARK Flexibility Score: inf
ROOT
ATOM      1  C   UNL     1     121.655  70.120  45.219  1.00  0.00     0.184 A 
ATOM      2  C   UNL     1     122.526  70.070  46.324  1.00  0.00     0.208 A 
ATOM      3  C   UNL     1     122.408  69.007  47.233  1.00  0.00     0.238 A 
ATOM      4  O   UNL     1     123.178  68.957  48.231  1.00  0.00    -0.285 OA
ATOM      5  C   UNL     1     121.437  68.008  47.015  1.00  0.00     0.111 A 
ATOM      6  C   UNL     1     121.257  66.903  47.881  1.00  0.00     0.134 A 
ATOM      7  C   UNL     1     120.272  65.946  47.590  1.00  0.00     0.093 A 
ATOM      8  C   UNL     1     119.469  66.072  46.456  1.00  0.00     0.123 A 
ATOM      9  C   UNL     1     119.643  67.162  45.596  1.00  0.00     0.094 A 
ATOM     10  C   UNL     1     120.617  68.127  45.869  1.00  0.00     0.146 A 
ATOM     11  O   UNL     1     120.758  69.154  45.040  1.00  0.00    -0.451 OA
ENDROOT
BRANCH   1  12
ATOM     12  C   UNL     1     121.711  71.221  44.230  1.00  0.00     0.063 A 
ATOM     13  C   UNL     1     122.874  72.392  42.441  1.00  0.00     0.047 A 
ATOM     14  C   UNL     1     122.807  71.339  43.356  1.00  0.00     0.020 A 
ATOM     15  C   UNL     1     121.856  73.347  42.391  1.00  0.00     0.119 A 
ATOM     16  C   UNL     1     120.766  73.247  43.266  1.00  0.00     0.093 A 
ATOM     17  C   UNL     1     120.690  72.191  44.187  1.00  0.00     0.130 A 
BRANCH  15  18
ATOM     18  O   UNL     1     121.936  74.392  41.473  1.00  0.00    -0.508 OA
ATOM     19  H   UNL     1     121.136  74.672  40.918  1.00  0.00     0.293 HD
ENDBRANCH  15  18
BRANCH  17  20
ATOM     20  O   UNL     1     119.597  72.100  45.049  1.00  0.00    -0.507 OA
ATOM     21  H   UNL     1     118.669  71.873  44.709  1.00  0.00     0.293 HD
ENDBRANCH  17  20
ENDBRANCH   1  12
BRANCH   2  22
ATOM     22  O   UNL     1     123.506  71.052  46.493  1.00  0.00    -0.502 OA
ATOM     23  H   UNL     1     123.331  71.912  46.996  1.00  0.00     0.293 HD
ENDBRANCH   2  22
BRANCH   6  24
ATOM     24  O   UNL     1     122.043  66.748  49.023  1.00  0.00    -0.507 OA
ATOM     25  H   UNL     1     123.054  66.794  48.985  1.00  0.00     0.293 HD
ENDBRANCH   6  24
BRANCH   8  26
ATOM     26  O   UNL     1     118.500  65.107  46.190  1.00  0.00    -0.508 OA
ATOM     27  H   UNL     1     118.637  64.399  45.478  1.00  0.00     0.293 HD
ENDBRANCH   8  26
TORSDOF 6
ENDMDL
MODEL 5
REMARK VINA RESULT:    -5.665      4.349      6.411
REMARK INTER + INTRA:          -7.122
REMARK INTER:                  -7.640
REMARK INTRA:                   0.518
REMARK UNBOUND:                -0.298
REMARK SMILES O=c1c(O)c(-c2ccc(O)cc2O)oc2cc(O)cc(O)c12
REMARK SMILES IDX 5 1 3 2 2 3 1 4 22 5 20 6 19 7 17 8 16 9 15 10 14 11 6 12
REMARK SMILES IDX 8 13 7 14 9 15 11 16 12 17 10 18 13 20 4 22 21 24 18 26
REMARK H PARENT 10 19 13 21 4 23 21 25 18 27
REMARK Flexibility Score: inf
ROOT
ATOM      1  C   UNL     1     120.538  70.299  45.499  1.00  0.00     0.184 A 
ATOM      2  C   UNL     1     120.852  71.388  46.333  1.00  0.00     0.208 A 
ATOM      3  C   UNL     1     121.210  72.612  45.745  1.00  0.00     0.238 A 
ATOM      4  O   UNL     1     121.502  73.592  46.484  1.00  0.00    -0.285 OA
ATOM      5  C   UNL     1     121.232  72.730  44.340  1.00  0.00     0.111 A 
ATOM      6  C   UNL     1     121.578  73.928  43.671  1.00  0.00     0.134 A 
ATOM      7  C   UNL     1     121.568  73.967  42.268  1.00  0.00     0.093 A 
ATOM      8  C   UNL     1     121.221  72.837  41.525  1.00  0.00     0.123 A 
ATOM      9  C   UNL     1     120.879  71.650  42.182  1.00  0.00     0.094 A 
ATOM     10  C   UNL     1     120.884  71.591  43.579  1.00  0.00     0.146 A 
ATOM     11  O   UNL     1     120.559  70.450  44.178  1.00  0.00    -0.451 OA
ENDROOT
BRANCH   1  12
ATOM     12  C   UNL     1     120.170  68.974  46.049  1.00  0.00     0.063 A 
ATOM     13  C   UNL     1     119.550  67.575  47.943  1.00  0.00     0.047 A 
ATOM     14  C   UNL     1     119.871  68.829  47.416  1.00  0.00     0.020 A 
ATOM     15  C   UNL     1     119.532  66.449  47.117  1.00  0.00     0.119 A 
ATOM     16  C   UNL     1     119.842  66.580  45.757  1.00  0.00     0.093 A 
ATOM     17  C   UNL     1     120.163  67.835  45.220  1.00  0.00     0.130 A 
BRANCH  15  18
ATOM     18  O   UNL     1     119.210  65.205  47.656  1.00  0.00    -0.508 OA
ATOM     19  H   UNL     1     119.892  64.457  47.707  1.00  0.00     0.293 HD
ENDBRANCH  15  18
BRANCH  17  20
ATOM     20  O   UNL     1     120.463  67.953  43.862  1.00  0.00    -0.507 OA
ATOM     21  H   UNL     1     120.500  68.856  43.403  1.00  0.00     0.293 HD
ENDBRANCH  17  20
ENDBRANCH   1  12
BRANCH   2  22
ATOM     22  O   UNL     1     120.783  71.254  47.722  1.00  0.00    -0.502 OA
ATOM     23  H   UNL     1     121.406  71.750  48.347  1.00  0.00     0.293 HD
ENDBRANCH   2  22
BRANCH   6  24
ATOM     24  O   UNL     1     121.929  75.075  44.383  1.00  0.00    -0.507 OA
ATOM     25  H   UNL     1     121.963  75.085  45.396  1.00  0.00     0.293 HD
ENDBRANCH   6  24
BRANCH   8  26
ATOM     26  O   UNL     1     121.219  72.904  40.134  1.00  0.00    -0.508 OA
ATOM     27  H   UNL     1     121.064  72.079  39.564  1.00  0.00     0.293 HD
ENDBRANCH   8  26
TORSDOF 6
ENDMDL
MODEL 6
REMARK VINA RESULT:    -5.591      1.988      6.377
REMARK INTER + INTRA:          -7.032
REMARK INTER:                  -6.649
REMARK INTRA:                  -0.383
REMARK UNBOUND:                -0.298
REMARK SMILES O=c1c(O)c(-c2ccc(O)cc2O)oc2cc(O)cc(O)c12
REMARK SMILES IDX 5 1 3 2 2 3 1 4 22 5 20 6 19 7 17 8 16 9 15 10 14 11 6 12
REMARK SMILES IDX 8 13 7 14 9 15 11 16 12 17 10 18 13 20 4 22 21 24 18 26
REMARK H PARENT 10 19 13 21 4 23 21 25 18 27
REMARK Flexibility Score: inf
ROOT
ATOM      1  C   UNL     1     117.336  73.823  44.213  1.00  0.00     0.184 A 
ATOM      2  C   UNL     1     116.196  74.349  43.577  1.00  0.00     0.208 A 
ATOM      3  C   UNL     1     114.996  74.435  44.299  1.00  0.00     0.238 A 
ATOM      4  O   UNL     1     113.966  74.897  43.735  1.00  0.00    -0.285 OA
ATOM      5  C   UNL     1     114.958  74.011  45.643  1.00  0.00     0.111 A 
ATOM      6  C   UNL     1     113.790  74.068  46.440  1.00  0.00     0.134 A 
ATOM      7  C   UNL     1     113.837  73.633  47.774  1.00  0.00     0.093 A 
ATOM      8  C   UNL     1     115.023  73.145  48.323  1.00  0.00     0.123 A 
ATOM      9  C   UNL     1     116.181  73.086  47.540  1.00  0.00     0.094 A 
ATOM     10  C   UNL     1     116.155  73.513  46.209  1.00  0.00     0.146 A 
ATOM     11  O   UNL     1     117.267  73.442  45.486  1.00  0.00    -0.451 OA
ENDROOT
BRANCH   1  12
ATOM     12  C   UNL     1     118.631  73.686  43.508  1.00  0.00     0.063 A 
ATOM     13  C   UNL     1     119.963  72.726  41.711  1.00  0.00     0.047 A 
ATOM     14  C   UNL     1     118.736  72.878  42.361  1.00  0.00     0.020 A 
ATOM     15  C   UNL     1     121.103  73.368  42.200  1.00  0.00     0.119 A 
ATOM     16  C   UNL     1     121.013  74.164  43.349  1.00  0.00     0.093 A 
ATOM     17  C   UNL     1     119.785  74.324  44.007  1.00  0.00     0.130 A 
BRANCH  15  18
ATOM     18  O   UNL     1     122.320  73.207  41.540  1.00  0.00    -0.508 OA
ATOM     19  H   UNL     1     122.675  72.289  41.300  1.00  0.00     0.293 HD
ENDBRANCH  15  18
BRANCH  17  20
ATOM     20  O   UNL     1     119.707  75.125  45.147  1.00  0.00    -0.507 OA
ATOM     21  H   UNL     1     120.477  75.192  45.802  1.00  0.00     0.293 HD
ENDBRANCH  17  20
ENDBRANCH   1  12
BRANCH   2  22
ATOM     22  O   UNL     1     116.272  74.800  42.257  1.00  0.00    -0.502 OA
ATOM     23  H   UNL     1     116.838  74.336  41.557  1.00  0.00     0.293 HD
ENDBRANCH   2  22
BRANCH   6  24
ATOM     24  O   UNL     1     112.588  74.550  45.921  1.00  0.00    -0.507 OA
ATOM     25  H   UNL     1     111.982  73.972  45.352  1.00  0.00     0.293 HD
ENDBRANCH   6  24
BRANCH   8  26
ATOM     26  O   UNL     1     115.042  72.720  49.649  1.00  0.00    -0.508 OA
ATOM     27  H   UNL     1     115.785  72.130  50.007  1.00  0.00     0.293 HD
ENDBRANCH   8  26
TORSDOF 6
ENDMDL
MODEL 7
REMARK VINA RESULT:    -5.518      2.774      6.351
REMARK INTER + INTRA:          -6.944
REMARK INTER:                  -6.577
REMARK INTRA:                  -0.367
REMARK UNBOUND:                -0.298
REMARK SMILES O=c1c(O)c(-c2ccc(O)cc2O)oc2cc(O)cc(O)c12
REMARK SMILES IDX 5 1 3 2 2 3 1 4 22 5 20 6 19 7 17 8 16 9 15 10 14 11 6 12
REMARK SMILES IDX 8 13 7 14 9 15 11 16 12 17 10 18 13 20 4 22 21 24 18 26
REMARK H PARENT 10 19 13 21 4 23 21 25 18 27
REMARK Flexibility Score: inf
ROOT
ATOM      1  C   UNL     1     120.761  70.577  44.881  1.00  0.00     0.184 A 
ATOM      2  C   UNL     1     122.023  70.897  44.346  1.00  0.00     0.208 A 
ATOM      3  C   UNL     1     122.146  72.033  43.531  1.00  0.00     0.238 A 
ATOM      4  O   UNL     1     123.270  72.323  43.040  1.00  0.00    -0.285 OA
ATOM      5  C   UNL     1     121.015  72.836  43.279  1.00  0.00     0.111 A 
ATOM      6  C   UNL     1     121.056  73.998  42.472  1.00  0.00     0.134 A 
ATOM      7  C   UNL     1     119.886  74.748  42.275  1.00  0.00     0.093 A 
ATOM      8  C   UNL     1     118.683  74.362  42.867  1.00  0.00     0.123 A 
ATOM      9  C   UNL     1     118.636  73.213  43.665  1.00  0.00     0.094 A 
ATOM     10  C   UNL     1     119.790  72.451  43.872  1.00  0.00     0.146 A 
ATOM     11  O   UNL     1     119.718  71.364  44.631  1.00  0.00    -0.451 OA
ENDROOT
BRANCH   1  12
ATOM     12  C   UNL     1     120.553  69.384  45.734  1.00  0.00     0.063 A 
ATOM     13  C   UNL     1     120.396  68.372  47.943  1.00  0.00     0.047 A 
ATOM     14  C   UNL     1     120.565  69.500  47.137  1.00  0.00     0.020 A 
ATOM     15  C   UNL     1     120.224  67.113  47.364  1.00  0.00     0.119 A 
ATOM     16  C   UNL     1     120.224  66.984  45.969  1.00  0.00     0.093 A 
ATOM     17  C   UNL     1     120.391  68.112  45.152  1.00  0.00     0.130 A 
BRANCH  15  18
ATOM     18  O   UNL     1     120.057  65.997  48.181  1.00  0.00    -0.508 OA
ATOM     19  H   UNL     1     120.747  65.255  48.212  1.00  0.00     0.293 HD
ENDBRANCH  15  18
BRANCH  17  20
ATOM     20  O   UNL     1     120.383  67.970  43.764  1.00  0.00    -0.507 OA
ATOM     21  H   UNL     1     120.699  68.714  43.152  1.00  0.00     0.293 HD
ENDBRANCH  17  20
ENDBRANCH   1  12
BRANCH   2  22
ATOM     22  O   UNL     1     123.135  70.106  44.646  1.00  0.00    -0.502 OA
ATOM     23  H   UNL     1     123.938  70.467  45.145  1.00  0.00     0.293 HD
ENDBRANCH   2  22
BRANCH   6  24
ATOM     24  O   UNL     1     122.242  74.412  41.867  1.00  0.00    -0.507 OA
ATOM     25  H   UNL     1     122.696  73.860  41.148  1.00  0.00     0.293 HD
ENDBRANCH   6  24
BRANCH   8  26
ATOM     26  O   UNL     1     117.537  75.125  42.656  1.00  0.00    -0.508 OA
ATOM     27  H   UNL     1     116.817  74.832  42.005  1.00  0.00     0.293 HD
ENDBRANCH   8  26
TORSDOF 6
ENDMDL
MODEL 8
REMARK VINA RESULT:    -5.423      1.643      6.994
REMARK INTER + INTRA:          -6.830
REMARK INTER:                  -6.402
REMARK INTRA:                  -0.428
REMARK UNBOUND:                -0.298
REMARK SMILES O=c1c(O)c(-c2ccc(O)cc2O)oc2cc(O)cc(O)c12
REMARK SMILES IDX 5 1 3 2 2 3 1 4 22 5 20 6 19 7 17 8 16 9 15 10 14 11 6 12
REMARK SMILES IDX 8 13 7 14 9 15 11 16 12 17 10 18 13 20 4 22 21 24 18 26
REMARK H PARENT 10 19 13 21 4 23 21 25 18 27
REMARK Flexibility Score: inf
ROOT
ATOM      1  C   UNL     1     118.959  73.288  44.935  1.00  0.00     0.184 A 
ATOM      2  C   UNL     1     118.890  73.729  46.270  1.00  0.00     0.208 A 
ATOM      3  C   UNL     1     117.658  74.174  46.774  1.00  0.00     0.238 A 
ATOM      4  O   UNL     1     117.588  74.579  47.967  1.00  0.00    -0.285 OA
ATOM      5  C   UNL     1     116.518  74.156  45.946  1.00  0.00     0.111 A 
ATOM      6  C   UNL     1     115.240  74.584  46.379  1.00  0.00     0.134 A 
ATOM      7  C   UNL     1     114.152  74.527  45.495  1.00  0.00     0.093 A 
ATOM      8  C   UNL     1     114.315  74.053  44.192  1.00  0.00     0.123 A 
ATOM      9  C   UNL     1     115.576  73.629  43.758  1.00  0.00     0.094 A 
ATOM     10  C   UNL     1     116.673  73.679  44.624  1.00  0.00     0.146 A 
ATOM     11  O   UNL     1     117.860  73.275  44.185  1.00  0.00    -0.451 OA
ENDROOT
BRANCH   1  12
ATOM     12  C   UNL     1     120.228  72.822  44.330  1.00  0.00     0.063 A 
ATOM     13  C   UNL     1     122.010  71.171  44.178  1.00  0.00     0.047 A 
ATOM     14  C   UNL     1     120.799  71.599  44.727  1.00  0.00     0.020 A 
ATOM     15  C   UNL     1     122.673  71.959  43.235  1.00  0.00     0.119 A 
ATOM     16  C   UNL     1     122.120  73.185  42.842  1.00  0.00     0.093 A 
ATOM     17  C   UNL     1     120.903  73.621  43.387  1.00  0.00     0.130 A 
BRANCH  15  18
ATOM     18  O   UNL     1     123.880  71.519  42.695  1.00  0.00    -0.508 OA
ATOM     19  H   UNL     1     123.917  70.746  42.041  1.00  0.00     0.293 HD
ENDBRANCH  15  18
BRANCH  17  20
ATOM     20  O   UNL     1     120.360  74.841  42.983  1.00  0.00    -0.507 OA
ATOM     21  H   UNL     1     120.216  75.061  42.004  1.00  0.00     0.293 HD
ENDBRANCH  17  20
ENDBRANCH   1  12
BRANCH   2  22
ATOM     22  O   UNL     1     120.027  73.698  47.081  1.00  0.00    -0.502 OA
ATOM     23  H   UNL     1     120.162  74.340  47.851  1.00  0.00     0.293 HD
ENDBRANCH   2  22
BRANCH   6  24
ATOM     24  O   UNL     1     115.043  75.062  47.675  1.00  0.00    -0.507 OA
ATOM     25  H   UNL     1     115.345  75.988  47.953  1.00  0.00     0.293 HD
ENDBRANCH   6  24
BRANCH   8  26
ATOM     26  O   UNL     1     113.218  74.007  43.335  1.00  0.00    -0.508 OA
ATOM     27  H   UNL     1     112.570  73.227  43.345  1.00  0.00     0.293 HD
ENDBRANCH   8  26
TORSDOF 6
ENDMDL
MODEL 9
REMARK VINA RESULT:    -5.377      2.633      6.606
REMARK INTER + INTRA:          -6.774
REMARK INTER:                  -6.295
REMARK INTRA:                  -0.479
REMARK UNBOUND:                -0.298
REMARK SMILES O=c1c(O)c(-c2ccc(O)cc2O)oc2cc(O)cc(O)c12
REMARK SMILES IDX 5 1 3 2 2 3 1 4 22 5 20 6 19 7 17 8 16 9 15 10 14 11 6 12
REMARK SMILES IDX 8 13 7 14 9 15 11 16 12 17 10 18 13 20 4 22 21 24 18 26
REMARK H PARENT 10 19 13 21 4 23 21 25 18 27
REMARK Flexibility Score: inf
ROOT
ATOM      1  C   UNL     1     121.924  71.384  45.194  1.00  0.00     0.184 A 
ATOM      2  C   UNL     1     122.778  71.532  44.085  1.00  0.00     0.208 A 
ATOM      3  C   UNL     1     122.275  72.123  42.916  1.00  0.00     0.238 A 
ATOM      4  O   UNL     1     123.030  72.252  41.913  1.00  0.00    -0.285 OA
ATOM      5  C   UNL     1     120.938  72.568  42.879  1.00  0.00     0.111 A 
ATOM      6  C   UNL     1     120.356  73.177  41.741  1.00  0.00     0.134 A 
ATOM      7  C   UNL     1     119.019  73.601  41.788  1.00  0.00     0.093 A 
ATOM      8  C   UNL     1     118.256  73.429  42.944  1.00  0.00     0.123 A 
ATOM      9  C   UNL     1     118.826  72.828  44.072  1.00  0.00     0.094 A 
ATOM     10  C   UNL     1     120.156  72.397  44.045  1.00  0.00     0.146 A 
ATOM     11  O   UNL     1     120.671  71.826  45.127  1.00  0.00    -0.451 OA
ENDROOT
BRANCH   1  12
ATOM     12  C   UNL     1     122.382  70.754  46.454  1.00  0.00     0.063 A 
ATOM     13  C   UNL     1     122.853  68.756  47.763  1.00  0.00     0.047 A 
ATOM     14  C   UNL     1     122.448  69.353  46.566  1.00  0.00     0.020 A 
ATOM     15  C   UNL     1     123.187  69.546  48.865  1.00  0.00     0.119 A 
ATOM     16  C   UNL     1     123.112  70.941  48.768  1.00  0.00     0.093 A 
ATOM     17  C   UNL     1     122.708  71.549  47.570  1.00  0.00     0.130 A 
BRANCH  15  18
ATOM     18  O   UNL     1     123.590  68.936  50.052  1.00  0.00    -0.508 OA
ATOM     19  H   UNL     1     124.021  68.020  50.057  1.00  0.00     0.293 HD
ENDBRANCH  15  18
BRANCH  17  20
ATOM     20  O   UNL     1     122.643  72.940  47.485  1.00  0.00    -0.507 OA
ATOM     21  H   UNL     1     122.661  73.419  46.592  1.00  0.00     0.293 HD
ENDBRANCH  17  20
ENDBRANCH   1  12
BRANCH   2  22
ATOM     22  O   UNL     1     124.111  71.118  44.162  1.00  0.00    -0.502 OA
ATOM     23  H   UNL     1     124.885  71.742  43.968  1.00  0.00     0.293 HD
ENDBRANCH   2  22
BRANCH   6  24
ATOM     24  O   UNL     1     121.091  73.364  40.571  1.00  0.00    -0.507 OA
ATOM     25  H   UNL     1     121.994  72.927  40.432  1.00  0.00     0.293 HD
ENDBRANCH   6  24
BRANCH   8  26
ATOM     26  O   UNL     1     116.932  73.859  42.964  1.00  0.00    -0.508 OA
ATOM     27  H   UNL     1     116.405  73.917  43.828  1.00  0.00     0.293 HD
ENDBRANCH   8  26
TORSDOF 6
ENDMDL
