MODEL 1
REMARK VINA RESULT:     3.877      0.000      0.000
REMARK INTER + INTRA:           7.630
REMARK INTER:                   8.410
REMARK INTRA:                  -0.781
REMARK UNBOUND:                -0.781
REMARK SMILES CCCCCCCCCCCCCCCCCCCCCC(=O)[O-]
REMARK SMILES IDX 12 1 11 2 10 3 9 4 8 5 7 6 6 7 5 8 4 9 3 10 2 11 1 12 13 13
REMARK SMILES IDX 14 14 15 15 16 16 17 17 18 18 19 19 20 20 21 21 22 22 23 23
REMARK SMILES IDX 24 24
REMARK H PARENT
REMARK Flexibility Score: inf
ROOT
ATOM      1  C   UNL     1      -4.680  35.556  21.073  1.00  0.00     0.000 C 
ENDROOT
BRANCH   1   2
ATOM      2  C   UNL     1      -5.307  34.796  19.895  1.00  0.00     0.000 C 
BRANCH   2   3
ATOM      3  C   UNL     1      -5.090  35.509  18.548  1.00  0.00     0.000 C 
BRANCH   3   4
ATOM      4  C   UNL     1      -4.234  34.688  17.571  1.00  0.00    -0.000 C 
BRANCH   4   5
ATOM      5  C   UNL     1      -4.289  35.231  16.133  1.00  0.00    -0.000 C 
BRANCH   5   6
ATOM      6  C   UNL     1      -3.456  36.510  15.951  1.00  0.00    -0.000 C 
BRANCH   6   7
ATOM      7  C   UNL     1      -3.566  37.094  14.532  1.00  0.00    -0.000 C 
BRANCH   7   8
ATOM      8  C   UNL     1      -4.995  36.978  13.959  1.00  0.00    -0.000 C 
BRANCH   8   9
ATOM      9  C   UNL     1      -5.744  38.322  13.876  1.00  0.00    -0.000 C 
BRANCH   9  10
ATOM     10  C   UNL     1      -4.865  39.571  14.075  1.00  0.00    -0.000 C 
BRANCH  10  11
ATOM     11  C   UNL     1      -5.604  40.912  13.918  1.00  0.00    -0.003 C 
ATOM     12  C   UNL     1      -5.113  41.984  14.892  1.00  0.00     0.004 C 
ENDBRANCH  10  11
ENDBRANCH   9  10
ENDBRANCH   8   9
ENDBRANCH   7   8
ENDBRANCH   6   7
ENDBRANCH   5   6
ENDBRANCH   4   5
ENDBRANCH   3   4
ENDBRANCH   2   3
ENDBRANCH   1   2
BRANCH   1  13
ATOM     13  C   UNL     1      -4.537  34.681  22.331  1.00  0.00     0.000 C 
BRANCH  13  14
ATOM     14  C   UNL     1      -5.892  34.207  22.879  1.00  0.00     0.000 C 
BRANCH  14  15
ATOM     15  C   UNL     1      -6.104  34.597  24.350  1.00  0.00     0.000 C 
BRANCH  15  16
ATOM     16  C   UNL     1      -5.942  36.110  24.546  1.00  0.00     0.000 C 
BRANCH  16  17
ATOM     17  C   UNL     1      -4.773  36.420  25.493  1.00  0.00     0.000 C 
BRANCH  17  18
ATOM     18  C   UNL     1      -4.553  37.928  25.689  1.00  0.00     0.000 C 
BRANCH  18  19
ATOM     19  C   UNL     1      -5.514  38.781  24.846  1.00  0.00     0.000 C 
BRANCH  19  20
ATOM     20  C   UNL     1      -4.895  39.119  23.481  1.00  0.00     0.006 C 
BRANCH  20  21
ATOM     21  C   UNL     1      -5.960  39.407  22.415  1.00  0.00     0.053 C 
BRANCH  21  22
ATOM     22  C   UNL     1      -5.481  39.048  21.042  1.00  0.00     0.041 C 
ATOM     23  O   UNL     1      -6.113  39.440  20.026  1.00  0.00    -0.550 OA
ATOM     24  O   UNL     1      -4.355  38.250  20.886  1.00  0.00    -0.550 OA
ENDBRANCH  21  22
ENDBRANCH  20  21
ENDBRANCH  19  20
ENDBRANCH  18  19
ENDBRANCH  17  18
ENDBRANCH  16  17
ENDBRANCH  15  16
ENDBRANCH  14  15
ENDBRANCH  13  14
ENDBRANCH   1  13
TORSDOF 20
ENDMDL
MODEL 2
REMARK VINA RESULT:     4.517      1.080      2.207
REMARK INTER + INTRA:           9.017
REMARK INTER:                   8.256
REMARK INTRA:                   0.760
REMARK UNBOUND:                -0.781
REMARK SMILES CCCCCCCCCCCCCCCCCCCCCC(=O)[O-]
REMARK SMILES IDX 12 1 11 2 10 3 9 4 8 5 7 6 6 7 5 8 4 9 3 10 2 11 1 12 13 13
REMARK SMILES IDX 14 14 15 15 16 16 17 17 18 18 19 19 20 20 21 21 22 22 23 23
REMARK SMILES IDX 24 24
REMARK H PARENT
REMARK Flexibility Score: inf
ROOT
ATOM      1  C   UNL     1      -4.214  34.754  22.600  1.00  0.00     0.000 C 
ENDROOT
BRANCH   1   2
ATOM      2  C   UNL     1      -3.871  35.730  21.465  1.00  0.00     0.000 C 
BRANCH   2   3
ATOM      3  C   UNL     1      -4.874  35.658  20.299  1.00  0.00     0.000 C 
BRANCH   3   4
ATOM      4  C   UNL     1      -5.642  34.328  20.257  1.00  0.00    -0.000 C 
BRANCH   4   5
ATOM      5  C   UNL     1      -5.792  33.776  18.829  1.00  0.00    -0.000 C 
BRANCH   5   6
ATOM      6  C   UNL     1      -5.620  34.861  17.754  1.00  0.00    -0.000 C 
BRANCH   6   7
ATOM      7  C   UNL     1      -4.228  34.832  17.098  1.00  0.00    -0.000 C 
BRANCH   7   8
ATOM      8  C   UNL     1      -3.939  36.107  16.277  1.00  0.00    -0.000 C 
BRANCH   8   9
ATOM      9  C   UNL     1      -3.423  35.827  14.852  1.00  0.00    -0.000 C 
BRANCH   9  10
ATOM     10  C   UNL     1      -3.530  37.013  13.876  1.00  0.00    -0.000 C 
BRANCH  10  11
ATOM     11  C   UNL     1      -4.876  37.758  13.910  1.00  0.00    -0.003 C 
ATOM     12  C   UNL     1      -4.719  39.279  13.919  1.00  0.00     0.004 C 
ENDBRANCH  10  11
ENDBRANCH   9  10
ENDBRANCH   8   9
ENDBRANCH   7   8
ENDBRANCH   6   7
ENDBRANCH   5   6
ENDBRANCH   4   5
ENDBRANCH   3   4
ENDBRANCH   2   3
ENDBRANCH   1   2
BRANCH   1  13
ATOM     13  C   UNL     1      -5.730  34.530  22.748  1.00  0.00     0.000 C 
BRANCH  13  14
ATOM     14  C   UNL     1      -6.124  34.061  24.157  1.00  0.00     0.000 C 
BRANCH  14  15
ATOM     15  C   UNL     1      -5.863  35.128  25.231  1.00  0.00     0.000 C 
BRANCH  15  16
ATOM     16  C   UNL     1      -5.864  36.535  24.619  1.00  0.00     0.000 C 
BRANCH  16  17
ATOM     17  C   UNL     1      -5.120  37.529  25.522  1.00  0.00     0.000 C 
BRANCH  17  18
ATOM     18  C   UNL     1      -4.165  38.442  24.738  1.00  0.00     0.000 C 
BRANCH  18  19
ATOM     19  C   UNL     1      -4.746  39.845  24.501  1.00  0.00     0.000 C 
BRANCH  19  20
ATOM     20  C   UNL     1      -5.953  39.786  23.553  1.00  0.00     0.006 C 
BRANCH  20  21
ATOM     21  C   UNL     1      -5.598  40.245  22.132  1.00  0.00     0.053 C 
BRANCH  21  22
ATOM     22  C   UNL     1      -5.004  39.134  21.323  1.00  0.00     0.041 C 
ATOM     23  O   UNL     1      -5.714  38.496  20.502  1.00  0.00    -0.550 OA
ATOM     24  O   UNL     1      -3.673  38.779  21.502  1.00  0.00    -0.550 OA
ENDBRANCH  21  22
ENDBRANCH  20  21
ENDBRANCH  19  20
ENDBRANCH  18  19
ENDBRANCH  17  18
ENDBRANCH  16  17
ENDBRANCH  15  16
ENDBRANCH  14  15
ENDBRANCH  13  14
ENDBRANCH   1  13
TORSDOF 20
ENDMDL
MODEL 3
REMARK VINA RESULT:     6.488      1.855      3.241
REMARK INTER + INTRA:          13.293
REMARK INTER:                  11.899
REMARK INTRA:                   1.394
REMARK UNBOUND:                -0.781
REMARK SMILES CCCCCCCCCCCCCCCCCCCCCC(=O)[O-]
REMARK SMILES IDX 12 1 11 2 10 3 9 4 8 5 7 6 6 7 5 8 4 9 3 10 2 11 1 12 13 13
REMARK SMILES IDX 14 14 15 15 16 16 17 17 18 18 19 19 20 20 21 21 22 22 23 23
REMARK SMILES IDX 24 24
REMARK H PARENT
REMARK Flexibility Score: inf
ROOT
ATOM      1  C   UNL     1      -4.489  34.538  23.048  1.00  0.00     0.000 C 
ENDROOT
BRANCH   1   2
ATOM      2  C   UNL     1      -4.238  33.948  21.652  1.00  0.00     0.000 C 
BRANCH   2   3
ATOM      3  C   UNL     1      -5.057  34.652  20.556  1.00  0.00     0.000 C 
BRANCH   3   4
ATOM      4  C   UNL     1      -4.276  34.816  19.242  1.00  0.00    -0.000 C 
BRANCH   4   5
ATOM      5  C   UNL     1      -5.097  35.520  18.148  1.00  0.00    -0.000 C 
BRANCH   5   6
ATOM      6  C   UNL     1      -4.689  35.086  16.731  1.00  0.00    -0.000 C 
BRANCH   6   7
ATOM      7  C   UNL     1      -3.521  35.915  16.169  1.00  0.00    -0.000 C 
BRANCH   7   8
ATOM      8  C   UNL     1      -3.416  35.814  14.632  1.00  0.00    -0.000 C 
BRANCH   8   9
ATOM      9  C   UNL     1      -4.361  36.771  13.879  1.00  0.00    -0.000 C 
BRANCH   9  10
ATOM     10  C   UNL     1      -4.065  38.269  14.079  1.00  0.00    -0.000 C 
BRANCH  10  11
ATOM     11  C   UNL     1      -5.310  39.174  14.113  1.00  0.00    -0.003 C 
ATOM     12  C   UNL     1      -4.976  40.642  14.376  1.00  0.00     0.004 C 
ENDBRANCH  10  11
ENDBRANCH   9  10
ENDBRANCH   8   9
ENDBRANCH   7   8
ENDBRANCH   6   7
ENDBRANCH   5   6
ENDBRANCH   4   5
ENDBRANCH   3   4
ENDBRANCH   2   3
ENDBRANCH   1   2
BRANCH   1  13
ATOM     13  C   UNL     1      -5.943  35.004  23.239  1.00  0.00     0.000 C 
BRANCH  13  14
ATOM     14  C   UNL     1      -6.123  36.507  22.971  1.00  0.00     0.000 C 
BRANCH  14  15
ATOM     15  C   UNL     1      -6.119  36.845  21.472  1.00  0.00     0.000 C 
BRANCH  15  16
ATOM     16  C   UNL     1      -5.002  37.842  21.137  1.00  0.00     0.000 C 
BRANCH  16  17
ATOM     17  C   UNL     1      -5.585  39.197  20.710  1.00  0.00     0.000 C 
BRANCH  17  18
ATOM     18  C   UNL     1      -5.507  40.253  21.823  1.00  0.00     0.000 C 
BRANCH  18  19
ATOM     19  C   UNL     1      -4.626  39.808  23.001  1.00  0.00     0.000 C 
BRANCH  19  20
ATOM     20  C   UNL     1      -5.485  39.268  24.155  1.00  0.00     0.006 C 
BRANCH  20  21
ATOM     21  C   UNL     1      -4.695  39.158  25.466  1.00  0.00     0.053 C 
BRANCH  21  22
ATOM     22  C   UNL     1      -4.493  37.731  25.874  1.00  0.00     0.041 C 
ATOM     23  O   UNL     1      -5.340  36.854  25.559  1.00  0.00    -0.550 OA
ATOM     24  O   UNL     1      -3.386  37.376  26.634  1.00  0.00    -0.550 OA
ENDBRANCH  21  22
ENDBRANCH  20  21
ENDBRANCH  19  20
ENDBRANCH  18  19
ENDBRANCH  17  18
ENDBRANCH  16  17
ENDBRANCH  15  16
ENDBRANCH  14  15
ENDBRANCH  13  14
ENDBRANCH   1  13
TORSDOF 20
ENDMDL
MODEL 4
REMARK VINA RESULT:     6.569      2.178      3.843
REMARK INTER + INTRA:          13.469
REMARK INTER:                  11.201
REMARK INTRA:                   2.268
REMARK UNBOUND:                -0.781
REMARK SMILES CCCCCCCCCCCCCCCCCCCCCC(=O)[O-]
REMARK SMILES IDX 12 1 11 2 10 3 9 4 8 5 7 6 6 7 5 8 4 9 3 10 2 11 1 12 13 13
REMARK SMILES IDX 14 14 15 15 16 16 17 17 18 18 19 19 20 20 21 21 22 22 23 23
REMARK SMILES IDX 24 24
REMARK H PARENT
REMARK Flexibility Score: inf
ROOT
ATOM      1  C   UNL     1      -3.596  35.946  21.491  1.00  0.00     0.000 C 
ENDROOT
BRANCH   1   2
ATOM      2  C   UNL     1      -4.485  34.737  21.163  1.00  0.00     0.000 C 
BRANCH   2   3
ATOM      3  C   UNL     1      -5.805  35.141  20.481  1.00  0.00     0.000 C 
BRANCH   3   4
ATOM      4  C   UNL     1      -6.124  34.280  19.248  1.00  0.00    -0.000 C 
BRANCH   4   5
ATOM      5  C   UNL     1      -5.843  35.014  17.925  1.00  0.00    -0.000 C 
BRANCH   5   6
ATOM      6  C   UNL     1      -4.412  34.784  17.414  1.00  0.00    -0.000 C 
BRANCH   6   7
ATOM      7  C   UNL     1      -3.981  35.823  16.363  1.00  0.00    -0.000 C 
BRANCH   7   8
ATOM      8  C   UNL     1      -3.453  35.166  15.071  1.00  0.00    -0.000 C 
BRANCH   8   9
ATOM      9  C   UNL     1      -2.484  36.058  14.269  1.00  0.00    -0.000 C 
BRANCH   9  10
ATOM     10  C   UNL     1      -3.010  37.470  13.953  1.00  0.00    -0.000 C 
BRANCH  10  11
ATOM     11  C   UNL     1      -4.543  37.607  13.967  1.00  0.00    -0.003 C 
ATOM     12  C   UNL     1      -5.015  39.061  13.937  1.00  0.00     0.004 C 
ENDBRANCH  10  11
ENDBRANCH   9  10
ENDBRANCH   8   9
ENDBRANCH   7   8
ENDBRANCH   6   7
ENDBRANCH   5   6
ENDBRANCH   4   5
ENDBRANCH   3   4
ENDBRANCH   2   3
ENDBRANCH   1   2
BRANCH   1  13
ATOM     13  C   UNL     1      -4.389  37.263  21.550  1.00  0.00     0.000 C 
BRANCH  13  14
ATOM     14  C   UNL     1      -4.588  37.897  20.164  1.00  0.00     0.000 C 
BRANCH  14  15
ATOM     15  C   UNL     1      -5.801  38.838  20.112  1.00  0.00     0.000 C 
BRANCH  15  16
ATOM     16  C   UNL     1      -5.779  39.826  21.285  1.00  0.00     0.000 C 
BRANCH  16  17
ATOM     17  C   UNL     1      -4.924  39.288  22.443  1.00  0.00     0.000 C 
BRANCH  17  18
ATOM     18  C   UNL     1      -5.768  38.867  23.656  1.00  0.00     0.000 C 
BRANCH  18  19
ATOM     19  C   UNL     1      -6.122  37.371  23.641  1.00  0.00     0.000 C 
BRANCH  19  20
ATOM     20  C   UNL     1      -5.219  36.584  24.602  1.00  0.00     0.006 C 
BRANCH  20  21
ATOM     21  C   UNL     1      -5.546  36.870  26.074  1.00  0.00     0.053 C 
BRANCH  21  22
ATOM     22  C   UNL     1      -4.553  37.806  26.691  1.00  0.00     0.041 C 
ATOM     23  O   UNL     1      -4.854  38.465  27.720  1.00  0.00    -0.550 OA
ATOM     24  O   UNL     1      -3.304  37.977  26.106  1.00  0.00    -0.550 OA
ENDBRANCH  21  22
ENDBRANCH  20  21
ENDBRANCH  19  20
ENDBRANCH  18  19
ENDBRANCH  17  18
ENDBRANCH  16  17
ENDBRANCH  15  16
ENDBRANCH  14  15
ENDBRANCH  13  14
ENDBRANCH   1  13
TORSDOF 20
ENDMDL
MODEL 5
REMARK VINA RESULT:     6.809      2.924      9.727
REMARK INTER + INTRA:          13.990
REMARK INTER:                  15.206
REMARK INTRA:                  -1.216
REMARK UNBOUND:                -0.781
REMARK SMILES CCCCCCCCCCCCCCCCCCCCCC(=O)[O-]
REMARK SMILES IDX 12 1 11 2 10 3 9 4 8 5 7 6 6 7 5 8 4 9 3 10 2 11 1 12 13 13
REMARK SMILES IDX 14 14 15 15 16 16 17 17 18 18 19 19 20 20 21 21 22 22 23 23
REMARK SMILES IDX 24 24
REMARK H PARENT
REMARK Flexibility Score: inf
ROOT
ATOM      1  C   UNL     1      -4.869  38.282  22.029  1.00  0.00     0.000 C 
ENDROOT
BRANCH   1   2
ATOM      2  C   UNL     1      -5.764  37.973  23.239  1.00  0.00     0.000 C 
BRANCH   2   3
ATOM      3  C   UNL     1      -6.108  36.477  23.353  1.00  0.00     0.000 C 
BRANCH   3   4
ATOM      4  C   UNL     1      -5.234  35.742  24.382  1.00  0.00    -0.000 C 
BRANCH   4   5
ATOM      5  C   UNL     1      -5.601  36.099  25.833  1.00  0.00    -0.000 C 
BRANCH   5   6
ATOM      6  C   UNL     1      -4.860  37.347  26.340  1.00  0.00    -0.000 C 
BRANCH   6   7
ATOM      7  C   UNL     1      -3.350  37.303  26.043  1.00  0.00    -0.000 C 
BRANCH   7   8
ATOM      8  C   UNL     1      -2.498  37.353  27.329  1.00  0.00    -0.000 C 
BRANCH   8   9
ATOM      9  C   UNL     1      -1.855  36.003  27.703  1.00  0.00    -0.000 C 
BRANCH   9  10
ATOM     10  C   UNL     1      -2.670  35.145  28.689  1.00  0.00    -0.000 C 
BRANCH  10  11
ATOM     11  C   UNL     1      -1.995  33.826  29.106  1.00  0.00    -0.003 C 
ATOM     12  C   UNL     1      -0.546  34.010  29.556  1.00  0.00     0.004 C 
ENDBRANCH  10  11
ENDBRANCH   9  10
ENDBRANCH   8   9
ENDBRANCH   7   8
ENDBRANCH   6   7
ENDBRANCH   5   6
ENDBRANCH   4   5
ENDBRANCH   3   4
ENDBRANCH   2   3
ENDBRANCH   1   2
BRANCH   1  13
ATOM     13  C   UNL     1      -5.661  38.344  20.711  1.00  0.00     0.000 C 
BRANCH  13  14
ATOM     14  C   UNL     1      -5.016  37.507  19.594  1.00  0.00     0.000 C 
BRANCH  14  15
ATOM     15  C   UNL     1      -4.445  36.176  20.107  1.00  0.00     0.000 C 
BRANCH  15  16
ATOM     16  C   UNL     1      -5.437  35.028  19.880  1.00  0.00     0.000 C 
BRANCH  16  17
ATOM     17  C   UNL     1      -5.734  34.845  18.384  1.00  0.00     0.000 C 
BRANCH  17  18
ATOM     18  C   UNL     1      -4.462  34.630  17.549  1.00  0.00     0.000 C 
BRANCH  18  19
ATOM     19  C   UNL     1      -4.274  35.706  16.468  1.00  0.00     0.000 C 
BRANCH  19  20
ATOM     20  C   UNL     1      -3.200  35.283  15.454  1.00  0.00     0.006 C 
BRANCH  20  21
ATOM     21  C   UNL     1      -3.037  36.304  14.320  1.00  0.00     0.053 C 
BRANCH  21  22
ATOM     22  C   UNL     1      -4.182  37.268  14.273  1.00  0.00     0.041 C 
ATOM     23  O   UNL     1      -5.316  36.889  13.880  1.00  0.00    -0.550 OA
ATOM     24  O   UNL     1      -3.987  38.596  14.631  1.00  0.00    -0.550 OA
ENDBRANCH  21  22
ENDBRANCH  20  21
ENDBRANCH  19  20
ENDBRANCH  18  19
ENDBRANCH  17  18
ENDBRANCH  16  17
ENDBRANCH  15  16
ENDBRANCH  14  15
ENDBRANCH  13  14
ENDBRANCH   1  13
TORSDOF 20
ENDMDL
