MODEL 1
REMARK VINA RESULT:    -3.105      0.000      0.000
REMARK INTER + INTRA:          -8.581
REMARK INTER:                  -5.828
REMARK INTRA:                  -2.753
REMARK UNBOUND:                -2.753
REMARK SMILES CCCCCCCCC=CCCCCCCCC(=O)[O-]
REMARK SMILES IDX 10 1 9 2 11 3 12 4 13 5 14 6 15 7 16 8 17 9 18 10 19 11
REMARK SMILES IDX 20 12 8 13 7 14 6 15 5 16 4 17 3 18 2 19 1 20
REMARK H PARENT
REMARK Flexibility Score: inf
ROOT
ATOM      1  C   UNL     1    -102.540 -26.823 -15.574  1.00  0.00    -0.031 C 
ATOM      2  C   UNL     1    -101.981 -28.014 -15.840  1.00  0.00    -0.031 C 
ENDROOT
BRANCH   1   3
ATOM      3  C   UNL     1    -103.356 -26.089 -16.602  1.00  0.00     0.027 C 
BRANCH   3   4
ATOM      4  C   UNL     1    -104.208 -24.993 -15.953  1.00  0.00     0.004 C 
BRANCH   4   5
ATOM      5  C   UNL     1    -104.425 -25.276 -14.462  1.00  0.00     0.000 C 
BRANCH   5   6
ATOM      6  C   UNL     1    -104.952 -24.032 -13.736  1.00  0.00     0.000 C 
BRANCH   6   7
ATOM      7  C   UNL     1    -105.377 -24.369 -12.302  1.00  0.00     0.000 C 
BRANCH   7   8
ATOM      8  C   UNL     1    -104.400 -23.767 -11.282  1.00  0.00     0.006 C 
BRANCH   8   9
ATOM      9  C   UNL     1    -104.152 -24.704 -10.092  1.00  0.00     0.053 C 
BRANCH   9  10
ATOM     10  C   UNL     1    -103.467 -23.998  -8.962  1.00  0.00     0.041 C 
ATOM     11  O   UNL     1    -103.225 -22.765  -9.039  1.00  0.00    -0.550 OA
ATOM     12  O   UNL     1    -103.125 -24.697  -7.811  1.00  0.00    -0.550 OA
ENDBRANCH   9  10
ENDBRANCH   8   9
ENDBRANCH   7   8
ENDBRANCH   6   7
ENDBRANCH   5   6
ENDBRANCH   4   5
ENDBRANCH   3   4
ENDBRANCH   1   3
BRANCH   2  13
ATOM     13  C   UNL     1    -101.175 -28.756 -14.809  1.00  0.00     0.027 C 
BRANCH  13  14
ATOM     14  C   UNL     1    -100.594 -27.825 -13.729  1.00  0.00     0.004 C 
BRANCH  14  15
ATOM     15  C   UNL     1    -101.065 -28.146 -12.298  1.00  0.00     0.000 C 
BRANCH  15  16
ATOM     16  C   UNL     1    -102.336 -27.380 -11.904  1.00  0.00     0.000 C 
BRANCH  16  17
ATOM     17  C   UNL     1    -103.470 -28.347 -11.542  1.00  0.00    -0.000 C 
BRANCH  17  18
ATOM     18  C   UNL     1    -104.664 -28.176 -12.493  1.00  0.00    -0.000 C 
BRANCH  18  19
ATOM     19  C   UNL     1    -104.706 -29.254 -13.587  1.00  0.00    -0.003 C 
ATOM     20  C   UNL     1    -105.526 -28.831 -14.804  1.00  0.00     0.004 C 
ENDBRANCH  18  19
ENDBRANCH  17  18
ENDBRANCH  16  17
ENDBRANCH  15  16
ENDBRANCH  14  15
ENDBRANCH  13  14
ENDBRANCH   2  13
TORSDOF 15
ENDMDL
MODEL 2
REMARK VINA RESULT:    -3.102      3.281      4.633
REMARK INTER + INTRA:          -8.575
REMARK INTER:                  -6.381
REMARK INTRA:                  -2.194
REMARK UNBOUND:                -2.753
REMARK SMILES CCCCCCCCC=CCCCCCCCC(=O)[O-]
REMARK SMILES IDX 10 1 9 2 11 3 12 4 13 5 14 6 15 7 16 8 17 9 18 10 19 11
REMARK SMILES IDX 20 12 8 13 7 14 6 15 5 16 4 17 3 18 2 19 1 20
REMARK H PARENT
REMARK Flexibility Score: inf
ROOT
ATOM      1  C   UNL     1    -101.485 -30.373 -15.591  1.00  0.00    -0.031 C 
ATOM      2  C   UNL     1    -100.237 -30.280 -16.074  1.00  0.00    -0.031 C 
ENDROOT
BRANCH   1   3
ATOM      3  C   UNL     1    -102.551 -29.382 -15.966  1.00  0.00     0.027 C 
BRANCH   3   4
ATOM      4  C   UNL     1    -101.937 -28.051 -16.417  1.00  0.00     0.004 C 
BRANCH   4   5
ATOM      5  C   UNL     1    -102.809 -26.868 -15.981  1.00  0.00     0.000 C 
BRANCH   5   6
ATOM      6  C   UNL     1    -104.096 -26.798 -16.812  1.00  0.00     0.000 C 
BRANCH   6   7
ATOM      7  C   UNL     1    -104.886 -25.522 -16.498  1.00  0.00     0.000 C 
BRANCH   7   8
ATOM      8  C   UNL     1    -104.162 -24.673 -15.442  1.00  0.00     0.006 C 
BRANCH   8   9
ATOM      9  C   UNL     1    -105.140 -23.999 -14.469  1.00  0.00     0.053 C 
BRANCH   9  10
ATOM     10  C   UNL     1    -105.627 -22.683 -14.995  1.00  0.00     0.041 C 
ATOM     11  O   UNL     1    -104.901 -21.998 -15.761  1.00  0.00    -0.550 OA
ATOM     12  O   UNL     1    -106.897 -22.229 -14.662  1.00  0.00    -0.550 OA
ENDBRANCH   9  10
ENDBRANCH   8   9
ENDBRANCH   7   8
ENDBRANCH   6   7
ENDBRANCH   5   6
ENDBRANCH   4   5
ENDBRANCH   3   4
ENDBRANCH   1   3
BRANCH   2  13
ATOM     13  C   UNL     1     -99.172 -31.279 -15.710  1.00  0.00     0.027 C 
BRANCH  13  14
ATOM     14  C   UNL     1     -99.044 -31.480 -14.189  1.00  0.00     0.004 C 
BRANCH  14  15
ATOM     15  C   UNL     1     -97.810 -30.803 -13.564  1.00  0.00     0.000 C 
BRANCH  15  16
ATOM     16  C   UNL     1     -98.077 -29.352 -13.141  1.00  0.00     0.000 C 
BRANCH  16  17
ATOM     17  C   UNL     1     -99.496 -29.196 -12.579  1.00  0.00    -0.000 C 
BRANCH  17  18
ATOM     18  C   UNL     1    -100.179 -27.944 -13.150  1.00  0.00    -0.000 C 
BRANCH  18  19
ATOM     19  C   UNL     1    -101.573 -27.706 -12.548  1.00  0.00    -0.003 C 
ATOM     20  C   UNL     1    -102.289 -29.006 -12.182  1.00  0.00     0.004 C 
ENDBRANCH  18  19
ENDBRANCH  17  18
ENDBRANCH  16  17
ENDBRANCH  15  16
ENDBRANCH  14  15
ENDBRANCH  13  14
ENDBRANCH   2  13
TORSDOF 15
ENDMDL
MODEL 3
REMARK VINA RESULT:    -3.094      1.506      2.598
REMARK INTER + INTRA:          -8.559
REMARK INTER:                  -6.806
REMARK INTRA:                  -1.754
REMARK UNBOUND:                -2.753
REMARK SMILES CCCCCCCCC=CCCCCCCCC(=O)[O-]
REMARK SMILES IDX 10 1 9 2 11 3 12 4 13 5 14 6 15 7 16 8 17 9 18 10 19 11
REMARK SMILES IDX 20 12 8 13 7 14 6 15 5 16 4 17 3 18 2 19 1 20
REMARK H PARENT
REMARK Flexibility Score: inf
ROOT
ATOM      1  C   UNL     1    -103.299 -26.482 -16.636  1.00  0.00    -0.031 C 
ATOM      2  C   UNL     1    -102.409 -27.217 -15.952  1.00  0.00    -0.031 C 
ENDROOT
BRANCH   1   3
ATOM      3  C   UNL     1    -104.068 -25.368 -15.983  1.00  0.00     0.027 C 
BRANCH   3   4
ATOM      4  C   UNL     1    -103.957 -25.438 -14.456  1.00  0.00     0.004 C 
BRANCH   4   5
ATOM      5  C   UNL     1    -104.881 -24.411 -13.791  1.00  0.00     0.000 C 
BRANCH   5   6
ATOM      6  C   UNL     1    -104.658 -24.371 -12.274  1.00  0.00     0.000 C 
BRANCH   6   7
ATOM      7  C   UNL     1    -104.478 -22.930 -11.781  1.00  0.00     0.000 C 
BRANCH   7   8
ATOM      8  C   UNL     1    -104.355 -22.883 -10.251  1.00  0.00     0.006 C 
BRANCH   8   9
ATOM      9  C   UNL     1    -103.867 -24.216  -9.667  1.00  0.00     0.053 C 
BRANCH   9  10
ATOM     10  C   UNL     1    -102.902 -24.009  -8.540  1.00  0.00     0.041 C 
ATOM     11  O   UNL     1    -102.168 -22.987  -8.515  1.00  0.00    -0.550 OA
ATOM     12  O   UNL     1    -102.838 -24.929  -7.502  1.00  0.00    -0.550 OA
ENDBRANCH   9  10
ENDBRANCH   8   9
ENDBRANCH   7   8
ENDBRANCH   6   7
ENDBRANCH   5   6
ENDBRANCH   4   5
ENDBRANCH   3   4
ENDBRANCH   1   3
BRANCH   2  13
ATOM     13  C   UNL     1    -101.628 -28.325 -16.607  1.00  0.00     0.027 C 
BRANCH  13  14
ATOM     14  C   UNL     1    -101.797 -29.674 -15.886  1.00  0.00     0.004 C 
BRANCH  14  15
ATOM     15  C   UNL     1    -100.486 -30.267 -15.338  1.00  0.00     0.000 C 
BRANCH  15  16
ATOM     16  C   UNL     1    -100.395 -30.198 -13.807  1.00  0.00     0.000 C 
BRANCH  16  17
ATOM     17  C   UNL     1     -99.507 -29.030 -13.361  1.00  0.00    -0.000 C 
BRANCH  17  18
ATOM     18  C   UNL     1    -100.354 -27.803 -12.994  1.00  0.00    -0.000 C 
BRANCH  18  19
ATOM     19  C   UNL     1    -101.733 -28.184 -12.433  1.00  0.00    -0.003 C 
ATOM     20  C   UNL     1    -102.273 -27.155 -11.441  1.00  0.00     0.004 C 
ENDBRANCH  18  19
ENDBRANCH  17  18
ENDBRANCH  16  17
ENDBRANCH  15  16
ENDBRANCH  14  15
ENDBRANCH  13  14
ENDBRANCH   2  13
TORSDOF 15
ENDMDL
MODEL 4
REMARK VINA RESULT:    -3.078      4.047      6.946
REMARK INTER + INTRA:          -8.530
REMARK INTER:                  -6.047
REMARK INTRA:                  -2.482
REMARK UNBOUND:                -2.753
REMARK SMILES CCCCCCCCC=CCCCCCCCC(=O)[O-]
REMARK SMILES IDX 10 1 9 2 11 3 12 4 13 5 14 6 15 7 16 8 17 9 18 10 19 11
REMARK SMILES IDX 20 12 8 13 7 14 6 15 5 16 4 17 3 18 2 19 1 20
REMARK H PARENT
REMARK Flexibility Score: inf
ROOT
ATOM      1  C   UNL     1    -103.871 -26.712 -12.329  1.00  0.00    -0.031 C 
ATOM      2  C   UNL     1    -104.248 -25.428 -12.223  1.00  0.00    -0.031 C 
ENDROOT
BRANCH   1   3
ATOM      3  C   UNL     1    -103.392 -27.492 -11.136  1.00  0.00     0.027 C 
BRANCH   3   4
ATOM      4  C   UNL     1    -101.906 -27.847 -11.267  1.00  0.00     0.004 C 
BRANCH   4   5
ATOM      5  C   UNL     1    -101.589 -28.375 -12.671  1.00  0.00     0.000 C 
BRANCH   5   6
ATOM      6  C   UNL     1    -100.197 -27.924 -13.128  1.00  0.00     0.000 C 
BRANCH   6   7
ATOM      7  C   UNL     1     -99.316 -29.129 -13.482  1.00  0.00     0.000 C 
BRANCH   7   8
ATOM      8  C   UNL     1    -100.152 -30.259 -14.099  1.00  0.00     0.006 C 
BRANCH   8   9
ATOM      9  C   UNL     1     -99.725 -30.578 -15.538  1.00  0.00     0.053 C 
BRANCH   9  10
ATOM     10  C   UNL     1     -98.745 -31.711 -15.589  1.00  0.00     0.041 C 
ATOM     11  O   UNL     1     -97.520 -31.498 -15.392  1.00  0.00    -0.550 OA
ATOM     12  O   UNL     1     -99.191 -33.006 -15.822  1.00  0.00    -0.550 OA
ENDBRANCH   9  10
ENDBRANCH   8   9
ENDBRANCH   7   8
ENDBRANCH   6   7
ENDBRANCH   5   6
ENDBRANCH   4   5
ENDBRANCH   3   4
ENDBRANCH   1   3
BRANCH   2  13
ATOM     13  C   UNL     1    -104.741 -24.650 -13.413  1.00  0.00     0.027 C 
BRANCH  13  14
ATOM     14  C   UNL     1    -104.908 -25.527 -14.667  1.00  0.00     0.004 C 
BRANCH  14  15
ATOM     15  C   UNL     1    -104.210 -24.975 -15.923  1.00  0.00     0.000 C 
BRANCH  15  16
ATOM     16  C   UNL     1    -103.517 -26.068 -16.748  1.00  0.00     0.000 C 
BRANCH  16  17
ATOM     17  C   UNL     1    -102.546 -26.878 -15.881  1.00  0.00    -0.000 C 
BRANCH  17  18
ATOM     18  C   UNL     1    -102.596 -28.370 -16.245  1.00  0.00    -0.000 C 
BRANCH  18  19
ATOM     19  C   UNL     1    -104.013 -28.954 -16.145  1.00  0.00    -0.003 C 
ATOM     20  C   UNL     1    -104.307 -29.560 -14.773  1.00  0.00     0.004 C 
ENDBRANCH  18  19
ENDBRANCH  17  18
ENDBRANCH  16  17
ENDBRANCH  15  16
ENDBRANCH  14  15
ENDBRANCH  13  14
ENDBRANCH   2  13
TORSDOF 15
ENDMDL
MODEL 5
REMARK VINA RESULT:    -3.057      3.322      5.904
REMARK INTER + INTRA:          -8.491
REMARK INTER:                  -5.622
REMARK INTRA:                  -2.869
REMARK UNBOUND:                -2.753
REMARK SMILES CCCCCCCCC=CCCCCCCCC(=O)[O-]
REMARK SMILES IDX 10 1 9 2 11 3 12 4 13 5 14 6 15 7 16 8 17 9 18 10 19 11
REMARK SMILES IDX 20 12 8 13 7 14 6 15 5 16 4 17 3 18 2 19 1 20
REMARK H PARENT
REMARK Flexibility Score: inf
ROOT
ATOM      1  C   UNL     1    -104.718 -29.175 -13.757  1.00  0.00    -0.031 C 
ATOM      2  C   UNL     1    -103.554 -29.342 -14.404  1.00  0.00    -0.031 C 
ENDROOT
BRANCH   1   3
ATOM      3  C   UNL     1    -104.781 -29.105 -12.257  1.00  0.00     0.027 C 
BRANCH   3   4
ATOM      4  C   UNL     1    -103.748 -28.117 -11.704  1.00  0.00     0.004 C 
BRANCH   4   5
ATOM      5  C   UNL     1    -102.757 -28.823 -10.771  1.00  0.00     0.000 C 
BRANCH   5   6
ATOM      6  C   UNL     1    -101.367 -28.917 -11.412  1.00  0.00     0.000 C 
BRANCH   6   7
ATOM      7  C   UNL     1    -101.107 -27.723 -12.340  1.00  0.00     0.000 C 
BRANCH   7   8
ATOM      8  C   UNL     1    -100.043 -28.067 -13.394  1.00  0.00     0.006 C 
BRANCH   8   9
ATOM      9  C   UNL     1     -99.935 -29.579 -13.637  1.00  0.00     0.053 C 
BRANCH   9  10
ATOM     10  C   UNL     1     -98.508 -30.033 -13.686  1.00  0.00     0.041 C 
ATOM     11  O   UNL     1     -98.150 -30.907 -14.518  1.00  0.00    -0.550 OA
ATOM     12  O   UNL     1     -97.568 -29.467 -12.834  1.00  0.00    -0.550 OA
ENDBRANCH   9  10
ENDBRANCH   8   9
ENDBRANCH   7   8
ENDBRANCH   6   7
ENDBRANCH   5   6
ENDBRANCH   4   5
ENDBRANCH   3   4
ENDBRANCH   1   3
BRANCH   2  13
ATOM     13  C   UNL     1    -103.487 -29.400 -15.907  1.00  0.00     0.027 C 
BRANCH  13  14
ATOM     14  C   UNL     1    -102.391 -28.488 -16.486  1.00  0.00     0.004 C 
BRANCH  14  15
ATOM     15  C   UNL     1    -102.432 -27.040 -15.963  1.00  0.00     0.000 C 
BRANCH  15  16
ATOM     16  C   UNL     1    -103.416 -26.154 -16.741  1.00  0.00     0.000 C 
BRANCH  16  17
ATOM     17  C   UNL     1    -104.079 -25.126 -15.816  1.00  0.00    -0.000 C 
BRANCH  17  18
ATOM     18  C   UNL     1    -104.058 -25.605 -14.356  1.00  0.00    -0.000 C 
BRANCH  18  19
ATOM     19  C   UNL     1    -104.816 -24.657 -13.413  1.00  0.00    -0.003 C 
ATOM     20  C   UNL     1    -105.984 -25.339 -12.702  1.00  0.00     0.004 C 
ENDBRANCH  18  19
ENDBRANCH  17  18
ENDBRANCH  16  17
ENDBRANCH  15  16
ENDBRANCH  14  15
ENDBRANCH  13  14
ENDBRANCH   2  13
TORSDOF 15
ENDMDL
MODEL 6
REMARK VINA RESULT:    -3.057      3.902      6.137
REMARK INTER + INTRA:          -8.491
REMARK INTER:                  -6.684
REMARK INTRA:                  -1.807
REMARK UNBOUND:                -2.753
REMARK SMILES CCCCCCCCC=CCCCCCCCC(=O)[O-]
REMARK SMILES IDX 10 1 9 2 11 3 12 4 13 5 14 6 15 7 16 8 17 9 18 10 19 11
REMARK SMILES IDX 20 12 8 13 7 14 6 15 5 16 4 17 3 18 2 19 1 20
REMARK H PARENT
REMARK Flexibility Score: inf
ROOT
ATOM      1  C   UNL     1    -103.455 -26.983 -12.267  1.00  0.00    -0.031 C 
ATOM      2  C   UNL     1    -102.226 -27.231 -11.790  1.00  0.00    -0.031 C 
ENDROOT
BRANCH   1   3
ATOM      3  C   UNL     1    -104.212 -25.742 -11.885  1.00  0.00     0.027 C 
BRANCH   3   4
ATOM      4  C   UNL     1    -104.644 -24.951 -13.125  1.00  0.00     0.004 C 
BRANCH   4   5
ATOM      5  C   UNL     1    -104.702 -25.857 -14.360  1.00  0.00     0.000 C 
BRANCH   5   6
ATOM      6  C   UNL     1    -104.227 -25.110 -15.613  1.00  0.00     0.000 C 
BRANCH   6   7
ATOM      7  C   UNL     1    -103.421 -26.036 -16.534  1.00  0.00     0.000 C 
BRANCH   7   8
ATOM      8  C   UNL     1    -102.457 -26.914 -15.723  1.00  0.00     0.006 C 
BRANCH   8   9
ATOM      9  C   UNL     1    -102.129 -28.231 -16.440  1.00  0.00     0.053 C 
BRANCH   9  10
ATOM     10  C   UNL     1    -102.901 -29.381 -15.871  1.00  0.00     0.041 C 
ATOM     11  O   UNL     1    -102.325 -30.234 -15.146  1.00  0.00    -0.550 OA
ATOM     12  O   UNL     1    -104.264 -29.493 -16.115  1.00  0.00    -0.550 OA
ENDBRANCH   9  10
ENDBRANCH   8   9
ENDBRANCH   7   8
ENDBRANCH   6   7
ENDBRANCH   5   6
ENDBRANCH   4   5
ENDBRANCH   3   4
ENDBRANCH   1   3
BRANCH   2  13
ATOM     13  C   UNL     1    -101.461 -28.467 -12.182  1.00  0.00     0.027 C 
BRANCH  13  14
ATOM     14  C   UNL     1    -100.207 -28.147 -13.016  1.00  0.00     0.004 C 
BRANCH  14  15
ATOM     15  C   UNL     1     -99.168 -29.282 -13.056  1.00  0.00     0.000 C 
BRANCH  15  16
ATOM     16  C   UNL     1     -98.862 -29.859 -11.667  1.00  0.00     0.000 C 
BRANCH  16  17
ATOM     17  C   UNL     1     -97.350 -30.000 -11.451  1.00  0.00    -0.000 C 
BRANCH  17  18
ATOM     18  C   UNL     1     -96.593 -29.917 -12.786  1.00  0.00    -0.000 C 
BRANCH  18  19
ATOM     19  C   UNL     1     -96.059 -31.282 -13.247  1.00  0.00    -0.003 C 
ATOM     20  C   UNL     1     -96.483 -31.631 -14.673  1.00  0.00     0.004 C 
ENDBRANCH  18  19
ENDBRANCH  17  18
ENDBRANCH  16  17
ENDBRANCH  15  16
ENDBRANCH  14  15
ENDBRANCH  13  14
ENDBRANCH   2  13
TORSDOF 15
ENDMDL
MODEL 7
REMARK VINA RESULT:    -3.053      1.135      3.376
REMARK INTER + INTRA:          -8.482
REMARK INTER:                  -5.806
REMARK INTRA:                  -2.676
REMARK UNBOUND:                -2.753
REMARK SMILES CCCCCCCCC=CCCCCCCCC(=O)[O-]
REMARK SMILES IDX 10 1 9 2 11 3 12 4 13 5 14 6 15 7 16 8 17 9 18 10 19 11
REMARK SMILES IDX 20 12 8 13 7 14 6 15 5 16 4 17 3 18 2 19 1 20
REMARK H PARENT
REMARK Flexibility Score: inf
ROOT
ATOM      1  C   UNL     1    -101.797 -27.592 -14.426  1.00  0.00    -0.031 C 
ATOM      2  C   UNL     1    -101.762 -27.939 -15.722  1.00  0.00    -0.031 C 
ENDROOT
BRANCH   1   3
ATOM      3  C   UNL     1    -100.668 -27.926 -13.491  1.00  0.00     0.027 C 
BRANCH   3   4
ATOM      4  C   UNL     1    -101.192 -28.301 -12.100  1.00  0.00     0.004 C 
BRANCH   4   5
ATOM      5  C   UNL     1    -102.086 -27.192 -11.533  1.00  0.00     0.000 C 
BRANCH   5   6
ATOM      6  C   UNL     1    -102.774 -27.647 -10.240  1.00  0.00     0.000 C 
BRANCH   6   7
ATOM      7  C   UNL     1    -104.174 -27.033 -10.116  1.00  0.00     0.000 C 
BRANCH   7   8
ATOM      8  C   UNL     1    -104.092 -25.513  -9.909  1.00  0.00     0.006 C 
BRANCH   8   9
ATOM      9  C   UNL     1    -103.438 -25.144  -8.571  1.00  0.00     0.053 C 
BRANCH   9  10
ATOM     10  C   UNL     1    -102.946 -23.728  -8.564  1.00  0.00     0.041 C 
ATOM     11  O   UNL     1    -103.644 -22.813  -9.074  1.00  0.00    -0.550 OA
ATOM     12  O   UNL     1    -101.732 -23.417  -7.966  1.00  0.00    -0.550 OA
ENDBRANCH   9  10
ENDBRANCH   8   9
ENDBRANCH   7   8
ENDBRANCH   6   7
ENDBRANCH   5   6
ENDBRANCH   4   5
ENDBRANCH   3   4
ENDBRANCH   1   3
BRANCH   2  13
ATOM     13  C   UNL     1    -102.886 -27.594 -16.662  1.00  0.00     0.027 C 
BRANCH  13  14
ATOM     14  C   UNL     1    -103.178 -26.083 -16.706  1.00  0.00     0.004 C 
BRANCH  14  15
ATOM     15  C   UNL     1    -104.515 -25.679 -16.056  1.00  0.00     0.000 C 
BRANCH  15  16
ATOM     16  C   UNL     1    -104.329 -24.884 -14.756  1.00  0.00     0.000 C 
BRANCH  16  17
ATOM     17  C   UNL     1    -104.842 -25.679 -13.549  1.00  0.00    -0.000 C 
BRANCH  17  18
ATOM     18  C   UNL     1    -105.654 -26.902 -13.999  1.00  0.00    -0.000 C 
BRANCH  18  19
ATOM     19  C   UNL     1    -105.192 -28.200 -13.319  1.00  0.00    -0.003 C 
ATOM     20  C   UNL     1    -105.111 -29.379 -14.287  1.00  0.00     0.004 C 
ENDBRANCH  18  19
ENDBRANCH  17  18
ENDBRANCH  16  17
ENDBRANCH  15  16
ENDBRANCH  14  15
ENDBRANCH  13  14
ENDBRANCH   2  13
TORSDOF 15
ENDMDL
MODEL 8
REMARK VINA RESULT:    -3.022      1.809      3.054
REMARK INTER + INTRA:          -8.424
REMARK INTER:                  -6.273
REMARK INTRA:                  -2.151
REMARK UNBOUND:                -2.753
REMARK SMILES CCCCCCCCC=CCCCCCCCC(=O)[O-]
REMARK SMILES IDX 10 1 9 2 11 3 12 4 13 5 14 6 15 7 16 8 17 9 18 10 19 11
REMARK SMILES IDX 20 12 8 13 7 14 6 15 5 16 4 17 3 18 2 19 1 20
REMARK H PARENT
REMARK Flexibility Score: inf
ROOT
ATOM      1  C   UNL     1    -101.533 -27.583 -15.014  1.00  0.00    -0.031 C 
ATOM      2  C   UNL     1    -101.951 -27.703 -13.745  1.00  0.00    -0.031 C 
ENDROOT
BRANCH   1   3
ATOM      3  C   UNL     1    -102.485 -27.243 -16.127  1.00  0.00     0.027 C 
BRANCH   3   4
ATOM      4  C   UNL     1    -103.771 -26.611 -15.583  1.00  0.00     0.004 C 
BRANCH   4   5
ATOM      5  C   UNL     1    -104.129 -25.339 -16.361  1.00  0.00     0.000 C 
BRANCH   5   6
ATOM      6  C   UNL     1    -104.558 -24.214 -15.411  1.00  0.00     0.000 C 
BRANCH   6   7
ATOM      7  C   UNL     1    -104.537 -24.687 -13.952  1.00  0.00     0.000 C 
BRANCH   7   8
ATOM      8  C   UNL     1    -104.958 -23.556 -13.001  1.00  0.00     0.006 C 
BRANCH   8   9
ATOM      9  C   UNL     1    -104.611 -23.868 -11.540  1.00  0.00     0.053 C 
BRANCH   9  10
ATOM     10  C   UNL     1    -104.275 -22.627 -10.771  1.00  0.00     0.041 C 
ATOM     11  O   UNL     1    -104.532 -21.493 -11.255  1.00  0.00    -0.550 OA
ATOM     12  O   UNL     1    -103.708 -22.723  -9.507  1.00  0.00    -0.550 OA
ENDBRANCH   9  10
ENDBRANCH   8   9
ENDBRANCH   7   8
ENDBRANCH   6   7
ENDBRANCH   5   6
ENDBRANCH   4   5
ENDBRANCH   3   4
ENDBRANCH   1   3
BRANCH   2  13
ATOM     13  C   UNL     1    -100.997 -28.031 -12.627  1.00  0.00     0.027 C 
BRANCH  13  14
ATOM     14  C   UNL     1     -99.566 -28.297 -13.129  1.00  0.00     0.004 C 
BRANCH  14  15
ATOM     15  C   UNL     1     -98.967 -29.633 -12.654  1.00  0.00     0.000 C 
BRANCH  15  16
ATOM     16  C   UNL     1     -99.486 -30.836 -13.454  1.00  0.00     0.000 C 
BRANCH  16  17
ATOM     17  C   UNL     1     -99.136 -30.700 -14.940  1.00  0.00    -0.000 C 
BRANCH  17  18
ATOM     18  C   UNL     1    -100.374 -30.926 -15.821  1.00  0.00    -0.000 C 
BRANCH  18  19
ATOM     19  C   UNL     1    -101.611 -31.334 -15.006  1.00  0.00    -0.003 C 
ATOM     20  C   UNL     1    -102.923 -30.969 -15.699  1.00  0.00     0.004 C 
ENDBRANCH  18  19
ENDBRANCH  17  18
ENDBRANCH  16  17
ENDBRANCH  15  16
ENDBRANCH  14  15
ENDBRANCH  13  14
ENDBRANCH   2  13
TORSDOF 15
ENDMDL
MODEL 9
REMARK VINA RESULT:    -3.016      1.608      2.616
REMARK INTER + INTRA:          -8.413
REMARK INTER:                  -6.094
REMARK INTRA:                  -2.319
REMARK UNBOUND:                -2.753
REMARK SMILES CCCCCCCCC=CCCCCCCCC(=O)[O-]
REMARK SMILES IDX 10 1 9 2 11 3 12 4 13 5 14 6 15 7 16 8 17 9 18 10 19 11
REMARK SMILES IDX 20 12 8 13 7 14 6 15 5 16 4 17 3 18 2 19 1 20
REMARK H PARENT
REMARK Flexibility Score: inf
ROOT
ATOM      1  C   UNL     1    -101.626 -28.365 -16.371  1.00  0.00    -0.031 C 
ATOM      2  C   UNL     1    -101.630 -29.695 -16.198  1.00  0.00    -0.031 C 
ENDROOT
BRANCH   1   3
ATOM      3  C   UNL     1    -102.903 -27.588 -16.536  1.00  0.00     0.027 C 
BRANCH   3   4
ATOM      4  C   UNL     1    -102.942 -26.378 -15.597  1.00  0.00     0.004 C 
BRANCH   4   5
ATOM      5  C   UNL     1    -104.182 -25.517 -15.863  1.00  0.00     0.000 C 
BRANCH   5   6
ATOM      6  C   UNL     1    -105.209 -25.666 -14.733  1.00  0.00     0.000 C 
BRANCH   6   7
ATOM      7  C   UNL     1    -104.573 -25.373 -13.369  1.00  0.00     0.000 C 
BRANCH   7   8
ATOM      8  C   UNL     1    -104.719 -23.889 -13.000  1.00  0.00     0.006 C 
BRANCH   8   9
ATOM      9  C   UNL     1    -104.614 -23.654 -11.488  1.00  0.00     0.053 C 
BRANCH   9  10
ATOM     10  C   UNL     1    -104.557 -22.194 -11.155  1.00  0.00     0.041 C 
ATOM     11  O   UNL     1    -105.437 -21.409 -11.595  1.00  0.00    -0.550 OA
ATOM     12  O   UNL     1    -103.548 -21.707 -10.333  1.00  0.00    -0.550 OA
ENDBRANCH   9  10
ENDBRANCH   8   9
ENDBRANCH   7   8
ENDBRANCH   6   7
ENDBRANCH   5   6
ENDBRANCH   4   5
ENDBRANCH   3   4
ENDBRANCH   1   3
BRANCH   2  13
ATOM     13  C   UNL     1    -100.354 -30.472 -16.019  1.00  0.00     0.027 C 
BRANCH  13  14
ATOM     14  C   UNL     1    -100.072 -30.817 -14.545  1.00  0.00     0.004 C 
BRANCH  14  15
ATOM     15  C   UNL     1     -99.070 -29.873 -13.855  1.00  0.00     0.000 C 
BRANCH  15  16
ATOM     16  C   UNL     1     -99.681 -29.125 -12.663  1.00  0.00     0.000 C 
BRANCH  16  17
ATOM     17  C   UNL     1    -100.418 -27.862 -13.126  1.00  0.00    -0.000 C 
BRANCH  17  18
ATOM     18  C   UNL     1    -101.661 -27.602 -12.260  1.00  0.00    -0.000 C 
BRANCH  18  19
ATOM     19  C   UNL     1    -102.489 -28.873 -12.020  1.00  0.00    -0.003 C 
ATOM     20  C   UNL     1    -103.520 -29.124 -13.120  1.00  0.00     0.004 C 
ENDBRANCH  18  19
ENDBRANCH  17  18
ENDBRANCH  16  17
ENDBRANCH  15  16
ENDBRANCH  14  15
ENDBRANCH  13  14
ENDBRANCH   2  13
TORSDOF 15
ENDMDL
