MODEL 1
REMARK VINA RESULT:    -5.786      0.000      0.000
REMARK INTER + INTRA:          -5.955
REMARK INTER:                  -5.955
REMARK INTRA:                   0.000
REMARK UNBOUND:                 0.000
REMARK SMILES O=c1ccc2ccc(O)cc2o1
REMARK SMILES IDX 6 1 7 2 8 3 10 4 11 5 5 6 4 7 3 8 2 9 1 10 12 11 9 12
REMARK H PARENT 9 13
REMARK Flexibility Score: inf
ROOT
ATOM      1  C   UNL     1     -35.722  15.569  51.807  1.00  0.00     0.016 A 
ATOM      2  C   UNL     1     -36.045  16.251  50.630  1.00  0.00     0.047 A 
ATOM      3  C   UNL     1     -35.032  16.697  49.768  1.00  0.00     0.119 A 
ATOM      4  C   UNL     1     -33.689  16.457  50.086  1.00  0.00     0.094 A 
ATOM      5  C   UNL     1     -33.356  15.775  51.262  1.00  0.00     0.142 A 
ATOM      6  C   UNL     1     -34.379  15.329  52.128  1.00  0.00     0.018 A 
ATOM      7  C   UNL     1     -34.014  14.650  53.295  1.00  0.00     0.019 A 
ATOM      8  C   UNL     1     -32.664  14.436  53.569  1.00  0.00     0.094 A 
ATOM      9  C   UNL     1     -31.705  14.907  52.665  1.00  0.00     0.336 A 
ATOM     10  O   UNL     1     -30.481  14.723  52.893  1.00  0.00    -0.246 OA
ATOM     11  O   UNL     1     -32.079  15.550  51.561  1.00  0.00    -0.423 OA
ENDROOT
BRANCH   3  12
ATOM     12  O   UNL     1     -35.347  17.376  48.594  1.00  0.00    -0.508 OA
ATOM     13  H   UNL     1     -35.369  18.388  48.557  1.00  0.00     0.293 HD
ENDBRANCH   3  12
TORSDOF 1
ENDMDL
MODEL 2
REMARK VINA RESULT:    -5.626      1.265      1.782
REMARK INTER + INTRA:          -5.791
REMARK INTER:                  -5.791
REMARK INTRA:                   0.000
REMARK UNBOUND:                 0.000
REMARK SMILES O=c1ccc2ccc(O)cc2o1
REMARK SMILES IDX 6 1 7 2 8 3 10 4 11 5 5 6 4 7 3 8 2 9 1 10 12 11 9 12
REMARK H PARENT 9 13
REMARK Flexibility Score: inf
ROOT
ATOM      1  C   UNL     1     -34.580  15.313  52.894  1.00  0.00     0.016 A 
ATOM      2  C   UNL     1     -34.721  16.108  51.752  1.00  0.00     0.047 A 
ATOM      3  C   UNL     1     -33.611  16.380  50.937  1.00  0.00     0.119 A 
ATOM      4  C   UNL     1     -32.356  15.853  51.269  1.00  0.00     0.094 A 
ATOM      5  C   UNL     1     -32.206  15.057  52.410  1.00  0.00     0.142 A 
ATOM      6  C   UNL     1     -33.326  14.786  53.228  1.00  0.00     0.018 A 
ATOM      7  C   UNL     1     -33.145  13.987  54.361  1.00  0.00     0.019 A 
ATOM      8  C   UNL     1     -31.875  13.486  54.649  1.00  0.00     0.094 A 
ATOM      9  C   UNL     1     -30.813  13.797  53.794  1.00  0.00     0.336 A 
ATOM     10  O   UNL     1     -29.660  13.354  54.036  1.00  0.00    -0.246 OA
ATOM     11  O   UNL     1     -31.012  14.559  52.721  1.00  0.00    -0.423 OA
ENDROOT
BRANCH   3  12
ATOM     12  O   UNL     1     -33.743  17.170  49.798  1.00  0.00    -0.508 OA
ATOM     13  H   UNL     1     -32.985  17.273  49.134  1.00  0.00     0.293 HD
ENDBRANCH   3  12
TORSDOF 1
ENDMDL
MODEL 3
REMARK VINA RESULT:    -5.622      1.550      2.275
REMARK INTER + INTRA:          -5.786
REMARK INTER:                  -5.786
REMARK INTRA:                   0.000
REMARK UNBOUND:                 0.000
REMARK SMILES O=c1ccc2ccc(O)cc2o1
REMARK SMILES IDX 6 1 7 2 8 3 10 4 11 5 5 6 4 7 3 8 2 9 1 10 12 11 9 12
REMARK H PARENT 9 13
REMARK Flexibility Score: inf
ROOT
ATOM      1  C   UNL     1     -33.985  16.625  50.008  1.00  0.00     0.016 A 
ATOM      2  C   UNL     1     -35.323  16.808  49.645  1.00  0.00     0.047 A 
ATOM      3  C   UNL     1     -36.352  16.280  50.440  1.00  0.00     0.119 A 
ATOM      4  C   UNL     1     -36.038  15.568  51.604  1.00  0.00     0.094 A 
ATOM      5  C   UNL     1     -34.702  15.379  51.975  1.00  0.00     0.142 A 
ATOM      6  C   UNL     1     -33.669  15.911  51.172  1.00  0.00     0.018 A 
ATOM      7  C   UNL     1     -32.344  15.707  51.569  1.00  0.00     0.019 A 
ATOM      8  C   UNL     1     -32.083  14.989  52.736  1.00  0.00     0.094 A 
ATOM      9  C   UNL     1     -33.156  14.492  53.482  1.00  0.00     0.336 A 
ATOM     10  O   UNL     1     -32.941  13.843  54.538  1.00  0.00    -0.246 OA
ATOM     11  O   UNL     1     -34.408  14.701  53.082  1.00  0.00    -0.423 OA
ENDROOT
BRANCH   3  12
ATOM     12  O   UNL     1     -37.686  16.459  50.085  1.00  0.00    -0.508 OA
ATOM     13  H   UNL     1     -38.373  16.789  50.753  1.00  0.00     0.293 HD
ENDBRANCH   3  12
TORSDOF 1
ENDMDL
MODEL 4
REMARK VINA RESULT:    -5.610      1.707      4.809
REMARK INTER + INTRA:          -5.774
REMARK INTER:                  -5.774
REMARK INTRA:                   0.000
REMARK UNBOUND:                 0.000
REMARK SMILES O=c1ccc2ccc(O)cc2o1
REMARK SMILES IDX 6 1 7 2 8 3 10 4 11 5 5 6 4 7 3 8 2 9 1 10 12 11 9 12
REMARK H PARENT 9 13
REMARK Flexibility Score: inf
ROOT
ATOM      1  C   UNL     1     -32.497  15.740  51.367  1.00  0.00     0.016 A 
ATOM      2  C   UNL     1     -32.128  15.103  52.556  1.00  0.00     0.047 A 
ATOM      3  C   UNL     1     -33.109  14.641  53.446  1.00  0.00     0.119 A 
ATOM      4  C   UNL     1     -34.465  14.818  53.143  1.00  0.00     0.094 A 
ATOM      5  C   UNL     1     -34.844  15.455  51.956  1.00  0.00     0.142 A 
ATOM      6  C   UNL     1     -33.853  15.919  51.063  1.00  0.00     0.018 A 
ATOM      7  C   UNL     1     -34.262  16.550  49.884  1.00  0.00     0.019 A 
ATOM      8  C   UNL     1     -35.625  16.704  49.628  1.00  0.00     0.094 A 
ATOM      9  C   UNL     1     -36.549  16.219  50.559  1.00  0.00     0.336 A 
ATOM     10  O   UNL     1     -37.783  16.347  50.345  1.00  0.00    -0.246 OA
ATOM     11  O   UNL     1     -36.133  15.621  51.673  1.00  0.00    -0.423 OA
ENDROOT
BRANCH   3  12
ATOM     12  O   UNL     1     -32.749  14.005  54.632  1.00  0.00    -0.508 OA
ATOM     13  H   UNL     1     -32.785  12.997  54.724  1.00  0.00     0.293 HD
ENDBRANCH   3  12
TORSDOF 1
ENDMDL
MODEL 5
REMARK VINA RESULT:    -5.479      1.210      4.480
REMARK INTER + INTRA:          -5.639
REMARK INTER:                  -5.639
REMARK INTRA:                   0.000
REMARK UNBOUND:                 0.000
REMARK SMILES O=c1ccc2ccc(O)cc2o1
REMARK SMILES IDX 6 1 7 2 8 3 10 4 11 5 5 6 4 7 3 8 2 9 1 10 12 11 9 12
REMARK H PARENT 9 13
REMARK Flexibility Score: inf
ROOT
ATOM      1  C   UNL     1     -33.108  14.103  54.238  1.00  0.00     0.016 A 
ATOM      2  C   UNL     1     -31.818  13.600  54.439  1.00  0.00     0.047 A 
ATOM      3  C   UNL     1     -30.800  13.871  53.513  1.00  0.00     0.119 A 
ATOM      4  C   UNL     1     -31.074  14.650  52.382  1.00  0.00     0.094 A 
ATOM      5  C   UNL     1     -32.362  15.157  52.172  1.00  0.00     0.142 A 
ATOM      6  C   UNL     1     -33.385  14.881  53.106  1.00  0.00     0.018 A 
ATOM      7  C   UNL     1     -34.661  15.402  52.870  1.00  0.00     0.019 A 
ATOM      8  C   UNL     1     -34.885  16.172  51.729  1.00  0.00     0.094 A 
ATOM      9  C   UNL     1     -33.823  16.403  50.847  1.00  0.00     0.336 A 
ATOM     10  O   UNL     1     -34.005  17.096  49.812  1.00  0.00    -0.246 OA
ATOM     11  O   UNL     1     -32.618  15.896  51.096  1.00  0.00    -0.423 OA
ENDROOT
BRANCH   3  12
ATOM     12  O   UNL     1     -29.514  13.373  53.707  1.00  0.00    -0.508 OA
ATOM     13  H   UNL     1     -29.349  12.392  53.898  1.00  0.00     0.293 HD
ENDBRANCH   3  12
TORSDOF 1
ENDMDL
MODEL 6
REMARK VINA RESULT:    -5.407      6.990      8.118
REMARK INTER + INTRA:          -5.565
REMARK INTER:                  -5.565
REMARK INTRA:                   0.000
REMARK UNBOUND:                 0.000
REMARK SMILES O=c1ccc2ccc(O)cc2o1
REMARK SMILES IDX 6 1 7 2 8 3 10 4 11 5 5 6 4 7 3 8 2 9 1 10 12 11 9 12
REMARK H PARENT 9 13
REMARK Flexibility Score: inf
ROOT
ATOM      1  C   UNL     1     -26.182  16.097  55.353  1.00  0.00     0.016 A 
ATOM      2  C   UNL     1     -26.860  17.110  54.668  1.00  0.00     0.047 A 
ATOM      3  C   UNL     1     -27.345  16.885  53.370  1.00  0.00     0.119 A 
ATOM      4  C   UNL     1     -27.150  15.641  52.758  1.00  0.00     0.094 A 
ATOM      5  C   UNL     1     -26.473  14.621  53.437  1.00  0.00     0.142 A 
ATOM      6  C   UNL     1     -25.985  14.851  54.743  1.00  0.00     0.018 A 
ATOM      7  C   UNL     1     -25.313  13.814  55.395  1.00  0.00     0.019 A 
ATOM      8  C   UNL     1     -25.144  12.592  54.744  1.00  0.00     0.094 A 
ATOM      9  C   UNL     1     -25.653  12.436  53.450  1.00  0.00     0.336 A 
ATOM     10  O   UNL     1     -25.512  11.341  52.846  1.00  0.00    -0.246 OA
ATOM     11  O   UNL     1     -26.290  13.440  52.852  1.00  0.00    -0.423 OA
ENDROOT
BRANCH   3  12
ATOM     12  O   UNL     1     -28.021  17.889  52.682  1.00  0.00    -0.508 OA
ATOM     13  H   UNL     1     -27.540  18.507  52.038  1.00  0.00     0.293 HD
ENDBRANCH   3  12
TORSDOF 1
ENDMDL
MODEL 7
REMARK VINA RESULT:    -5.391      2.642      3.768
REMARK INTER + INTRA:          -5.549
REMARK INTER:                  -5.549
REMARK INTRA:                   0.000
REMARK UNBOUND:                 0.000
REMARK SMILES O=c1ccc2ccc(O)cc2o1
REMARK SMILES IDX 6 1 7 2 8 3 10 4 11 5 5 6 4 7 3 8 2 9 1 10 12 11 9 12
REMARK H PARENT 9 13
REMARK Flexibility Score: inf
ROOT
ATOM      1  C   UNL     1     -33.242  15.076  52.657  1.00  0.00     0.016 A 
ATOM      2  C   UNL     1     -32.464  15.904  51.841  1.00  0.00     0.047 A 
ATOM      3  C   UNL     1     -31.066  15.777  51.831  1.00  0.00     0.119 A 
ATOM      4  C   UNL     1     -30.446  14.817  52.640  1.00  0.00     0.094 A 
ATOM      5  C   UNL     1     -31.216  13.985  53.461  1.00  0.00     0.142 A 
ATOM      6  C   UNL     1     -32.623  14.116  53.469  1.00  0.00     0.018 A 
ATOM      7  C   UNL     1     -33.365  13.270  54.299  1.00  0.00     0.019 A 
ATOM      8  C   UNL     1     -32.702  12.330  55.087  1.00  0.00     0.094 A 
ATOM      9  C   UNL     1     -31.306  12.258  55.027  1.00  0.00     0.336 A 
ATOM     10  O   UNL     1     -30.688  11.416  55.730  1.00  0.00    -0.246 OA
ATOM     11  O   UNL     1     -30.623  13.075  54.228  1.00  0.00    -0.423 OA
ENDROOT
BRANCH   3  12
ATOM     12  O   UNL     1     -30.286  16.598  51.020  1.00  0.00    -0.508 OA
ATOM     13  H   UNL     1     -30.071  16.345  50.063  1.00  0.00     0.293 HD
ENDBRANCH   3  12
TORSDOF 1
ENDMDL
MODEL 8
REMARK VINA RESULT:    -5.329      8.484     10.974
REMARK INTER + INTRA:          -5.485
REMARK INTER:                  -5.485
REMARK INTRA:                   0.000
REMARK UNBOUND:                 0.000
REMARK SMILES O=c1ccc2ccc(O)cc2o1
REMARK SMILES IDX 6 1 7 2 8 3 10 4 11 5 5 6 4 7 3 8 2 9 1 10 12 11 9 12
REMARK H PARENT 9 13
REMARK Flexibility Score: inf
ROOT
ATOM      1  C   UNL     1     -23.908  11.925  54.815  1.00  0.00     0.016 A 
ATOM      2  C   UNL     1     -23.551  10.815  55.587  1.00  0.00     0.047 A 
ATOM      3  C   UNL     1     -24.205  10.557  56.802  1.00  0.00     0.119 A 
ATOM      4  C   UNL     1     -25.221  11.415  57.243  1.00  0.00     0.094 A 
ATOM      5  C   UNL     1     -25.585  12.528  56.477  1.00  0.00     0.142 A 
ATOM      6  C   UNL     1     -24.923  12.785  55.255  1.00  0.00     0.018 A 
ATOM      7  C   UNL     1     -25.309  13.904  54.511  1.00  0.00     0.019 A 
ATOM      8  C   UNL     1     -26.325  14.728  54.993  1.00  0.00     0.094 A 
ATOM      9  C   UNL     1     -26.935  14.412  56.211  1.00  0.00     0.336 A 
ATOM     10  O   UNL     1     -27.856  15.143  56.663  1.00  0.00    -0.246 OA
ATOM     11  O   UNL     1     -26.550  13.340  56.899  1.00  0.00    -0.423 OA
ENDROOT
BRANCH   3  12
ATOM     12  O   UNL     1     -23.855   9.454  57.576  1.00  0.00    -0.508 OA
ATOM     13  H   UNL     1     -22.946   9.014  57.490  1.00  0.00     0.293 HD
ENDBRANCH   3  12
TORSDOF 1
ENDMDL
MODEL 9
REMARK VINA RESULT:    -5.284      1.819      4.490
REMARK INTER + INTRA:          -5.438
REMARK INTER:                  -5.438
REMARK INTRA:                   0.000
REMARK UNBOUND:                 0.000
REMARK SMILES O=c1ccc2ccc(O)cc2o1
REMARK SMILES IDX 6 1 7 2 8 3 10 4 11 5 5 6 4 7 3 8 2 9 1 10 12 11 9 12
REMARK H PARENT 9 13
REMARK Flexibility Score: inf
ROOT
ATOM      1  C   UNL     1     -30.689  14.224  53.457  1.00  0.00     0.016 A 
ATOM      2  C   UNL     1     -29.454  14.595  52.914  1.00  0.00     0.047 A 
ATOM      3  C   UNL     1     -29.391  15.529  51.869  1.00  0.00     0.119 A 
ATOM      4  C   UNL     1     -30.569  16.094  51.366  1.00  0.00     0.094 A 
ATOM      5  C   UNL     1     -31.809  15.730  51.903  1.00  0.00     0.142 A 
ATOM      6  C   UNL     1     -31.869  14.788  52.954  1.00  0.00     0.018 A 
ATOM      7  C   UNL     1     -33.122  14.444  53.470  1.00  0.00     0.019 A 
ATOM      8  C   UNL     1     -34.267  15.034  52.935  1.00  0.00     0.094 A 
ATOM      9  C   UNL     1     -34.132  15.958  51.894  1.00  0.00     0.336 A 
ATOM     10  O   UNL     1     -35.153  16.503  51.398  1.00  0.00    -0.246 OA
ATOM     11  O   UNL     1     -32.926  16.269  51.422  1.00  0.00    -0.423 OA
ENDROOT
BRANCH   3  12
ATOM     12  O   UNL     1     -28.165  15.902  51.325  1.00  0.00    -0.508 OA
ATOM     13  H   UNL     1     -27.314  15.395  51.538  1.00  0.00     0.293 HD
ENDBRANCH   3  12
TORSDOF 1
ENDMDL
