MODEL 1
REMARK VINA RESULT:    -7.912      0.000      0.000
REMARK INTER + INTRA:          -8.790
REMARK INTER:                  -8.606
REMARK INTRA:                  -0.184
REMARK UNBOUND:                -0.184
REMARK SMILES C[C@@H]1[C@@H](C)CC[C@@]2(C(=O)[O-])CC[C@@]3(C)C(=CC[C@@H]4[C@]5(C)CC[C@H](O)C(C)(C)[C@@H]5CC[C@@]43C)[C@@H]12
REMARK SMILES IDX 7 1 6 2 11 3 33 4 5 5 12 6 15 7 2 8 3 9 13 10 16 11 1 12
REMARK SMILES IDX 4 13 14 14 31 15 17 16 18 17 30 18 32 19 19 20 29 21 28 22
REMARK SMILES IDX 21 23 20 24 25 25 22 26 23 27 26 28 27 29 8 30 9 31 10 32
REMARK SMILES IDX 24 33
REMARK H PARENT 24 34
REMARK Flexibility Score: inf
ROOT
ATOM      1  C   UNL     1       6.284  19.187  26.813  1.00  0.00     0.017 C 
ATOM      2  C   UNL     1       6.549  17.691  26.434  1.00  0.00     0.014 C 
ATOM      3  C   UNL     1       7.132  20.070  25.865  1.00  0.00     0.014 C 
ATOM      4  C   UNL     1       4.774  19.575  26.639  1.00  0.00     0.030 C 
ATOM      5  C   UNL     1       5.286  16.832  26.482  1.00  0.00     0.004 C 
ATOM      6  C   UNL     1       7.029  21.556  26.200  1.00  0.00     0.013 C 
ATOM      7  C   UNL     1       4.541  21.095  26.703  1.00  0.00    -0.063 C 
ATOM      8  C   UNL     1       4.167  18.897  25.363  1.00  0.00    -0.003 C 
ATOM      9  C   UNL     1       4.227  17.334  25.471  1.00  0.00    -0.011 C 
ATOM     10  C   UNL     1       5.566  22.144  26.212  1.00  0.00    -0.006 C 
ATOM     11  C   UNL     1       3.357  21.518  27.192  1.00  0.00    -0.027 C 
ATOM     12  C   UNL     1       2.716  19.330  25.073  1.00  0.00     0.008 C 
ATOM     13  C   UNL     1       4.455  16.692  24.090  1.00  0.00     0.008 C 
ATOM     14  C   UNL     1       5.232  22.468  24.731  1.00  0.00     0.017 C 
ATOM     15  C   UNL     1       5.462  23.456  27.163  1.00  0.00    -0.020 C 
ATOM     16  C   UNL     1       2.878  22.913  26.962  1.00  0.00     0.032 C 
ATOM     17  C   UNL     1       3.942  23.992  27.321  1.00  0.00     0.006 C 
ATOM     18  C   UNL     1       6.450  24.571  26.709  1.00  0.00     0.008 C 
ATOM     19  C   UNL     1       5.943  23.064  28.614  1.00  0.00     0.012 C 
ATOM     20  C   UNL     1       3.513  25.491  26.862  1.00  0.00    -0.025 C 
ATOM     21  C   UNL     1       5.833  25.647  25.842  1.00  0.00     0.005 C 
ATOM     22  C   UNL     1       4.764  26.432  26.638  1.00  0.00     0.003 C 
ATOM     23  C   UNL     1       2.653  25.488  25.551  1.00  0.00     0.010 C 
ATOM     24  C   UNL     1       2.611  26.044  28.019  1.00  0.00     0.012 C 
ATOM     25  C   UNL     1       4.454  27.878  26.020  1.00  0.00    -0.006 C 
ATOM     26  C   UNL     1       2.278  26.876  25.004  1.00  0.00     0.033 C 
ATOM     27  C   UNL     1       3.478  27.811  24.794  1.00  0.00     0.120 C 
ATOM     28  C   UNL     1       3.829  28.811  27.108  1.00  0.00     0.014 C 
ATOM     29  C   UNL     1       5.760  28.614  25.586  1.00  0.00     0.014 C 
ENDROOT
BRANCH   1  30
ATOM     30  C   UNL     1       6.724  19.386  28.263  1.00  0.00     0.048 C 
ATOM     31  O   UNL     1       7.946  19.356  28.566  1.00  0.00    -0.550 OA
ATOM     32  O   UNL     1       5.792  19.531  29.285  1.00  0.00    -0.550 OA
ENDBRANCH   1  30
BRANCH  27  33
ATOM     33  O   UNL     1       4.129  27.520  23.580  1.00  0.00    -0.393 OA
ATOM     34  H   UNL     1       3.776  26.666  23.232  1.00  0.00     0.210 HD
ENDBRANCH  27  33
TORSDOF 2
ENDMDL
MODEL 2
REMARK VINA RESULT:    -7.714      4.440      6.919
REMARK INTER + INTRA:          -8.575
REMARK INTER:                  -8.390
REMARK INTRA:                  -0.184
REMARK UNBOUND:                -0.184
REMARK SMILES C[C@@H]1[C@@H](C)CC[C@@]2(C(=O)[O-])CC[C@@]3(C)C(=CC[C@@H]4[C@]5(C)CC[C@H](O)C(C)(C)[C@@H]5CC[C@@]43C)[C@@H]12
REMARK SMILES IDX 7 1 6 2 11 3 33 4 5 5 12 6 15 7 2 8 3 9 13 10 16 11 1 12
REMARK SMILES IDX 4 13 14 14 31 15 17 16 18 17 30 18 32 19 19 20 29 21 28 22
REMARK SMILES IDX 21 23 20 24 25 25 22 26 23 27 26 28 27 29 8 30 9 31 10 32
REMARK SMILES IDX 24 33
REMARK H PARENT 24 34
REMARK Flexibility Score: inf
ROOT
ATOM      1  C   UNL     1       5.878  22.029  25.942  1.00  0.00     0.017 C 
ATOM      2  C   UNL     1       6.733  21.859  27.243  1.00  0.00     0.014 C 
ATOM      3  C   UNL     1       6.805  21.765  24.731  1.00  0.00     0.014 C 
ATOM      4  C   UNL     1       4.686  21.011  25.890  1.00  0.00     0.030 C 
ATOM      5  C   UNL     1       5.975  21.152  28.365  1.00  0.00     0.004 C 
ATOM      6  C   UNL     1       6.102  21.994  23.395  1.00  0.00     0.013 C 
ATOM      7  C   UNL     1       4.022  20.943  24.503  1.00  0.00    -0.063 C 
ATOM      8  C   UNL     1       5.121  19.613  26.450  1.00  0.00    -0.003 C 
ATOM      9  C   UNL     1       5.567  19.718  27.949  1.00  0.00    -0.011 C 
ATOM     10  C   UNL     1       4.785  21.155  23.174  1.00  0.00    -0.006 C 
ATOM     11  C   UNL     1       2.705  20.654  24.461  1.00  0.00    -0.027 C 
ATOM     12  C   UNL     1       4.026  18.535  26.320  1.00  0.00     0.008 C 
ATOM     13  C   UNL     1       6.700  18.723  28.261  1.00  0.00     0.008 C 
ATOM     14  C   UNL     1       5.253  19.762  22.675  1.00  0.00     0.017 C 
ATOM     15  C   UNL     1       3.791  21.881  22.116  1.00  0.00    -0.020 C 
ATOM     16  C   UNL     1       2.052  20.203  23.197  1.00  0.00     0.032 C 
ATOM     17  C   UNL     1       2.363  21.128  21.984  1.00  0.00     0.006 C 
ATOM     18  C   UNL     1       4.485  22.102  20.738  1.00  0.00     0.008 C 
ATOM     19  C   UNL     1       3.474  23.336  22.640  1.00  0.00     0.012 C 
ATOM     20  C   UNL     1       1.845  20.522  20.567  1.00  0.00    -0.025 C 
ATOM     21  C   UNL     1       4.170  21.051  19.697  1.00  0.00     0.005 C 
ATOM     22  C   UNL     1       2.667  21.081  19.337  1.00  0.00     0.003 C 
ATOM     23  C   UNL     1       1.905  18.956  20.534  1.00  0.00     0.010 C 
ATOM     24  C   UNL     1       0.338  20.940  20.457  1.00  0.00     0.012 C 
ATOM     25  C   UNL     1       2.344  20.415  17.916  1.00  0.00    -0.006 C 
ATOM     26  C   UNL     1       1.510  18.308  19.196  1.00  0.00     0.033 C 
ATOM     27  C   UNL     1       2.286  18.849  17.985  1.00  0.00     0.120 C 
ATOM     28  C   UNL     1       0.980  20.943  17.365  1.00  0.00     0.014 C 
ATOM     29  C   UNL     1       3.386  20.833  16.831  1.00  0.00     0.014 C 
ENDROOT
BRANCH   1  30
ATOM     30  C   UNL     1       5.355  23.466  25.911  1.00  0.00     0.048 C 
ATOM     31  O   UNL     1       6.147  24.425  25.712  1.00  0.00    -0.550 OA
ATOM     32  O   UNL     1       4.020  23.752  26.172  1.00  0.00    -0.550 OA
ENDBRANCH   1  30
BRANCH  27  33
ATOM     33  O   UNL     1       3.552  18.240  17.895  1.00  0.00    -0.393 OA
ATOM     34  H   UNL     1       4.143  18.643  18.575  1.00  0.00     0.210 HD
ENDBRANCH  27  33
TORSDOF 2
ENDMDL
MODEL 3
REMARK VINA RESULT:    -7.679      3.197      4.854
REMARK INTER + INTRA:          -8.537
REMARK INTER:                  -8.376
REMARK INTRA:                  -0.161
REMARK UNBOUND:                -0.184
REMARK SMILES C[C@@H]1[C@@H](C)CC[C@@]2(C(=O)[O-])CC[C@@]3(C)C(=CC[C@@H]4[C@]5(C)CC[C@H](O)C(C)(C)[C@@H]5CC[C@@]43C)[C@@H]12
REMARK SMILES IDX 7 1 6 2 11 3 33 4 5 5 12 6 15 7 2 8 3 9 13 10 16 11 1 12
REMARK SMILES IDX 4 13 14 14 31 15 17 16 18 17 30 18 32 19 19 20 29 21 28 22
REMARK SMILES IDX 21 23 20 24 25 25 22 26 23 27 26 28 27 29 8 30 9 31 10 32
REMARK SMILES IDX 24 33
REMARK H PARENT 24 34
REMARK Flexibility Score: inf
ROOT
ATOM      1  C   UNL     1       4.081  18.684  22.992  1.00  0.00     0.017 C 
ATOM      2  C   UNL     1       4.226  17.199  23.467  1.00  0.00     0.014 C 
ATOM      3  C   UNL     1       2.569  18.992  22.868  1.00  0.00     0.014 C 
ATOM      4  C   UNL     1       4.714  19.690  24.015  1.00  0.00     0.030 C 
ATOM      5  C   UNL     1       5.344  17.009  24.492  1.00  0.00     0.004 C 
ATOM      6  C   UNL     1       2.300  20.391  22.318  1.00  0.00     0.013 C 
ATOM      7  C   UNL     1       4.319  21.150  23.734  1.00  0.00    -0.063 C 
ATOM      8  C   UNL     1       4.437  19.234  25.489  1.00  0.00    -0.003 C 
ATOM      9  C   UNL     1       5.074  17.830  25.776  1.00  0.00    -0.011 C 
ATOM     10  C   UNL     1       2.959  21.572  23.129  1.00  0.00    -0.006 C 
ATOM     11  C   UNL     1       5.210  22.107  24.066  1.00  0.00    -0.027 C 
ATOM     12  C   UNL     1       4.936  20.242  26.543  1.00  0.00     0.008 C 
ATOM     13  C   UNL     1       4.209  17.021  26.760  1.00  0.00     0.008 C 
ATOM     14  C   UNL     1       1.992  21.863  24.307  1.00  0.00     0.017 C 
ATOM     15  C   UNL     1       3.191  22.878  22.192  1.00  0.00    -0.020 C 
ATOM     16  C   UNL     1       4.802  23.537  24.187  1.00  0.00     0.032 C 
ATOM     17  C   UNL     1       4.007  24.052  22.951  1.00  0.00     0.006 C 
ATOM     18  C   UNL     1       1.854  23.378  21.568  1.00  0.00     0.008 C 
ATOM     19  C   UNL     1       4.075  22.457  20.954  1.00  0.00     0.012 C 
ATOM     20  C   UNL     1       3.368  25.531  23.172  1.00  0.00    -0.025 C 
ATOM     21  C   UNL     1       1.202  24.525  22.310  1.00  0.00     0.005 C 
ATOM     22  C   UNL     1       2.102  25.781  22.257  1.00  0.00     0.003 C 
ATOM     23  C   UNL     1       2.960  25.784  24.664  1.00  0.00     0.010 C 
ATOM     24  C   UNL     1       4.512  26.541  22.815  1.00  0.00     0.012 C 
ATOM     25  C   UNL     1       1.301  27.143  22.525  1.00  0.00    -0.006 C 
ATOM     26  C   UNL     1       2.270  27.131  24.940  1.00  0.00     0.033 C 
ATOM     27  C   UNL     1       1.046  27.401  24.051  1.00  0.00     0.120 C 
ATOM     28  C   UNL     1       2.085  28.360  21.935  1.00  0.00     0.014 C 
ATOM     29  C   UNL     1      -0.068  27.166  21.774  1.00  0.00     0.014 C 
ENDROOT
BRANCH   1  30
ATOM     30  C   UNL     1       4.764  18.806  21.629  1.00  0.00     0.048 C 
ATOM     31  O   UNL     1       4.321  18.168  20.638  1.00  0.00    -0.550 OA
ATOM     32  O   UNL     1       5.921  19.560  21.469  1.00  0.00    -0.550 OA
ENDBRANCH   1  30
BRANCH  27  33
ATOM     33  O   UNL     1      -0.087  26.729  24.548  1.00  0.00    -0.393 OA
ATOM     34  H   UNL     1       0.204  25.871  24.938  1.00  0.00     0.210 HD
ENDBRANCH  27  33
TORSDOF 2
ENDMDL
MODEL 4
REMARK VINA RESULT:    -7.525      2.296      4.228
REMARK INTER + INTRA:          -8.369
REMARK INTER:                  -8.271
REMARK INTRA:                  -0.098
REMARK UNBOUND:                -0.184
REMARK SMILES C[C@@H]1[C@@H](C)CC[C@@]2(C(=O)[O-])CC[C@@]3(C)C(=CC[C@@H]4[C@]5(C)CC[C@H](O)C(C)(C)[C@@H]5CC[C@@]43C)[C@@H]12
REMARK SMILES IDX 7 1 6 2 11 3 33 4 5 5 12 6 15 7 2 8 3 9 13 10 16 11 1 12
REMARK SMILES IDX 4 13 14 14 31 15 17 16 18 17 30 18 32 19 19 20 29 21 28 22
REMARK SMILES IDX 21 23 20 24 25 25 22 26 23 27 26 28 27 29 8 30 9 31 10 32
REMARK SMILES IDX 24 33
REMARK H PARENT 24 34
REMARK Flexibility Score: inf
ROOT
ATOM      1  C   UNL     1       4.557  19.636  26.118  1.00  0.00     0.017 C 
ATOM      2  C   UNL     1       4.958  18.457  27.068  1.00  0.00     0.014 C 
ATOM      3  C   UNL     1       3.073  19.978  26.393  1.00  0.00     0.014 C 
ATOM      4  C   UNL     1       5.422  20.917  26.380  1.00  0.00     0.030 C 
ATOM      5  C   UNL     1       6.364  18.611  27.646  1.00  0.00     0.004 C 
ATOM      6  C   UNL     1       2.537  21.057  25.456  1.00  0.00     0.013 C 
ATOM      7  C   UNL     1       4.854  22.169  25.689  1.00  0.00    -0.063 C 
ATOM      8  C   UNL     1       5.687  21.108  27.913  1.00  0.00    -0.003 C 
ATOM      9  C   UNL     1       6.480  19.893  28.506  1.00  0.00    -0.011 C 
ATOM     10  C   UNL     1       3.344  22.413  25.457  1.00  0.00    -0.006 C 
ATOM     11  C   UNL     1       5.735  23.111  25.294  1.00  0.00    -0.027 C 
ATOM     12  C   UNL     1       6.436  22.414  28.245  1.00  0.00     0.008 C 
ATOM     13  C   UNL     1       6.054  19.608  29.958  1.00  0.00     0.008 C 
ATOM     14  C   UNL     1       2.808  23.219  26.670  1.00  0.00     0.017 C 
ATOM     15  C   UNL     1       3.156  23.216  24.059  1.00  0.00    -0.020 C 
ATOM     16  C   UNL     1       5.290  24.497  24.962  1.00  0.00     0.032 C 
ATOM     17  C   UNL     1       4.094  24.533  23.967  1.00  0.00     0.006 C 
ATOM     18  C   UNL     1       1.656  23.522  23.772  1.00  0.00     0.008 C 
ATOM     19  C   UNL     1       3.603  22.273  22.875  1.00  0.00     0.012 C 
ATOM     20  C   UNL     1       3.462  26.020  23.779  1.00  0.00    -0.025 C 
ATOM     21  C   UNL     1       1.210  24.914  24.166  1.00  0.00     0.005 C 
ATOM     22  C   UNL     1       1.949  25.976  23.320  1.00  0.00     0.003 C 
ATOM     23  C   UNL     1       3.559  26.875  25.088  1.00  0.00     0.010 C 
ATOM     24  C   UNL     1       4.347  26.718  22.689  1.00  0.00     0.012 C 
ATOM     25  C   UNL     1       1.189  27.386  23.272  1.00  0.00    -0.006 C 
ATOM     26  C   UNL     1       2.907  28.267  25.017  1.00  0.00     0.033 C 
ATOM     27  C   UNL     1       1.441  28.248  24.558  1.00  0.00     0.120 C 
ATOM     28  C   UNL     1       1.643  28.206  22.021  1.00  0.00     0.014 C 
ATOM     29  C   UNL     1      -0.350  27.207  23.078  1.00  0.00     0.014 C 
ENDROOT
BRANCH   1  30
ATOM     30  C   UNL     1       4.735  19.155  24.678  1.00  0.00     0.048 C 
ATOM     31  O   UNL     1       5.588  19.701  23.928  1.00  0.00    -0.550 OA
ATOM     32  O   UNL     1       3.920  18.165  24.142  1.00  0.00    -0.550 OA
ENDBRANCH   1  30
BRANCH  27  33
ATOM     33  O   UNL     1       0.590  27.915  25.628  1.00  0.00    -0.393 OA
ATOM     34  H   UNL     1      -0.093  27.282  25.299  1.00  0.00     0.210 HD
ENDBRANCH  27  33
TORSDOF 2
ENDMDL
MODEL 5
REMARK VINA RESULT:    -7.503      3.230      4.868
REMARK INTER + INTRA:          -8.345
REMARK INTER:                  -8.188
REMARK INTRA:                  -0.156
REMARK UNBOUND:                -0.184
REMARK SMILES C[C@@H]1[C@@H](C)CC[C@@]2(C(=O)[O-])CC[C@@]3(C)C(=CC[C@@H]4[C@]5(C)CC[C@H](O)C(C)(C)[C@@H]5CC[C@@]43C)[C@@H]12
REMARK SMILES IDX 7 1 6 2 11 3 33 4 5 5 12 6 15 7 2 8 3 9 13 10 16 11 1 12
REMARK SMILES IDX 4 13 14 14 31 15 17 16 18 17 30 18 32 19 19 20 29 21 28 22
REMARK SMILES IDX 21 23 20 24 25 25 22 26 23 27 26 28 27 29 8 30 9 31 10 32
REMARK SMILES IDX 24 33
REMARK H PARENT 24 34
REMARK Flexibility Score: inf
ROOT
ATOM      1  C   UNL     1       3.131  21.566  24.474  1.00  0.00     0.017 C 
ATOM      2  C   UNL     1       2.749  20.678  23.242  1.00  0.00     0.014 C 
ATOM      3  C   UNL     1       4.493  21.063  25.012  1.00  0.00     0.014 C 
ATOM      4  C   UNL     1       3.277  23.078  24.083  1.00  0.00     0.030 C 
ATOM      5  C   UNL     1       2.116  21.480  22.105  1.00  0.00     0.004 C 
ATOM      6  C   UNL     1       4.929  21.794  26.279  1.00  0.00     0.013 C 
ATOM      7  C   UNL     1       3.945  23.915  25.187  1.00  0.00    -0.063 C 
ATOM      8  C   UNL     1       3.956  23.227  22.679  1.00  0.00    -0.003 C 
ATOM      9  C   UNL     1       3.096  22.547  21.558  1.00  0.00    -0.011 C 
ATOM     10  C   UNL     1       5.020  23.364  26.153  1.00  0.00    -0.006 C 
ATOM     11  C   UNL     1       3.581  25.211  25.287  1.00  0.00    -0.027 C 
ATOM     12  C   UNL     1       4.231  24.693  22.287  1.00  0.00     0.008 C 
ATOM     13  C   UNL     1       3.992  21.943  20.462  1.00  0.00     0.008 C 
ATOM     14  C   UNL     1       6.409  23.654  25.523  1.00  0.00     0.017 C 
ATOM     15  C   UNL     1       4.841  24.086  27.596  1.00  0.00    -0.020 C 
ATOM     16  C   UNL     1       4.409  26.191  26.049  1.00  0.00     0.032 C 
ATOM     17  C   UNL     1       4.774  25.700  27.481  1.00  0.00     0.006 C 
ATOM     18  C   UNL     1       5.913  23.598  28.616  1.00  0.00     0.008 C 
ATOM     19  C   UNL     1       3.464  23.631  28.218  1.00  0.00     0.012 C 
ATOM     20  C   UNL     1       5.856  26.656  28.228  1.00  0.00    -0.025 C 
ATOM     21  C   UNL     1       7.111  24.513  28.758  1.00  0.00     0.005 C 
ATOM     22  C   UNL     1       6.679  25.881  29.335  1.00  0.00     0.003 C 
ATOM     23  C   UNL     1       6.868  27.306  27.223  1.00  0.00     0.010 C 
ATOM     24  C   UNL     1       5.020  27.813  28.875  1.00  0.00     0.012 C 
ATOM     25  C   UNL     1       7.886  26.691  30.009  1.00  0.00    -0.006 C 
ATOM     26  C   UNL     1       7.978  28.159  27.862  1.00  0.00     0.033 C 
ATOM     27  C   UNL     1       8.778  27.430  28.951  1.00  0.00     0.120 C 
ATOM     28  C   UNL     1       7.334  27.745  31.023  1.00  0.00     0.014 C 
ATOM     29  C   UNL     1       8.794  25.762  30.875  1.00  0.00     0.014 C 
ENDROOT
BRANCH   1  30
ATOM     30  C   UNL     1       2.042  21.390  25.533  1.00  0.00     0.048 C 
ATOM     31  O   UNL     1       2.044  20.378  26.283  1.00  0.00    -0.550 OA
ATOM     32  O   UNL     1       0.992  22.295  25.644  1.00  0.00    -0.550 OA
ENDBRANCH   1  30
BRANCH  27  33
ATOM     33  O   UNL     1       9.760  26.601  28.376  1.00  0.00    -0.393 OA
ATOM     34  H   UNL     1      10.648  26.916  28.672  1.00  0.00     0.210 HD
ENDBRANCH  27  33
TORSDOF 2
ENDMDL
MODEL 6
REMARK VINA RESULT:    -7.481      1.863      2.725
REMARK INTER + INTRA:          -8.321
REMARK INTER:                  -8.180
REMARK INTRA:                  -0.141
REMARK UNBOUND:                -0.184
REMARK SMILES C[C@@H]1[C@@H](C)CC[C@@]2(C(=O)[O-])CC[C@@]3(C)C(=CC[C@@H]4[C@]5(C)CC[C@H](O)C(C)(C)[C@@H]5CC[C@@]43C)[C@@H]12
REMARK SMILES IDX 7 1 6 2 11 3 33 4 5 5 12 6 15 7 2 8 3 9 13 10 16 11 1 12
REMARK SMILES IDX 4 13 14 14 31 15 17 16 18 17 30 18 32 19 19 20 29 21 28 22
REMARK SMILES IDX 21 23 20 24 25 25 22 26 23 27 26 28 27 29 8 30 9 31 10 32
REMARK SMILES IDX 24 33
REMARK H PARENT 24 34
REMARK Flexibility Score: inf
ROOT
ATOM      1  C   UNL     1       4.186  18.128  24.613  1.00  0.00     0.017 C 
ATOM      2  C   UNL     1       3.821  16.963  23.633  1.00  0.00     0.014 C 
ATOM      3  C   UNL     1       5.280  18.988  23.935  1.00  0.00     0.014 C 
ATOM      4  C   UNL     1       2.950  19.043  24.920  1.00  0.00     0.030 C 
ATOM      5  C   UNL     1       2.323  16.661  23.600  1.00  0.00     0.004 C 
ATOM      6  C   UNL     1       5.788  20.109  24.839  1.00  0.00     0.013 C 
ATOM      7  C   UNL     1       3.342  20.356  25.621  1.00  0.00    -0.063 C 
ATOM      8  C   UNL     1       2.077  19.250  23.635  1.00  0.00    -0.003 C 
ATOM      9  C   UNL     1       1.514  17.885  23.107  1.00  0.00    -0.011 C 
ATOM     10  C   UNL     1       4.681  21.093  25.380  1.00  0.00    -0.006 C 
ATOM     11  C   UNL     1       2.443  20.897  26.469  1.00  0.00    -0.027 C 
ATOM     12  C   UNL     1       0.908  20.234  23.843  1.00  0.00     0.008 C 
ATOM     13  C   UNL     1       1.418  17.883  21.570  1.00  0.00     0.008 C 
ATOM     14  C   UNL     1       4.449  22.128  24.248  1.00  0.00     0.017 C 
ATOM     15  C   UNL     1       5.141  21.797  26.769  1.00  0.00    -0.020 C 
ATOM     16  C   UNL     1       2.550  22.319  26.906  1.00  0.00     0.032 C 
ATOM     17  C   UNL     1       3.967  22.693  27.432  1.00  0.00     0.006 C 
ATOM     18  C   UNL     1       6.475  22.585  26.595  1.00  0.00     0.008 C 
ATOM     19  C   UNL     1       5.480  20.668  27.817  1.00  0.00     0.012 C 
ATOM     20  C   UNL     1       4.152  24.286  27.696  1.00  0.00    -0.025 C 
ATOM     21  C   UNL     1       6.304  24.071  26.366  1.00  0.00     0.005 C 
ATOM     22  C   UNL     1       5.666  24.738  27.606  1.00  0.00     0.003 C 
ATOM     23  C   UNL     1       3.315  25.155  26.696  1.00  0.00     0.010 C 
ATOM     24  C   UNL     1       3.587  24.543  29.135  1.00  0.00     0.012 C 
ATOM     25  C   UNL     1       5.933  26.316  27.683  1.00  0.00    -0.006 C 
ATOM     26  C   UNL     1       3.502  26.676  26.826  1.00  0.00     0.033 C 
ATOM     27  C   UNL     1       4.967  27.135  26.757  1.00  0.00     0.120 C 
ATOM     28  C   UNL     1       5.770  26.824  29.152  1.00  0.00     0.014 C 
ATOM     29  C   UNL     1       7.408  26.671  27.313  1.00  0.00     0.014 C 
ENDROOT
BRANCH   1  30
ATOM     30  C   UNL     1       4.721  17.503  25.902  1.00  0.00     0.048 C 
ATOM     31  O   UNL     1       3.981  17.410  26.917  1.00  0.00    -0.550 OA
ATOM     32  O   UNL     1       6.046  17.094  26.008  1.00  0.00    -0.550 OA
ENDBRANCH   1  30
BRANCH  27  33
ATOM     33  O   UNL     1       5.403  27.205  25.421  1.00  0.00    -0.393 OA
ATOM     34  H   UNL     1       4.616  27.138  24.830  1.00  0.00     0.210 HD
ENDBRANCH  27  33
TORSDOF 2
ENDMDL
MODEL 7
REMARK VINA RESULT:    -7.461      2.811      3.892
REMARK INTER + INTRA:          -8.300
REMARK INTER:                  -8.115
REMARK INTRA:                  -0.184
REMARK UNBOUND:                -0.184
REMARK SMILES C[C@@H]1[C@@H](C)CC[C@@]2(C(=O)[O-])CC[C@@]3(C)C(=CC[C@@H]4[C@]5(C)CC[C@H](O)C(C)(C)[C@@H]5CC[C@@]43C)[C@@H]12
REMARK SMILES IDX 7 1 6 2 11 3 33 4 5 5 12 6 15 7 2 8 3 9 13 10 16 11 1 12
REMARK SMILES IDX 4 13 14 14 31 15 17 16 18 17 30 18 32 19 19 20 29 21 28 22
REMARK SMILES IDX 21 23 20 24 25 25 22 26 23 27 26 28 27 29 8 30 9 31 10 32
REMARK SMILES IDX 24 33
REMARK H PARENT 24 34
REMARK Flexibility Score: inf
ROOT
ATOM      1  C   UNL     1       4.189  20.325  23.637  1.00  0.00     0.017 C 
ATOM      2  C   UNL     1       4.066  19.366  22.405  1.00  0.00     0.014 C 
ATOM      3  C   UNL     1       5.695  20.522  23.932  1.00  0.00     0.014 C 
ATOM      4  C   UNL     1       3.548  21.728  23.351  1.00  0.00     0.030 C 
ATOM      5  C   UNL     1       2.957  19.778  21.438  1.00  0.00     0.004 C 
ATOM      6  C   UNL     1       5.942  21.369  25.178  1.00  0.00     0.013 C 
ATOM      7  C   UNL     1       3.921  22.778  24.412  1.00  0.00    -0.063 C 
ATOM      8  C   UNL     1       3.839  22.185  21.880  1.00  0.00    -0.003 C 
ATOM      9  C   UNL     1       3.224  21.183  20.844  1.00  0.00    -0.011 C 
ATOM     10  C   UNL     1       5.271  22.797  25.166  1.00  0.00    -0.006 C 
ATOM     11  C   UNL     1       3.018  23.749  24.665  1.00  0.00    -0.027 C 
ATOM     12  C   UNL     1       3.332  23.608  21.572  1.00  0.00     0.008 C 
ATOM     13  C   UNL     1       4.105  21.076  19.585  1.00  0.00     0.008 C 
ATOM     14  C   UNL     1       6.241  23.710  24.370  1.00  0.00     0.017 C 
ATOM     15  C   UNL     1       5.015  23.345  26.673  1.00  0.00    -0.020 C 
ATOM     16  C   UNL     1       3.407  25.001  25.377  1.00  0.00     0.032 C 
ATOM     17  C   UNL     1       4.188  24.736  26.698  1.00  0.00     0.006 C 
ATOM     18  C   UNL     1       6.342  23.417  27.487  1.00  0.00     0.008 C 
ATOM     19  C   UNL     1       4.131  22.292  27.447  1.00  0.00     0.012 C 
ATOM     20  C   UNL     1       4.807  26.087  27.358  1.00  0.00    -0.025 C 
ATOM     21  C   UNL     1       6.982  24.788  27.530  1.00  0.00     0.005 C 
ATOM     22  C   UNL     1       6.064  25.789  28.270  1.00  0.00     0.003 C 
ATOM     23  C   UNL     1       5.220  27.141  26.273  1.00  0.00     0.010 C 
ATOM     24  C   UNL     1       3.647  26.711  28.208  1.00  0.00     0.012 C 
ATOM     25  C   UNL     1       6.848  27.070  28.827  1.00  0.00    -0.006 C 
ATOM     26  C   UNL     1       5.894  28.414  26.813  1.00  0.00     0.033 C 
ATOM     27  C   UNL     1       7.108  28.146  27.715  1.00  0.00     0.120 C 
ATOM     28  C   UNL     1       6.043  27.736  29.990  1.00  0.00     0.014 C 
ATOM     29  C   UNL     1       8.212  26.677  29.477  1.00  0.00     0.014 C 
ENDROOT
BRANCH   1  30
ATOM     30  C   UNL     1       3.496  19.653  24.822  1.00  0.00     0.048 C 
ATOM     31  O   UNL     1       4.009  18.638  25.365  1.00  0.00    -0.550 OA
ATOM     32  O   UNL     1       2.260  20.095  25.280  1.00  0.00    -0.550 OA
ENDBRANCH   1  30
BRANCH  27  33
ATOM     33  O   UNL     1       8.253  27.881  26.941  1.00  0.00    -0.393 OA
ATOM     34  H   UNL     1       9.031  28.304  27.377  1.00  0.00     0.210 HD
ENDBRANCH  27  33
TORSDOF 2
ENDMDL
MODEL 8
REMARK VINA RESULT:    -7.303      2.543      3.851
REMARK INTER + INTRA:          -8.128
REMARK INTER:                  -7.980
REMARK INTRA:                  -0.148
REMARK UNBOUND:                -0.184
REMARK SMILES C[C@@H]1[C@@H](C)CC[C@@]2(C(=O)[O-])CC[C@@]3(C)C(=CC[C@@H]4[C@]5(C)CC[C@H](O)C(C)(C)[C@@H]5CC[C@@]43C)[C@@H]12
REMARK SMILES IDX 7 1 6 2 11 3 33 4 5 5 12 6 15 7 2 8 3 9 13 10 16 11 1 12
REMARK SMILES IDX 4 13 14 14 31 15 17 16 18 17 30 18 32 19 19 20 29 21 28 22
REMARK SMILES IDX 21 23 20 24 25 25 22 26 23 27 26 28 27 29 8 30 9 31 10 32
REMARK SMILES IDX 24 33
REMARK H PARENT 24 34
REMARK Flexibility Score: inf
ROOT
ATOM      1  C   UNL     1       4.758  20.168  24.492  1.00  0.00     0.017 C 
ATOM      2  C   UNL     1       4.454  18.686  24.088  1.00  0.00     0.014 C 
ATOM      3  C   UNL     1       3.404  20.886  24.702  1.00  0.00     0.014 C 
ATOM      4  C   UNL     1       5.581  20.253  25.825  1.00  0.00     0.030 C 
ATOM      5  C   UNL     1       5.408  17.684  24.737  1.00  0.00     0.004 C 
ATOM      6  C   UNL     1       3.570  22.372  25.011  1.00  0.00     0.013 C 
ATOM      7  C   UNL     1       5.627  21.677  26.405  1.00  0.00    -0.063 C 
ATOM      8  C   UNL     1       5.096  19.170  26.849  1.00  0.00    -0.003 C 
ATOM      9  C   UNL     1       5.296  17.723  26.281  1.00  0.00    -0.011 C 
ATOM     10  C   UNL     1       4.480  22.704  26.256  1.00  0.00    -0.006 C 
ATOM     11  C   UNL     1       6.727  22.025  27.105  1.00  0.00    -0.027 C 
ATOM     12  C   UNL     1       5.788  19.276  28.223  1.00  0.00     0.008 C 
ATOM     13  C   UNL     1       4.180  16.778  26.764  1.00  0.00     0.008 C 
ATOM     14  C   UNL     1       3.560  22.563  27.498  1.00  0.00     0.017 C 
ATOM     15  C   UNL     1       5.125  24.189  26.139  1.00  0.00    -0.020 C 
ATOM     16  C   UNL     1       6.726  23.213  28.008  1.00  0.00     0.032 C 
ATOM     17  C   UNL     1       6.186  24.502  27.322  1.00  0.00     0.006 C 
ATOM     18  C   UNL     1       4.022  25.283  26.014  1.00  0.00     0.008 C 
ATOM     19  C   UNL     1       5.932  24.282  24.787  1.00  0.00     0.012 C 
ATOM     20  C   UNL     1       5.972  25.737  28.358  1.00  0.00    -0.025 C 
ATOM     21  C   UNL     1       3.670  25.976  27.313  1.00  0.00     0.005 C 
ATOM     22  C   UNL     1       4.886  26.768  27.848  1.00  0.00     0.003 C 
ATOM     23  C   UNL     1       5.558  25.246  29.788  1.00  0.00     0.010 C 
ATOM     24  C   UNL     1       7.372  26.430  28.482  1.00  0.00     0.012 C 
ATOM     25  C   UNL     1       4.481  27.927  28.877  1.00  0.00    -0.006 C 
ATOM     26  C   UNL     1       5.253  26.359  30.805  1.00  0.00     0.033 C 
ATOM     27  C   UNL     1       4.212  27.381  30.322  1.00  0.00     0.120 C 
ATOM     28  C   UNL     1       5.609  29.007  28.950  1.00  0.00     0.014 C 
ATOM     29  C   UNL     1       3.223  28.716  28.394  1.00  0.00     0.014 C 
ENDROOT
BRANCH   1  30
ATOM     30  C   UNL     1       5.533  20.815  23.344  1.00  0.00     0.048 C 
ATOM     31  O   UNL     1       6.757  21.083  23.476  1.00  0.00    -0.550 OA
ATOM     32  O   UNL     1       4.897  21.188  22.165  1.00  0.00    -0.550 OA
ENDBRANCH   1  30
BRANCH  27  33
ATOM     33  O   UNL     1       2.908  26.881  30.495  1.00  0.00    -0.393 OA
ATOM     34  H   UNL     1       2.876  26.376  31.342  1.00  0.00     0.210 HD
ENDBRANCH  27  33
TORSDOF 2
ENDMDL
MODEL 9
REMARK VINA RESULT:    -7.255      3.732      7.699
REMARK INTER + INTRA:          -8.076
REMARK INTER:                  -7.898
REMARK INTRA:                  -0.177
REMARK UNBOUND:                -0.184
REMARK SMILES C[C@@H]1[C@@H](C)CC[C@@]2(C(=O)[O-])CC[C@@]3(C)C(=CC[C@@H]4[C@]5(C)CC[C@H](O)C(C)(C)[C@@H]5CC[C@@]43C)[C@@H]12
REMARK SMILES IDX 7 1 6 2 11 3 33 4 5 5 12 6 15 7 2 8 3 9 13 10 16 11 1 12
REMARK SMILES IDX 4 13 14 14 31 15 17 16 18 17 30 18 32 19 19 20 29 21 28 22
REMARK SMILES IDX 21 23 20 24 25 25 22 26 23 27 26 28 27 29 8 30 9 31 10 32
REMARK SMILES IDX 24 33
REMARK H PARENT 24 34
REMARK Flexibility Score: inf
ROOT
ATOM      1  C   UNL     1       5.290  20.947  26.882  1.00  0.00     0.017 C 
ATOM      2  C   UNL     1       5.549  21.885  28.109  1.00  0.00     0.014 C 
ATOM      3  C   UNL     1       3.758  20.826  26.698  1.00  0.00     0.014 C 
ATOM      4  C   UNL     1       5.907  21.527  25.562  1.00  0.00     0.030 C 
ATOM      5  C   UNL     1       6.725  22.837  27.891  1.00  0.00     0.004 C 
ATOM      6  C   UNL     1       3.376  19.856  25.582  1.00  0.00     0.013 C 
ATOM      7  C   UNL     1       5.410  20.796  24.303  1.00  0.00    -0.063 C 
ATOM      8  C   UNL     1       5.731  23.083  25.500  1.00  0.00    -0.003 C 
ATOM      9  C   UNL     1       6.466  23.784  26.694  1.00  0.00    -0.011 C 
ATOM     10  C   UNL     1       3.999  20.175  24.169  1.00  0.00    -0.006 C 
ATOM     11  C   UNL     1       6.255  20.726  23.253  1.00  0.00    -0.027 C 
ATOM     12  C   UNL     1       6.216  23.700  24.173  1.00  0.00     0.008 C 
ATOM     13  C   UNL     1       5.701  25.038  27.156  1.00  0.00     0.008 C 
ATOM     14  C   UNL     1       3.074  21.248  23.535  1.00  0.00     0.017 C 
ATOM     15  C   UNL     1       4.105  18.840  23.252  1.00  0.00    -0.020 C 
ATOM     16  C   UNL     1       5.766  20.384  21.886  1.00  0.00     0.032 C 
ATOM     17  C   UNL     1       4.882  19.103  21.856  1.00  0.00     0.006 C 
ATOM     18  C   UNL     1       2.711  18.174  23.050  1.00  0.00     0.008 C 
ATOM     19  C   UNL     1       4.952  17.761  24.032  1.00  0.00     0.012 C 
ATOM     20  C   UNL     1       4.164  18.853  20.418  1.00  0.00    -0.025 C 
ATOM     21  C   UNL     1       2.026  18.526  21.748  1.00  0.00     0.005 C 
ATOM     22  C   UNL     1       2.843  17.994  20.547  1.00  0.00     0.003 C 
ATOM     23  C   UNL     1       3.814  20.196  19.690  1.00  0.00     0.010 C 
ATOM     24  C   UNL     1       5.225  18.102  19.543  1.00  0.00     0.012 C 
ATOM     25  C   UNL     1       1.972  17.839  19.211  1.00  0.00    -0.006 C 
ATOM     26  C   UNL     1       3.055  20.047  18.360  1.00  0.00     0.033 C 
ATOM     27  C   UNL     1       1.776  19.202  18.460  1.00  0.00     0.120 C 
ATOM     28  C   UNL     1       2.651  16.822  18.236  1.00  0.00     0.014 C 
ATOM     29  C   UNL     1       0.571  17.216  19.502  1.00  0.00     0.014 C 
ENDROOT
BRANCH   1  30
ATOM     30  C   UNL     1       5.898  19.581  27.202  1.00  0.00     0.048 C 
ATOM     31  O   UNL     1       5.413  18.870  28.122  1.00  0.00    -0.550 OA
ATOM     32  O   UNL     1       7.034  19.126  26.542  1.00  0.00    -0.550 OA
ENDBRANCH   1  30
BRANCH  27  33
ATOM     33  O   UNL     1       0.712  19.969  18.969  1.00  0.00    -0.393 OA
ATOM     34  H   UNL     1       0.761  19.958  19.955  1.00  0.00     0.210 HD
ENDBRANCH  27  33
TORSDOF 2
ENDMDL
