MODEL 1
REMARK VINA RESULT:    -6.086      0.000      0.000
REMARK INTER + INTRA:         -12.284
REMARK INTER:                 -11.067
REMARK INTRA:                  -1.217
REMARK UNBOUND:                -1.217
REMARK SMILES CCCCCCCCCCCCCCCC(=O)[O-]
REMARK SMILES IDX 9 1 10 2 11 3 12 4 13 5 14 6 15 7 16 8 17 9 18 10 8 11 7 12
REMARK SMILES IDX 6 13 5 14 4 15 3 16 2 17 1 18
REMARK H PARENT
REMARK Flexibility Score: inf
ROOT
ATOM      1  C   UNL     1      -3.623  10.001 -18.007  1.00  0.00     0.000 C 
ENDROOT
BRANCH   1   2
ATOM      2  C   UNL     1      -2.430   9.039 -17.914  1.00  0.00     0.000 C 
BRANCH   2   3
ATOM      3  C   UNL     1      -1.154   9.614 -18.548  1.00  0.00     0.000 C 
BRANCH   3   4
ATOM      4  C   UNL     1       0.102   8.795 -18.202  1.00  0.00     0.000 C 
BRANCH   4   5
ATOM      5  C   UNL     1       0.248   7.546 -19.098  1.00  0.00     0.000 C 
BRANCH   5   6
ATOM      6  C   UNL     1       0.316   6.227 -18.308  1.00  0.00     0.006 C 
BRANCH   6   7
ATOM      7  C   UNL     1      -0.376   5.064 -19.029  1.00  0.00     0.053 C 
BRANCH   7   8
ATOM      8  C   UNL     1      -1.784   4.915 -18.548  1.00  0.00     0.041 C 
ATOM      9  O   UNL     1      -2.625   4.278 -19.235  1.00  0.00    -0.550 OA
ATOM     10  O   UNL     1      -2.183   5.523 -17.364  1.00  0.00    -0.550 OA
ENDBRANCH   7   8
ENDBRANCH   6   7
ENDBRANCH   5   6
ENDBRANCH   4   5
ENDBRANCH   3   4
ENDBRANCH   2   3
ENDBRANCH   1   2
BRANCH   1  11
ATOM     11  C   UNL     1      -3.161  11.413 -18.386  1.00  0.00     0.000 C 
BRANCH  11  12
ATOM     12  C   UNL     1      -4.174  12.095 -19.313  1.00  0.00    -0.000 C 
BRANCH  12  13
ATOM     13  C   UNL     1      -5.056  11.061 -20.022  1.00  0.00    -0.000 C 
BRANCH  13  14
ATOM     14  C   UNL     1      -6.294  11.722 -20.638  1.00  0.00    -0.000 C 
BRANCH  14  15
ATOM     15  C   UNL     1      -7.583  11.059 -20.131  1.00  0.00    -0.000 C 
BRANCH  15  16
ATOM     16  C   UNL     1      -7.549  10.761 -18.621  1.00  0.00    -0.000 C 
BRANCH  16  17
ATOM     17  C   UNL     1      -7.665  12.000 -17.715  1.00  0.00    -0.003 C 
ATOM     18  C   UNL     1      -7.892  11.647 -16.246  1.00  0.00     0.004 C 
ENDBRANCH  16  17
ENDBRANCH  15  16
ENDBRANCH  14  15
ENDBRANCH  13  14
ENDBRANCH  12  13
ENDBRANCH  11  12
ENDBRANCH   1  11
TORSDOF 14
ENDMDL
MODEL 2
REMARK VINA RESULT:    -6.076      2.663      7.304
REMARK INTER + INTRA:         -12.266
REMARK INTER:                 -10.881
REMARK INTRA:                  -1.385
REMARK UNBOUND:                -1.217
REMARK SMILES CCCCCCCCCCCCCCCC(=O)[O-]
REMARK SMILES IDX 9 1 10 2 11 3 12 4 13 5 14 6 15 7 16 8 17 9 18 10 8 11 7 12
REMARK SMILES IDX 6 13 5 14 4 15 3 16 2 17 1 18
REMARK H PARENT
REMARK Flexibility Score: inf
ROOT
ATOM      1  C   UNL     1      -3.695   9.934 -18.049  1.00  0.00     0.000 C 
ENDROOT
BRANCH   1   2
ATOM      2  C   UNL     1      -3.252  11.368 -18.376  1.00  0.00     0.000 C 
BRANCH   2   3
ATOM      3  C   UNL     1      -4.223  12.087 -19.325  1.00  0.00     0.000 C 
BRANCH   3   4
ATOM      4  C   UNL     1      -4.944  11.121 -20.281  1.00  0.00     0.000 C 
BRANCH   4   5
ATOM      5  C   UNL     1      -6.454  11.425 -20.386  1.00  0.00     0.000 C 
BRANCH   5   6
ATOM      6  C   UNL     1      -7.085  11.873 -19.057  1.00  0.00     0.006 C 
BRANCH   6   7
ATOM      7  C   UNL     1      -7.617  10.701 -18.224  1.00  0.00     0.053 C 
BRANCH   7   8
ATOM      8  C   UNL     1      -7.400  10.955 -16.766  1.00  0.00     0.041 C 
ATOM      9  O   UNL     1      -6.483  10.352 -16.148  1.00  0.00    -0.550 OA
ATOM     10  O   UNL     1      -8.241  11.819 -16.077  1.00  0.00    -0.550 OA
ENDBRANCH   7   8
ENDBRANCH   6   7
ENDBRANCH   5   6
ENDBRANCH   4   5
ENDBRANCH   3   4
ENDBRANCH   2   3
ENDBRANCH   1   2
BRANCH   1  11
ATOM     11  C   UNL     1      -2.487   8.994 -17.956  1.00  0.00     0.000 C 
BRANCH  11  12
ATOM     12  C   UNL     1      -1.191   9.725 -18.324  1.00  0.00    -0.000 C 
BRANCH  12  13
ATOM     13  C   UNL     1       0.010   8.773 -18.285  1.00  0.00    -0.000 C 
BRANCH  13  14
ATOM     14  C   UNL     1      -0.262   7.508 -19.108  1.00  0.00    -0.000 C 
BRANCH  14  15
ATOM     15  C   UNL     1       0.568   6.325 -18.590  1.00  0.00    -0.000 C 
BRANCH  15  16
ATOM     16  C   UNL     1      -0.261   5.328 -17.759  1.00  0.00    -0.000 C 
BRANCH  16  17
ATOM     17  C   UNL     1      -1.778   5.382 -18.011  1.00  0.00    -0.003 C 
ATOM     18  C   UNL     1      -2.256   4.329 -19.011  1.00  0.00     0.004 C 
ENDBRANCH  16  17
ENDBRANCH  15  16
ENDBRANCH  14  15
ENDBRANCH  13  14
ENDBRANCH  12  13
ENDBRANCH  11  12
ENDBRANCH   1  11
TORSDOF 14
ENDMDL
MODEL 3
REMARK VINA RESULT:    -5.460      3.056      7.403
REMARK INTER + INTRA:         -11.147
REMARK INTER:                 -10.214
REMARK INTRA:                  -0.933
REMARK UNBOUND:                -1.217
REMARK SMILES CCCCCCCCCCCCCCCC(=O)[O-]
REMARK SMILES IDX 9 1 10 2 11 3 12 4 13 5 14 6 15 7 16 8 17 9 18 10 8 11 7 12
REMARK SMILES IDX 6 13 5 14 4 15 3 16 2 17 1 18
REMARK H PARENT
REMARK Flexibility Score: inf
ROOT
ATOM      1  C   UNL     1      -3.130   9.381 -17.251  1.00  0.00     0.000 C 
ENDROOT
BRANCH   1   2
ATOM      2  C   UNL     1      -4.362  10.044 -17.885  1.00  0.00     0.000 C 
BRANCH   2   3
ATOM      3  C   UNL     1      -4.048  10.715 -19.230  1.00  0.00     0.000 C 
BRANCH   3   4
ATOM      4  C   UNL     1      -4.249  12.240 -19.195  1.00  0.00     0.000 C 
BRANCH   4   5
ATOM      5  C   UNL     1      -5.662  12.651 -19.664  1.00  0.00     0.000 C 
BRANCH   5   6
ATOM      6  C   UNL     1      -6.469  11.492 -20.274  1.00  0.00     0.006 C 
BRANCH   6   7
ATOM      7  C   UNL     1      -7.656  11.068 -19.402  1.00  0.00     0.053 C 
BRANCH   7   8
ATOM      8  C   UNL     1      -8.655  10.307 -20.214  1.00  0.00     0.041 C 
ATOM      9  O   UNL     1      -9.032  10.750 -21.331  1.00  0.00    -0.550 OA
ATOM     10  O   UNL     1      -9.209   9.135 -19.716  1.00  0.00    -0.550 OA
ENDBRANCH   7   8
ENDBRANCH   6   7
ENDBRANCH   5   6
ENDBRANCH   4   5
ENDBRANCH   3   4
ENDBRANCH   2   3
ENDBRANCH   1   2
BRANCH   1  11
ATOM     11  C   UNL     1      -1.856   9.739 -18.025  1.00  0.00     0.000 C 
BRANCH  11  12
ATOM     12  C   UNL     1      -1.259   8.501 -18.706  1.00  0.00    -0.000 C 
BRANCH  12  13
ATOM     13  C   UNL     1       0.102   8.140 -18.100  1.00  0.00    -0.000 C 
BRANCH  13  14
ATOM     14  C   UNL     1       0.789   7.033 -18.908  1.00  0.00    -0.000 C 
BRANCH  14  15
ATOM     15  C   UNL     1       0.307   5.645 -18.460  1.00  0.00    -0.000 C 
BRANCH  15  16
ATOM     16  C   UNL     1      -0.684   5.006 -19.450  1.00  0.00    -0.000 C 
BRANCH  16  17
ATOM     17  C   UNL     1      -2.012   4.541 -18.825  1.00  0.00    -0.003 C 
ATOM     18  C   UNL     1      -2.401   5.343 -17.583  1.00  0.00     0.004 C 
ENDBRANCH  16  17
ENDBRANCH  15  16
ENDBRANCH  14  15
ENDBRANCH  13  14
ENDBRANCH  12  13
ENDBRANCH  11  12
ENDBRANCH   1  11
TORSDOF 14
ENDMDL
MODEL 4
REMARK VINA RESULT:    -5.262      1.249      1.974
REMARK INTER + INTRA:         -10.786
REMARK INTER:                  -9.930
REMARK INTRA:                  -0.856
REMARK UNBOUND:                -1.217
REMARK SMILES CCCCCCCCCCCCCCCC(=O)[O-]
REMARK SMILES IDX 9 1 10 2 11 3 12 4 13 5 14 6 15 7 16 8 17 9 18 10 8 11 7 12
REMARK SMILES IDX 6 13 5 14 4 15 3 16 2 17 1 18
REMARK H PARENT
REMARK Flexibility Score: inf
ROOT
ATOM      1  C   UNL     1      -2.359  10.030 -17.839  1.00  0.00     0.000 C 
ENDROOT
BRANCH   1   2
ATOM      2  C   UNL     1      -1.625   8.781 -18.347  1.00  0.00     0.000 C 
BRANCH   2   3
ATOM      3  C   UNL     1      -0.100   8.884 -18.191  1.00  0.00     0.000 C 
BRANCH   3   4
ATOM      4  C   UNL     1       0.660   7.950 -19.149  1.00  0.00     0.000 C 
BRANCH   4   5
ATOM      5  C   UNL     1      -0.181   6.719 -19.551  1.00  0.00     0.000 C 
BRANCH   5   6
ATOM      6  C   UNL     1       0.331   5.400 -18.947  1.00  0.00     0.006 C 
BRANCH   6   7
ATOM      7  C   UNL     1      -0.432   4.988 -17.682  1.00  0.00     0.053 C 
BRANCH   7   8
ATOM      8  C   UNL     1      -1.907   5.064 -17.913  1.00  0.00     0.041 C 
ATOM      9  O   UNL     1      -2.639   5.723 -17.128  1.00  0.00    -0.550 OA
ATOM     10  O   UNL     1      -2.483   4.367 -18.967  1.00  0.00    -0.550 OA
ENDBRANCH   7   8
ENDBRANCH   6   7
ENDBRANCH   5   6
ENDBRANCH   4   5
ENDBRANCH   3   4
ENDBRANCH   2   3
ENDBRANCH   1   2
BRANCH   1  11
ATOM     11  C   UNL     1      -3.761   9.673 -17.330  1.00  0.00     0.000 C 
BRANCH  11  12
ATOM     12  C   UNL     1      -4.834  10.505 -18.042  1.00  0.00    -0.000 C 
BRANCH  12  13
ATOM     13  C   UNL     1      -4.204  11.465 -19.058  1.00  0.00    -0.000 C 
BRANCH  13  14
ATOM     14  C   UNL     1      -5.236  12.475 -19.575  1.00  0.00    -0.000 C 
BRANCH  14  15
ATOM     15  C   UNL     1      -6.667  11.981 -19.318  1.00  0.00    -0.000 C 
BRANCH  15  16
ATOM     16  C   UNL     1      -7.202  11.079 -20.446  1.00  0.00    -0.000 C 
BRANCH  16  17
ATOM     17  C   UNL     1      -8.713  10.796 -20.385  1.00  0.00    -0.003 C 
ATOM     18  C   UNL     1      -9.038   9.388 -19.888  1.00  0.00     0.004 C 
ENDBRANCH  16  17
ENDBRANCH  15  16
ENDBRANCH  14  15
ENDBRANCH  13  14
ENDBRANCH  12  13
ENDBRANCH  11  12
ENDBRANCH   1  11
TORSDOF 14
ENDMDL
MODEL 5
REMARK VINA RESULT:    -4.997      2.823      7.448
REMARK INTER + INTRA:         -10.303
REMARK INTER:                  -9.413
REMARK INTRA:                  -0.891
REMARK UNBOUND:                -1.217
REMARK SMILES CCCCCCCCCCCCCCCC(=O)[O-]
REMARK SMILES IDX 9 1 10 2 11 3 12 4 13 5 14 6 15 7 16 8 17 9 18 10 8 11 7 12
REMARK SMILES IDX 6 13 5 14 4 15 3 16 2 17 1 18
REMARK H PARENT
REMARK Flexibility Score: inf
ROOT
ATOM      1  C   UNL     1      -3.005  10.483 -17.259  1.00  0.00     0.000 C 
ENDROOT
BRANCH   1   2
ATOM      2  C   UNL     1      -4.443  10.394 -17.794  1.00  0.00     0.000 C 
BRANCH   2   3
ATOM      3  C   UNL     1      -5.453   9.980 -16.713  1.00  0.00     0.000 C 
BRANCH   3   4
ATOM      4  C   UNL     1      -6.618  10.976 -16.575  1.00  0.00     0.000 C 
BRANCH   4   5
ATOM      5  C   UNL     1      -7.796  10.626 -17.510  1.00  0.00     0.000 C 
BRANCH   5   6
ATOM      6  C   UNL     1      -7.911  11.557 -18.729  1.00  0.00     0.006 C 
BRANCH   6   7
ATOM      7  C   UNL     1      -7.389  10.915 -20.020  1.00  0.00     0.053 C 
BRANCH   7   8
ATOM      8  C   UNL     1      -6.120  11.576 -20.457  1.00  0.00     0.041 C 
ATOM      9  O   UNL     1      -5.763  12.666 -19.937  1.00  0.00    -0.550 OA
ATOM     10  O   UNL     1      -5.357  11.016 -21.472  1.00  0.00    -0.550 OA
ENDBRANCH   7   8
ENDBRANCH   6   7
ENDBRANCH   5   6
ENDBRANCH   4   5
ENDBRANCH   3   4
ENDBRANCH   2   3
ENDBRANCH   1   2
BRANCH   1  11
ATOM     11  C   UNL     1      -1.989  10.186 -18.368  1.00  0.00     0.000 C 
BRANCH  11  12
ATOM     12  C   UNL     1      -1.548   8.718 -18.333  1.00  0.00    -0.000 C 
BRANCH  12  13
ATOM     13  C   UNL     1      -0.019   8.602 -18.299  1.00  0.00    -0.000 C 
BRANCH  13  14
ATOM     14  C   UNL     1       0.465   7.431 -19.162  1.00  0.00    -0.000 C 
BRANCH  14  15
ATOM     15  C   UNL     1       0.209   6.089 -18.462  1.00  0.00    -0.000 C 
BRANCH  15  16
ATOM     16  C   UNL     1      -0.632   5.120 -19.312  1.00  0.00    -0.000 C 
BRANCH  16  17
ATOM     17  C   UNL     1      -1.818   4.474 -18.574  1.00  0.00    -0.003 C 
ATOM     18  C   UNL     1      -2.339   5.328 -17.418  1.00  0.00     0.004 C 
ENDBRANCH  16  17
ENDBRANCH  15  16
ENDBRANCH  14  15
ENDBRANCH  13  14
ENDBRANCH  12  13
ENDBRANCH  11  12
ENDBRANCH   1  11
TORSDOF 14
ENDMDL
MODEL 6
REMARK VINA RESULT:    -4.843      1.765      2.352
REMARK INTER + INTRA:         -10.024
REMARK INTER:                  -9.221
REMARK INTRA:                  -0.802
REMARK UNBOUND:                -1.217
REMARK SMILES CCCCCCCCCCCCCCCC(=O)[O-]
REMARK SMILES IDX 9 1 10 2 11 3 12 4 13 5 14 6 15 7 16 8 17 9 18 10 8 11 7 12
REMARK SMILES IDX 6 13 5 14 4 15 3 16 2 17 1 18
REMARK H PARENT
REMARK Flexibility Score: inf
ROOT
ATOM      1  C   UNL     1      -3.161  10.430 -17.766  1.00  0.00     0.000 C 
ENDROOT
BRANCH   1   2
ATOM      2  C   UNL     1      -3.462   9.031 -17.207  1.00  0.00     0.000 C 
BRANCH   2   3
ATOM      3  C   UNL     1      -2.675   7.924 -17.925  1.00  0.00     0.000 C 
BRANCH   3   4
ATOM      4  C   UNL     1      -2.428   6.696 -17.031  1.00  0.00     0.000 C 
BRANCH   4   5
ATOM      5  C   UNL     1      -2.032   5.450 -17.852  1.00  0.00     0.000 C 
BRANCH   5   6
ATOM      6  C   UNL     1      -0.625   5.540 -18.467  1.00  0.00     0.006 C 
BRANCH   6   7
ATOM      7  C   UNL     1       0.312   6.463 -17.680  1.00  0.00     0.053 C 
BRANCH   7   8
ATOM      8  C   UNL     1       0.487   7.764 -18.397  1.00  0.00     0.041 C 
ATOM      9  O   UNL     1       0.435   7.806 -19.654  1.00  0.00    -0.550 OA
ATOM     10  O   UNL     1       0.758   8.922 -17.680  1.00  0.00    -0.550 OA
ENDBRANCH   7   8
ENDBRANCH   6   7
ENDBRANCH   5   6
ENDBRANCH   4   5
ENDBRANCH   3   4
ENDBRANCH   2   3
ENDBRANCH   1   2
BRANCH   1  11
ATOM     11  C   UNL     1      -4.042  10.735 -18.984  1.00  0.00     0.000 C 
BRANCH  11  12
ATOM     12  C   UNL     1      -4.255  12.245 -19.146  1.00  0.00    -0.000 C 
BRANCH  12  13
ATOM     13  C   UNL     1      -5.497  12.538 -19.994  1.00  0.00    -0.000 C 
BRANCH  13  14
ATOM     14  C   UNL     1      -6.163  11.240 -20.466  1.00  0.00    -0.000 C 
BRANCH  14  15
ATOM     15  C   UNL     1      -7.648  11.209 -20.076  1.00  0.00    -0.000 C 
BRANCH  15  16
ATOM     16  C   UNL     1      -7.900  10.506 -18.730  1.00  0.00    -0.000 C 
BRANCH  16  17
ATOM     17  C   UNL     1      -7.580  11.354 -17.487  1.00  0.00    -0.003 C 
ATOM     18  C   UNL     1      -6.768  10.594 -16.438  1.00  0.00     0.004 C 
ENDBRANCH  16  17
ENDBRANCH  15  16
ENDBRANCH  14  15
ENDBRANCH  13  14
ENDBRANCH  12  13
ENDBRANCH  11  12
ENDBRANCH   1  11
TORSDOF 14
ENDMDL
MODEL 7
REMARK VINA RESULT:    -4.824      1.171      2.735
REMARK INTER + INTRA:          -9.989
REMARK INTER:                  -9.279
REMARK INTRA:                  -0.710
REMARK UNBOUND:                -1.217
REMARK SMILES CCCCCCCCCCCCCCCC(=O)[O-]
REMARK SMILES IDX 9 1 10 2 11 3 12 4 13 5 14 6 15 7 16 8 17 9 18 10 8 11 7 12
REMARK SMILES IDX 6 13 5 14 4 15 3 16 2 17 1 18
REMARK H PARENT
REMARK Flexibility Score: inf
ROOT
ATOM      1  C   UNL     1      -5.130  10.165 -17.449  1.00  0.00     0.000 C 
ENDROOT
BRANCH   1   2
ATOM      2  C   UNL     1      -3.864   9.513 -16.873  1.00  0.00     0.000 C 
BRANCH   2   3
ATOM      3  C   UNL     1      -2.579  10.006 -17.556  1.00  0.00     0.000 C 
BRANCH   3   4
ATOM      4  C   UNL     1      -1.865   8.898 -18.350  1.00  0.00     0.000 C 
BRANCH   4   5
ATOM      5  C   UNL     1      -0.331   8.965 -18.191  1.00  0.00     0.000 C 
BRANCH   5   6
ATOM      6  C   UNL     1       0.388   7.671 -18.609  1.00  0.00     0.006 C 
BRANCH   6   7
ATOM      7  C   UNL     1      -0.577   6.582 -19.091  1.00  0.00     0.053 C 
BRANCH   7   8
ATOM      8  C   UNL     1      -0.904   5.642 -17.974  1.00  0.00     0.041 C 
ATOM      9  O   UNL     1      -0.068   4.771 -17.614  1.00  0.00    -0.550 OA
ATOM     10  O   UNL     1      -2.149   5.695 -17.362  1.00  0.00    -0.550 OA
ENDBRANCH   7   8
ENDBRANCH   6   7
ENDBRANCH   5   6
ENDBRANCH   4   5
ENDBRANCH   3   4
ENDBRANCH   2   3
ENDBRANCH   1   2
BRANCH   1  11
ATOM     11  C   UNL     1      -6.173  10.400 -16.351  1.00  0.00     0.000 C 
BRANCH  11  12
ATOM     12  C   UNL     1      -7.553  10.689 -16.954  1.00  0.00    -0.000 C 
BRANCH  12  13
ATOM     13  C   UNL     1      -7.458  11.729 -18.076  1.00  0.00    -0.000 C 
BRANCH  13  14
ATOM     14  C   UNL     1      -7.852  11.121 -19.427  1.00  0.00    -0.000 C 
BRANCH  14  15
ATOM     15  C   UNL     1      -6.705  11.240 -20.441  1.00  0.00    -0.000 C 
BRANCH  15  16
ATOM     16  C   UNL     1      -5.737  12.392 -20.117  1.00  0.00    -0.000 C 
BRANCH  16  17
ATOM     17  C   UNL     1      -4.272  11.967 -19.909  1.00  0.00    -0.003 C 
ATOM     18  C   UNL     1      -3.452  13.002 -19.139  1.00  0.00     0.004 C 
ENDBRANCH  16  17
ENDBRANCH  15  16
ENDBRANCH  14  15
ENDBRANCH  13  14
ENDBRANCH  12  13
ENDBRANCH  11  12
ENDBRANCH   1  11
TORSDOF 14
ENDMDL
MODEL 8
REMARK VINA RESULT:    -4.797      4.632      8.231
REMARK INTER + INTRA:          -9.941
REMARK INTER:                  -9.049
REMARK INTRA:                  -0.892
REMARK UNBOUND:                -1.217
REMARK SMILES CCCCCCCCCCCCCCCC(=O)[O-]
REMARK SMILES IDX 9 1 10 2 11 3 12 4 13 5 14 6 15 7 16 8 17 9 18 10 8 11 7 12
REMARK SMILES IDX 6 13 5 14 4 15 3 16 2 17 1 18
REMARK H PARENT
REMARK Flexibility Score: inf
ROOT
ATOM      1  C   UNL     1      -4.365  10.378 -17.892  1.00  0.00     0.000 C 
ENDROOT
BRANCH   1   2
ATOM      2  C   UNL     1      -4.007  11.040 -19.231  1.00  0.00     0.000 C 
BRANCH   2   3
ATOM      3  C   UNL     1      -3.961  12.573 -19.140  1.00  0.00     0.000 C 
BRANCH   3   4
ATOM      4  C   UNL     1      -2.574  13.103 -18.734  1.00  0.00     0.000 C 
BRANCH   4   5
ATOM      5  C   UNL     1      -2.525  14.646 -18.712  1.00  0.00     0.000 C 
BRANCH   5   6
ATOM      6  C   UNL     1      -1.273  15.211 -18.019  1.00  0.00     0.006 C 
BRANCH   6   7
ATOM      7  C   UNL     1      -0.838  16.567 -18.588  1.00  0.00     0.053 C 
BRANCH   7   8
ATOM      8  C   UNL     1       0.624  16.557 -18.902  1.00  0.00     0.041 C 
ATOM      9  O   UNL     1       1.050  15.941 -19.915  1.00  0.00    -0.550 OA
ATOM     10  O   UNL     1       1.523  17.185 -18.051  1.00  0.00    -0.550 OA
ENDBRANCH   7   8
ENDBRANCH   6   7
ENDBRANCH   5   6
ENDBRANCH   4   5
ENDBRANCH   3   4
ENDBRANCH   2   3
ENDBRANCH   1   2
BRANCH   1  11
ATOM     11  C   UNL     1      -3.147   9.670 -17.287  1.00  0.00     0.000 C 
BRANCH  11  12
ATOM     12  C   UNL     1      -2.407   8.845 -18.346  1.00  0.00    -0.000 C 
BRANCH  12  13
ATOM     13  C   UNL     1      -0.889   8.942 -18.159  1.00  0.00    -0.000 C 
BRANCH  13  14
ATOM     14  C   UNL     1      -0.152   8.033 -19.150  1.00  0.00    -0.000 C 
BRANCH  14  15
ATOM     15  C   UNL     1       0.567   6.891 -18.419  1.00  0.00    -0.000 C 
BRANCH  15  16
ATOM     16  C   UNL     1      -0.372   5.727 -18.053  1.00  0.00    -0.000 C 
BRANCH  16  17
ATOM     17  C   UNL     1      -0.900   4.921 -19.253  1.00  0.00    -0.003 C 
ATOM     18  C   UNL     1      -2.312   4.378 -19.034  1.00  0.00     0.004 C 
ENDBRANCH  16  17
ENDBRANCH  15  16
ENDBRANCH  14  15
ENDBRANCH  13  14
ENDBRANCH  12  13
ENDBRANCH  11  12
ENDBRANCH   1  11
TORSDOF 14
ENDMDL
MODEL 9
REMARK VINA RESULT:    -4.648      2.574      7.484
REMARK INTER + INTRA:          -9.669
REMARK INTER:                  -8.393
REMARK INTRA:                  -1.276
REMARK UNBOUND:                -1.217
REMARK SMILES CCCCCCCCCCCCCCCC(=O)[O-]
REMARK SMILES IDX 9 1 10 2 11 3 12 4 13 5 14 6 15 7 16 8 17 9 18 10 8 11 7 12
REMARK SMILES IDX 6 13 5 14 4 15 3 16 2 17 1 18
REMARK H PARENT
REMARK Flexibility Score: inf
ROOT
ATOM      1  C   UNL     1      -4.950  10.547 -16.732  1.00  0.00     0.000 C 
ENDROOT
BRANCH   1   2
ATOM      2  C   UNL     1      -6.441  10.217 -16.568  1.00  0.00     0.000 C 
BRANCH   2   3
ATOM      3  C   UNL     1      -7.320  11.475 -16.479  1.00  0.00     0.000 C 
BRANCH   3   4
ATOM      4  C   UNL     1      -7.904  11.888 -17.841  1.00  0.00     0.000 C 
BRANCH   4   5
ATOM      5  C   UNL     1      -7.971  10.704 -18.829  1.00  0.00     0.000 C 
BRANCH   5   6
ATOM      6  C   UNL     1      -7.401  11.029 -20.220  1.00  0.00     0.006 C 
BRANCH   6   7
ATOM      7  C   UNL     1      -6.510  12.278 -20.222  1.00  0.00     0.053 C 
BRANCH   7   8
ATOM      8  C   UNL     1      -5.067  11.890 -20.182  1.00  0.00     0.041 C 
ATOM      9  O   UNL     1      -4.673  10.853 -20.778  1.00  0.00    -0.550 OA
ATOM     10  O   UNL     1      -4.163  12.646 -19.446  1.00  0.00    -0.550 OA
ENDBRANCH   7   8
ENDBRANCH   6   7
ENDBRANCH   5   6
ENDBRANCH   4   5
ENDBRANCH   3   4
ENDBRANCH   2   3
ENDBRANCH   1   2
BRANCH   1  11
ATOM     11  C   UNL     1      -4.265   9.539 -17.663  1.00  0.00     0.000 C 
BRANCH  11  12
ATOM     12  C   UNL     1      -2.764   9.828 -17.780  1.00  0.00    -0.000 C 
BRANCH  12  13
ATOM     13  C   UNL     1      -1.975   8.544 -18.056  1.00  0.00    -0.000 C 
BRANCH  13  14
ATOM     14  C   UNL     1      -0.536   8.861 -18.483  1.00  0.00    -0.000 C 
BRANCH  14  15
ATOM     15  C   UNL     1       0.125   7.639 -19.138  1.00  0.00    -0.000 C 
BRANCH  15  16
ATOM     16  C   UNL     1       0.533   6.560 -18.119  1.00  0.00    -0.000 C 
BRANCH  16  17
ATOM     17  C   UNL     1      -0.338   5.291 -18.138  1.00  0.00    -0.003 C 
ATOM     18  C   UNL     1      -0.859   4.945 -19.533  1.00  0.00     0.004 C 
ENDBRANCH  16  17
ENDBRANCH  15  16
ENDBRANCH  14  15
ENDBRANCH  13  14
ENDBRANCH  12  13
ENDBRANCH  11  12
ENDBRANCH   1  11
TORSDOF 14
ENDMDL
