MODEL 1
REMARK VINA RESULT:    -7.174      0.000      0.000
REMARK INTER + INTRA:          -8.081
REMARK INTER:                  -8.432
REMARK INTRA:                   0.351
REMARK UNBOUND:                 0.351
REMARK SMILES O=c1c(O)c(-c2ccc(O)cc2)oc2cc(O)cc(O)c12
REMARK SMILES IDX 5 1 3 2 2 3 1 4 21 5 19 6 18 7 16 8 15 9 14 10 13 11 6 12
REMARK SMILES IDX 7 13 8 14 9 15 12 16 11 17 10 18 4 20 20 22 17 24
REMARK H PARENT 10 19 4 21 20 23 17 25
REMARK Flexibility Score: inf
ROOT
ATOM      1  C   UNL     1     -16.793 -36.420 -11.552  1.00  0.00     0.180 A 
ATOM      2  C   UNL     1     -17.796 -36.681 -12.505  1.00  0.00     0.208 A 
ATOM      3  C   UNL     1     -17.497 -36.520 -13.867  1.00  0.00     0.238 A 
ATOM      4  O   UNL     1     -18.392 -36.740 -14.729  1.00  0.00    -0.285 OA
ATOM      5  C   UNL     1     -16.201 -36.123 -14.253  1.00  0.00     0.111 A 
ATOM      6  C   UNL     1     -15.817 -35.942 -15.604  1.00  0.00     0.134 A 
ATOM      7  C   UNL     1     -14.504 -35.553 -15.908  1.00  0.00     0.093 A 
ATOM      8  C   UNL     1     -13.568 -35.343 -14.888  1.00  0.00     0.123 A 
ATOM      9  C   UNL     1     -13.943 -35.520 -13.555  1.00  0.00     0.094 A 
ATOM     10  C   UNL     1     -15.247 -35.906 -13.232  1.00  0.00     0.146 A 
ATOM     11  O   UNL     1     -15.577 -36.062 -11.954  1.00  0.00    -0.452 OA
ENDROOT
BRANCH   1  12
ATOM     12  C   UNL     1     -17.036 -36.550 -10.098  1.00  0.00     0.021 A 
ATOM     13  C   UNL     1     -16.012 -36.937  -9.215  1.00  0.00     0.016 A 
ATOM     14  C   UNL     1     -16.273 -37.077  -7.848  1.00  0.00     0.047 A 
ATOM     15  C   UNL     1     -17.561 -36.845  -7.349  1.00  0.00     0.115 A 
ATOM     16  C   UNL     1     -18.331 -36.340  -9.592  1.00  0.00     0.016 A 
ATOM     17  C   UNL     1     -18.587 -36.479  -8.225  1.00  0.00     0.047 A 
BRANCH  15  18
ATOM     18  O   UNL     1     -17.831 -36.980  -5.990  1.00  0.00    -0.508 OA
ATOM     19  H   UNL     1     -17.104 -37.220  -5.326  1.00  0.00     0.293 HD
ENDBRANCH  15  18
ENDBRANCH   1  12
BRANCH   2  20
ATOM     20  O   UNL     1     -19.058 -37.123 -12.099  1.00  0.00    -0.502 OA
ATOM     21  H   UNL     1     -19.770 -37.414 -12.758  1.00  0.00     0.293 HD
ENDBRANCH   2  20
BRANCH   6  22
ATOM     22  O   UNL     1     -16.727 -36.144 -16.643  1.00  0.00    -0.507 OA
ATOM     23  H   UNL     1     -16.432 -36.480 -17.553  1.00  0.00     0.293 HD
ENDBRANCH   6  22
BRANCH   8  24
ATOM     24  O   UNL     1     -12.264 -34.958 -15.190  1.00  0.00    -0.508 OA
ATOM     25  H   UNL     1     -11.596 -35.612 -15.581  1.00  0.00     0.293 HD
ENDBRANCH   8  24
TORSDOF 5
ENDMDL
