MODEL 1
REMARK VINA RESULT:    -6.682      0.000      0.000
REMARK INTER + INTRA:          -8.470
REMARK INTER:                  -8.050
REMARK INTRA:                  -0.421
REMARK UNBOUND:                -0.421
REMARK SMILES O=c1c(O)c(-c2ccc(O)cc2O)oc2cc(O)cc(O)c12
REMARK SMILES IDX 5 1 3 2 2 3 1 4 22 5 20 6 19 7 17 8 16 9 15 10 14 11 6 12
REMARK SMILES IDX 8 13 7 14 9 15 11 16 12 17 10 18 13 20 4 22 21 24 18 26
REMARK H PARENT 10 19 13 21 4 23 21 25 18 27
REMARK Flexibility Score: inf
ROOT
ATOM      1  C   UNL     1      56.323  -2.603  20.427  1.00  0.00     0.184 A 
ATOM      2  C   UNL     1      55.999  -3.899  20.860  1.00  0.00     0.208 A 
ATOM      3  C   UNL     1      55.138  -4.055  21.958  1.00  0.00     0.238 A 
ATOM      4  O   UNL     1      54.897  -5.218  22.376  1.00  0.00    -0.285 OA
ATOM      5  C   UNL     1      54.596  -2.914  22.596  1.00  0.00     0.111 A 
ATOM      6  C   UNL     1      53.682  -2.955  23.693  1.00  0.00     0.134 A 
ATOM      7  C   UNL     1      53.312  -1.763  24.328  1.00  0.00     0.093 A 
ATOM      8  C   UNL     1      53.772  -0.528  23.865  1.00  0.00     0.123 A 
ATOM      9  C   UNL     1      54.617  -0.473  22.759  1.00  0.00     0.094 A 
ATOM     10  C   UNL     1      55.033  -1.647  22.127  1.00  0.00     0.146 A 
ATOM     11  O   UNL     1      55.849  -1.551  21.084  1.00  0.00    -0.451 OA
ENDROOT
BRANCH   1  12
ATOM     12  C   UNL     1      57.206  -2.366  19.262  1.00  0.00     0.063 A 
ATOM     13  C   UNL     1      59.435  -2.289  18.285  1.00  0.00     0.047 A 
ATOM     14  C   UNL     1      58.602  -2.484  19.390  1.00  0.00     0.020 A 
ATOM     15  C   UNL     1      58.884  -1.985  17.034  1.00  0.00     0.119 A 
ATOM     16  C   UNL     1      57.498  -1.881  16.894  1.00  0.00     0.093 A 
ATOM     17  C   UNL     1      56.655  -2.073  17.998  1.00  0.00     0.130 A 
BRANCH  15  18
ATOM     18  O   UNL     1      59.705  -1.789  15.926  1.00  0.00    -0.508 OA
ATOM     19  H   UNL     1      60.577  -2.294  15.817  1.00  0.00     0.293 HD
ENDBRANCH  15  18
BRANCH  17  20
ATOM     20  O   UNL     1      55.273  -1.958  17.844  1.00  0.00    -0.507 OA
ATOM     21  H   UNL     1      54.738  -2.641  17.321  1.00  0.00     0.293 HD
ENDBRANCH  17  20
ENDBRANCH   1  12
BRANCH   2  22
ATOM     22  O   UNL     1      56.556  -5.011  20.223  1.00  0.00    -0.502 OA
ATOM     23  H   UNL     1      57.010  -4.950  19.320  1.00  0.00     0.293 HD
ENDBRANCH   2  22
BRANCH   6  24
ATOM     24  O   UNL     1      53.093  -4.127  24.174  1.00  0.00    -0.507 OA
ATOM     25  H   UNL     1      52.852  -4.295  25.139  1.00  0.00     0.293 HD
ENDBRANCH   6  24
BRANCH   8  26
ATOM     26  O   UNL     1      53.385   0.655  24.492  1.00  0.00    -0.508 OA
ATOM     27  H   UNL     1      52.894   0.648  25.378  1.00  0.00     0.293 HD
ENDBRANCH   8  26
TORSDOF 6
ENDMDL
MODEL 2
REMARK VINA RESULT:    -6.551     15.982     17.905
REMARK INTER + INTRA:          -8.312
REMARK INTER:                  -8.017
REMARK INTRA:                  -0.295
REMARK UNBOUND:                -0.421
REMARK SMILES O=c1c(O)c(-c2ccc(O)cc2O)oc2cc(O)cc(O)c12
REMARK SMILES IDX 5 1 3 2 2 3 1 4 22 5 20 6 19 7 17 8 16 9 15 10 14 11 6 12
REMARK SMILES IDX 8 13 7 14 9 15 11 16 12 17 10 18 13 20 4 22 21 24 18 26
REMARK H PARENT 10 19 13 21 4 23 21 25 18 27
REMARK Flexibility Score: inf
ROOT
ATOM      1  C   UNL     1      42.396   7.267  17.559  1.00  0.00     0.184 A 
ATOM      2  C   UNL     1      41.909   6.273  16.693  1.00  0.00     0.208 A 
ATOM      3  C   UNL     1      42.521   6.100  15.441  1.00  0.00     0.238 A 
ATOM      4  O   UNL     1      42.045   5.247  14.649  1.00  0.00    -0.285 OA
ATOM      5  C   UNL     1      43.626   6.909  15.080  1.00  0.00     0.111 A 
ATOM      6  C   UNL     1      44.348   6.794  13.854  1.00  0.00     0.134 A 
ATOM      7  C   UNL     1      45.342   7.732  13.547  1.00  0.00     0.093 A 
ATOM      8  C   UNL     1      45.683   8.741  14.451  1.00  0.00     0.123 A 
ATOM      9  C   UNL     1      45.024   8.826  15.675  1.00  0.00     0.094 A 
ATOM     10  C   UNL     1      44.003   7.927  15.995  1.00  0.00     0.146 A 
ATOM     11  O   UNL     1      43.393   8.051  17.167  1.00  0.00    -0.451 OA
ENDROOT
BRANCH   1  12
ATOM     12  C   UNL     1      41.812   7.487  18.902  1.00  0.00     0.063 A 
ATOM     13  C   UNL     1      39.881   7.937  20.315  1.00  0.00     0.047 A 
ATOM     14  C   UNL     1      40.439   7.756  19.046  1.00  0.00     0.020 A 
ATOM     15  C   UNL     1      40.685   7.839  21.456  1.00  0.00     0.119 A 
ATOM     16  C   UNL     1      42.046   7.558  21.324  1.00  0.00     0.093 A 
ATOM     17  C   UNL     1      42.616   7.378  20.054  1.00  0.00     0.130 A 
BRANCH  15  18
ATOM     18  O   UNL     1      40.139   8.016  22.726  1.00  0.00    -0.508 OA
ATOM     19  H   UNL     1      40.714   8.284  23.517  1.00  0.00     0.293 HD
ENDBRANCH  15  18
BRANCH  17  20
ATOM     20  O   UNL     1      43.979   7.104  19.938  1.00  0.00    -0.507 OA
ATOM     21  H   UNL     1      44.351   6.177  20.102  1.00  0.00     0.293 HD
ENDBRANCH  17  20
ENDBRANCH   1  12
BRANCH   2  22
ATOM     22  O   UNL     1      40.809   5.495  17.066  1.00  0.00    -0.502 OA
ATOM     23  H   UNL     1      39.858   5.835  17.005  1.00  0.00     0.293 HD
ENDBRANCH   2  22
BRANCH   6  24
ATOM     24  O   UNL     1      44.149   5.770  12.923  1.00  0.00    -0.507 OA
ATOM     25  H   UNL     1      44.887   5.259  12.464  1.00  0.00     0.293 HD
ENDBRANCH   6  24
BRANCH   8  26
ATOM     26  O   UNL     1      46.685   9.660  14.145  1.00  0.00    -0.508 OA
ATOM     27  H   UNL     1      47.345   9.494  13.395  1.00  0.00     0.293 HD
ENDBRANCH   8  26
TORSDOF 6
ENDMDL
MODEL 3
REMARK VINA RESULT:    -6.175     16.371     18.083
REMARK INTER + INTRA:          -7.859
REMARK INTER:                  -7.468
REMARK INTRA:                  -0.391
REMARK UNBOUND:                -0.421
REMARK SMILES O=c1c(O)c(-c2ccc(O)cc2O)oc2cc(O)cc(O)c12
REMARK SMILES IDX 5 1 3 2 2 3 1 4 22 5 20 6 19 7 17 8 16 9 15 10 14 11 6 12
REMARK SMILES IDX 8 13 7 14 9 15 11 16 12 17 10 18 13 20 4 22 21 24 18 26
REMARK H PARENT 10 19 13 21 4 23 21 25 18 27
REMARK Flexibility Score: inf
ROOT
ATOM      1  C   UNL     1      42.951   7.651  17.547  1.00  0.00     0.184 A 
ATOM      2  C   UNL     1      43.825   8.680  17.157  1.00  0.00     0.208 A 
ATOM      3  C   UNL     1      44.345   8.674  15.852  1.00  0.00     0.238 A 
ATOM      4  O   UNL     1      45.171   9.567  15.528  1.00  0.00    -0.285 OA
ATOM      5  C   UNL     1      43.967   7.653  14.948  1.00  0.00     0.111 A 
ATOM      6  C   UNL     1      44.401   7.571  13.590  1.00  0.00     0.134 A 
ATOM      7  C   UNL     1      44.067   6.446  12.826  1.00  0.00     0.093 A 
ATOM      8  C   UNL     1      43.262   5.433  13.349  1.00  0.00     0.123 A 
ATOM      9  C   UNL     1      42.785   5.532  14.654  1.00  0.00     0.094 A 
ATOM     10  C   UNL     1      43.130   6.623  15.454  1.00  0.00     0.146 A 
ATOM     11  O   UNL     1      42.664   6.673  16.696  1.00  0.00    -0.451 OA
ENDROOT
BRANCH   1  12
ATOM     12  C   UNL     1      42.349   7.608  18.899  1.00  0.00     0.063 A 
ATOM     13  C   UNL     1      42.595   7.397  21.312  1.00  0.00     0.047 A 
ATOM     14  C   UNL     1      43.158   7.410  20.033  1.00  0.00     0.020 A 
ATOM     15  C   UNL     1      41.219   7.595  21.477  1.00  0.00     0.119 A 
ATOM     16  C   UNL     1      40.410   7.807  20.358  1.00  0.00     0.093 A 
ATOM     17  C   UNL     1      40.966   7.819  19.070  1.00  0.00     0.130 A 
BRANCH  15  18
ATOM     18  O   UNL     1      40.648   7.585  22.747  1.00  0.00    -0.508 OA
ATOM     19  H   UNL     1      40.703   8.391  23.360  1.00  0.00     0.293 HD
ENDBRANCH  15  18
BRANCH  17  20
ATOM     20  O   UNL     1      40.144   8.025  17.962  1.00  0.00    -0.507 OA
ATOM     21  H   UNL     1      40.385   7.666  17.046  1.00  0.00     0.293 HD
ENDBRANCH  17  20
ENDBRANCH   1  12
BRANCH   2  22
ATOM     22  O   UNL     1      44.194   9.671  18.071  1.00  0.00    -0.502 OA
ATOM     23  H   UNL     1      43.719   9.799  18.956  1.00  0.00     0.293 HD
ENDBRANCH   2  22
BRANCH   6  24
ATOM     24  O   UNL     1      45.132   8.571  12.943  1.00  0.00    -0.507 OA
ATOM     25  H   UNL     1      45.855   9.125  13.374  1.00  0.00     0.293 HD
ENDBRANCH   6  24
BRANCH   8  26
ATOM     26  O   UNL     1      42.920   4.325  12.576  1.00  0.00    -0.508 OA
ATOM     27  H   UNL     1      43.012   3.381  12.933  1.00  0.00     0.293 HD
ENDBRANCH   8  26
TORSDOF 6
ENDMDL
MODEL 4
REMARK VINA RESULT:    -6.089      1.378      2.058
REMARK INTER + INTRA:          -7.756
REMARK INTER:                  -7.277
REMARK INTRA:                  -0.479
REMARK UNBOUND:                -0.421
REMARK SMILES O=c1c(O)c(-c2ccc(O)cc2O)oc2cc(O)cc(O)c12
REMARK SMILES IDX 5 1 3 2 2 3 1 4 22 5 20 6 19 7 17 8 16 9 15 10 14 11 6 12
REMARK SMILES IDX 8 13 7 14 9 15 11 16 12 17 10 18 13 20 4 22 21 24 18 26
REMARK H PARENT 10 19 13 21 4 23 21 25 18 27
REMARK Flexibility Score: inf
ROOT
ATOM      1  C   UNL     1      56.850  -3.054  19.348  1.00  0.00     0.184 A 
ATOM      2  C   UNL     1      56.636  -4.434  19.498  1.00  0.00     0.208 A 
ATOM      3  C   UNL     1      55.789  -4.886  20.523  1.00  0.00     0.238 A 
ATOM      4  O   UNL     1      55.647  -6.125  20.687  1.00  0.00    -0.285 OA
ATOM      5  C   UNL     1      55.151  -3.949  21.372  1.00  0.00     0.111 A 
ATOM      6  C   UNL     1      54.242  -4.292  22.418  1.00  0.00     0.134 A 
ATOM      7  C   UNL     1      53.771  -3.292  23.278  1.00  0.00     0.093 A 
ATOM      8  C   UNL     1      54.124  -1.954  23.089  1.00  0.00     0.123 A 
ATOM      9  C   UNL     1      54.964  -1.602  22.035  1.00  0.00     0.094 A 
ATOM     10  C   UNL     1      55.480  -2.581  21.183  1.00  0.00     0.146 A 
ATOM     11  O   UNL     1      56.287  -2.204  20.198  1.00  0.00    -0.451 OA
ENDROOT
BRANCH   1  12
ATOM     12  C   UNL     1      57.713  -2.510  18.274  1.00  0.00     0.063 A 
ATOM     13  C   UNL     1      58.067  -1.958  15.929  1.00  0.00     0.047 A 
ATOM     14  C   UNL     1      57.266  -2.496  16.940  1.00  0.00     0.020 A 
ATOM     15  C   UNL     1      59.319  -1.414  16.239  1.00  0.00     0.119 A 
ATOM     16  C   UNL     1      59.765  -1.410  17.562  1.00  0.00     0.093 A 
ATOM     17  C   UNL     1      58.969  -1.951  18.583  1.00  0.00     0.130 A 
BRANCH  15  18
ATOM     18  O   UNL     1      60.125  -0.874  15.239  1.00  0.00    -0.508 OA
ATOM     19  H   UNL     1      61.027  -1.276  15.011  1.00  0.00     0.293 HD
ENDBRANCH  15  18
BRANCH  17  20
ATOM     20  O   UNL     1      59.431  -1.946  19.899  1.00  0.00    -0.507 OA
ATOM     21  H   UNL     1      60.366  -1.634  20.133  1.00  0.00     0.293 HD
ENDBRANCH  17  20
ENDBRANCH   1  12
BRANCH   2  22
ATOM     22  O   UNL     1      57.287  -5.341  18.656  1.00  0.00    -0.502 OA
ATOM     23  H   UNL     1      56.852  -6.199  18.340  1.00  0.00     0.293 HD
ENDBRANCH   2  22
BRANCH   6  24
ATOM     24  O   UNL     1      53.754  -5.583  22.636  1.00  0.00    -0.507 OA
ATOM     25  H   UNL     1      54.030  -6.182  23.399  1.00  0.00     0.293 HD
ENDBRANCH   6  24
BRANCH   8  26
ATOM     26  O   UNL     1      53.638  -0.963  23.939  1.00  0.00    -0.508 OA
ATOM     27  H   UNL     1      53.560   0.001  23.639  1.00  0.00     0.293 HD
ENDBRANCH   8  26
TORSDOF 6
ENDMDL
MODEL 5
REMARK VINA RESULT:    -6.084      1.874      6.989
REMARK INTER + INTRA:          -7.749
REMARK INTER:                  -7.274
REMARK INTRA:                  -0.475
REMARK UNBOUND:                -0.421
REMARK SMILES O=c1c(O)c(-c2ccc(O)cc2O)oc2cc(O)cc(O)c12
REMARK SMILES IDX 5 1 3 2 2 3 1 4 22 5 20 6 19 7 17 8 16 9 15 10 14 11 6 12
REMARK SMILES IDX 8 13 7 14 9 15 11 16 12 17 10 18 13 20 4 22 21 24 18 26
REMARK H PARENT 10 19 13 21 4 23 21 25 18 27
REMARK Flexibility Score: inf
ROOT
ATOM      1  C   UNL     1      56.218  -2.755  18.905  1.00  0.00     0.184 A 
ATOM      2  C   UNL     1      57.577  -3.048  18.705  1.00  0.00     0.208 A 
ATOM      3  C   UNL     1      58.150  -2.799  17.447  1.00  0.00     0.238 A 
ATOM      4  O   UNL     1      59.353  -3.117  17.258  1.00  0.00    -0.285 OA
ATOM      5  C   UNL     1      57.361  -2.241  16.412  1.00  0.00     0.111 A 
ATOM      6  C   UNL     1      57.848  -1.910  15.111  1.00  0.00     0.134 A 
ATOM      7  C   UNL     1      56.948  -1.483  14.127  1.00  0.00     0.093 A 
ATOM      8  C   UNL     1      55.593  -1.312  14.415  1.00  0.00     0.123 A 
ATOM      9  C   UNL     1      55.119  -1.575  15.698  1.00  0.00     0.094 A 
ATOM     10  C   UNL     1      55.984  -2.038  16.692  1.00  0.00     0.146 A 
ATOM     11  O   UNL     1      55.489  -2.289  17.897  1.00  0.00    -0.451 OA
ENDROOT
BRANCH   1  12
ATOM     12  C   UNL     1      55.556  -2.971  20.213  1.00  0.00     0.063 A 
ATOM     13  C   UNL     1      55.016  -2.197  22.457  1.00  0.00     0.047 A 
ATOM     14  C   UNL     1      55.662  -2.007  21.232  1.00  0.00     0.020 A 
ATOM     15  C   UNL     1      54.246  -3.345  22.675  1.00  0.00     0.119 A 
ATOM     16  C   UNL     1      54.123  -4.301  21.664  1.00  0.00     0.093 A 
ATOM     17  C   UNL     1      54.771  -4.120  20.432  1.00  0.00     0.130 A 
BRANCH  15  18
ATOM     18  O   UNL     1      53.597  -3.544  23.892  1.00  0.00    -0.508 OA
ATOM     19  H   UNL     1      54.063  -3.990  24.674  1.00  0.00     0.293 HD
ENDBRANCH  15  18
BRANCH  17  20
ATOM     20  O   UNL     1      54.645  -5.087  19.434  1.00  0.00    -0.507 OA
ATOM     21  H   UNL     1      53.881  -5.068  18.769  1.00  0.00     0.293 HD
ENDBRANCH  17  20
ENDBRANCH   1  12
BRANCH   2  22
ATOM     22  O   UNL     1      58.332  -3.611  19.737  1.00  0.00    -0.502 OA
ATOM     23  H   UNL     1      58.274  -4.592  19.981  1.00  0.00     0.293 HD
ENDBRANCH   2  22
BRANCH   6  24
ATOM     24  O   UNL     1      59.196  -1.957  14.747  1.00  0.00    -0.507 OA
ATOM     25  H   UNL     1      59.918  -1.370  15.136  1.00  0.00     0.293 HD
ENDBRANCH   6  24
BRANCH   8  26
ATOM     26  O   UNL     1      54.708  -0.870  13.433  1.00  0.00    -0.508 OA
ATOM     27  H   UNL     1      54.954  -0.888  12.451  1.00  0.00     0.293 HD
ENDBRANCH   8  26
TORSDOF 6
ENDMDL
MODEL 6
REMARK VINA RESULT:    -6.045      1.696      7.261
REMARK INTER + INTRA:          -7.702
REMARK INTER:                  -7.283
REMARK INTRA:                  -0.419
REMARK UNBOUND:                -0.421
REMARK SMILES O=c1c(O)c(-c2ccc(O)cc2O)oc2cc(O)cc(O)c12
REMARK SMILES IDX 5 1 3 2 2 3 1 4 22 5 20 6 19 7 17 8 16 9 15 10 14 11 6 12
REMARK SMILES IDX 8 13 7 14 9 15 11 16 12 17 10 18 13 20 4 22 21 24 18 26
REMARK H PARENT 10 19 13 21 4 23 21 25 18 27
REMARK Flexibility Score: inf
ROOT
ATOM      1  C   UNL     1      56.941  -2.585  19.257  1.00  0.00     0.184 A 
ATOM      2  C   UNL     1      58.204  -1.971  19.318  1.00  0.00     0.208 A 
ATOM      3  C   UNL     1      58.913  -1.751  18.127  1.00  0.00     0.238 A 
ATOM      4  O   UNL     1      60.067  -1.253  18.194  1.00  0.00    -0.285 OA
ATOM      5  C   UNL     1      58.342  -2.127  16.887  1.00  0.00     0.111 A 
ATOM      6  C   UNL     1      58.954  -1.915  15.615  1.00  0.00     0.134 A 
ATOM      7  C   UNL     1      58.356  -2.444  14.465  1.00  0.00     0.093 A 
ATOM      8  C   UNL     1      57.136  -3.121  14.533  1.00  0.00     0.123 A 
ATOM      9  C   UNL     1      56.501  -3.281  15.763  1.00  0.00     0.094 A 
ATOM     10  C   UNL     1      57.091  -2.797  16.933  1.00  0.00     0.146 A 
ATOM     11  O   UNL     1      56.459  -2.982  18.085  1.00  0.00    -0.451 OA
ENDROOT
BRANCH   1  12
ATOM     12  C   UNL     1      56.130  -2.826  20.472  1.00  0.00     0.063 A 
ATOM     13  C   UNL     1      54.866  -1.970  22.369  1.00  0.00     0.047 A 
ATOM     14  C   UNL     1      55.655  -1.745  21.237  1.00  0.00     0.020 A 
ATOM     15  C   UNL     1      54.531  -3.276  22.744  1.00  0.00     0.119 A 
ATOM     16  C   UNL     1      54.987  -4.355  21.983  1.00  0.00     0.093 A 
ATOM     17  C   UNL     1      55.781  -4.139  20.847  1.00  0.00     0.130 A 
BRANCH  15  18
ATOM     18  O   UNL     1      53.745  -3.512  23.870  1.00  0.00    -0.508 OA
ATOM     19  H   UNL     1      53.174  -4.345  23.952  1.00  0.00     0.293 HD
ENDBRANCH  15  18
BRANCH  17  20
ATOM     20  O   UNL     1      56.235  -5.227  20.101  1.00  0.00    -0.507 OA
ATOM     21  H   UNL     1      56.931  -5.120  19.373  1.00  0.00     0.293 HD
ENDBRANCH  17  20
ENDBRANCH   1  12
BRANCH   2  22
ATOM     22  O   UNL     1      58.753  -1.620  20.555  1.00  0.00    -0.502 OA
ATOM     23  H   UNL     1      58.193  -1.525  21.392  1.00  0.00     0.293 HD
ENDBRANCH   2  22
BRANCH   6  24
ATOM     24  O   UNL     1      60.124  -1.175  15.425  1.00  0.00    -0.507 OA
ATOM     25  H   UNL     1      60.490  -0.898  14.527  1.00  0.00     0.293 HD
ENDBRANCH   6  24
BRANCH   8  26
ATOM     26  O   UNL     1      56.539  -3.630  13.381  1.00  0.00    -0.508 OA
ATOM     27  H   UNL     1      56.950  -3.490  12.466  1.00  0.00     0.293 HD
ENDBRANCH   8  26
TORSDOF 6
ENDMDL
MODEL 7
REMARK VINA RESULT:    -5.981     15.537     17.482
REMARK INTER + INTRA:          -7.625
REMARK INTER:                  -7.403
REMARK INTRA:                  -0.222
REMARK UNBOUND:                -0.421
REMARK SMILES O=c1c(O)c(-c2ccc(O)cc2O)oc2cc(O)cc(O)c12
REMARK SMILES IDX 5 1 3 2 2 3 1 4 22 5 20 6 19 7 17 8 16 9 15 10 14 11 6 12
REMARK SMILES IDX 8 13 7 14 9 15 11 16 12 17 10 18 13 20 4 22 21 24 18 26
REMARK H PARENT 10 19 13 21 4 23 21 25 18 27
REMARK Flexibility Score: inf
ROOT
ATOM      1  C   UNL     1      43.406   7.122  15.855  1.00  0.00     0.184 A 
ATOM      2  C   UNL     1      43.270   6.019  14.995  1.00  0.00     0.208 A 
ATOM      3  C   UNL     1      44.189   5.855  13.946  1.00  0.00     0.238 A 
ATOM      4  O   UNL     1      44.028   4.897  13.147  1.00  0.00    -0.285 OA
ATOM      5  C   UNL     1      45.245   6.784  13.783  1.00  0.00     0.111 A 
ATOM      6  C   UNL     1      46.257   6.694  12.780  1.00  0.00     0.134 A 
ATOM      7  C   UNL     1      47.177   7.739  12.632  1.00  0.00     0.093 A 
ATOM      8  C   UNL     1      47.162   8.839  13.492  1.00  0.00     0.123 A 
ATOM      9  C   UNL     1      46.216   8.908  14.511  1.00  0.00     0.094 A 
ATOM     10  C   UNL     1      45.261   7.899  14.662  1.00  0.00     0.146 A 
ATOM     11  O   UNL     1      44.370   8.010  15.639  1.00  0.00    -0.451 OA
ENDROOT
BRANCH   1  12
ATOM     12  C   UNL     1      42.486   7.343  16.994  1.00  0.00     0.063 A 
ATOM     13  C   UNL     1      40.223   7.498  17.879  1.00  0.00     0.047 A 
ATOM     14  C   UNL     1      41.093   7.318  16.800  1.00  0.00     0.020 A 
ATOM     15  C   UNL     1      40.733   7.693  19.168  1.00  0.00     0.119 A 
ATOM     16  C   UNL     1      42.115   7.705  19.373  1.00  0.00     0.093 A 
ATOM     17  C   UNL     1      42.995   7.528  18.295  1.00  0.00     0.130 A 
BRANCH  15  18
ATOM     18  O   UNL     1      39.875   7.873  20.251  1.00  0.00    -0.508 OA
ATOM     19  H   UNL     1      39.548   7.089  20.804  1.00  0.00     0.293 HD
ENDBRANCH  15  18
BRANCH  17  20
ATOM     20  O   UNL     1      44.373   7.549  18.515  1.00  0.00    -0.507 OA
ATOM     21  H   UNL     1      44.905   6.697  18.639  1.00  0.00     0.293 HD
ENDBRANCH  17  20
ENDBRANCH   1  12
BRANCH   2  22
ATOM     22  O   UNL     1      42.213   5.122  15.168  1.00  0.00    -0.502 OA
ATOM     23  H   UNL     1      41.977   4.726  16.069  1.00  0.00     0.293 HD
ENDBRANCH   2  22
BRANCH   6  24
ATOM     24  O   UNL     1      46.417   5.597  11.929  1.00  0.00    -0.507 OA
ATOM     25  H   UNL     1      46.235   5.607  10.937  1.00  0.00     0.293 HD
ENDBRANCH   6  24
BRANCH   8  26
ATOM     26  O   UNL     1      48.092   9.867  13.348  1.00  0.00    -0.508 OA
ATOM     27  H   UNL     1      47.943  10.778  13.766  1.00  0.00     0.293 HD
ENDBRANCH   8  26
TORSDOF 6
ENDMDL
MODEL 8
REMARK VINA RESULT:    -5.833     16.640     18.534
REMARK INTER + INTRA:          -7.447
REMARK INTER:                  -7.119
REMARK INTRA:                  -0.328
REMARK UNBOUND:                -0.421
REMARK SMILES O=c1c(O)c(-c2ccc(O)cc2O)oc2cc(O)cc(O)c12
REMARK SMILES IDX 5 1 3 2 2 3 1 4 22 5 20 6 19 7 17 8 16 9 15 10 14 11 6 12
REMARK SMILES IDX 8 13 7 14 9 15 11 16 12 17 10 18 13 20 4 22 21 24 18 26
REMARK H PARENT 10 19 13 21 4 23 21 25 18 27
REMARK Flexibility Score: inf
ROOT
ATOM      1  C   UNL     1      41.718   7.076  17.225  1.00  0.00     0.184 A 
ATOM      2  C   UNL     1      42.292   8.037  16.376  1.00  0.00     0.208 A 
ATOM      3  C   UNL     1      42.499   7.716  15.025  1.00  0.00     0.238 A 
ATOM      4  O   UNL     1      43.065   8.561  14.283  1.00  0.00    -0.285 OA
ATOM      5  C   UNL     1      42.109   6.446  14.535  1.00  0.00     0.111 A 
ATOM      6  C   UNL     1      42.234   6.028  13.175  1.00  0.00     0.134 A 
ATOM      7  C   UNL     1      41.935   4.705  12.830  1.00  0.00     0.093 A 
ATOM      8  C   UNL     1      41.454   3.803  13.782  1.00  0.00     0.123 A 
ATOM      9  C   UNL     1      41.272   4.218  15.099  1.00  0.00     0.094 A 
ATOM     10  C   UNL     1      41.596   5.522  15.482  1.00  0.00     0.146 A 
ATOM     11  O   UNL     1      41.419   5.873  16.750  1.00  0.00    -0.451 OA
ENDROOT
BRANCH   1  12
ATOM     12  C   UNL     1      41.451   7.357  18.654  1.00  0.00     0.063 A 
ATOM     13  C   UNL     1      39.875   7.726  20.473  1.00  0.00     0.047 A 
ATOM     14  C   UNL     1      40.130   7.489  19.120  1.00  0.00     0.020 A 
ATOM     15  C   UNL     1      40.936   7.822  21.382  1.00  0.00     0.119 A 
ATOM     16  C   UNL     1      42.250   7.677  20.932  1.00  0.00     0.093 A 
ATOM     17  C   UNL     1      42.515   7.442  19.574  1.00  0.00     0.130 A 
BRANCH  15  18
ATOM     18  O   UNL     1      40.693   8.057  22.733  1.00  0.00    -0.508 OA
ATOM     19  H   UNL     1      39.891   7.655  23.205  1.00  0.00     0.293 HD
ENDBRANCH  15  18
BRANCH  17  20
ATOM     20  O   UNL     1      43.834   7.307  19.139  1.00  0.00    -0.507 OA
ATOM     21  H   UNL     1      44.570   7.913  19.478  1.00  0.00     0.293 HD
ENDBRANCH  17  20
ENDBRANCH   1  12
BRANCH   2  22
ATOM     22  O   UNL     1      42.681   9.279  16.885  1.00  0.00    -0.502 OA
ATOM     23  H   UNL     1      42.817   9.443  17.874  1.00  0.00     0.293 HD
ENDBRANCH   2  22
BRANCH   6  24
ATOM     24  O   UNL     1      42.619   6.874  12.131  1.00  0.00    -0.507 OA
ATOM     25  H   UNL     1      42.966   7.814  12.250  1.00  0.00     0.293 HD
ENDBRANCH   6  24
BRANCH   8  26
ATOM     26  O   UNL     1      41.143   2.492  13.426  1.00  0.00    -0.508 OA
ATOM     27  H   UNL     1      41.484   2.083  12.564  1.00  0.00     0.293 HD
ENDBRANCH   8  26
TORSDOF 6
ENDMDL
MODEL 9
REMARK VINA RESULT:    -5.693     14.802     17.402
REMARK INTER + INTRA:          -7.279
REMARK INTER:                  -6.942
REMARK INTRA:                  -0.337
REMARK UNBOUND:                -0.421
REMARK SMILES O=c1c(O)c(-c2ccc(O)cc2O)oc2cc(O)cc(O)c12
REMARK SMILES IDX 5 1 3 2 2 3 1 4 22 5 20 6 19 7 17 8 16 9 15 10 14 11 6 12
REMARK SMILES IDX 8 13 7 14 9 15 11 16 12 17 10 18 13 20 4 22 21 24 18 26
REMARK H PARENT 10 19 13 21 4 23 21 25 18 27
REMARK Flexibility Score: inf
ROOT
ATOM      1  C   UNL     1      44.308   7.654  15.844  1.00  0.00     0.184 A 
ATOM      2  C   UNL     1      44.980   8.859  15.575  1.00  0.00     0.208 A 
ATOM      3  C   UNL     1      45.930   8.894  14.542  1.00  0.00     0.238 A 
ATOM      4  O   UNL     1      46.568   9.960  14.344  1.00  0.00    -0.285 OA
ATOM      5  C   UNL     1      46.181   7.729  13.777  1.00  0.00     0.111 A 
ATOM      6  C   UNL     1      47.093   7.661  12.680  1.00  0.00     0.134 A 
ATOM      7  C   UNL     1      47.358   6.424  12.079  1.00  0.00     0.093 A 
ATOM      8  C   UNL     1      46.694   5.266  12.491  1.00  0.00     0.123 A 
ATOM      9  C   UNL     1      45.759   5.334  13.520  1.00  0.00     0.094 A 
ATOM     10  C   UNL     1      45.500   6.546  14.165  1.00  0.00     0.146 A 
ATOM     11  O   UNL     1      44.610   6.563  15.149  1.00  0.00    -0.451 OA
ENDROOT
BRANCH   1  12
ATOM     12  C   UNL     1      43.278   7.553  16.903  1.00  0.00     0.063 A 
ATOM     13  C   UNL     1      42.628   7.763  19.240  1.00  0.00     0.047 A 
ATOM     14  C   UNL     1      43.605   7.831  18.243  1.00  0.00     0.020 A 
ATOM     15  C   UNL     1      41.310   7.429  18.910  1.00  0.00     0.119 A 
ATOM     16  C   UNL     1      40.972   7.166  17.581  1.00  0.00     0.093 A 
ATOM     17  C   UNL     1      41.947   7.229  16.574  1.00  0.00     0.130 A 
BRANCH  15  18
ATOM     18  O   UNL     1      40.327   7.360  19.896  1.00  0.00    -0.508 OA
ATOM     19  H   UNL     1      39.358   7.578  19.694  1.00  0.00     0.293 HD
ENDBRANCH  15  18
BRANCH  17  20
ATOM     20  O   UNL     1      41.596   6.956  15.251  1.00  0.00    -0.507 OA
ATOM     21  H   UNL     1      42.191   7.225  14.477  1.00  0.00     0.293 HD
ENDBRANCH  17  20
ENDBRANCH   1  12
BRANCH   2  22
ATOM     22  O   UNL     1      44.724   9.992  16.352  1.00  0.00    -0.502 OA
ATOM     23  H   UNL     1      43.786  10.298  16.576  1.00  0.00     0.293 HD
ENDBRANCH   2  22
BRANCH   6  24
ATOM     24  O   UNL     1      47.739   8.772  12.132  1.00  0.00    -0.507 OA
ATOM     25  H   UNL     1      48.715   8.804  11.880  1.00  0.00     0.293 HD
ENDBRANCH   6  24
BRANCH   8  26
ATOM     26  O   UNL     1      46.951   4.043  11.875  1.00  0.00    -0.508 OA
ATOM     27  H   UNL     1      47.170   3.983  10.888  1.00  0.00     0.293 HD
ENDBRANCH   8  26
TORSDOF 6
ENDMDL
