MODEL 1
REMARK VINA RESULT:    -0.751      0.000      0.000
REMARK INTER + INTRA:          -3.140
REMARK INTER:                  -1.893
REMARK INTRA:                  -1.247
REMARK UNBOUND:                -1.247
REMARK SMILES CCCCCCCCCCCCCCCCCCCCCCCCCCCC(=O)[O-]
REMARK SMILES IDX 15 1 16 2 17 3 18 4 19 5 20 6 21 7 22 8 23 9 24 10 25 11
REMARK SMILES IDX 26 12 27 13 28 14 29 15 30 16 14 17 13 18 12 19 11 20 10 21
REMARK SMILES IDX 9 22 8 23 7 24 6 25 5 26 4 27 3 28 2 29 1 30
REMARK H PARENT
REMARK Flexibility Score: inf
ROOT
ATOM      1  C   UNL     1      -3.031 -21.664  16.211  1.00  0.00     0.000 C 
ENDROOT
BRANCH   1   2
ATOM      2  C   UNL     1      -2.310 -22.895  15.635  1.00  0.00     0.000 C 
BRANCH   2   3
ATOM      3  C   UNL     1      -0.921 -23.125  16.259  1.00  0.00     0.000 C 
BRANCH   3   4
ATOM      4  C   UNL     1       0.277 -22.676  15.403  1.00  0.00     0.000 C 
BRANCH   4   5
ATOM      5  C   UNL     1       1.633 -23.120  15.974  1.00  0.00     0.000 C 
BRANCH   5   6
ATOM      6  C   UNL     1       2.804 -22.829  15.019  1.00  0.00     0.000 C 
BRANCH   6   7
ATOM      7  C   UNL     1       4.195 -23.034  15.657  1.00  0.00     0.000 C 
BRANCH   7   8
ATOM      8  C   UNL     1       4.468 -22.026  16.787  1.00  0.00     0.000 C 
BRANCH   8   9
ATOM      9  C   UNL     1       5.803 -22.293  17.503  1.00  0.00     0.000 C 
BRANCH   9  10
ATOM     10  C   UNL     1       6.866 -21.232  17.169  1.00  0.00     0.000 C 
BRANCH  10  11
ATOM     11  C   UNL     1       8.297 -21.799  17.151  1.00  0.00     0.000 C 
BRANCH  11  12
ATOM     12  C   UNL     1       8.851 -22.131  15.753  1.00  0.00     0.006 C 
BRANCH  12  13
ATOM     13  C   UNL     1       8.701 -20.974  14.755  1.00  0.00     0.053 C 
BRANCH  13  14
ATOM     14  C   UNL     1       8.295 -21.469  13.400  1.00  0.00     0.041 C 
ATOM     15  O   UNL     1       8.286 -22.702  13.148  1.00  0.00    -0.550 OA
ATOM     16  O   UNL     1       7.993 -20.560  12.392  1.00  0.00    -0.550 OA
ENDBRANCH  13  14
ENDBRANCH  12  13
ENDBRANCH  11  12
ENDBRANCH  10  11
ENDBRANCH   9  10
ENDBRANCH   8   9
ENDBRANCH   7   8
ENDBRANCH   6   7
ENDBRANCH   5   6
ENDBRANCH   4   5
ENDBRANCH   3   4
ENDBRANCH   2   3
ENDBRANCH   1   2
BRANCH   1  17
ATOM     17  C   UNL     1      -4.162 -21.157  15.297  1.00  0.00     0.000 C 
BRANCH  17  18
ATOM     18  C   UNL     1      -5.590 -21.487  15.777  1.00  0.00     0.000 C 
BRANCH  18  19
ATOM     19  C   UNL     1      -5.742 -22.837  16.506  1.00  0.00     0.000 C 
BRANCH  19  20
ATOM     20  C   UNL     1      -5.916 -22.737  18.034  1.00  0.00     0.000 C 
BRANCH  20  21
ATOM     21  C   UNL     1      -7.378 -22.659  18.516  1.00  0.00     0.000 C 
BRANCH  21  22
ATOM     22  C   UNL     1      -8.434 -22.741  17.397  1.00  0.00    -0.000 C 
BRANCH  22  23
ATOM     23  C   UNL     1      -8.931 -21.381  16.868  1.00  0.00    -0.000 C 
BRANCH  23  24
ATOM     24  C   UNL     1     -10.439 -21.128  17.048  1.00  0.00    -0.000 C 
BRANCH  24  25
ATOM     25  C   UNL     1     -10.965 -21.587  18.419  1.00  0.00    -0.000 C 
BRANCH  25  26
ATOM     26  C   UNL     1     -10.537 -20.654  19.562  1.00  0.00    -0.000 C 
BRANCH  26  27
ATOM     27  C   UNL     1     -11.125 -21.069  20.919  1.00  0.00    -0.000 C 
BRANCH  27  28
ATOM     28  C   UNL     1     -10.017 -21.454  21.905  1.00  0.00    -0.000 C 
BRANCH  28  29
ATOM     29  C   UNL     1      -8.959 -22.333  21.227  1.00  0.00    -0.003 C 
ATOM     30  C   UNL     1      -8.082 -23.037  22.258  1.00  0.00     0.004 C 
ENDBRANCH  28  29
ENDBRANCH  27  28
ENDBRANCH  26  27
ENDBRANCH  25  26
ENDBRANCH  24  25
ENDBRANCH  23  24
ENDBRANCH  22  23
ENDBRANCH  21  22
ENDBRANCH  20  21
ENDBRANCH  19  20
ENDBRANCH  18  19
ENDBRANCH  17  18
ENDBRANCH   1  17
TORSDOF 26
ENDMDL
MODEL 2
REMARK VINA RESULT:    -0.601      1.919      3.784
REMARK INTER + INTRA:          -2.762
REMARK INTER:                  -1.165
REMARK INTRA:                  -1.597
REMARK UNBOUND:                -1.247
REMARK SMILES CCCCCCCCCCCCCCCCCCCCCCCCCCCC(=O)[O-]
REMARK SMILES IDX 15 1 16 2 17 3 18 4 19 5 20 6 21 7 22 8 23 9 24 10 25 11
REMARK SMILES IDX 26 12 27 13 28 14 29 15 30 16 14 17 13 18 12 19 11 20 10 21
REMARK SMILES IDX 9 22 8 23 7 24 6 25 5 26 4 27 3 28 2 29 1 30
REMARK H PARENT
REMARK Flexibility Score: inf
ROOT
ATOM      1  C   UNL     1      -0.479 -23.075  16.349  1.00  0.00     0.000 C 
ENDROOT
BRANCH   1   2
ATOM      2  C   UNL     1       0.649 -22.718  15.366  1.00  0.00     0.000 C 
BRANCH   2   3
ATOM      3  C   UNL     1       2.053 -22.853  15.985  1.00  0.00     0.000 C 
BRANCH   3   4
ATOM      4  C   UNL     1       3.196 -23.124  14.990  1.00  0.00     0.000 C 
BRANCH   4   5
ATOM      5  C   UNL     1       2.791 -22.898  13.524  1.00  0.00     0.000 C 
BRANCH   5   6
ATOM      6  C   UNL     1       3.957 -23.122  12.545  1.00  0.00     0.000 C 
BRANCH   6   7
ATOM      7  C   UNL     1       5.335 -22.716  13.112  1.00  0.00     0.000 C 
BRANCH   7   8
ATOM      8  C   UNL     1       6.485 -23.082  12.158  1.00  0.00     0.000 C 
BRANCH   8   9
ATOM      9  C   UNL     1       7.697 -22.148  12.314  1.00  0.00     0.000 C 
BRANCH   9  10
ATOM     10  C   UNL     1       8.916 -22.870  12.912  1.00  0.00     0.000 C 
BRANCH  10  11
ATOM     11  C   UNL     1       8.815 -23.061  14.437  1.00  0.00     0.000 C 
BRANCH  11  12
ATOM     12  C   UNL     1       7.884 -22.071  15.160  1.00  0.00     0.006 C 
BRANCH  12  13
ATOM     13  C   UNL     1       6.939 -22.754  16.160  1.00  0.00     0.053 C 
BRANCH  13  14
ATOM     14  C   UNL     1       6.858 -21.989  17.446  1.00  0.00     0.041 C 
ATOM     15  O   UNL     1       5.773 -21.927  18.084  1.00  0.00    -0.550 OA
ATOM     16  O   UNL     1       7.965 -21.285  17.906  1.00  0.00    -0.550 OA
ENDBRANCH  13  14
ENDBRANCH  12  13
ENDBRANCH  11  12
ENDBRANCH  10  11
ENDBRANCH   9  10
ENDBRANCH   8   9
ENDBRANCH   7   8
ENDBRANCH   6   7
ENDBRANCH   5   6
ENDBRANCH   4   5
ENDBRANCH   3   4
ENDBRANCH   2   3
ENDBRANCH   1   2
BRANCH   1  17
ATOM     17  C   UNL     1      -1.868 -23.073  15.686  1.00  0.00     0.000 C 
BRANCH  17  18
ATOM     18  C   UNL     1      -2.843 -22.000  16.211  1.00  0.00     0.000 C 
BRANCH  18  19
ATOM     19  C   UNL     1      -4.261 -22.049  15.610  1.00  0.00     0.000 C 
BRANCH  19  20
ATOM     20  C   UNL     1      -5.186 -23.125  16.211  1.00  0.00     0.000 C 
BRANCH  20  21
ATOM     21  C   UNL     1      -6.600 -22.633  16.577  1.00  0.00     0.000 C 
BRANCH  21  22
ATOM     22  C   UNL     1      -6.787 -22.242  18.056  1.00  0.00    -0.000 C 
BRANCH  22  23
ATOM     23  C   UNL     1      -8.055 -22.809  18.726  1.00  0.00    -0.000 C 
BRANCH  23  24
ATOM     24  C   UNL     1      -8.501 -22.066  19.998  1.00  0.00    -0.000 C 
BRANCH  24  25
ATOM     25  C   UNL     1      -9.602 -21.025  19.730  1.00  0.00    -0.000 C 
BRANCH  25  26
ATOM     26  C   UNL     1     -10.906 -21.658  19.221  1.00  0.00    -0.000 C 
BRANCH  26  27
ATOM     27  C   UNL     1     -11.125 -21.437  17.716  1.00  0.00    -0.000 C 
BRANCH  27  28
ATOM     28  C   UNL     1     -10.400 -20.176  17.233  1.00  0.00    -0.000 C 
BRANCH  28  29
ATOM     29  C   UNL     1     -10.542 -20.008  15.716  1.00  0.00    -0.003 C 
ATOM     30  C   UNL     1      -9.473 -20.801  14.970  1.00  0.00     0.004 C 
ENDBRANCH  28  29
ENDBRANCH  27  28
ENDBRANCH  26  27
ENDBRANCH  25  26
ENDBRANCH  24  25
ENDBRANCH  23  24
ENDBRANCH  22  23
ENDBRANCH  21  22
ENDBRANCH  20  21
ENDBRANCH  19  20
ENDBRANCH  18  19
ENDBRANCH  17  18
ENDBRANCH   1  17
TORSDOF 26
ENDMDL
MODEL 3
REMARK VINA RESULT:    -0.514      1.943      3.240
REMARK INTER + INTRA:          -2.541
REMARK INTER:                  -1.166
REMARK INTRA:                  -1.375
REMARK UNBOUND:                -1.247
REMARK SMILES CCCCCCCCCCCCCCCCCCCCCCCCCCCC(=O)[O-]
REMARK SMILES IDX 15 1 16 2 17 3 18 4 19 5 20 6 21 7 22 8 23 9 24 10 25 11
REMARK SMILES IDX 26 12 27 13 28 14 29 15 30 16 14 17 13 18 12 19 11 20 10 21
REMARK SMILES IDX 9 22 8 23 7 24 6 25 5 26 4 27 3 28 2 29 1 30
REMARK H PARENT
REMARK Flexibility Score: inf
ROOT
ATOM      1  C   UNL     1      -0.497 -23.064  16.344  1.00  0.00     0.000 C 
ENDROOT
BRANCH   1   2
ATOM      2  C   UNL     1       0.633 -22.691  15.369  1.00  0.00     0.000 C 
BRANCH   2   3
ATOM      3  C   UNL     1       2.036 -22.848  15.984  1.00  0.00     0.000 C 
BRANCH   3   4
ATOM      4  C   UNL     1       3.175 -23.115  14.984  1.00  0.00     0.000 C 
BRANCH   4   5
ATOM      5  C   UNL     1       2.771 -22.864  13.522  1.00  0.00     0.000 C 
BRANCH   5   6
ATOM      6  C   UNL     1       3.922 -23.125  12.534  1.00  0.00     0.000 C 
BRANCH   6   7
ATOM      7  C   UNL     1       5.316 -22.765  13.092  1.00  0.00     0.000 C 
BRANCH   7   8
ATOM      8  C   UNL     1       6.433 -23.002  12.060  1.00  0.00     0.000 C 
BRANCH   8   9
ATOM      9  C   UNL     1       7.583 -21.991  12.195  1.00  0.00     0.000 C 
BRANCH   9  10
ATOM     10  C   UNL     1       8.881 -22.646  12.695  1.00  0.00     0.000 C 
BRANCH  10  11
ATOM     11  C   UNL     1       8.898 -22.862  14.219  1.00  0.00     0.000 C 
BRANCH  11  12
ATOM     12  C   UNL     1       7.946 -21.955  15.020  1.00  0.00     0.006 C 
BRANCH  12  13
ATOM     13  C   UNL     1       7.030 -22.736  15.973  1.00  0.00     0.053 C 
BRANCH  13  14
ATOM     14  C   UNL     1       6.708 -21.937  17.200  1.00  0.00     0.041 C 
ATOM     15  O   UNL     1       7.571 -21.175  17.710  1.00  0.00    -0.550 OA
ATOM     16  O   UNL     1       5.473 -22.087  17.821  1.00  0.00    -0.550 OA
ENDBRANCH  13  14
ENDBRANCH  12  13
ENDBRANCH  11  12
ENDBRANCH  10  11
ENDBRANCH   9  10
ENDBRANCH   8   9
ENDBRANCH   7   8
ENDBRANCH   6   7
ENDBRANCH   5   6
ENDBRANCH   4   5
ENDBRANCH   3   4
ENDBRANCH   2   3
ENDBRANCH   1   2
BRANCH   1  17
ATOM     17  C   UNL     1      -1.887 -23.034  15.683  1.00  0.00     0.000 C 
BRANCH  17  18
ATOM     18  C   UNL     1      -2.864 -21.991  16.261  1.00  0.00     0.000 C 
BRANCH  18  19
ATOM     19  C   UNL     1      -4.262 -21.970  15.613  1.00  0.00     0.000 C 
BRANCH  19  20
ATOM     20  C   UNL     1      -5.206 -23.102  16.062  1.00  0.00     0.000 C 
BRANCH  20  21
ATOM     21  C   UNL     1      -6.652 -22.660  16.361  1.00  0.00     0.000 C 
BRANCH  21  22
ATOM     22  C   UNL     1      -6.960 -22.425  17.852  1.00  0.00    -0.000 C 
BRANCH  22  23
ATOM     23  C   UNL     1      -8.267 -23.068  18.358  1.00  0.00    -0.000 C 
BRANCH  23  24
ATOM     24  C   UNL     1      -8.589 -22.799  19.840  1.00  0.00    -0.000 C 
BRANCH  24  25
ATOM     25  C   UNL     1      -9.746 -21.803  20.031  1.00  0.00    -0.000 C 
BRANCH  25  26
ATOM     26  C   UNL     1      -9.306 -20.510  20.735  1.00  0.00    -0.000 C 
BRANCH  26  27
ATOM     27  C   UNL     1      -9.718 -20.471  22.215  1.00  0.00    -0.000 C 
BRANCH  27  28
ATOM     28  C   UNL     1     -10.676 -21.619  22.550  1.00  0.00    -0.000 C 
BRANCH  28  29
ATOM     29  C   UNL     1     -10.186 -22.404  23.773  1.00  0.00    -0.003 C 
ATOM     30  C   UNL     1      -8.681 -22.643  23.709  1.00  0.00     0.004 C 
ENDBRANCH  28  29
ENDBRANCH  27  28
ENDBRANCH  26  27
ENDBRANCH  25  26
ENDBRANCH  24  25
ENDBRANCH  23  24
ENDBRANCH  22  23
ENDBRANCH  21  22
ENDBRANCH  20  21
ENDBRANCH  19  20
ENDBRANCH  18  19
ENDBRANCH  17  18
ENDBRANCH   1  17
TORSDOF 26
ENDMDL
MODEL 4
REMARK VINA RESULT:     0.262      2.022      3.478
REMARK INTER + INTRA:          -0.585
REMARK INTER:                   0.859
REMARK INTRA:                  -1.444
REMARK UNBOUND:                -1.247
REMARK SMILES CCCCCCCCCCCCCCCCCCCCCCCCCCCC(=O)[O-]
REMARK SMILES IDX 15 1 16 2 17 3 18 4 19 5 20 6 21 7 22 8 23 9 24 10 25 11
REMARK SMILES IDX 26 12 27 13 28 14 29 15 30 16 14 17 13 18 12 19 11 20 10 21
REMARK SMILES IDX 9 22 8 23 7 24 6 25 5 26 4 27 3 28 2 29 1 30
REMARK H PARENT
REMARK Flexibility Score: inf
ROOT
ATOM      1  C   UNL     1      -0.375 -23.000  16.384  1.00  0.00     0.000 C 
ENDROOT
BRANCH   1   2
ATOM      2  C   UNL     1       0.680 -22.698  15.306  1.00  0.00     0.000 C 
BRANCH   2   3
ATOM      3  C   UNL     1       2.119 -22.705  15.853  1.00  0.00     0.000 C 
BRANCH   3   4
ATOM      4  C   UNL     1       3.217 -23.061  14.834  1.00  0.00     0.000 C 
BRANCH   4   5
ATOM      5  C   UNL     1       2.829 -22.732  13.384  1.00  0.00     0.000 C 
BRANCH   5   6
ATOM      6  C   UNL     1       3.949 -23.059  12.380  1.00  0.00     0.000 C 
BRANCH   6   7
ATOM      7  C   UNL     1       5.331 -22.503  12.786  1.00  0.00     0.000 C 
BRANCH   7   8
ATOM      8  C   UNL     1       6.471 -23.125  11.961  1.00  0.00     0.000 C 
BRANCH   8   9
ATOM      9  C   UNL     1       7.775 -22.316  12.058  1.00  0.00     0.000 C 
BRANCH   9  10
ATOM     10  C   UNL     1       8.709 -22.843  13.160  1.00  0.00     0.000 C 
BRANCH  10  11
ATOM     11  C   UNL     1       8.452 -22.190  14.530  1.00  0.00     0.000 C 
BRANCH  11  12
ATOM     12  C   UNL     1       7.785 -23.103  15.575  1.00  0.00     0.006 C 
BRANCH  12  13
ATOM     13  C   UNL     1       8.008 -22.629  17.019  1.00  0.00     0.053 C 
BRANCH  13  14
ATOM     14  C   UNL     1       6.781 -21.975  17.577  1.00  0.00     0.041 C 
ATOM     15  O   UNL     1       6.681 -21.754  18.813  1.00  0.00    -0.550 OA
ATOM     16  O   UNL     1       5.713 -21.673  16.738  1.00  0.00    -0.550 OA
ENDBRANCH  13  14
ENDBRANCH  12  13
ENDBRANCH  11  12
ENDBRANCH  10  11
ENDBRANCH   9  10
ENDBRANCH   8   9
ENDBRANCH   7   8
ENDBRANCH   6   7
ENDBRANCH   5   6
ENDBRANCH   4   5
ENDBRANCH   3   4
ENDBRANCH   2   3
ENDBRANCH   1   2
BRANCH   1  17
ATOM     17  C   UNL     1      -1.807 -23.041  15.819  1.00  0.00     0.000 C 
BRANCH  17  18
ATOM     18  C   UNL     1      -2.605 -21.729  15.965  1.00  0.00     0.000 C 
BRANCH  18  19
ATOM     19  C   UNL     1      -4.096 -21.822  15.588  1.00  0.00     0.000 C 
BRANCH  19  20
ATOM     20  C   UNL     1      -4.988 -22.533  16.625  1.00  0.00     0.000 C 
BRANCH  20  21
ATOM     21  C   UNL     1      -6.425 -21.986  16.728  1.00  0.00     0.000 C 
BRANCH  21  22
ATOM     22  C   UNL     1      -7.125 -21.748  15.377  1.00  0.00    -0.000 C 
BRANCH  22  23
ATOM     23  C   UNL     1      -8.068 -20.528  15.336  1.00  0.00    -0.000 C 
BRANCH  23  24
ATOM     24  C   UNL     1      -9.281 -20.679  14.399  1.00  0.00    -0.000 C 
BRANCH  24  25
ATOM     25  C   UNL     1     -10.516 -21.263  15.107  1.00  0.00    -0.000 C 
BRANCH  25  26
ATOM     26  C   UNL     1     -11.063 -20.338  16.205  1.00  0.00    -0.000 C 
BRANCH  26  27
ATOM     27  C   UNL     1     -10.635 -20.773  17.615  1.00  0.00    -0.000 C 
BRANCH  27  28
ATOM     28  C   UNL     1     -10.945 -19.683  18.646  1.00  0.00    -0.000 C 
BRANCH  28  29
ATOM     29  C   UNL     1     -10.506 -20.113  20.050  1.00  0.00    -0.003 C 
ATOM     30  C   UNL     1      -9.447 -21.210  19.986  1.00  0.00     0.004 C 
ENDBRANCH  28  29
ENDBRANCH  27  28
ENDBRANCH  26  27
ENDBRANCH  25  26
ENDBRANCH  24  25
ENDBRANCH  23  24
ENDBRANCH  22  23
ENDBRANCH  21  22
ENDBRANCH  20  21
ENDBRANCH  19  20
ENDBRANCH  18  19
ENDBRANCH  17  18
ENDBRANCH   1  17
TORSDOF 26
ENDMDL
MODEL 5
REMARK VINA RESULT:     0.277      5.458     15.135
REMARK INTER + INTRA:          -0.549
REMARK INTER:                   0.813
REMARK INTRA:                  -1.362
REMARK UNBOUND:                -1.247
REMARK SMILES CCCCCCCCCCCCCCCCCCCCCCCCCCCC(=O)[O-]
REMARK SMILES IDX 15 1 16 2 17 3 18 4 19 5 20 6 21 7 22 8 23 9 24 10 25 11
REMARK SMILES IDX 26 12 27 13 28 14 29 15 30 16 14 17 13 18 12 19 11 20 10 21
REMARK SMILES IDX 9 22 8 23 7 24 6 25 5 26 4 27 3 28 2 29 1 30
REMARK H PARENT
REMARK Flexibility Score: inf
ROOT
ATOM      1  C   UNL     1      -2.003 -21.968  15.569  1.00  0.00     0.000 C 
ENDROOT
BRANCH   1   2
ATOM      2  C   UNL     1      -3.239 -22.735  16.067  1.00  0.00     0.000 C 
BRANCH   2   3
ATOM      3  C   UNL     1      -4.084 -21.931  17.073  1.00  0.00     0.000 C 
BRANCH   3   4
ATOM      4  C   UNL     1      -4.222 -22.554  18.474  1.00  0.00     0.000 C 
BRANCH   4   5
ATOM      5  C   UNL     1      -5.623 -23.125  18.748  1.00  0.00     0.000 C 
BRANCH   5   6
ATOM      6  C   UNL     1      -6.521 -23.124  17.498  1.00  0.00     0.000 C 
BRANCH   6   7
ATOM      7  C   UNL     1      -7.989 -22.740  17.785  1.00  0.00     0.000 C 
BRANCH   7   8
ATOM      8  C   UNL     1      -8.585 -21.856  16.676  1.00  0.00     0.000 C 
BRANCH   8   9
ATOM      9  C   UNL     1     -10.103 -21.669  16.825  1.00  0.00     0.000 C 
BRANCH   9  10
ATOM     10  C   UNL     1     -10.510 -20.186  16.838  1.00  0.00     0.000 C 
BRANCH  10  11
ATOM     11  C   UNL     1     -11.118 -19.739  18.180  1.00  0.00     0.000 C 
BRANCH  11  12
ATOM     12  C   UNL     1     -10.349 -20.199  19.432  1.00  0.00     0.006 C 
BRANCH  12  13
ATOM     13  C   UNL     1     -11.006 -21.395  20.136  1.00  0.00     0.053 C 
BRANCH  13  14
ATOM     14  C   UNL     1     -10.539 -21.520  21.555  1.00  0.00     0.041 C 
ATOM     15  O   UNL     1     -10.581 -22.632  22.145  1.00  0.00    -0.550 OA
ATOM     16  O   UNL     1     -10.121 -20.390  22.250  1.00  0.00    -0.550 OA
ENDBRANCH  13  14
ENDBRANCH  12  13
ENDBRANCH  11  12
ENDBRANCH  10  11
ENDBRANCH   9  10
ENDBRANCH   8   9
ENDBRANCH   7   8
ENDBRANCH   6   7
ENDBRANCH   5   6
ENDBRANCH   4   5
ENDBRANCH   3   4
ENDBRANCH   2   3
ENDBRANCH   1   2
BRANCH   1  17
ATOM     17  C   UNL     1      -0.867 -22.902  15.114  1.00  0.00     0.000 C 
BRANCH  17  18
ATOM     18  C   UNL     1       0.425 -22.819  15.952  1.00  0.00     0.000 C 
BRANCH  18  19
ATOM     19  C   UNL     1       1.731 -23.067  15.173  1.00  0.00     0.000 C 
BRANCH  19  20
ATOM     20  C   UNL     1       3.022 -22.913  16.000  1.00  0.00     0.000 C 
BRANCH  20  21
ATOM     21  C   UNL     1       3.184 -21.550  16.701  1.00  0.00     0.000 C 
BRANCH  21  22
ATOM     22  C   UNL     1       4.462 -21.407  17.550  1.00  0.00    -0.000 C 
BRANCH  22  23
ATOM     23  C   UNL     1       5.577 -22.422  17.227  1.00  0.00    -0.000 C 
BRANCH  23  24
ATOM     24  C   UNL     1       6.891 -22.206  18.000  1.00  0.00    -0.000 C 
BRANCH  24  25
ATOM     25  C   UNL     1       8.125 -22.154  17.081  1.00  0.00    -0.000 C 
BRANCH  25  26
ATOM     26  C   UNL     1       7.774 -21.766  15.637  1.00  0.00    -0.000 C 
BRANCH  26  27
ATOM     27  C   UNL     1       9.015 -21.447  14.789  1.00  0.00    -0.000 C 
BRANCH  27  28
ATOM     28  C   UNL     1       8.669 -20.491  13.643  1.00  0.00    -0.000 C 
BRANCH  28  29
ATOM     29  C   UNL     1       7.863 -21.209  12.554  1.00  0.00    -0.003 C 
ATOM     30  C   UNL     1       8.725 -22.220  11.804  1.00  0.00     0.004 C 
ENDBRANCH  28  29
ENDBRANCH  27  28
ENDBRANCH  26  27
ENDBRANCH  25  26
ENDBRANCH  24  25
ENDBRANCH  23  24
ENDBRANCH  22  23
ENDBRANCH  21  22
ENDBRANCH  20  21
ENDBRANCH  19  20
ENDBRANCH  18  19
ENDBRANCH  17  18
ENDBRANCH   1  17
TORSDOF 26
ENDMDL
MODEL 6
REMARK VINA RESULT:     1.395      5.148     14.981
REMARK INTER + INTRA:           2.270
REMARK INTER:                   1.725
REMARK INTRA:                   0.545
REMARK UNBOUND:                -1.247
REMARK SMILES CCCCCCCCCCCCCCCCCCCCCCCCCCCC(=O)[O-]
REMARK SMILES IDX 15 1 16 2 17 3 18 4 19 5 20 6 21 7 22 8 23 9 24 10 25 11
REMARK SMILES IDX 26 12 27 13 28 14 29 15 30 16 14 17 13 18 12 19 11 20 10 21
REMARK SMILES IDX 9 22 8 23 7 24 6 25 5 26 4 27 3 28 2 29 1 30
REMARK H PARENT
REMARK Flexibility Score: inf
ROOT
ATOM      1  C   UNL     1      -3.236 -21.546  16.010  1.00  0.00     0.000 C 
ENDROOT
BRANCH   1   2
ATOM      2  C   UNL     1      -4.702 -21.937  15.753  1.00  0.00     0.000 C 
BRANCH   2   3
ATOM      3  C   UNL     1      -5.491 -20.852  14.997  1.00  0.00     0.000 C 
BRANCH   3   4
ATOM      4  C   UNL     1      -6.958 -21.195  14.680  1.00  0.00     0.000 C 
BRANCH   4   5
ATOM      5  C   UNL     1      -7.773 -21.585  15.924  1.00  0.00     0.000 C 
BRANCH   5   6
ATOM      6  C   UNL     1      -6.893 -22.121  17.067  1.00  0.00     0.000 C 
BRANCH   6   7
ATOM      7  C   UNL     1      -7.695 -22.656  18.273  1.00  0.00     0.000 C 
BRANCH   7   8
ATOM      8  C   UNL     1      -9.125 -22.088  18.317  1.00  0.00     0.000 C 
BRANCH   8   9
ATOM      9  C   UNL     1     -10.155 -23.125  18.793  1.00  0.00     0.000 C 
BRANCH   9  10
ATOM     10  C   UNL     1     -10.507 -22.956  20.281  1.00  0.00     0.000 C 
BRANCH  10  11
ATOM     11  C   UNL     1      -9.456 -22.144  21.060  1.00  0.00     0.000 C 
BRANCH  11  12
ATOM     12  C   UNL     1     -10.026 -21.164  22.101  1.00  0.00     0.006 C 
BRANCH  12  13
ATOM     13  C   UNL     1     -10.812 -20.005  21.470  1.00  0.00     0.053 C 
BRANCH  13  14
ATOM     14  C   UNL     1     -10.101 -19.449  20.273  1.00  0.00     0.041 C 
ATOM     15  O   UNL     1      -9.094 -18.706  20.416  1.00  0.00    -0.550 OA
ATOM     16  O   UNL     1     -10.595 -19.696  18.997  1.00  0.00    -0.550 OA
ENDBRANCH  13  14
ENDBRANCH  12  13
ENDBRANCH  11  12
ENDBRANCH  10  11
ENDBRANCH   9  10
ENDBRANCH   8   9
ENDBRANCH   7   8
ENDBRANCH   6   7
ENDBRANCH   5   6
ENDBRANCH   4   5
ENDBRANCH   3   4
ENDBRANCH   2   3
ENDBRANCH   1   2
BRANCH   1  17
ATOM     17  C   UNL     1      -2.337 -22.764  16.289  1.00  0.00     0.000 C 
BRANCH  17  18
ATOM     18  C   UNL     1      -1.102 -22.888  15.374  1.00  0.00     0.000 C 
BRANCH  18  19
ATOM     19  C   UNL     1       0.235 -23.125  16.102  1.00  0.00     0.000 C 
BRANCH  19  20
ATOM     20  C   UNL     1       1.458 -22.446  15.456  1.00  0.00     0.000 C 
BRANCH  20  21
ATOM     21  C   UNL     1       2.533 -21.963  16.449  1.00  0.00     0.000 C 
BRANCH  21  22
ATOM     22  C   UNL     1       3.855 -22.752  16.405  1.00  0.00    -0.000 C 
BRANCH  22  23
ATOM     23  C   UNL     1       5.029 -22.103  17.167  1.00  0.00    -0.000 C 
BRANCH  23  24
ATOM     24  C   UNL     1       6.398 -22.766  16.932  1.00  0.00    -0.000 C 
BRANCH  24  25
ATOM     25  C   UNL     1       6.961 -22.499  15.525  1.00  0.00    -0.000 C 
BRANCH  25  26
ATOM     26  C   UNL     1       8.362 -21.869  15.557  1.00  0.00    -0.000 C 
BRANCH  26  27
ATOM     27  C   UNL     1       9.019 -21.813  14.169  1.00  0.00    -0.000 C 
BRANCH  27  28
ATOM     28  C   UNL     1       7.999 -21.428  13.092  1.00  0.00    -0.000 C 
BRANCH  28  29
ATOM     29  C   UNL     1       8.693 -21.139  11.756  1.00  0.00    -0.003 C 
ATOM     30  C   UNL     1       8.992 -19.651  11.599  1.00  0.00     0.004 C 
ENDBRANCH  28  29
ENDBRANCH  27  28
ENDBRANCH  26  27
ENDBRANCH  25  26
ENDBRANCH  24  25
ENDBRANCH  23  24
ENDBRANCH  22  23
ENDBRANCH  21  22
ENDBRANCH  20  21
ENDBRANCH  19  20
ENDBRANCH  18  19
ENDBRANCH  17  18
ENDBRANCH   1  17
TORSDOF 26
ENDMDL
