MODEL 1
REMARK VINA RESULT:     3.663      0.000      0.000
REMARK INTER + INTRA:           4.172
REMARK INTER:                   4.413
REMARK INTRA:                  -0.241
REMARK UNBOUND:                -0.241
REMARK SMILES O=c1c(O)c(-c2ccc(O)c(O)c2)oc2cc(O)cc(O)c12
REMARK SMILES IDX 5 1 3 2 2 3 1 4 22 5 20 6 19 7 17 8 16 9 15 10 14 11 6 12
REMARK SMILES IDX 7 13 8 14 9 15 13 16 11 17 10 18 12 20 4 22 21 24 18 26
REMARK H PARENT 10 19 12 21 4 23 21 25 18 27
REMARK Flexibility Score: inf
ROOT
ATOM      1  C   UNL     1      29.760  42.412  22.401  1.00  0.00     0.180 A 
ATOM      2  C   UNL     1      31.164  42.358  22.346  1.00  0.00     0.208 A 
ATOM      3  C   UNL     1      31.806  42.571  21.116  1.00  0.00     0.238 A 
ATOM      4  O   UNL     1      33.064  42.575  21.084  1.00  0.00    -0.285 OA
ATOM      5  C   UNL     1      31.038  42.821  19.954  1.00  0.00     0.111 A 
ATOM      6  C   UNL     1      31.580  43.012  18.648  1.00  0.00     0.134 A 
ATOM      7  C   UNL     1      30.735  43.381  17.594  1.00  0.00     0.093 A 
ATOM      8  C   UNL     1      29.357  43.503  17.786  1.00  0.00     0.123 A 
ATOM      9  C   UNL     1      28.809  43.261  19.044  1.00  0.00     0.094 A 
ATOM     10  C   UNL     1      29.632  42.926  20.123  1.00  0.00     0.146 A 
ATOM     11  O   UNL     1      29.070  42.713  21.307  1.00  0.00    -0.452 OA
ENDROOT
BRANCH   1  12
ATOM     12  C   UNL     1      29.012  42.173  23.655  1.00  0.00     0.025 A 
ATOM     13  C   UNL     1      28.945  40.894  24.236  1.00  0.00     0.016 A 
ATOM     14  C   UNL     1      28.211  40.687  25.407  1.00  0.00     0.051 A 
ATOM     15  C   UNL     1      27.523  41.749  26.009  1.00  0.00     0.157 A 
ATOM     16  C   UNL     1      28.302  43.229  24.250  1.00  0.00     0.062 A 
ATOM     17  C   UNL     1      27.567  43.026  25.424  1.00  0.00     0.158 A 
BRANCH  15  18
ATOM     18  O   UNL     1      26.795  41.540  27.178  1.00  0.00    -0.504 OA
ATOM     19  H   UNL     1      26.330  40.659  27.363  1.00  0.00     0.293 HD
ENDBRANCH  15  18
BRANCH  17  20
ATOM     20  O   UNL     1      26.888  44.102  25.992  1.00  0.00    -0.504 OA
ATOM     21  H   UNL     1      27.237  44.587  26.810  1.00  0.00     0.293 HD
ENDBRANCH  17  20
ENDBRANCH   1  12
BRANCH   2  22
ATOM     22  O   UNL     1      31.905  42.131  23.509  1.00  0.00    -0.502 OA
ATOM     23  H   UNL     1      31.790  41.299  24.074  1.00  0.00     0.293 HD
ENDBRANCH   2  22
BRANCH   6  24
ATOM     24  O   UNL     1      32.929  42.825  18.329  1.00  0.00    -0.507 OA
ATOM     25  H   UNL     1      33.677  42.769  19.003  1.00  0.00     0.293 HD
ENDBRANCH   6  24
BRANCH   8  26
ATOM     26  O   UNL     1      28.520  43.856  16.730  1.00  0.00    -0.508 OA
ATOM     27  H   UNL     1      28.691  43.529  15.787  1.00  0.00     0.293 HD
ENDBRANCH   8  26
TORSDOF 6
ENDMDL
MODEL 2
REMARK VINA RESULT:     4.114      5.939     11.117
REMARK INTER + INTRA:           4.714
REMARK INTER:                   4.953
REMARK INTRA:                  -0.239
REMARK UNBOUND:                -0.241
REMARK SMILES O=c1c(O)c(-c2ccc(O)c(O)c2)oc2cc(O)cc(O)c12
REMARK SMILES IDX 5 1 3 2 2 3 1 4 22 5 20 6 19 7 17 8 16 9 15 10 14 11 6 12
REMARK SMILES IDX 7 13 8 14 9 15 13 16 11 17 10 18 12 20 4 22 21 24 18 26
REMARK H PARENT 10 19 12 21 4 23 21 25 18 27
REMARK Flexibility Score: inf
ROOT
ATOM      1  C   UNL     1      28.699  41.991  30.330  1.00  0.00     0.180 A 
ATOM      2  C   UNL     1      30.049  42.079  30.712  1.00  0.00     0.208 A 
ATOM      3  C   UNL     1      30.388  41.904  32.063  1.00  0.00     0.238 A 
ATOM      4  O   UNL     1      31.603  41.931  32.390  1.00  0.00    -0.285 OA
ATOM      5  C   UNL     1      29.372  41.659  33.018  1.00  0.00     0.111 A 
ATOM      6  C   UNL     1      29.595  41.506  34.419  1.00  0.00     0.134 A 
ATOM      7  C   UNL     1      28.533  41.137  35.253  1.00  0.00     0.093 A 
ATOM      8  C   UNL     1      27.241  40.979  34.746  1.00  0.00     0.123 A 
ATOM      9  C   UNL     1      27.001  41.185  33.389  1.00  0.00     0.094 A 
ATOM     10  C   UNL     1      28.047  41.518  32.526  1.00  0.00     0.146 A 
ATOM     11  O   UNL     1      27.777  41.695  31.238  1.00  0.00    -0.452 OA
ENDROOT
BRANCH   1  12
ATOM     12  C   UNL     1      28.262  42.188  28.929  1.00  0.00     0.025 A 
ATOM     13  C   UNL     1      28.317  43.452  28.316  1.00  0.00     0.016 A 
ATOM     14  C   UNL     1      27.876  43.619  27.001  1.00  0.00     0.051 A 
ATOM     15  C   UNL     1      27.362  42.531  26.283  1.00  0.00     0.157 A 
ATOM     16  C   UNL     1      27.727  41.105  28.213  1.00  0.00     0.062 A 
ATOM     17  C   UNL     1      27.284  41.269  26.895  1.00  0.00     0.158 A 
BRANCH  15  18
ATOM     18  O   UNL     1      26.925  42.701  24.971  1.00  0.00    -0.504 OA
ATOM     19  H   UNL     1      26.900  41.928  24.315  1.00  0.00     0.293 HD
ENDBRANCH  15  18
BRANCH  17  20
ATOM     20  O   UNL     1      26.772  40.167  26.211  1.00  0.00    -0.504 OA
ATOM     21  H   UNL     1      27.318  39.327  26.060  1.00  0.00     0.293 HD
ENDBRANCH  17  20
ENDBRANCH   1  12
BRANCH   2  22
ATOM     22  O   UNL     1      31.039  42.300  29.750  1.00  0.00    -0.502 OA
ATOM     23  H   UNL     1      31.407  41.558  29.168  1.00  0.00     0.293 HD
ENDBRANCH   2  22
BRANCH   6  24
ATOM     24  O   UNL     1      30.828  41.731  35.041  1.00  0.00    -0.507 OA
ATOM     25  H   UNL     1      31.106  41.334  35.926  1.00  0.00     0.293 HD
ENDBRANCH   6  24
BRANCH   8  26
ATOM     26  O   UNL     1      26.186  40.627  35.584  1.00  0.00    -0.508 OA
ATOM     27  H   UNL     1      25.321  41.154  35.598  1.00  0.00     0.293 HD
ENDBRANCH   8  26
TORSDOF 6
ENDMDL
MODEL 3
REMARK VINA RESULT:     6.046     10.789     13.976
REMARK INTER + INTRA:           7.042
REMARK INTER:                   7.255
REMARK INTRA:                  -0.213
REMARK UNBOUND:                -0.241
REMARK SMILES O=c1c(O)c(-c2ccc(O)c(O)c2)oc2cc(O)cc(O)c12
REMARK SMILES IDX 5 1 3 2 2 3 1 4 22 5 20 6 19 7 17 8 16 9 15 10 14 11 6 12
REMARK SMILES IDX 7 13 8 14 9 15 13 16 11 17 10 18 12 20 4 22 21 24 18 26
REMARK H PARENT 10 19 12 21 4 23 21 25 18 27
REMARK Flexibility Score: inf
ROOT
ATOM      1  C   UNL     1      17.726  41.730  24.857  1.00  0.00     0.180 A 
ATOM      2  C   UNL     1      17.149  41.625  26.135  1.00  0.00     0.208 A 
ATOM      3  C   UNL     1      15.776  41.875  26.286  1.00  0.00     0.238 A 
ATOM      4  O   UNL     1      15.256  41.727  27.422  1.00  0.00    -0.285 OA
ATOM      5  C   UNL     1      15.000  42.243  25.161  1.00  0.00     0.111 A 
ATOM      6  C   UNL     1      13.608  42.559  25.204  1.00  0.00     0.134 A 
ATOM      7  C   UNL     1      12.912  42.782  24.010  1.00  0.00     0.093 A 
ATOM      8  C   UNL     1      13.572  42.765  22.778  1.00  0.00     0.123 A 
ATOM      9  C   UNL     1      14.942  42.517  22.731  1.00  0.00     0.094 A 
ATOM     10  C   UNL     1      15.656  42.254  23.902  1.00  0.00     0.146 A 
ATOM     11  O   UNL     1      16.958  42.013  23.811  1.00  0.00    -0.452 OA
ENDROOT
BRANCH   1  12
ATOM     12  C   UNL     1      19.170  41.505  24.624  1.00  0.00     0.025 A 
ATOM     13  C   UNL     1      20.141  42.376  25.148  1.00  0.00     0.016 A 
ATOM     14  C   UNL     1      21.497  42.158  24.894  1.00  0.00     0.051 A 
ATOM     15  C   UNL     1      21.904  41.076  24.102  1.00  0.00     0.157 A 
ATOM     16  C   UNL     1      19.582  40.435  23.813  1.00  0.00     0.062 A 
ATOM     17  C   UNL     1      20.940  40.213  23.556  1.00  0.00     0.158 A 
BRANCH  15  18
ATOM     18  O   UNL     1      23.258  40.860  23.852  1.00  0.00    -0.504 OA
ATOM     19  H   UNL     1      23.845  40.356  24.507  1.00  0.00     0.293 HD
ENDBRANCH  15  18
BRANCH  17  20
ATOM     20  O   UNL     1      21.310  39.132  22.758  1.00  0.00    -0.504 OA
ATOM     21  H   UNL     1      21.456  38.205  23.142  1.00  0.00     0.293 HD
ENDBRANCH  17  20
ENDBRANCH   1  12
BRANCH   2  22
ATOM     22  O   UNL     1      17.930  41.239  27.228  1.00  0.00    -0.502 OA
ATOM     23  H   UNL     1      18.619  40.499  27.171  1.00  0.00     0.293 HD
ENDBRANCH   2  22
BRANCH   6  24
ATOM     24  O   UNL     1      12.875  42.692  26.388  1.00  0.00    -0.507 OA
ATOM     25  H   UNL     1      12.886  42.030  27.149  1.00  0.00     0.293 HD
ENDBRANCH   6  24
BRANCH   8  26
ATOM     26  O   UNL     1      12.875  43.003  21.596  1.00  0.00    -0.508 OA
ATOM     27  H   UNL     1      12.184  43.740  21.527  1.00  0.00     0.293 HD
ENDBRANCH   8  26
TORSDOF 6
ENDMDL
