MODEL 1
REMARK VINA RESULT:    -5.893      0.000      0.000
REMARK INTER + INTRA:          -7.189
REMARK INTER:                  -6.926
REMARK INTRA:                  -0.262
REMARK UNBOUND:                -0.262
REMARK SMILES O=c1cc(-c2ccc(O)c(O)c2)oc2cc(O)cc(O)c12
REMARK SMILES IDX 4 1 3 2 2 3 1 4 21 5 19 6 18 7 16 8 15 9 14 10 13 11 5 12
REMARK SMILES IDX 6 13 7 14 8 15 12 16 10 17 9 18 11 20 20 22 17 24
REMARK H PARENT 9 19 11 21 20 23 17 25
REMARK Flexibility Score: inf
ROOT
ATOM      1  C   UNL     1     -37.584 -20.084  12.163  1.00  0.00     0.138 A 
ATOM      2  C   UNL     1     -36.584 -19.892  11.199  1.00  0.00     0.100 A 
ATOM      3  C   UNL     1     -35.467 -20.728  11.186  1.00  0.00     0.197 A 
ATOM      4  O   UNL     1     -34.619 -20.571  10.270  1.00  0.00    -0.289 OA
ATOM      5  C   UNL     1     -35.337 -21.742  12.164  1.00  0.00     0.107 A 
ATOM      6  C   UNL     1     -34.222 -22.627  12.274  1.00  0.00     0.134 A 
ATOM      7  C   UNL     1     -34.257 -23.667  13.210  1.00  0.00     0.093 A 
ATOM      8  C   UNL     1     -35.339 -23.818  14.081  1.00  0.00     0.123 A 
ATOM      9  C   UNL     1     -36.406 -22.926  14.019  1.00  0.00     0.094 A 
ATOM     10  C   UNL     1     -36.418 -21.898  13.072  1.00  0.00     0.146 A 
ATOM     11  O   UNL     1     -37.463 -21.079  13.036  1.00  0.00    -0.456 OA
ENDROOT
BRANCH   1  12
ATOM     12  C   UNL     1     -38.791 -19.223  12.222  1.00  0.00     0.021 A 
ATOM     13  C   UNL     1     -38.975 -18.365  13.322  1.00  0.00     0.016 A 
ATOM     14  C   UNL     1     -40.099 -17.539  13.397  1.00  0.00     0.051 A 
ATOM     15  C   UNL     1     -41.052 -17.545  12.376  1.00  0.00     0.157 A 
ATOM     16  C   UNL     1     -39.748 -19.215  11.188  1.00  0.00     0.062 A 
ATOM     17  C   UNL     1     -40.876 -18.385  11.263  1.00  0.00     0.158 A 
BRANCH  15  18
ATOM     18  O   UNL     1     -42.164 -16.711  12.481  1.00  0.00    -0.504 OA
ATOM     19  H   UNL     1     -42.078 -15.720  12.674  1.00  0.00     0.293 HD
ENDBRANCH  15  18
BRANCH  17  20
ATOM     20  O   UNL     1     -41.818 -18.388  10.236  1.00  0.00    -0.504 OA
ATOM     21  H   UNL     1     -42.114 -19.248   9.789  1.00  0.00     0.293 HD
ENDBRANCH  17  20
ENDBRANCH   1  12
BRANCH   6  22
ATOM     22  O   UNL     1     -33.057 -22.513  11.510  1.00  0.00    -0.507 OA
ATOM     23  H   UNL     1     -32.648 -21.642  11.209  1.00  0.00     0.293 HD
ENDBRANCH   6  22
BRANCH   8  24
ATOM     24  O   UNL     1     -35.357 -24.847  15.021  1.00  0.00    -0.508 OA
ATOM     25  H   UNL     1     -35.417 -24.657  16.013  1.00  0.00     0.293 HD
ENDBRANCH   8  24
TORSDOF 5
ENDMDL
MODEL 2
REMARK VINA RESULT:    -5.852      6.102      9.808
REMARK INTER + INTRA:          -7.140
REMARK INTER:                  -6.846
REMARK INTRA:                  -0.295
REMARK UNBOUND:                -0.262
REMARK SMILES O=c1cc(-c2ccc(O)c(O)c2)oc2cc(O)cc(O)c12
REMARK SMILES IDX 4 1 3 2 2 3 1 4 21 5 19 6 18 7 16 8 15 9 14 10 13 11 5 12
REMARK SMILES IDX 6 13 7 14 8 15 12 16 10 17 9 18 11 20 20 22 17 24
REMARK H PARENT 9 19 11 21 20 23 17 25
REMARK Flexibility Score: inf
ROOT
ATOM      1  C   UNL     1     -37.318 -20.964   5.899  1.00  0.00     0.138 A 
ATOM      2  C   UNL     1     -38.119 -21.733   6.755  1.00  0.00     0.100 A 
ATOM      3  C   UNL     1     -39.467 -21.412   6.914  1.00  0.00     0.197 A 
ATOM      4  O   UNL     1     -40.174 -22.158   7.640  1.00  0.00    -0.289 OA
ATOM      5  C   UNL     1     -40.008 -20.294   6.236  1.00  0.00     0.107 A 
ATOM      6  C   UNL     1     -41.359 -19.847   6.354  1.00  0.00     0.134 A 
ATOM      7  C   UNL     1     -41.811 -18.798   5.545  1.00  0.00     0.093 A 
ATOM      8  C   UNL     1     -40.947 -18.141   4.665  1.00  0.00     0.123 A 
ATOM      9  C   UNL     1     -39.614 -18.534   4.583  1.00  0.00     0.094 A 
ATOM     10  C   UNL     1     -39.139 -19.600   5.352  1.00  0.00     0.146 A 
ATOM     11  O   UNL     1     -37.864 -19.953   5.232  1.00  0.00    -0.456 OA
ENDROOT
BRANCH   1  12
ATOM     12  C   UNL     1     -35.879 -21.261   5.694  1.00  0.00     0.021 A 
ATOM     13  C   UNL     1     -35.195 -20.663   4.621  1.00  0.00     0.016 A 
ATOM     14  C   UNL     1     -33.837 -20.921   4.412  1.00  0.00     0.051 A 
ATOM     15  C   UNL     1     -33.137 -21.770   5.272  1.00  0.00     0.157 A 
ATOM     16  C   UNL     1     -35.165 -22.106   6.568  1.00  0.00     0.062 A 
ATOM     17  C   UNL     1     -33.802 -22.364   6.358  1.00  0.00     0.158 A 
BRANCH  15  18
ATOM     18  O   UNL     1     -31.784 -22.009   5.037  1.00  0.00    -0.504 OA
ATOM     19  H   UNL     1     -31.468 -22.716   4.383  1.00  0.00     0.293 HD
ENDBRANCH  15  18
BRANCH  17  20
ATOM     20  O   UNL     1     -33.106 -23.203   7.227  1.00  0.00    -0.504 OA
ATOM     21  H   UNL     1     -33.585 -23.759   7.926  1.00  0.00     0.293 HD
ENDBRANCH  17  20
ENDBRANCH   1  12
BRANCH   6  22
ATOM     22  O   UNL     1     -42.280 -20.378   7.260  1.00  0.00    -0.507 OA
ATOM     23  H   UNL     1     -42.576 -19.928   8.113  1.00  0.00     0.293 HD
ENDBRANCH   6  22
BRANCH   8  24
ATOM     24  O   UNL     1     -41.403 -17.088   3.875  1.00  0.00    -0.508 OA
ATOM     25  H   UNL     1     -41.557 -16.164   4.261  1.00  0.00     0.293 HD
ENDBRANCH   8  24
TORSDOF 5
ENDMDL
MODEL 3
REMARK VINA RESULT:    -5.828      4.841      8.576
REMARK INTER + INTRA:          -7.113
REMARK INTER:                  -6.850
REMARK INTRA:                  -0.262
REMARK UNBOUND:                -0.262
REMARK SMILES O=c1cc(-c2ccc(O)c(O)c2)oc2cc(O)cc(O)c12
REMARK SMILES IDX 4 1 3 2 2 3 1 4 21 5 19 6 18 7 16 8 15 9 14 10 13 11 5 12
REMARK SMILES IDX 6 13 7 14 8 15 12 16 10 17 9 18 11 20 20 22 17 24
REMARK H PARENT 9 19 11 21 20 23 17 25
REMARK Flexibility Score: inf
ROOT
ATOM      1  C   UNL     1     -36.587 -20.986   7.060  1.00  0.00     0.138 A 
ATOM      2  C   UNL     1     -36.529 -20.294   8.278  1.00  0.00     0.100 A 
ATOM      3  C   UNL     1     -37.701 -20.073   9.003  1.00  0.00     0.197 A 
ATOM      4  O   UNL     1     -37.609 -19.505  10.122  1.00  0.00    -0.289 OA
ATOM      5  C   UNL     1     -38.941 -20.522   8.489  1.00  0.00     0.107 A 
ATOM      6  C   UNL     1     -40.205 -20.317   9.121  1.00  0.00     0.134 A 
ATOM      7  C   UNL     1     -41.351 -20.908   8.577  1.00  0.00     0.093 A 
ATOM      8  C   UNL     1     -41.290 -21.645   7.391  1.00  0.00     0.123 A 
ATOM      9  C   UNL     1     -40.070 -21.804   6.738  1.00  0.00     0.094 A 
ATOM     10  C   UNL     1     -38.902 -21.256   7.274  1.00  0.00     0.146 A 
ATOM     11  O   UNL     1     -37.757 -21.444   6.627  1.00  0.00    -0.456 OA
ENDROOT
BRANCH   1  12
ATOM     12  C   UNL     1     -35.372 -21.246   6.249  1.00  0.00     0.021 A 
ATOM     13  C   UNL     1     -35.225 -20.614   5.002  1.00  0.00     0.016 A 
ATOM     14  C   UNL     1     -34.086 -20.836   4.222  1.00  0.00     0.051 A 
ATOM     15  C   UNL     1     -33.072 -21.683   4.676  1.00  0.00     0.157 A 
ATOM     16  C   UNL     1     -34.340 -22.089   6.708  1.00  0.00     0.062 A 
ATOM     17  C   UNL     1     -33.197 -22.311   5.927  1.00  0.00     0.158 A 
BRANCH  15  18
ATOM     18  O   UNL     1     -31.950 -21.887   3.875  1.00  0.00    -0.504 OA
ATOM     19  H   UNL     1     -31.336 -22.683   4.001  1.00  0.00     0.293 HD
ENDBRANCH  15  18
BRANCH  17  20
ATOM     20  O   UNL     1     -32.183 -23.149   6.390  1.00  0.00    -0.504 OA
ATOM     21  H   UNL     1     -32.127 -23.427   7.363  1.00  0.00     0.293 HD
ENDBRANCH  17  20
ENDBRANCH   1  12
BRANCH   6  22
ATOM     22  O   UNL     1     -40.389 -19.529  10.260  1.00  0.00    -0.507 OA
ATOM     23  H   UNL     1     -40.773 -18.597  10.261  1.00  0.00     0.293 HD
ENDBRANCH   6  22
BRANCH   8  24
ATOM     24  O   UNL     1     -42.439 -22.215   6.849  1.00  0.00    -0.508 OA
ATOM     25  H   UNL     1     -43.331 -21.736   6.875  1.00  0.00     0.293 HD
ENDBRANCH   8  24
TORSDOF 5
ENDMDL
MODEL 4
REMARK VINA RESULT:    -5.440      4.581      8.171
REMARK INTER + INTRA:          -6.657
REMARK INTER:                  -6.385
REMARK INTRA:                  -0.272
REMARK UNBOUND:                -0.262
REMARK SMILES O=c1cc(-c2ccc(O)c(O)c2)oc2cc(O)cc(O)c12
REMARK SMILES IDX 4 1 3 2 2 3 1 4 21 5 19 6 18 7 16 8 15 9 14 10 13 11 5 12
REMARK SMILES IDX 6 13 7 14 8 15 12 16 10 17 9 18 11 20 20 22 17 24
REMARK H PARENT 9 19 11 21 20 23 17 25
REMARK Flexibility Score: inf
ROOT
ATOM      1  C   UNL     1     -37.384 -21.006   6.881  1.00  0.00     0.138 A 
ATOM      2  C   UNL     1     -38.639 -21.310   6.336  1.00  0.00     0.100 A 
ATOM      3  C   UNL     1     -39.790 -21.111   7.099  1.00  0.00     0.197 A 
ATOM      4  O   UNL     1     -40.906 -21.333   6.561  1.00  0.00    -0.289 OA
ATOM      5  C   UNL     1     -39.679 -20.635   8.428  1.00  0.00     0.107 A 
ATOM      6  C   UNL     1     -40.781 -20.434   9.313  1.00  0.00     0.134 A 
ATOM      7  C   UNL     1     -40.560 -19.849  10.566  1.00  0.00     0.093 A 
ATOM      8  C   UNL     1     -39.272 -19.513  10.988  1.00  0.00     0.123 A 
ATOM      9  C   UNL     1     -38.184 -19.756  10.153  1.00  0.00     0.094 A 
ATOM     10  C   UNL     1     -38.375 -20.307   8.883  1.00  0.00     0.146 A 
ATOM     11  O   UNL     1     -37.312 -20.509   8.112  1.00  0.00    -0.456 OA
ENDROOT
BRANCH   1  12
ATOM     12  C   UNL     1     -36.129 -21.199   6.114  1.00  0.00     0.021 A 
ATOM     13  C   UNL     1     -35.889 -20.414   4.972  1.00  0.00     0.016 A 
ATOM     14  C   UNL     1     -34.711 -20.571   4.236  1.00  0.00     0.051 A 
ATOM     15  C   UNL     1     -33.750 -21.504   4.630  1.00  0.00     0.157 A 
ATOM     16  C   UNL     1     -35.149 -22.129   6.515  1.00  0.00     0.062 A 
ATOM     17  C   UNL     1     -33.967 -22.286   5.777  1.00  0.00     0.158 A 
BRANCH  15  18
ATOM     18  O   UNL     1     -32.586 -21.639   3.875  1.00  0.00    -0.504 OA
ATOM     19  H   UNL     1     -32.051 -20.838   3.562  1.00  0.00     0.293 HD
ENDBRANCH  15  18
BRANCH  17  20
ATOM     20  O   UNL     1     -33.006 -23.211   6.182  1.00  0.00    -0.504 OA
ATOM     21  H   UNL     1     -32.966 -23.553   7.136  1.00  0.00     0.293 HD
ENDBRANCH  17  20
ENDBRANCH   1  12
BRANCH   6  22
ATOM     22  O   UNL     1     -42.095 -20.811   9.023  1.00  0.00    -0.507 OA
ATOM     23  H   UNL     1     -42.439 -21.759   9.034  1.00  0.00     0.293 HD
ENDBRANCH   6  22
BRANCH   8  24
ATOM     24  O   UNL     1     -39.061 -18.945  12.243  1.00  0.00    -0.508 OA
ATOM     25  H   UNL     1     -39.580 -19.252  13.057  1.00  0.00     0.293 HD
ENDBRANCH   8  24
TORSDOF 5
ENDMDL
MODEL 5
REMARK VINA RESULT:    -5.385      5.893      9.326
REMARK INTER + INTRA:          -6.592
REMARK INTER:                  -6.275
REMARK INTRA:                  -0.318
REMARK UNBOUND:                -0.262
REMARK SMILES O=c1cc(-c2ccc(O)c(O)c2)oc2cc(O)cc(O)c12
REMARK SMILES IDX 4 1 3 2 2 3 1 4 21 5 19 6 18 7 16 8 15 9 14 10 13 11 5 12
REMARK SMILES IDX 6 13 7 14 8 15 12 16 10 17 9 18 11 20 20 22 17 24
REMARK H PARENT 9 19 11 21 20 23 17 25
REMARK Flexibility Score: inf
ROOT
ATOM      1  C   UNL     1     -37.043 -20.630   5.454  1.00  0.00     0.138 A 
ATOM      2  C   UNL     1     -37.574 -19.665   4.586  1.00  0.00     0.100 A 
ATOM      3  C   UNL     1     -38.898 -19.251   4.739  1.00  0.00     0.197 A 
ATOM      4  O   UNL     1     -39.326 -18.339   3.986  1.00  0.00    -0.289 OA
ATOM      5  C   UNL     1     -39.703 -19.831   5.749  1.00  0.00     0.107 A 
ATOM      6  C   UNL     1     -41.078 -19.516   5.972  1.00  0.00     0.134 A 
ATOM      7  C   UNL     1     -41.740 -20.068   7.075  1.00  0.00     0.093 A 
ATOM      8  C   UNL     1     -41.096 -20.968   7.928  1.00  0.00     0.123 A 
ATOM      9  C   UNL     1     -39.772 -21.323   7.686  1.00  0.00     0.094 A 
ATOM     10  C   UNL     1     -39.072 -20.764   6.614  1.00  0.00     0.146 A 
ATOM     11  O   UNL     1     -37.805 -21.117   6.428  1.00  0.00    -0.456 OA
ENDROOT
BRANCH   1  12
ATOM     12  C   UNL     1     -35.643 -21.106   5.334  1.00  0.00     0.021 A 
ATOM     13  C   UNL     1     -34.823 -20.591   4.315  1.00  0.00     0.016 A 
ATOM     14  C   UNL     1     -33.498 -21.017   4.185  1.00  0.00     0.051 A 
ATOM     15  C   UNL     1     -32.966 -21.954   5.074  1.00  0.00     0.157 A 
ATOM     16  C   UNL     1     -35.097 -22.040   6.237  1.00  0.00     0.062 A 
ATOM     17  C   UNL     1     -33.767 -22.467   6.108  1.00  0.00     0.158 A 
BRANCH  15  18
ATOM     18  O   UNL     1     -31.642 -22.361   4.919  1.00  0.00    -0.504 OA
ATOM     19  H   UNL     1     -31.329 -23.288   5.183  1.00  0.00     0.293 HD
ENDBRANCH  15  18
BRANCH  17  20
ATOM     20  O   UNL     1     -33.239 -23.393   7.005  1.00  0.00    -0.504 OA
ATOM     21  H   UNL     1     -33.563 -23.450   7.964  1.00  0.00     0.293 HD
ENDBRANCH  17  20
ENDBRANCH   1  12
BRANCH   6  22
ATOM     22  O   UNL     1     -41.837 -18.696   5.134  1.00  0.00    -0.507 OA
ATOM     23  H   UNL     1     -42.580 -19.016   4.533  1.00  0.00     0.293 HD
ENDBRANCH   6  22
BRANCH   8  24
ATOM     24  O   UNL     1     -41.770 -21.523   9.014  1.00  0.00    -0.508 OA
ATOM     25  H   UNL     1     -41.783 -22.523   9.174  1.00  0.00     0.293 HD
ENDBRANCH   8  24
TORSDOF 5
ENDMDL
MODEL 6
REMARK VINA RESULT:    -5.356      7.664      9.069
REMARK INTER + INTRA:          -6.558
REMARK INTER:                  -6.291
REMARK INTRA:                  -0.266
REMARK UNBOUND:                -0.262
REMARK SMILES O=c1cc(-c2ccc(O)c(O)c2)oc2cc(O)cc(O)c12
REMARK SMILES IDX 4 1 3 2 2 3 1 4 21 5 19 6 18 7 16 8 15 9 14 10 13 11 5 12
REMARK SMILES IDX 6 13 7 14 8 15 12 16 10 17 9 18 11 20 20 22 17 24
REMARK H PARENT 9 19 11 21 20 23 17 25
REMARK Flexibility Score: inf
ROOT
ATOM      1  C   UNL     1     -41.772 -22.309  19.128  1.00  0.00     0.138 A 
ATOM      2  C   UNL     1     -41.703 -23.359  20.055  1.00  0.00     0.100 A 
ATOM      3  C   UNL     1     -41.742 -24.680  19.607  1.00  0.00     0.197 A 
ATOM      4  O   UNL     1     -41.615 -25.599  20.456  1.00  0.00    -0.289 OA
ATOM      5  C   UNL     1     -41.883 -24.949  18.224  1.00  0.00     0.107 A 
ATOM      6  C   UNL     1     -41.976 -26.255  17.656  1.00  0.00     0.134 A 
ATOM      7  C   UNL     1     -41.996 -26.402  16.264  1.00  0.00     0.093 A 
ATOM      8  C   UNL     1     -41.988 -25.287  15.421  1.00  0.00     0.123 A 
ATOM      9  C   UNL     1     -41.953 -24.007  15.967  1.00  0.00     0.094 A 
ATOM     10  C   UNL     1     -41.897 -23.828  17.352  1.00  0.00     0.146 A 
ATOM     11  O   UNL     1     -41.849 -22.590  17.832  1.00  0.00    -0.456 OA
ENDROOT
BRANCH   1  12
ATOM     12  C   UNL     1     -41.736 -20.887  19.551  1.00  0.00     0.021 A 
ATOM     13  C   UNL     1     -42.933 -20.151  19.606  1.00  0.00     0.016 A 
ATOM     14  C   UNL     1     -42.927 -18.813  20.008  1.00  0.00     0.051 A 
ATOM     15  C   UNL     1     -41.732 -18.189  20.373  1.00  0.00     0.157 A 
ATOM     16  C   UNL     1     -40.535 -20.257  19.933  1.00  0.00     0.062 A 
ATOM     17  C   UNL     1     -40.529 -18.914  20.339  1.00  0.00     0.158 A 
BRANCH  15  18
ATOM     18  O   UNL     1     -41.757 -16.853  20.768  1.00  0.00    -0.504 OA
ATOM     19  H   UNL     1     -41.972 -16.103  20.121  1.00  0.00     0.293 HD
ENDBRANCH  15  18
BRANCH  17  20
ATOM     20  O   UNL     1     -39.334 -18.301  20.712  1.00  0.00    -0.504 OA
ATOM     21  H   UNL     1     -38.606 -18.809  21.202  1.00  0.00     0.293 HD
ENDBRANCH  17  20
ENDBRANCH   1  12
BRANCH   6  22
ATOM     22  O   UNL     1     -42.075 -27.429  18.409  1.00  0.00    -0.507 OA
ATOM     23  H   UNL     1     -41.763 -28.338  18.103  1.00  0.00     0.293 HD
ENDBRANCH   6  22
BRANCH   8  24
ATOM     24  O   UNL     1     -42.024 -25.443  14.037  1.00  0.00    -0.508 OA
ATOM     25  H   UNL     1     -41.419 -24.907  13.427  1.00  0.00     0.293 HD
ENDBRANCH   8  24
TORSDOF 5
ENDMDL
MODEL 7
REMARK VINA RESULT:    -5.193      7.105     11.594
REMARK INTER + INTRA:          -6.367
REMARK INTER:                  -6.102
REMARK INTRA:                  -0.265
REMARK UNBOUND:                -0.262
REMARK SMILES O=c1cc(-c2ccc(O)c(O)c2)oc2cc(O)cc(O)c12
REMARK SMILES IDX 4 1 3 2 2 3 1 4 21 5 19 6 18 7 16 8 15 9 14 10 13 11 5 12
REMARK SMILES IDX 6 13 7 14 8 15 12 16 10 17 9 18 11 20 20 22 17 24
REMARK H PARENT 9 19 11 21 20 23 17 25
REMARK Flexibility Score: inf
ROOT
ATOM      1  C   UNL     1     -44.272 -20.854   6.266  1.00  0.00     0.138 A 
ATOM      2  C   UNL     1     -44.944 -21.308   5.122  1.00  0.00     0.100 A 
ATOM      3  C   UNL     1     -46.291 -20.992   4.941  1.00  0.00     0.197 A 
ATOM      4  O   UNL     1     -46.849 -21.360   3.875  1.00  0.00    -0.289 OA
ATOM      5  C   UNL     1     -46.976 -20.244   5.928  1.00  0.00     0.107 A 
ATOM      6  C   UNL     1     -48.360 -19.899   5.870  1.00  0.00     0.134 A 
ATOM      7  C   UNL     1     -48.902 -19.056   6.848  1.00  0.00     0.093 A 
ATOM      8  C   UNL     1     -48.125 -18.596   7.914  1.00  0.00     0.123 A 
ATOM      9  C   UNL     1     -46.787 -18.972   8.009  1.00  0.00     0.094 A 
ATOM     10  C   UNL     1     -46.208 -19.784   7.030  1.00  0.00     0.146 A 
ATOM     11  O   UNL     1     -44.925 -20.107   7.150  1.00  0.00    -0.456 OA
ENDROOT
BRANCH   1  12
ATOM     12  C   UNL     1     -42.840 -21.161   6.507  1.00  0.00     0.021 A 
ATOM     13  C   UNL     1     -41.903 -20.113   6.533  1.00  0.00     0.016 A 
ATOM     14  C   UNL     1     -40.550 -20.376   6.767  1.00  0.00     0.051 A 
ATOM     15  C   UNL     1     -40.111 -21.683   6.988  1.00  0.00     0.157 A 
ATOM     16  C   UNL     1     -42.394 -22.476   6.745  1.00  0.00     0.062 A 
ATOM     17  C   UNL     1     -41.037 -22.740   6.981  1.00  0.00     0.158 A 
BRANCH  15  18
ATOM     18  O   UNL     1     -38.755 -21.914   7.216  1.00  0.00    -0.504 OA
ATOM     19  H   UNL     1     -38.157 -21.222   7.653  1.00  0.00     0.293 HD
ENDBRANCH  15  18
BRANCH  17  20
ATOM     20  O   UNL     1     -40.607 -24.045   7.212  1.00  0.00    -0.504 OA
ATOM     21  H   UNL     1     -41.158 -24.698   7.758  1.00  0.00     0.293 HD
ENDBRANCH  17  20
ENDBRANCH   1  12
BRANCH   6  22
ATOM     22  O   UNL     1     -49.243 -20.373   4.896  1.00  0.00    -0.507 OA
ATOM     23  H   UNL     1     -50.060 -20.934   5.082  1.00  0.00     0.293 HD
ENDBRANCH   6  22
BRANCH   8  24
ATOM     24  O   UNL     1     -48.677 -17.770   8.891  1.00  0.00    -0.508 OA
ATOM     25  H   UNL     1     -49.321 -17.025   8.653  1.00  0.00     0.293 HD
ENDBRANCH   8  24
TORSDOF 5
ENDMDL
MODEL 8
REMARK VINA RESULT:    -5.070      7.401      8.822
REMARK INTER + INTRA:          -6.222
REMARK INTER:                  -5.929
REMARK INTRA:                  -0.293
REMARK UNBOUND:                -0.262
REMARK SMILES O=c1cc(-c2ccc(O)c(O)c2)oc2cc(O)cc(O)c12
REMARK SMILES IDX 4 1 3 2 2 3 1 4 21 5 19 6 18 7 16 8 15 9 14 10 13 11 5 12
REMARK SMILES IDX 6 13 7 14 8 15 12 16 10 17 9 18 11 20 20 22 17 24
REMARK H PARENT 9 19 11 21 20 23 17 25
REMARK Flexibility Score: inf
ROOT
ATOM      1  C   UNL     1     -41.682 -21.696  18.484  1.00  0.00     0.138 A 
ATOM      2  C   UNL     1     -40.581 -22.208  17.783  1.00  0.00     0.100 A 
ATOM      3  C   UNL     1     -40.698 -23.422  17.104  1.00  0.00     0.197 A 
ATOM      4  O   UNL     1     -39.713 -23.824  16.433  1.00  0.00    -0.289 OA
ATOM      5  C   UNL     1     -41.916 -24.140  17.154  1.00  0.00     0.107 A 
ATOM      6  C   UNL     1     -42.138 -25.407  16.535  1.00  0.00     0.134 A 
ATOM      7  C   UNL     1     -43.420 -25.969  16.554  1.00  0.00     0.093 A 
ATOM      8  C   UNL     1     -44.474 -25.338  17.221  1.00  0.00     0.123 A 
ATOM      9  C   UNL     1     -44.254 -24.129  17.875  1.00  0.00     0.094 A 
ATOM     10  C   UNL     1     -42.994 -23.525  17.845  1.00  0.00     0.146 A 
ATOM     11  O   UNL     1     -42.830 -22.364  18.469  1.00  0.00    -0.456 OA
ENDROOT
BRANCH   1  12
ATOM     12  C   UNL     1     -41.611 -20.411  19.223  1.00  0.00     0.021 A 
ATOM     13  C   UNL     1     -42.801 -19.742  19.562  1.00  0.00     0.016 A 
ATOM     14  C   UNL     1     -42.761 -18.535  20.265  1.00  0.00     0.051 A 
ATOM     15  C   UNL     1     -41.539 -17.980  20.650  1.00  0.00     0.157 A 
ATOM     16  C   UNL     1     -40.381 -19.855  19.627  1.00  0.00     0.062 A 
ATOM     17  C   UNL     1     -40.341 -18.644  20.334  1.00  0.00     0.158 A 
BRANCH  15  18
ATOM     18  O   UNL     1     -41.531 -16.774  21.349  1.00  0.00    -0.504 OA
ATOM     19  H   UNL     1     -40.735 -16.475  21.900  1.00  0.00     0.293 HD
ENDBRANCH  15  18
BRANCH  17  20
ATOM     20  O   UNL     1     -39.119 -18.101  20.726  1.00  0.00    -0.504 OA
ATOM     21  H   UNL     1     -38.790 -17.214  20.363  1.00  0.00     0.293 HD
ENDBRANCH  17  20
ENDBRANCH   1  12
BRANCH   6  22
ATOM     22  O   UNL     1     -41.136 -26.159  15.915  1.00  0.00    -0.507 OA
ATOM     23  H   UNL     1     -40.294 -25.778  15.513  1.00  0.00     0.293 HD
ENDBRANCH   6  22
BRANCH   8  24
ATOM     24  O   UNL     1     -45.743 -25.913  17.248  1.00  0.00    -0.508 OA
ATOM     25  H   UNL     1     -46.152 -26.333  16.422  1.00  0.00     0.293 HD
ENDBRANCH   8  24
TORSDOF 5
ENDMDL
MODEL 9
REMARK VINA RESULT:    -5.015      6.748      8.189
REMARK INTER + INTRA:          -6.157
REMARK INTER:                  -5.839
REMARK INTRA:                  -0.318
REMARK UNBOUND:                -0.262
REMARK SMILES O=c1cc(-c2ccc(O)c(O)c2)oc2cc(O)cc(O)c12
REMARK SMILES IDX 4 1 3 2 2 3 1 4 21 5 19 6 18 7 16 8 15 9 14 10 13 11 5 12
REMARK SMILES IDX 6 13 7 14 8 15 12 16 10 17 9 18 11 20 20 22 17 24
REMARK H PARENT 9 19 11 21 20 23 17 25
REMARK Flexibility Score: inf
ROOT
ATOM      1  C   UNL     1     -41.742 -21.835  18.343  1.00  0.00     0.138 A 
ATOM      2  C   UNL     1     -42.931 -22.496  17.999  1.00  0.00     0.100 A 
ATOM      3  C   UNL     1     -42.874 -23.692  17.282  1.00  0.00     0.197 A 
ATOM      4  O   UNL     1     -43.953 -24.293  17.044  1.00  0.00    -0.289 OA
ATOM      5  C   UNL     1     -41.620 -24.212  16.881  1.00  0.00     0.107 A 
ATOM      6  C   UNL     1     -41.443 -25.401  16.111  1.00  0.00     0.134 A 
ATOM      7  C   UNL     1     -40.150 -25.881  15.873  1.00  0.00     0.093 A 
ATOM      8  C   UNL     1     -39.027 -25.183  16.324  1.00  0.00     0.123 A 
ATOM      9  C   UNL     1     -39.188 -23.993  17.028  1.00  0.00     0.094 A 
ATOM     10  C   UNL     1     -40.466 -23.505  17.313  1.00  0.00     0.146 A 
ATOM     11  O   UNL     1     -40.577 -22.374  18.001  1.00  0.00    -0.456 OA
ENDROOT
BRANCH   1  12
ATOM     12  C   UNL     1     -41.746 -20.561  19.103  1.00  0.00     0.021 A 
ATOM     13  C   UNL     1     -42.972 -19.952  19.426  1.00  0.00     0.016 A 
ATOM     14  C   UNL     1     -43.003 -18.756  20.148  1.00  0.00     0.051 A 
ATOM     15  C   UNL     1     -41.816 -18.153  20.568  1.00  0.00     0.157 A 
ATOM     16  C   UNL     1     -40.552 -19.956  19.542  1.00  0.00     0.062 A 
ATOM     17  C   UNL     1     -40.583 -18.756  20.268  1.00  0.00     0.158 A 
BRANCH  15  18
ATOM     18  O   UNL     1     -41.879 -16.959  21.285  1.00  0.00    -0.504 OA
ATOM     19  H   UNL     1     -41.072 -16.355  21.399  1.00  0.00     0.293 HD
ENDBRANCH  15  18
BRANCH  17  20
ATOM     20  O   UNL     1     -39.395 -18.165  20.695  1.00  0.00    -0.504 OA
ATOM     21  H   UNL     1     -39.348 -17.624  21.551  1.00  0.00     0.293 HD
ENDBRANCH  17  20
ENDBRANCH   1  12
BRANCH   6  22
ATOM     22  O   UNL     1     -42.493 -26.127  15.543  1.00  0.00    -0.507 OA
ATOM     23  H   UNL     1     -42.466 -27.114  15.335  1.00  0.00     0.293 HD
ENDBRANCH   6  22
BRANCH   8  24
ATOM     24  O   UNL     1     -37.743 -25.661  16.067  1.00  0.00    -0.508 OA
ATOM     25  H   UNL     1     -37.296 -25.522  15.170  1.00  0.00     0.293 HD
ENDBRANCH   8  24
TORSDOF 5
ENDMDL
