MODEL 1
REMARK VINA RESULT:    -5.009      0.000      0.000
REMARK INTER + INTRA:         -16.148
REMARK INTER:                 -12.623
REMARK INTRA:                  -3.525
REMARK UNBOUND:                -3.525
REMARK SMILES CCCCCCCCCCCCCCCCCCCCCCCCCCCC(=O)[O-]
REMARK SMILES IDX 15 1 16 2 17 3 18 4 19 5 20 6 21 7 22 8 23 9 24 10 25 11
REMARK SMILES IDX 26 12 27 13 28 14 29 15 30 16 14 17 13 18 12 19 11 20 10 21
REMARK SMILES IDX 9 22 8 23 7 24 6 25 5 26 4 27 3 28 2 29 1 30
REMARK H PARENT
REMARK Flexibility Score: inf
ROOT
ATOM      1  C   UNL     1     -50.842  27.557 -17.717  1.00  0.00     0.000 C 
ENDROOT
BRANCH   1   2
ATOM      2  C   UNL     1     -49.312  27.549 -17.937  1.00  0.00     0.000 C 
BRANCH   2   3
ATOM      3  C   UNL     1     -48.486  26.819 -16.851  1.00  0.00     0.000 C 
BRANCH   3   4
ATOM      4  C   UNL     1     -48.202  25.328 -17.123  1.00  0.00     0.000 C 
BRANCH   4   5
ATOM      5  C   UNL     1     -48.558  24.396 -15.951  1.00  0.00     0.000 C 
BRANCH   5   6
ATOM      6  C   UNL     1     -48.595  25.130 -14.598  1.00  0.00     0.000 C 
BRANCH   6   7
ATOM      7  C   UNL     1     -47.231  25.108 -13.879  1.00  0.00     0.000 C 
BRANCH   7   8
ATOM      8  C   UNL     1     -46.587  26.501 -13.704  1.00  0.00     0.000 C 
BRANCH   8   9
ATOM      9  C   UNL     1     -45.259  26.710 -14.461  1.00  0.00     0.000 C 
BRANCH   9  10
ATOM     10  C   UNL     1     -44.974  28.185 -14.787  1.00  0.00     0.000 C 
BRANCH  10  11
ATOM     11  C   UNL     1     -45.506  28.565 -16.176  1.00  0.00     0.000 C 
BRANCH  11  12
ATOM     12  C   UNL     1     -44.604  27.998 -17.284  1.00  0.00     0.006 C 
BRANCH  12  13
ATOM     13  C   UNL     1     -45.408  27.474 -18.484  1.00  0.00     0.053 C 
BRANCH  13  14
ATOM     14  C   UNL     1     -44.683  26.381 -19.214  1.00  0.00     0.041 C 
ATOM     15  O   UNL     1     -45.066  25.189 -19.107  1.00  0.00    -0.550 OA
ATOM     16  O   UNL     1     -43.568  26.681 -19.991  1.00  0.00    -0.550 OA
ENDBRANCH  13  14
ENDBRANCH  12  13
ENDBRANCH  11  12
ENDBRANCH  10  11
ENDBRANCH   9  10
ENDBRANCH   8   9
ENDBRANCH   7   8
ENDBRANCH   6   7
ENDBRANCH   5   6
ENDBRANCH   4   5
ENDBRANCH   3   4
ENDBRANCH   2   3
ENDBRANCH   1   2
BRANCH   1  17
ATOM     17  C   UNL     1     -51.308  28.450 -16.549  1.00  0.00     0.000 C 
BRANCH  17  18
ATOM     18  C   UNL     1     -52.344  27.789 -15.612  1.00  0.00     0.000 C 
BRANCH  18  19
ATOM     19  C   UNL     1     -51.797  26.639 -14.745  1.00  0.00     0.000 C 
BRANCH  19  20
ATOM     20  C   UNL     1     -52.230  25.253 -15.247  1.00  0.00     0.000 C 
BRANCH  20  21
ATOM     21  C   UNL     1     -52.304  24.239 -14.095  1.00  0.00     0.000 C 
BRANCH  21  22
ATOM     22  C   UNL     1     -53.611  24.355 -13.290  1.00  0.00    -0.000 C 
BRANCH  22  23
ATOM     23  C   UNL     1     -53.918  23.089 -12.467  1.00  0.00    -0.000 C 
BRANCH  23  24
ATOM     24  C   UNL     1     -54.920  23.343 -11.328  1.00  0.00    -0.000 C 
BRANCH  24  25
ATOM     25  C   UNL     1     -54.496  24.490 -10.386  1.00  0.00    -0.000 C 
BRANCH  25  26
ATOM     26  C   UNL     1     -55.641  25.483 -10.123  1.00  0.00    -0.000 C 
BRANCH  26  27
ATOM     27  C   UNL     1     -56.657  25.513 -11.277  1.00  0.00    -0.000 C 
BRANCH  27  28
ATOM     28  C   UNL     1     -56.818  26.924 -11.866  1.00  0.00    -0.000 C 
BRANCH  28  29
ATOM     29  C   UNL     1     -55.556  27.782 -11.690  1.00  0.00    -0.003 C 
ATOM     30  C   UNL     1     -55.113  28.453 -12.992  1.00  0.00     0.004 C 
ENDBRANCH  28  29
ENDBRANCH  27  28
ENDBRANCH  26  27
ENDBRANCH  25  26
ENDBRANCH  24  25
ENDBRANCH  23  24
ENDBRANCH  22  23
ENDBRANCH  21  22
ENDBRANCH  20  21
ENDBRANCH  19  20
ENDBRANCH  18  19
ENDBRANCH  17  18
ENDBRANCH   1  17
TORSDOF 26
ENDMDL
MODEL 2
REMARK VINA RESULT:    -4.890      3.773      9.827
REMARK INTER + INTRA:         -15.849
REMARK INTER:                 -12.106
REMARK INTRA:                  -3.743
REMARK UNBOUND:                -3.525
REMARK SMILES CCCCCCCCCCCCCCCCCCCCCCCCCCCC(=O)[O-]
REMARK SMILES IDX 15 1 16 2 17 3 18 4 19 5 20 6 21 7 22 8 23 9 24 10 25 11
REMARK SMILES IDX 26 12 27 13 28 14 29 15 30 16 14 17 13 18 12 19 11 20 10 21
REMARK SMILES IDX 9 22 8 23 7 24 6 25 5 26 4 27 3 28 2 29 1 30
REMARK H PARENT
REMARK Flexibility Score: inf
ROOT
ATOM      1  C   UNL     1     -48.048  25.676 -16.995  1.00  0.00     0.000 C 
ENDROOT
BRANCH   1   2
ATOM      2  C   UNL     1     -48.688  24.441 -16.321  1.00  0.00     0.000 C 
BRANCH   2   3
ATOM      3  C   UNL     1     -49.566  24.739 -15.082  1.00  0.00     0.000 C 
BRANCH   3   4
ATOM      4  C   UNL     1     -50.955  24.067 -15.075  1.00  0.00     0.000 C 
BRANCH   4   5
ATOM      5  C   UNL     1     -52.113  25.020 -14.733  1.00  0.00     0.000 C 
BRANCH   5   6
ATOM      6  C   UNL     1     -52.133  26.275 -15.624  1.00  0.00     0.000 C 
BRANCH   6   7
ATOM      7  C   UNL     1     -52.031  27.579 -14.807  1.00  0.00     0.000 C 
BRANCH   7   8
ATOM      8  C   UNL     1     -53.281  28.482 -14.901  1.00  0.00     0.000 C 
BRANCH   8   9
ATOM      9  C   UNL     1     -53.917  28.863 -13.548  1.00  0.00     0.000 C 
BRANCH   9  10
ATOM     10  C   UNL     1     -55.343  28.317 -13.374  1.00  0.00     0.000 C 
BRANCH  10  11
ATOM     11  C   UNL     1     -55.577  27.803 -11.946  1.00  0.00     0.000 C 
BRANCH  11  12
ATOM     12  C   UNL     1     -56.466  26.548 -11.952  1.00  0.00     0.006 C 
BRANCH  12  13
ATOM     13  C   UNL     1     -55.666  25.266 -12.230  1.00  0.00     0.053 C 
BRANCH  13  14
ATOM     14  C   UNL     1     -55.465  24.448 -10.988  1.00  0.00     0.041 C 
ATOM     15  O   UNL     1     -54.459  24.642 -10.260  1.00  0.00    -0.550 OA
ATOM     16  O   UNL     1     -56.377  23.452 -10.652  1.00  0.00    -0.550 OA
ENDBRANCH  13  14
ENDBRANCH  12  13
ENDBRANCH  11  12
ENDBRANCH  10  11
ENDBRANCH   9  10
ENDBRANCH   8   9
ENDBRANCH   7   8
ENDBRANCH   6   7
ENDBRANCH   5   6
ENDBRANCH   4   5
ENDBRANCH   3   4
ENDBRANCH   2   3
ENDBRANCH   1   2
BRANCH   1  17
ATOM     17  C   UNL     1     -49.051  26.585 -17.734  1.00  0.00     0.000 C 
BRANCH  17  18
ATOM     18  C   UNL     1     -49.207  27.996 -17.124  1.00  0.00     0.000 C 
BRANCH  18  19
ATOM     19  C   UNL     1     -47.929  28.572 -16.483  1.00  0.00     0.000 C 
BRANCH  19  20
ATOM     20  C   UNL     1     -48.165  29.118 -15.067  1.00  0.00     0.000 C 
BRANCH  20  21
ATOM     21  C   UNL     1     -48.524  27.991 -14.085  1.00  0.00     0.000 C 
BRANCH  21  22
ATOM     22  C   UNL     1     -47.293  27.177 -13.645  1.00  0.00    -0.000 C 
BRANCH  22  23
ATOM     23  C   UNL     1     -45.996  28.007 -13.658  1.00  0.00    -0.000 C 
BRANCH  23  24
ATOM     24  C   UNL     1     -44.920  27.422 -14.589  1.00  0.00    -0.000 C 
BRANCH  24  25
ATOM     25  C   UNL     1     -44.125  28.498 -15.358  1.00  0.00    -0.000 C 
BRANCH  25  26
ATOM     26  C   UNL     1     -44.324  28.394 -16.880  1.00  0.00    -0.000 C 
BRANCH  26  27
ATOM     27  C   UNL     1     -44.725  26.975 -17.316  1.00  0.00    -0.000 C 
BRANCH  27  28
ATOM     28  C   UNL     1     -44.582  26.777 -18.834  1.00  0.00    -0.000 C 
BRANCH  28  29
ATOM     29  C   UNL     1     -43.168  27.105 -19.339  1.00  0.00    -0.003 C 
ATOM     30  C   UNL     1     -43.152  27.538 -20.807  1.00  0.00     0.004 C 
ENDBRANCH  28  29
ENDBRANCH  27  28
ENDBRANCH  26  27
ENDBRANCH  25  26
ENDBRANCH  24  25
ENDBRANCH  23  24
ENDBRANCH  22  23
ENDBRANCH  21  22
ENDBRANCH  20  21
ENDBRANCH  19  20
ENDBRANCH  18  19
ENDBRANCH  17  18
ENDBRANCH   1  17
TORSDOF 26
ENDMDL
MODEL 3
REMARK VINA RESULT:    -4.809      0.772      2.700
REMARK INTER + INTRA:         -15.643
REMARK INTER:                 -12.248
REMARK INTRA:                  -3.395
REMARK UNBOUND:                -3.525
REMARK SMILES CCCCCCCCCCCCCCCCCCCCCCCCCCCC(=O)[O-]
REMARK SMILES IDX 15 1 16 2 17 3 18 4 19 5 20 6 21 7 22 8 23 9 24 10 25 11
REMARK SMILES IDX 26 12 27 13 28 14 29 15 30 16 14 17 13 18 12 19 11 20 10 21
REMARK SMILES IDX 9 22 8 23 7 24 6 25 5 26 4 27 3 28 2 29 1 30
REMARK H PARENT
REMARK Flexibility Score: inf
ROOT
ATOM      1  C   UNL     1     -50.706  27.621 -17.211  1.00  0.00     0.000 C 
ENDROOT
BRANCH   1   2
ATOM      2  C   UNL     1     -49.265  27.771 -17.749  1.00  0.00     0.000 C 
BRANCH   2   3
ATOM      3  C   UNL     1     -48.182  26.971 -16.985  1.00  0.00     0.000 C 
BRANCH   3   4
ATOM      4  C   UNL     1     -48.119  25.464 -17.308  1.00  0.00     0.000 C 
BRANCH   4   5
ATOM      5  C   UNL     1     -48.447  24.551 -16.113  1.00  0.00     0.000 C 
BRANCH   5   6
ATOM      6  C   UNL     1     -48.559  25.326 -14.787  1.00  0.00     0.000 C 
BRANCH   6   7
ATOM      7  C   UNL     1     -47.338  25.107 -13.872  1.00  0.00     0.000 C 
BRANCH   7   8
ATOM      8  C   UNL     1     -46.548  26.396 -13.553  1.00  0.00     0.000 C 
BRANCH   8   9
ATOM      9  C   UNL     1     -45.435  26.749 -14.562  1.00  0.00     0.000 C 
BRANCH   9  10
ATOM     10  C   UNL     1     -45.202  28.262 -14.700  1.00  0.00     0.000 C 
BRANCH  10  11
ATOM     11  C   UNL     1     -44.974  28.663 -16.164  1.00  0.00     0.000 C 
BRANCH  11  12
ATOM     12  C   UNL     1     -44.625  27.435 -17.022  1.00  0.00     0.006 C 
BRANCH  12  13
ATOM     13  C   UNL     1     -44.296  27.810 -18.475  1.00  0.00     0.053 C 
BRANCH  13  14
ATOM     14  C   UNL     1     -44.265  26.607 -19.373  1.00  0.00     0.041 C 
ATOM     15  O   UNL     1     -43.631  26.646 -20.458  1.00  0.00    -0.550 OA
ATOM     16  O   UNL     1     -44.960  25.454 -19.021  1.00  0.00    -0.550 OA
ENDBRANCH  13  14
ENDBRANCH  12  13
ENDBRANCH  11  12
ENDBRANCH  10  11
ENDBRANCH   9  10
ENDBRANCH   8   9
ENDBRANCH   7   8
ENDBRANCH   6   7
ENDBRANCH   5   6
ENDBRANCH   4   5
ENDBRANCH   3   4
ENDBRANCH   2   3
ENDBRANCH   1   2
BRANCH   1  17
ATOM     17  C   UNL     1     -50.968  28.365 -15.886  1.00  0.00     0.000 C 
BRANCH  17  18
ATOM     18  C   UNL     1     -51.746  27.543 -14.833  1.00  0.00     0.000 C 
BRANCH  18  19
ATOM     19  C   UNL     1     -53.236  27.909 -14.693  1.00  0.00     0.000 C 
BRANCH  19  20
ATOM     20  C   UNL     1     -53.527  28.761 -13.448  1.00  0.00     0.000 C 
BRANCH  20  21
ATOM     21  C   UNL     1     -55.005  28.665 -13.038  1.00  0.00     0.000 C 
BRANCH  21  22
ATOM     22  C   UNL     1     -55.403  27.247 -12.592  1.00  0.00    -0.000 C 
BRANCH  22  23
ATOM     23  C   UNL     1     -55.678  27.154 -11.079  1.00  0.00    -0.000 C 
BRANCH  23  24
ATOM     24  C   UNL     1     -55.428  25.746 -10.511  1.00  0.00    -0.000 C 
BRANCH  24  25
ATOM     25  C   UNL     1     -56.116  24.629 -11.323  1.00  0.00    -0.000 C 
BRANCH  25  26
ATOM     26  C   UNL     1     -55.265  23.349 -11.391  1.00  0.00    -0.000 C 
BRANCH  26  27
ATOM     27  C   UNL     1     -53.772  23.656 -11.590  1.00  0.00    -0.000 C 
BRANCH  27  28
ATOM     28  C   UNL     1     -53.437  23.962 -13.059  1.00  0.00    -0.000 C 
BRANCH  28  29
ATOM     29  C   UNL     1     -51.961  23.696 -13.393  1.00  0.00    -0.003 C 
ATOM     30  C   UNL     1     -51.699  23.640 -14.900  1.00  0.00     0.004 C 
ENDBRANCH  28  29
ENDBRANCH  27  28
ENDBRANCH  26  27
ENDBRANCH  25  26
ENDBRANCH  24  25
ENDBRANCH  23  24
ENDBRANCH  22  23
ENDBRANCH  21  22
ENDBRANCH  20  21
ENDBRANCH  19  20
ENDBRANCH  18  19
ENDBRANCH  17  18
ENDBRANCH   1  17
TORSDOF 26
ENDMDL
MODEL 4
REMARK VINA RESULT:    -4.772      2.528      8.849
REMARK INTER + INTRA:         -15.550
REMARK INTER:                 -11.548
REMARK INTRA:                  -4.001
REMARK UNBOUND:                -3.525
REMARK SMILES CCCCCCCCCCCCCCCCCCCCCCCCCCCC(=O)[O-]
REMARK SMILES IDX 15 1 16 2 17 3 18 4 19 5 20 6 21 7 22 8 23 9 24 10 25 11
REMARK SMILES IDX 26 12 27 13 28 14 29 15 30 16 14 17 13 18 12 19 11 20 10 21
REMARK SMILES IDX 9 22 8 23 7 24 6 25 5 26 4 27 3 28 2 29 1 30
REMARK H PARENT
REMARK Flexibility Score: inf
ROOT
ATOM      1  C   UNL     1     -50.954  28.291 -14.363  1.00  0.00     0.000 C 
ENDROOT
BRANCH   1   2
ATOM      2  C   UNL     1     -52.106  29.004 -15.107  1.00  0.00     0.000 C 
BRANCH   2   3
ATOM      3  C   UNL     1     -53.514  28.396 -14.894  1.00  0.00     0.000 C 
BRANCH   3   4
ATOM      4  C   UNL     1     -54.193  28.748 -13.555  1.00  0.00     0.000 C 
BRANCH   4   5
ATOM      5  C   UNL     1     -55.709  28.994 -13.664  1.00  0.00     0.000 C 
BRANCH   5   6
ATOM      6  C   UNL     1     -56.448  28.745 -12.337  1.00  0.00     0.000 C 
BRANCH   6   7
ATOM      7  C   UNL     1     -56.657  27.244 -12.052  1.00  0.00     0.000 C 
BRANCH   7   8
ATOM      8  C   UNL     1     -56.090  26.774 -10.694  1.00  0.00     0.000 C 
BRANCH   8   9
ATOM      9  C   UNL     1     -55.782  25.266 -10.598  1.00  0.00     0.000 C 
BRANCH   9  10
ATOM     10  C   UNL     1     -55.266  24.669 -11.917  1.00  0.00     0.000 C 
BRANCH  10  11
ATOM     11  C   UNL     1     -54.337  23.472 -11.666  1.00  0.00     0.000 C 
BRANCH  11  12
ATOM     12  C   UNL     1     -53.414  23.232 -12.872  1.00  0.00     0.006 C 
BRANCH  12  13
ATOM     13  C   UNL     1     -52.988  24.541 -13.555  1.00  0.00     0.053 C 
BRANCH  13  14
ATOM     14  C   UNL     1     -52.129  24.294 -14.760  1.00  0.00     0.041 C 
ATOM     15  O   UNL     1     -51.519  23.202 -14.887  1.00  0.00    -0.550 OA
ATOM     16  O   UNL     1     -51.981  25.282 -15.728  1.00  0.00    -0.550 OA
ENDBRANCH  13  14
ENDBRANCH  12  13
ENDBRANCH  11  12
ENDBRANCH  10  11
ENDBRANCH   9  10
ENDBRANCH   8   9
ENDBRANCH   7   8
ENDBRANCH   6   7
ENDBRANCH   5   6
ENDBRANCH   4   5
ENDBRANCH   3   4
ENDBRANCH   2   3
ENDBRANCH   1   2
BRANCH   1  17
ATOM     17  C   UNL     1     -49.662  29.125 -14.250  1.00  0.00     0.000 C 
BRANCH  17  18
ATOM     18  C   UNL     1     -48.627  28.570 -13.245  1.00  0.00     0.000 C 
BRANCH  18  19
ATOM     19  C   UNL     1     -47.355  27.978 -13.882  1.00  0.00     0.000 C 
BRANCH  19  20
ATOM     20  C   UNL     1     -46.878  26.697 -13.182  1.00  0.00     0.000 C 
BRANCH  20  21
ATOM     21  C   UNL     1     -46.997  25.476 -14.108  1.00  0.00     0.000 C 
BRANCH  21  22
ATOM     22  C   UNL     1     -48.405  25.329 -14.713  1.00  0.00    -0.000 C 
BRANCH  22  23
ATOM     23  C   UNL     1     -48.407  24.529 -16.029  1.00  0.00    -0.000 C 
BRANCH  23  24
ATOM     24  C   UNL     1     -48.354  25.428 -17.276  1.00  0.00    -0.000 C 
BRANCH  24  25
ATOM     25  C   UNL     1     -49.141  26.746 -17.113  1.00  0.00    -0.000 C 
BRANCH  25  26
ATOM     26  C   UNL     1     -48.364  27.960 -17.652  1.00  0.00    -0.000 C 
BRANCH  26  27
ATOM     27  C   UNL     1     -46.963  27.574 -18.155  1.00  0.00    -0.000 C 
BRANCH  27  28
ATOM     28  C   UNL     1     -45.868  27.926 -17.135  1.00  0.00    -0.000 C 
BRANCH  28  29
ATOM     29  C   UNL     1     -44.864  26.780 -16.933  1.00  0.00    -0.003 C 
ATOM     30  C   UNL     1     -44.482  26.092 -18.245  1.00  0.00     0.004 C 
ENDBRANCH  28  29
ENDBRANCH  27  28
ENDBRANCH  26  27
ENDBRANCH  25  26
ENDBRANCH  24  25
ENDBRANCH  23  24
ENDBRANCH  22  23
ENDBRANCH  21  22
ENDBRANCH  20  21
ENDBRANCH  19  20
ENDBRANCH  18  19
ENDBRANCH  17  18
ENDBRANCH   1  17
TORSDOF 26
ENDMDL
MODEL 5
REMARK VINA RESULT:    -4.502      1.729      2.999
REMARK INTER + INTRA:         -14.870
REMARK INTER:                 -11.467
REMARK INTRA:                  -3.403
REMARK UNBOUND:                -3.525
REMARK SMILES CCCCCCCCCCCCCCCCCCCCCCCCCCCC(=O)[O-]
REMARK SMILES IDX 15 1 16 2 17 3 18 4 19 5 20 6 21 7 22 8 23 9 24 10 25 11
REMARK SMILES IDX 26 12 27 13 28 14 29 15 30 16 14 17 13 18 12 19 11 20 10 21
REMARK SMILES IDX 9 22 8 23 7 24 6 25 5 26 4 27 3 28 2 29 1 30
REMARK H PARENT
REMARK Flexibility Score: inf
ROOT
ATOM      1  C   UNL     1     -52.061  26.535 -15.343  1.00  0.00     0.000 C 
ENDROOT
BRANCH   1   2
ATOM      2  C   UNL     1     -51.541  27.951 -15.680  1.00  0.00     0.000 C 
BRANCH   2   3
ATOM      3  C   UNL     1     -51.449  28.930 -14.485  1.00  0.00     0.000 C 
BRANCH   3   4
ATOM      4  C   UNL     1     -50.150  28.846 -13.656  1.00  0.00     0.000 C 
BRANCH   4   5
ATOM      5  C   UNL     1     -48.901  28.484 -14.480  1.00  0.00     0.000 C 
BRANCH   5   6
ATOM      6  C   UNL     1     -47.760  27.923 -13.613  1.00  0.00     0.000 C 
BRANCH   6   7
ATOM      7  C   UNL     1     -47.281  26.539 -14.094  1.00  0.00     0.000 C 
BRANCH   7   8
ATOM      8  C   UNL     1     -45.758  26.448 -14.341  1.00  0.00     0.000 C 
BRANCH   8   9
ATOM      9  C   UNL     1     -45.053  27.798 -14.589  1.00  0.00     0.000 C 
BRANCH   9  10
ATOM     10  C   UNL     1     -44.631  28.001 -16.053  1.00  0.00     0.000 C 
BRANCH  10  11
ATOM     11  C   UNL     1     -44.997  26.785 -16.915  1.00  0.00     0.000 C 
BRANCH  11  12
ATOM     12  C   UNL     1     -45.906  27.196 -18.086  1.00  0.00     0.006 C 
BRANCH  12  13
ATOM     13  C   UNL     1     -47.292  27.664 -17.616  1.00  0.00     0.053 C 
BRANCH  13  14
ATOM     14  C   UNL     1     -48.327  26.587 -17.754  1.00  0.00     0.041 C 
ATOM     15  O   UNL     1     -48.082  25.420 -17.353  1.00  0.00    -0.550 OA
ATOM     16  O   UNL     1     -49.552  26.867 -18.351  1.00  0.00    -0.550 OA
ENDBRANCH  13  14
ENDBRANCH  12  13
ENDBRANCH  11  12
ENDBRANCH  10  11
ENDBRANCH   9  10
ENDBRANCH   8   9
ENDBRANCH   7   8
ENDBRANCH   6   7
ENDBRANCH   5   6
ENDBRANCH   4   5
ENDBRANCH   3   4
ENDBRANCH   2   3
ENDBRANCH   1   2
BRANCH   1  17
ATOM     17  C   UNL     1     -50.952  25.473 -15.196  1.00  0.00     0.000 C 
BRANCH  17  18
ATOM     18  C   UNL     1     -51.444  24.100 -14.684  1.00  0.00     0.000 C 
BRANCH  18  19
ATOM     19  C   UNL     1     -52.878  24.092 -14.121  1.00  0.00     0.000 C 
BRANCH  19  20
ATOM     20  C   UNL     1     -52.980  23.401 -12.753  1.00  0.00     0.000 C 
BRANCH  20  21
ATOM     21  C   UNL     1     -54.226  23.865 -11.983  1.00  0.00     0.000 C 
BRANCH  21  22
ATOM     22  C   UNL     1     -54.138  23.557 -10.477  1.00  0.00    -0.000 C 
BRANCH  22  23
ATOM     23  C   UNL     1     -55.493  23.139  -9.875  1.00  0.00    -0.000 C 
BRANCH  23  24
ATOM     24  C   UNL     1     -56.680  23.444 -10.805  1.00  0.00    -0.000 C 
BRANCH  24  25
ATOM     25  C   UNL     1     -57.728  24.383 -10.170  1.00  0.00    -0.000 C 
BRANCH  25  26
ATOM     26  C   UNL     1     -57.329  25.865 -10.284  1.00  0.00    -0.000 C 
BRANCH  26  27
ATOM     27  C   UNL     1     -58.108  26.590 -11.393  1.00  0.00    -0.000 C 
BRANCH  27  28
ATOM     28  C   UNL     1     -57.221  27.576 -12.171  1.00  0.00    -0.000 C 
BRANCH  28  29
ATOM     29  C   UNL     1     -55.728  27.224 -12.075  1.00  0.00    -0.003 C 
ATOM     30  C   UNL     1     -54.833  28.264 -12.752  1.00  0.00     0.004 C 
ENDBRANCH  28  29
ENDBRANCH  27  28
ENDBRANCH  26  27
ENDBRANCH  25  26
ENDBRANCH  24  25
ENDBRANCH  23  24
ENDBRANCH  22  23
ENDBRANCH  21  22
ENDBRANCH  20  21
ENDBRANCH  19  20
ENDBRANCH  18  19
ENDBRANCH  17  18
ENDBRANCH   1  17
TORSDOF 26
ENDMDL
MODEL 6
REMARK VINA RESULT:    -4.337      3.390      6.425
REMARK INTER + INTRA:         -14.453
REMARK INTER:                 -10.996
REMARK INTRA:                  -3.458
REMARK UNBOUND:                -3.525
REMARK SMILES CCCCCCCCCCCCCCCCCCCCCCCCCCCC(=O)[O-]
REMARK SMILES IDX 15 1 16 2 17 3 18 4 19 5 20 6 21 7 22 8 23 9 24 10 25 11
REMARK SMILES IDX 26 12 27 13 28 14 29 15 30 16 14 17 13 18 12 19 11 20 10 21
REMARK SMILES IDX 9 22 8 23 7 24 6 25 5 26 4 27 3 28 2 29 1 30
REMARK H PARENT
REMARK Flexibility Score: inf
ROOT
ATOM      1  C   UNL     1     -44.944  26.798 -17.776  1.00  0.00     0.000 C 
ENDROOT
BRANCH   1   2
ATOM      2  C   UNL     1     -44.310  27.154 -16.412  1.00  0.00     0.000 C 
BRANCH   2   3
ATOM      3  C   UNL     1     -44.810  28.469 -15.768  1.00  0.00     0.000 C 
BRANCH   3   4
ATOM      4  C   UNL     1     -44.910  28.459 -14.228  1.00  0.00     0.000 C 
BRANCH   4   5
ATOM      5  C   UNL     1     -46.333  28.223 -13.691  1.00  0.00     0.000 C 
BRANCH   5   6
ATOM      6  C   UNL     1     -46.503  26.836 -13.047  1.00  0.00     0.000 C 
BRANCH   6   7
ATOM      7  C   UNL     1     -46.697  25.720 -14.094  1.00  0.00     0.000 C 
BRANCH   7   8
ATOM      8  C   UNL     1     -48.133  25.151 -14.150  1.00  0.00     0.000 C 
BRANCH   8   9
ATOM      9  C   UNL     1     -48.606  24.702 -15.548  1.00  0.00     0.000 C 
BRANCH   9  10
ATOM     10  C   UNL     1     -49.897  23.868 -15.512  1.00  0.00     0.000 C 
BRANCH  10  11
ATOM     11  C   UNL     1     -50.966  24.530 -14.631  1.00  0.00     0.000 C 
BRANCH  11  12
ATOM     12  C   UNL     1     -51.860  23.472 -13.964  1.00  0.00     0.006 C 
BRANCH  12  13
ATOM     13  C   UNL     1     -53.237  24.031 -13.572  1.00  0.00     0.053 C 
BRANCH  13  14
ATOM     14  C   UNL     1     -53.698  23.509 -12.242  1.00  0.00     0.041 C 
ATOM     15  O   UNL     1     -54.902  23.191 -12.071  1.00  0.00    -0.550 OA
ATOM     16  O   UNL     1     -52.799  23.401 -11.185  1.00  0.00    -0.550 OA
ENDBRANCH  13  14
ENDBRANCH  12  13
ENDBRANCH  11  12
ENDBRANCH  10  11
ENDBRANCH   9  10
ENDBRANCH   8   9
ENDBRANCH   7   8
ENDBRANCH   6   7
ENDBRANCH   5   6
ENDBRANCH   4   5
ENDBRANCH   3   4
ENDBRANCH   2   3
ENDBRANCH   1   2
BRANCH   1  17
ATOM     17  C   UNL     1     -46.435  26.412 -17.699  1.00  0.00     0.000 C 
BRANCH  17  18
ATOM     18  C   UNL     1     -47.380  27.346 -18.487  1.00  0.00     0.000 C 
BRANCH  18  19
ATOM     19  C   UNL     1     -48.652  27.774 -17.731  1.00  0.00     0.000 C 
BRANCH  19  20
ATOM     20  C   UNL     1     -48.364  28.255 -16.301  1.00  0.00     0.000 C 
BRANCH  20  21
ATOM     21  C   UNL     1     -49.665  28.513 -15.524  1.00  0.00     0.000 C 
BRANCH  21  22
ATOM     22  C   UNL     1     -50.873  27.780 -16.137  1.00  0.00    -0.000 C 
BRANCH  22  23
ATOM     23  C   UNL     1     -52.192  28.554 -15.955  1.00  0.00    -0.000 C 
BRANCH  23  24
ATOM     24  C   UNL     1     -52.611  28.684 -14.480  1.00  0.00    -0.000 C 
BRANCH  24  25
ATOM     25  C   UNL     1     -54.116  28.434 -14.248  1.00  0.00    -0.000 C 
BRANCH  25  26
ATOM     26  C   UNL     1     -54.538  28.719 -12.796  1.00  0.00    -0.000 C 
BRANCH  26  27
ATOM     27  C   UNL     1     -56.012  28.365 -12.541  1.00  0.00    -0.000 C 
BRANCH  27  28
ATOM     28  C   UNL     1     -56.173  26.948 -11.968  1.00  0.00    -0.000 C 
BRANCH  28  29
ATOM     29  C   UNL     1     -57.646  26.537 -11.822  1.00  0.00    -0.003 C 
ATOM     30  C   UNL     1     -57.816  25.045 -11.525  1.00  0.00     0.004 C 
ENDBRANCH  28  29
ENDBRANCH  27  28
ENDBRANCH  26  27
ENDBRANCH  25  26
ENDBRANCH  24  25
ENDBRANCH  23  24
ENDBRANCH  22  23
ENDBRANCH  21  22
ENDBRANCH  20  21
ENDBRANCH  19  20
ENDBRANCH  18  19
ENDBRANCH  17  18
ENDBRANCH   1  17
TORSDOF 26
ENDMDL
MODEL 7
REMARK VINA RESULT:    -4.258      2.052      3.669
REMARK INTER + INTRA:         -14.254
REMARK INTER:                 -11.295
REMARK INTRA:                  -2.959
REMARK UNBOUND:                -3.525
REMARK SMILES CCCCCCCCCCCCCCCCCCCCCCCCCCCC(=O)[O-]
REMARK SMILES IDX 15 1 16 2 17 3 18 4 19 5 20 6 21 7 22 8 23 9 24 10 25 11
REMARK SMILES IDX 26 12 27 13 28 14 29 15 30 16 14 17 13 18 12 19 11 20 10 21
REMARK SMILES IDX 9 22 8 23 7 24 6 25 5 26 4 27 3 28 2 29 1 30
REMARK H PARENT
REMARK Flexibility Score: inf
ROOT
ATOM      1  C   UNL     1     -52.501  26.545 -14.611  1.00  0.00     0.000 C 
ENDROOT
BRANCH   1   2
ATOM      2  C   UNL     1     -52.085  27.949 -15.104  1.00  0.00     0.000 C 
BRANCH   2   3
ATOM      3  C   UNL     1     -50.936  28.620 -14.313  1.00  0.00     0.000 C 
BRANCH   3   4
ATOM      4  C   UNL     1     -49.646  28.890 -15.115  1.00  0.00     0.000 C 
BRANCH   4   5
ATOM      5  C   UNL     1     -49.649  28.287 -16.531  1.00  0.00     0.000 C 
BRANCH   5   6
ATOM      6  C   UNL     1     -49.006  26.890 -16.584  1.00  0.00     0.000 C 
BRANCH   6   7
ATOM      7  C   UNL     1     -48.371  26.585 -17.955  1.00  0.00     0.000 C 
BRANCH   7   8
ATOM      8  C   UNL     1     -46.940  26.008 -17.874  1.00  0.00     0.000 C 
BRANCH   8   9
ATOM      9  C   UNL     1     -45.882  26.758 -18.710  1.00  0.00     0.000 C 
BRANCH   9  10
ATOM     10  C   UNL     1     -44.869  27.531 -17.849  1.00  0.00     0.000 C 
BRANCH  10  11
ATOM     11  C   UNL     1     -44.578  26.798 -16.532  1.00  0.00     0.000 C 
BRANCH  11  12
ATOM     12  C   UNL     1     -44.614  27.772 -15.343  1.00  0.00     0.006 C 
BRANCH  12  13
ATOM     13  C   UNL     1     -46.038  27.995 -14.812  1.00  0.00     0.053 C 
BRANCH  13  14
ATOM     14  C   UNL     1     -46.397  27.015 -13.733  1.00  0.00     0.041 C 
ATOM     15  O   UNL     1     -47.298  27.293 -12.902  1.00  0.00    -0.550 OA
ATOM     16  O   UNL     1     -45.716  25.805 -13.634  1.00  0.00    -0.550 OA
ENDBRANCH  13  14
ENDBRANCH  12  13
ENDBRANCH  11  12
ENDBRANCH  10  11
ENDBRANCH   9  10
ENDBRANCH   8   9
ENDBRANCH   7   8
ENDBRANCH   6   7
ENDBRANCH   5   6
ENDBRANCH   4   5
ENDBRANCH   3   4
ENDBRANCH   2   3
ENDBRANCH   1   2
BRANCH   1  17
ATOM     17  C   UNL     1     -52.001  25.388 -15.501  1.00  0.00     0.000 C 
BRANCH  17  18
ATOM     18  C   UNL     1     -51.189  24.309 -14.750  1.00  0.00     0.000 C 
BRANCH  18  19
ATOM     19  C   UNL     1     -52.020  23.135 -14.199  1.00  0.00     0.000 C 
BRANCH  19  20
ATOM     20  C   UNL     1     -52.131  23.148 -12.667  1.00  0.00     0.000 C 
BRANCH  20  21
ATOM     21  C   UNL     1     -53.599  23.133 -12.213  1.00  0.00     0.000 C 
BRANCH  21  22
ATOM     22  C   UNL     1     -53.765  23.542 -10.738  1.00  0.00    -0.000 C 
BRANCH  22  23
ATOM     23  C   UNL     1     -54.845  24.622 -10.538  1.00  0.00    -0.000 C 
BRANCH  23  24
ATOM     24  C   UNL     1     -56.202  24.231 -11.149  1.00  0.00    -0.000 C 
BRANCH  24  25
ATOM     25  C   UNL     1     -56.776  25.304 -12.098  1.00  0.00    -0.000 C 
BRANCH  25  26
ATOM     26  C   UNL     1     -57.652  26.330 -11.358  1.00  0.00    -0.000 C 
BRANCH  26  27
ATOM     27  C   UNL     1     -57.014  27.729 -11.337  1.00  0.00    -0.000 C 
BRANCH  27  28
ATOM     28  C   UNL     1     -57.469  28.587 -12.529  1.00  0.00    -0.000 C 
BRANCH  28  29
ATOM     29  C   UNL     1     -56.306  28.958 -13.463  1.00  0.00    -0.003 C 
ATOM     30  C   UNL     1     -54.938  28.779 -12.800  1.00  0.00     0.004 C 
ENDBRANCH  28  29
ENDBRANCH  27  28
ENDBRANCH  26  27
ENDBRANCH  25  26
ENDBRANCH  24  25
ENDBRANCH  23  24
ENDBRANCH  22  23
ENDBRANCH  21  22
ENDBRANCH  20  21
ENDBRANCH  19  20
ENDBRANCH  18  19
ENDBRANCH  17  18
ENDBRANCH   1  17
TORSDOF 26
ENDMDL
MODEL 8
REMARK VINA RESULT:    -4.123     14.858     17.443
REMARK INTER + INTRA:         -13.915
REMARK INTER:                  -9.435
REMARK INTRA:                  -4.480
REMARK UNBOUND:                -3.525
REMARK SMILES CCCCCCCCCCCCCCCCCCCCCCCCCCCC(=O)[O-]
REMARK SMILES IDX 15 1 16 2 17 3 18 4 19 5 20 6 21 7 22 8 23 9 24 10 25 11
REMARK SMILES IDX 26 12 27 13 28 14 29 15 30 16 14 17 13 18 12 19 11 20 10 21
REMARK SMILES IDX 9 22 8 23 7 24 6 25 5 26 4 27 3 28 2 29 1 30
REMARK H PARENT
REMARK Flexibility Score: inf
ROOT
ATOM      1  C   UNL     1     -48.592  15.270 -26.014  1.00  0.00     0.000 C 
ENDROOT
BRANCH   1   2
ATOM      2  C   UNL     1     -48.736  16.809 -26.041  1.00  0.00     0.000 C 
BRANCH   2   3
ATOM      3  C   UNL     1     -49.843  17.359 -26.972  1.00  0.00     0.000 C 
BRANCH   3   4
ATOM      4  C   UNL     1     -49.356  18.268 -28.119  1.00  0.00     0.000 C 
BRANCH   4   5
ATOM      5  C   UNL     1     -48.839  17.503 -29.351  1.00  0.00     0.000 C 
BRANCH   5   6
ATOM      6  C   UNL     1     -47.302  17.500 -29.446  1.00  0.00     0.000 C 
BRANCH   6   7
ATOM      7  C   UNL     1     -46.732  16.095 -29.724  1.00  0.00     0.000 C 
BRANCH   7   8
ATOM      8  C   UNL     1     -45.915  15.502 -28.554  1.00  0.00     0.000 C 
BRANCH   8   9
ATOM      9  C   UNL     1     -45.604  13.995 -28.667  1.00  0.00     0.000 C 
BRANCH   9  10
ATOM     10  C   UNL     1     -46.819  13.103 -28.366  1.00  0.00     0.000 C 
BRANCH  10  11
ATOM     11  C   UNL     1     -46.389  11.748 -27.786  1.00  0.00     0.000 C 
BRANCH  11  12
ATOM     12  C   UNL     1     -45.083  11.883 -26.985  1.00  0.00     0.006 C 
BRANCH  12  13
ATOM     13  C   UNL     1     -45.119  11.093 -25.668  1.00  0.00     0.053 C 
BRANCH  13  14
ATOM     14  C   UNL     1     -43.819  10.396 -25.394  1.00  0.00     0.041 C 
ATOM     15  O   UNL     1     -42.734  10.919 -25.754  1.00  0.00    -0.550 OA
ATOM     16  O   UNL     1     -43.810   9.155 -24.764  1.00  0.00    -0.550 OA
ENDBRANCH  13  14
ENDBRANCH  12  13
ENDBRANCH  11  12
ENDBRANCH  10  11
ENDBRANCH   9  10
ENDBRANCH   8   9
ENDBRANCH   7   8
ENDBRANCH   6   7
ENDBRANCH   5   6
ENDBRANCH   4   5
ENDBRANCH   3   4
ENDBRANCH   2   3
ENDBRANCH   1   2
BRANCH   1  17
ATOM     17  C   UNL     1     -47.368  14.763 -25.225  1.00  0.00     0.000 C 
BRANCH  17  18
ATOM     18  C   UNL     1     -47.639  13.513 -24.358  1.00  0.00     0.000 C 
BRANCH  18  19
ATOM     19  C   UNL     1     -48.962  12.783 -24.663  1.00  0.00     0.000 C 
BRANCH  19  20
ATOM     20  C   UNL     1     -48.766  11.288 -24.955  1.00  0.00     0.000 C 
BRANCH  20  21
ATOM     21  C   UNL     1     -50.101  10.529 -24.902  1.00  0.00     0.000 C 
BRANCH  21  22
ATOM     22  C   UNL     1     -51.218  11.344 -24.225  1.00  0.00    -0.000 C 
BRANCH  22  23
ATOM     23  C   UNL     1     -51.464  10.916 -22.765  1.00  0.00    -0.000 C 
BRANCH  23  24
ATOM     24  C   UNL     1     -50.905   9.519 -22.449  1.00  0.00    -0.000 C 
BRANCH  24  25
ATOM     25  C   UNL     1     -50.028   9.485 -21.179  1.00  0.00    -0.000 C 
BRANCH  25  26
ATOM     26  C   UNL     1     -48.740  10.312 -21.336  1.00  0.00    -0.000 C 
BRANCH  26  27
ATOM     27  C   UNL     1     -48.635  11.426 -20.282  1.00  0.00    -0.000 C 
BRANCH  27  28
ATOM     28  C   UNL     1     -48.793  12.824 -20.902  1.00  0.00    -0.000 C 
BRANCH  28  29
ATOM     29  C   UNL     1     -49.663  13.753 -20.043  1.00  0.00    -0.003 C 
ATOM     30  C   UNL     1     -51.141  13.353 -20.054  1.00  0.00     0.004 C 
ENDBRANCH  28  29
ENDBRANCH  27  28
ENDBRANCH  26  27
ENDBRANCH  25  26
ENDBRANCH  24  25
ENDBRANCH  23  24
ENDBRANCH  22  23
ENDBRANCH  21  22
ENDBRANCH  20  21
ENDBRANCH  19  20
ENDBRANCH  18  19
ENDBRANCH  17  18
ENDBRANCH   1  17
TORSDOF 26
ENDMDL
MODEL 9
REMARK VINA RESULT:    -4.120      2.437      9.656
REMARK INTER + INTRA:         -13.908
REMARK INTER:                 -11.529
REMARK INTRA:                  -2.379
REMARK UNBOUND:                -3.525
REMARK SMILES CCCCCCCCCCCCCCCCCCCCCCCCCCCC(=O)[O-]
REMARK SMILES IDX 15 1 16 2 17 3 18 4 19 5 20 6 21 7 22 8 23 9 24 10 25 11
REMARK SMILES IDX 26 12 27 13 28 14 29 15 30 16 14 17 13 18 12 19 11 20 10 21
REMARK SMILES IDX 9 22 8 23 7 24 6 25 5 26 4 27 3 28 2 29 1 30
REMARK H PARENT
REMARK Flexibility Score: inf
ROOT
ATOM      1  C   UNL     1     -51.357  23.216 -14.454  1.00  0.00     0.000 C 
ENDROOT
BRANCH   1   2
ATOM      2  C   UNL     1     -52.374  23.830 -13.465  1.00  0.00     0.000 C 
BRANCH   2   3
ATOM      3  C   UNL     1     -52.815  22.906 -12.303  1.00  0.00     0.000 C 
BRANCH   3   4
ATOM      4  C   UNL     1     -54.250  23.132 -11.783  1.00  0.00     0.000 C 
BRANCH   4   5
ATOM      5  C   UNL     1     -54.354  24.179 -10.660  1.00  0.00     0.000 C 
BRANCH   5   6
ATOM      6  C   UNL     1     -55.635  25.027 -10.756  1.00  0.00     0.000 C 
BRANCH   6   7
ATOM      7  C   UNL     1     -55.555  26.092 -11.868  1.00  0.00     0.000 C 
BRANCH   7   8
ATOM      8  C   UNL     1     -56.577  27.241 -11.717  1.00  0.00     0.000 C 
BRANCH   8   9
ATOM      9  C   UNL     1     -56.141  28.591 -12.323  1.00  0.00     0.000 C 
BRANCH   9  10
ATOM     10  C   UNL     1     -54.738  28.547 -12.950  1.00  0.00     0.000 C 
BRANCH  10  11
ATOM     11  C   UNL     1     -54.811  28.477 -14.482  1.00  0.00     0.000 C 
BRANCH  11  12
ATOM     12  C   UNL     1     -53.571  29.125 -15.121  1.00  0.00     0.006 C 
BRANCH  12  13
ATOM     13  C   UNL     1     -52.434  28.117 -15.347  1.00  0.00     0.053 C 
BRANCH  13  14
ATOM     14  C   UNL     1     -51.116  28.636 -14.852  1.00  0.00     0.041 C 
ATOM     15  O   UNL     1     -50.918  28.786 -13.619  1.00  0.00    -0.550 OA
ATOM     16  O   UNL     1     -50.115  28.979 -15.757  1.00  0.00    -0.550 OA
ENDBRANCH  13  14
ENDBRANCH  12  13
ENDBRANCH  11  12
ENDBRANCH  10  11
ENDBRANCH   9  10
ENDBRANCH   8   9
ENDBRANCH   7   8
ENDBRANCH   6   7
ENDBRANCH   5   6
ENDBRANCH   4   5
ENDBRANCH   3   4
ENDBRANCH   2   3
ENDBRANCH   1   2
BRANCH   1  17
ATOM     17  C   UNL     1     -50.687  24.242 -15.390  1.00  0.00     0.000 C 
BRANCH  17  18
ATOM     18  C   UNL     1     -49.150  24.110 -15.488  1.00  0.00     0.000 C 
BRANCH  18  19
ATOM     19  C   UNL     1     -48.392  25.442 -15.646  1.00  0.00     0.000 C 
BRANCH  19  20
ATOM     20  C   UNL     1     -48.470  26.327 -14.392  1.00  0.00     0.000 C 
BRANCH  20  21
ATOM     21  C   UNL     1     -47.196  27.169 -14.222  1.00  0.00     0.000 C 
BRANCH  21  22
ATOM     22  C   UNL     1     -45.920  26.308 -14.182  1.00  0.00    -0.000 C 
BRANCH  22  23
ATOM     23  C   UNL     1     -44.741  26.956 -14.931  1.00  0.00    -0.000 C 
BRANCH  23  24
ATOM     24  C   UNL     1     -45.172  28.139 -15.816  1.00  0.00    -0.000 C 
BRANCH  24  25
ATOM     25  C   UNL     1     -44.918  27.902 -17.320  1.00  0.00    -0.000 C 
BRANCH  25  26
ATOM     26  C   UNL     1     -45.000  26.412 -17.698  1.00  0.00    -0.000 C 
BRANCH  26  27
ATOM     27  C   UNL     1     -44.370  26.128 -19.071  1.00  0.00    -0.000 C 
BRANCH  27  28
ATOM     28  C   UNL     1     -44.245  27.402 -19.922  1.00  0.00    -0.000 C 
BRANCH  28  29
ATOM     29  C   UNL     1     -42.808  27.645 -20.408  1.00  0.00    -0.003 C 
ATOM     30  C   UNL     1     -42.065  28.680 -19.560  1.00  0.00     0.004 C 
ENDBRANCH  28  29
ENDBRANCH  27  28
ENDBRANCH  26  27
ENDBRANCH  25  26
ENDBRANCH  24  25
ENDBRANCH  23  24
ENDBRANCH  22  23
ENDBRANCH  21  22
ENDBRANCH  20  21
ENDBRANCH  19  20
ENDBRANCH  18  19
ENDBRANCH  17  18
ENDBRANCH   1  17
TORSDOF 26
ENDMDL
