MODEL 1
REMARK VINA RESULT:    -4.863      0.000      0.000
REMARK INTER + INTRA:         -10.278
REMARK INTER:                  -8.843
REMARK INTRA:                  -1.435
REMARK UNBOUND:                -1.435
REMARK SMILES CCCCCCCCCCCCCCCC(=O)[O-]
REMARK SMILES IDX 9 1 10 2 11 3 12 4 13 5 14 6 15 7 16 8 17 9 18 10 8 11 7 12
REMARK SMILES IDX 6 13 5 14 4 15 3 16 2 17 1 18
REMARK H PARENT
REMARK Flexibility Score: inf
ROOT
ATOM      1  C   UNL     1     -19.420  -2.118  30.243  1.00  0.00     0.000 C 
ENDROOT
BRANCH   1   2
ATOM      2  C   UNL     1     -18.404  -3.269  30.141  1.00  0.00     0.000 C 
BRANCH   2   3
ATOM      3  C   UNL     1     -17.149  -3.028  30.994  1.00  0.00     0.000 C 
BRANCH   3   4
ATOM      4  C   UNL     1     -17.453  -2.249  32.285  1.00  0.00     0.000 C 
BRANCH   4   5
ATOM      5  C   UNL     1     -16.646  -0.946  32.390  1.00  0.00     0.000 C 
BRANCH   5   6
ATOM      6  C   UNL     1     -15.661  -0.765  31.220  1.00  0.00     0.006 C 
BRANCH   6   7
ATOM      7  C   UNL     1     -14.355  -0.092  31.662  1.00  0.00     0.053 C 
BRANCH   7   8
ATOM      8  C   UNL     1     -13.590   0.450  30.494  1.00  0.00     0.041 C 
ATOM      9  O   UNL     1     -12.525  -0.109  30.119  1.00  0.00    -0.550 OA
ATOM     10  O   UNL     1     -14.069   1.553  29.800  1.00  0.00    -0.550 OA
ENDBRANCH   7   8
ENDBRANCH   6   7
ENDBRANCH   5   6
ENDBRANCH   4   5
ENDBRANCH   3   4
ENDBRANCH   2   3
ENDBRANCH   1   2
BRANCH   1  11
ATOM     11  C   UNL     1     -19.501  -1.297  28.939  1.00  0.00     0.000 C 
BRANCH  11  12
ATOM     12  C   UNL     1     -18.241  -0.462  28.655  1.00  0.00    -0.000 C 
BRANCH  12  13
ATOM     13  C   UNL     1     -18.514   0.731  27.724  1.00  0.00    -0.000 C 
BRANCH  13  14
ATOM     14  C   UNL     1     -19.658   1.629  28.224  1.00  0.00    -0.000 C 
BRANCH  14  15
ATOM     15  C   UNL     1     -20.956   1.555  27.398  1.00  0.00    -0.000 C 
BRANCH  15  16
ATOM     16  C   UNL     1     -20.831   0.711  26.111  1.00  0.00    -0.000 C 
BRANCH  16  17
ATOM     17  C   UNL     1     -22.144   0.003  25.748  1.00  0.00    -0.003 C 
ATOM     18  C   UNL     1     -22.869  -0.489  26.997  1.00  0.00     0.004 C 
ENDBRANCH  16  17
ENDBRANCH  15  16
ENDBRANCH  14  15
ENDBRANCH  13  14
ENDBRANCH  12  13
ENDBRANCH  11  12
ENDBRANCH   1  11
TORSDOF 14
ENDMDL
MODEL 2
REMARK VINA RESULT:    -4.839      3.366      7.360
REMARK INTER + INTRA:         -10.235
REMARK INTER:                  -8.373
REMARK INTRA:                  -1.862
REMARK UNBOUND:                -1.435
REMARK SMILES CCCCCCCCCCCCCCCC(=O)[O-]
REMARK SMILES IDX 9 1 10 2 11 3 12 4 13 5 14 6 15 7 16 8 17 9 18 10 8 11 7 12
REMARK SMILES IDX 6 13 5 14 4 15 3 16 2 17 1 18
REMARK H PARENT
REMARK Flexibility Score: inf
ROOT
ATOM      1  C   UNL     1     -18.717  -0.567  28.269  1.00  0.00     0.000 C 
ENDROOT
BRANCH   1   2
ATOM      2  C   UNL     1     -18.535   0.860  27.719  1.00  0.00     0.000 C 
BRANCH   2   3
ATOM      3  C   UNL     1     -19.762   1.354  26.939  1.00  0.00     0.000 C 
BRANCH   3   4
ATOM      4  C   UNL     1     -20.343   0.277  26.006  1.00  0.00     0.000 C 
BRANCH   4   5
ATOM      5  C   UNL     1     -21.877   0.220  26.057  1.00  0.00     0.000 C 
BRANCH   5   6
ATOM      6  C   UNL     1     -22.427   0.346  27.489  1.00  0.00     0.006 C 
BRANCH   6   7
ATOM      7  C   UNL     1     -22.911  -1.001  28.044  1.00  0.00     0.053 C 
BRANCH   7   8
ATOM      8  C   UNL     1     -23.136  -0.941  29.523  1.00  0.00     0.041 C 
ATOM      9  O   UNL     1     -23.082   0.162  30.129  1.00  0.00    -0.550 OA
ATOM     10  O   UNL     1     -23.440  -2.098  30.228  1.00  0.00    -0.550 OA
ENDBRANCH   7   8
ENDBRANCH   6   7
ENDBRANCH   5   6
ENDBRANCH   4   5
ENDBRANCH   3   4
ENDBRANCH   2   3
ENDBRANCH   1   2
BRANCH   1  11
ATOM     11  C   UNL     1     -19.442  -0.577  29.631  1.00  0.00     0.000 C 
BRANCH  11  12
ATOM     12  C   UNL     1     -19.589  -1.981  30.242  1.00  0.00    -0.000 C 
BRANCH  12  13
ATOM     13  C   UNL     1     -18.486  -2.949  29.780  1.00  0.00    -0.000 C 
BRANCH  13  14
ATOM     14  C   UNL     1     -17.310  -3.028  30.768  1.00  0.00    -0.000 C 
BRANCH  14  15
ATOM     15  C   UNL     1     -17.533  -2.301  32.109  1.00  0.00    -0.000 C 
BRANCH  15  16
ATOM     16  C   UNL     1     -16.640  -1.057  32.301  1.00  0.00    -0.000 C 
BRANCH  16  17
ATOM     17  C   UNL     1     -15.860  -0.697  31.028  1.00  0.00    -0.003 C 
ATOM     18  C   UNL     1     -14.438  -0.255  31.359  1.00  0.00     0.004 C 
ENDBRANCH  16  17
ENDBRANCH  15  16
ENDBRANCH  14  15
ENDBRANCH  13  14
ENDBRANCH  12  13
ENDBRANCH  11  12
ENDBRANCH   1  11
TORSDOF 14
ENDMDL
MODEL 3
REMARK VINA RESULT:    -4.769      3.304      7.284
REMARK INTER + INTRA:         -10.108
REMARK INTER:                  -8.957
REMARK INTRA:                  -1.151
REMARK UNBOUND:                -1.435
REMARK SMILES CCCCCCCCCCCCCCCC(=O)[O-]
REMARK SMILES IDX 9 1 10 2 11 3 12 4 13 5 14 6 15 7 16 8 17 9 18 10 8 11 7 12
REMARK SMILES IDX 6 13 5 14 4 15 3 16 2 17 1 18
REMARK H PARENT
REMARK Flexibility Score: inf
ROOT
ATOM      1  C   UNL     1     -18.141  -2.118  29.075  1.00  0.00     0.000 C 
ENDROOT
BRANCH   1   2
ATOM      2  C   UNL     1     -18.882  -0.769  29.063  1.00  0.00     0.000 C 
BRANCH   2   3
ATOM      3  C   UNL     1     -18.106   0.325  28.314  1.00  0.00     0.000 C 
BRANCH   3   4
ATOM      4  C   UNL     1     -18.990   1.107  27.327  1.00  0.00     0.000 C 
BRANCH   4   5
ATOM      5  C   UNL     1     -19.761   0.184  26.370  1.00  0.00     0.000 C 
BRANCH   5   6
ATOM      6  C   UNL     1     -21.099   0.793  25.912  1.00  0.00     0.006 C 
BRANCH   6   7
ATOM      7  C   UNL     1     -22.247  -0.224  25.969  1.00  0.00     0.053 C 
BRANCH   7   8
ATOM      8  C   UNL     1     -22.707  -0.460  27.375  1.00  0.00     0.041 C 
ATOM      9  O   UNL     1     -23.042  -1.616  27.747  1.00  0.00    -0.550 OA
ATOM     10  O   UNL     1     -22.735   0.590  28.284  1.00  0.00    -0.550 OA
ENDBRANCH   7   8
ENDBRANCH   6   7
ENDBRANCH   5   6
ENDBRANCH   4   5
ENDBRANCH   3   4
ENDBRANCH   2   3
ENDBRANCH   1   2
BRANCH   1  11
ATOM     11  C   UNL     1     -18.749  -3.105  30.093  1.00  0.00     0.000 C 
BRANCH  11  12
ATOM     12  C   UNL     1     -18.486  -2.720  31.559  1.00  0.00    -0.000 C 
BRANCH  12  13
ATOM     13  C   UNL     1     -16.989  -2.558  31.873  1.00  0.00    -0.000 C 
BRANCH  13  14
ATOM     14  C   UNL     1     -16.568  -1.088  32.032  1.00  0.00    -0.000 C 
BRANCH  14  15
ATOM     15  C   UNL     1     -15.569  -0.576  30.976  1.00  0.00    -0.000 C 
BRANCH  15  16
ATOM     16  C   UNL     1     -14.176  -0.235  31.546  1.00  0.00    -0.000 C 
BRANCH  16  17
ATOM     17  C   UNL     1     -13.260   0.412  30.497  1.00  0.00    -0.003 C 
ATOM     18  C   UNL     1     -13.974   1.543  29.763  1.00  0.00     0.004 C 
ENDBRANCH  16  17
ENDBRANCH  15  16
ENDBRANCH  14  15
ENDBRANCH  13  14
ENDBRANCH  12  13
ENDBRANCH  11  12
ENDBRANCH   1  11
TORSDOF 14
ENDMDL
MODEL 4
REMARK VINA RESULT:    -4.737     13.512     15.745
REMARK INTER + INTRA:         -10.050
REMARK INTER:                  -8.073
REMARK INTRA:                  -1.977
REMARK UNBOUND:                -1.435
REMARK SMILES CCCCCCCCCCCCCCCC(=O)[O-]
REMARK SMILES IDX 9 1 10 2 11 3 12 4 13 5 14 6 15 7 16 8 17 9 18 10 8 11 7 12
REMARK SMILES IDX 6 13 5 14 4 15 3 16 2 17 1 18
REMARK H PARENT
REMARK Flexibility Score: inf
ROOT
ATOM      1  C   UNL     1      -4.762   7.542  24.042  1.00  0.00     0.000 C 
ENDROOT
BRANCH   1   2
ATOM      2  C   UNL     1      -4.129   7.482  25.444  1.00  0.00     0.000 C 
BRANCH   2   3
ATOM      3  C   UNL     1      -4.698   8.544  26.397  1.00  0.00     0.000 C 
BRANCH   3   4
ATOM      4  C   UNL     1      -4.448   8.205  27.876  1.00  0.00     0.000 C 
BRANCH   4   5
ATOM      5  C   UNL     1      -4.713   6.725  28.194  1.00  0.00     0.000 C 
BRANCH   5   6
ATOM      6  C   UNL     1      -6.189   6.448  28.531  1.00  0.00     0.006 C 
BRANCH   6   7
ATOM      7  C   UNL     1      -6.636   7.171  29.809  1.00  0.00     0.053 C 
BRANCH   7   8
ATOM      8  C   UNL     1      -5.883   6.688  31.010  1.00  0.00     0.041 C 
ATOM      9  O   UNL     1      -5.423   7.511  31.844  1.00  0.00    -0.550 OA
ATOM     10  O   UNL     1      -5.719   5.325  31.226  1.00  0.00    -0.550 OA
ENDBRANCH   7   8
ENDBRANCH   6   7
ENDBRANCH   5   6
ENDBRANCH   4   5
ENDBRANCH   3   4
ENDBRANCH   2   3
ENDBRANCH   1   2
BRANCH   1  11
ATOM     11  C   UNL     1      -3.875   8.305  23.036  1.00  0.00     0.000 C 
BRANCH  11  12
ATOM     12  C   UNL     1      -4.540   9.567  22.460  1.00  0.00    -0.000 C 
BRANCH  12  13
ATOM     13  C   UNL     1      -4.772  10.655  23.522  1.00  0.00    -0.000 C 
BRANCH  13  14
ATOM     14  C   UNL     1      -6.259  11.004  23.704  1.00  0.00    -0.000 C 
BRANCH  14  15
ATOM     15  C   UNL     1      -7.237  10.145  22.879  1.00  0.00    -0.000 C 
BRANCH  15  16
ATOM     16  C   UNL     1      -7.921   9.024  23.690  1.00  0.00    -0.000 C 
BRANCH  16  17
ATOM     17  C   UNL     1      -7.969   9.338  25.192  1.00  0.00    -0.003 C 
ATOM     18  C   UNL     1      -8.441   8.129  25.994  1.00  0.00     0.004 C 
ENDBRANCH  16  17
ENDBRANCH  15  16
ENDBRANCH  14  15
ENDBRANCH  13  14
ENDBRANCH  12  13
ENDBRANCH  11  12
ENDBRANCH   1  11
TORSDOF 14
ENDMDL
MODEL 5
REMARK VINA RESULT:    -4.727      2.688      4.802
REMARK INTER + INTRA:         -10.031
REMARK INTER:                  -8.108
REMARK INTRA:                  -1.923
REMARK UNBOUND:                -1.435
REMARK SMILES CCCCCCCCCCCCCCCC(=O)[O-]
REMARK SMILES IDX 9 1 10 2 11 3 12 4 13 5 14 6 15 7 16 8 17 9 18 10 8 11 7 12
REMARK SMILES IDX 6 13 5 14 4 15 3 16 2 17 1 18
REMARK H PARENT
REMARK Flexibility Score: inf
ROOT
ATOM      1  C   UNL     1     -20.283   0.091  26.323  1.00  0.00     0.000 C 
ENDROOT
BRANCH   1   2
ATOM      2  C   UNL     1     -19.596   1.224  27.107  1.00  0.00     0.000 C 
BRANCH   2   3
ATOM      3  C   UNL     1     -18.451   0.717  27.997  1.00  0.00     0.000 C 
BRANCH   3   4
ATOM      4  C   UNL     1     -18.712  -0.695  28.549  1.00  0.00     0.000 C 
BRANCH   4   5
ATOM      5  C   UNL     1     -18.645  -0.749  30.083  1.00  0.00     0.000 C 
BRANCH   5   6
ATOM      6  C   UNL     1     -17.406  -1.507  30.594  1.00  0.00     0.006 C 
BRANCH   6   7
ATOM      7  C   UNL     1     -17.105  -1.195  32.066  1.00  0.00     0.053 C 
BRANCH   7   8
ATOM      8  C   UNL     1     -17.334  -2.389  32.942  1.00  0.00     0.041 C 
ATOM      9  O   UNL     1     -16.392  -2.860  33.631  1.00  0.00    -0.550 OA
ATOM     10  O   UNL     1     -18.598  -2.960  33.023  1.00  0.00    -0.550 OA
ENDBRANCH   7   8
ENDBRANCH   6   7
ENDBRANCH   5   6
ENDBRANCH   4   5
ENDBRANCH   3   4
ENDBRANCH   2   3
ENDBRANCH   1   2
BRANCH   1  11
ATOM     11  C   UNL     1     -21.778   0.381  26.073  1.00  0.00     0.000 C 
BRANCH  11  12
ATOM     12  C   UNL     1     -22.720  -0.375  27.025  1.00  0.00    -0.000 C 
BRANCH  12  13
ATOM     13  C   UNL     1     -22.988   0.392  28.331  1.00  0.00    -0.000 C 
BRANCH  13  14
ATOM     14  C   UNL     1     -22.233  -0.197  29.535  1.00  0.00    -0.000 C 
BRANCH  14  15
ATOM     15  C   UNL     1     -22.716  -1.587  29.992  1.00  0.00    -0.000 C 
BRANCH  15  16
ATOM     16  C   UNL     1     -21.861  -2.754  29.455  1.00  0.00    -0.000 C 
BRANCH  16  17
ATOM     17  C   UNL     1     -21.151  -3.522  30.579  1.00  0.00    -0.003 C 
ATOM     18  C   UNL     1     -19.967  -4.320  30.041  1.00  0.00     0.004 C 
ENDBRANCH  16  17
ENDBRANCH  15  16
ENDBRANCH  14  15
ENDBRANCH  13  14
ENDBRANCH  12  13
ENDBRANCH  11  12
ENDBRANCH   1  11
TORSDOF 14
ENDMDL
MODEL 6
REMARK VINA RESULT:    -4.724      3.281      6.715
REMARK INTER + INTRA:         -10.025
REMARK INTER:                  -8.273
REMARK INTRA:                  -1.751
REMARK UNBOUND:                -1.435
REMARK SMILES CCCCCCCCCCCCCCCC(=O)[O-]
REMARK SMILES IDX 9 1 10 2 11 3 12 4 13 5 14 6 15 7 16 8 17 9 18 10 8 11 7 12
REMARK SMILES IDX 6 13 5 14 4 15 3 16 2 17 1 18
REMARK H PARENT
REMARK Flexibility Score: inf
ROOT
ATOM      1  C   UNL     1     -20.238   0.478  26.324  1.00  0.00     0.000 C 
ENDROOT
BRANCH   1   2
ATOM      2  C   UNL     1     -21.730   0.221  26.603  1.00  0.00     0.000 C 
BRANCH   2   3
ATOM      3  C   UNL     1     -22.145   0.635  28.023  1.00  0.00     0.000 C 
BRANCH   3   4
ATOM      4  C   UNL     1     -23.228  -0.285  28.614  1.00  0.00     0.000 C 
BRANCH   4   5
ATOM      5  C   UNL     1     -22.870  -1.773  28.484  1.00  0.00     0.000 C 
BRANCH   5   6
ATOM      6  C   UNL     1     -22.057  -2.292  29.684  1.00  0.00     0.006 C 
BRANCH   6   7
ATOM      7  C   UNL     1     -22.038  -3.825  29.750  1.00  0.00     0.053 C 
BRANCH   7   8
ATOM      8  C   UNL     1     -20.741  -4.339  30.295  1.00  0.00     0.041 C 
ATOM      9  O   UNL     1     -19.983  -5.038  29.573  1.00  0.00    -0.550 OA
ATOM     10  O   UNL     1     -20.355  -4.018  31.590  1.00  0.00    -0.550 OA
ENDBRANCH   7   8
ENDBRANCH   6   7
ENDBRANCH   5   6
ENDBRANCH   4   5
ENDBRANCH   3   4
ENDBRANCH   2   3
ENDBRANCH   1   2
BRANCH   1  11
ATOM     11  C   UNL     1     -19.571   1.305  27.443  1.00  0.00     0.000 C 
BRANCH  11  12
ATOM     12  C   UNL     1     -18.383   0.593  28.113  1.00  0.00    -0.000 C 
BRANCH  12  13
ATOM     13  C   UNL     1     -18.818  -0.358  29.241  1.00  0.00    -0.000 C 
BRANCH  13  14
ATOM     14  C   UNL     1     -18.292  -1.791  29.050  1.00  0.00    -0.000 C 
BRANCH  14  15
ATOM     15  C   UNL     1     -17.523  -2.370  30.254  1.00  0.00    -0.000 C 
BRANCH  15  16
ATOM     16  C   UNL     1     -16.693  -1.324  31.027  1.00  0.00    -0.000 C 
BRANCH  16  17
ATOM     17  C   UNL     1     -17.186  -1.140  32.470  1.00  0.00    -0.003 C 
ATOM     18  C   UNL     1     -17.520  -2.482  33.114  1.00  0.00     0.004 C 
ENDBRANCH  16  17
ENDBRANCH  15  16
ENDBRANCH  14  15
ENDBRANCH  13  14
ENDBRANCH  12  13
ENDBRANCH  11  12
ENDBRANCH   1  11
TORSDOF 14
ENDMDL
MODEL 7
REMARK VINA RESULT:    -4.702     13.301     14.694
REMARK INTER + INTRA:          -9.986
REMARK INTER:                  -8.500
REMARK INTRA:                  -1.487
REMARK UNBOUND:                -1.435
REMARK SMILES CCCCCCCCCCCCCCCC(=O)[O-]
REMARK SMILES IDX 9 1 10 2 11 3 12 4 13 5 14 6 15 7 16 8 17 9 18 10 8 11 7 12
REMARK SMILES IDX 6 13 5 14 4 15 3 16 2 17 1 18
REMARK H PARENT
REMARK Flexibility Score: inf
ROOT
ATOM      1  C   UNL     1      -7.041   6.917  27.619  1.00  0.00     0.000 C 
ENDROOT
BRANCH   1   2
ATOM      2  C   UNL     1      -7.361   6.480  29.060  1.00  0.00     0.000 C 
BRANCH   2   3
ATOM      3  C   UNL     1      -6.565   7.272  30.109  1.00  0.00     0.000 C 
BRANCH   3   4
ATOM      4  C   UNL     1      -5.430   6.445  30.738  1.00  0.00     0.000 C 
BRANCH   4   5
ATOM      5  C   UNL     1      -5.768   4.948  30.819  1.00  0.00     0.000 C 
BRANCH   5   6
ATOM      6  C   UNL     1      -4.771   4.164  31.692  1.00  0.00     0.006 C 
BRANCH   6   7
ATOM      7  C   UNL     1      -4.049   5.068  32.699  1.00  0.00     0.053 C 
BRANCH   7   8
ATOM      8  C   UNL     1      -4.438   4.747  34.109  1.00  0.00     0.041 C 
ATOM      9  O   UNL     1      -4.672   5.673  34.930  1.00  0.00    -0.550 OA
ATOM     10  O   UNL     1      -4.575   3.423  34.508  1.00  0.00    -0.550 OA
ENDBRANCH   7   8
ENDBRANCH   6   7
ENDBRANCH   5   6
ENDBRANCH   4   5
ENDBRANCH   3   4
ENDBRANCH   2   3
ENDBRANCH   1   2
BRANCH   1  11
ATOM     11  C   UNL     1      -5.887   6.097  27.006  1.00  0.00     0.000 C 
BRANCH  11  12
ATOM     12  C   UNL     1      -4.517   6.789  27.106  1.00  0.00    -0.000 C 
BRANCH  12  13
ATOM     13  C   UNL     1      -4.594   8.303  26.847  1.00  0.00    -0.000 C 
BRANCH  13  14
ATOM     14  C   UNL     1      -4.485   8.660  25.355  1.00  0.00    -0.000 C 
BRANCH  14  15
ATOM     15  C   UNL     1      -5.686   9.436  24.780  1.00  0.00    -0.000 C 
BRANCH  15  16
ATOM     16  C   UNL     1      -6.278   8.812  23.498  1.00  0.00    -0.000 C 
BRANCH  16  17
ATOM     17  C   UNL     1      -7.808   8.926  23.448  1.00  0.00    -0.003 C 
ATOM     18  C   UNL     1      -8.418   8.791  24.839  1.00  0.00     0.004 C 
ENDBRANCH  16  17
ENDBRANCH  15  16
ENDBRANCH  14  15
ENDBRANCH  13  14
ENDBRANCH  12  13
ENDBRANCH  11  12
ENDBRANCH   1  11
TORSDOF 14
ENDMDL
MODEL 8
REMARK VINA RESULT:    -4.604     12.976     15.776
REMARK INTER + INTRA:          -9.808
REMARK INTER:                  -8.625
REMARK INTRA:                  -1.182
REMARK UNBOUND:                -1.435
REMARK SMILES CCCCCCCCCCCCCCCC(=O)[O-]
REMARK SMILES IDX 9 1 10 2 11 3 12 4 13 5 14 6 15 7 16 8 17 9 18 10 8 11 7 12
REMARK SMILES IDX 6 13 5 14 4 15 3 16 2 17 1 18
REMARK H PARENT
REMARK Flexibility Score: inf
ROOT
ATOM      1  C   UNL     1      -7.554   7.186  26.809  1.00  0.00     0.000 C 
ENDROOT
BRANCH   1   2
ATOM      2  C   UNL     1      -6.118   6.920  26.323  1.00  0.00     0.000 C 
BRANCH   2   3
ATOM      3  C   UNL     1      -5.210   8.152  26.458  1.00  0.00     0.000 C 
BRANCH   3   4
ATOM      4  C   UNL     1      -4.536   8.538  25.130  1.00  0.00     0.000 C 
BRANCH   4   5
ATOM      5  C   UNL     1      -5.054   7.708  23.945  1.00  0.00     0.000 C 
BRANCH   5   6
ATOM      6  C   UNL     1      -5.442   8.581  22.738  1.00  0.00     0.006 C 
BRANCH   6   7
ATOM      7  C   UNL     1      -6.252   9.816  23.153  1.00  0.00     0.053 C 
BRANCH   7   8
ATOM      8  C   UNL     1      -7.592   9.439  23.706  1.00  0.00     0.041 C 
ATOM      9  O   UNL     1      -8.373   8.713  23.036  1.00  0.00    -0.550 OA
ATOM     10  O   UNL     1      -7.964   9.861  24.976  1.00  0.00    -0.550 OA
ENDBRANCH   7   8
ENDBRANCH   6   7
ENDBRANCH   5   6
ENDBRANCH   4   5
ENDBRANCH   3   4
ENDBRANCH   2   3
ENDBRANCH   1   2
BRANCH   1  11
ATOM     11  C   UNL     1      -7.949   6.268  27.985  1.00  0.00     0.000 C 
BRANCH  11  12
ATOM     12  C   UNL     1      -8.132   7.016  29.317  1.00  0.00    -0.000 C 
BRANCH  12  13
ATOM     13  C   UNL     1      -6.856   7.026  30.175  1.00  0.00    -0.000 C 
BRANCH  13  14
ATOM     14  C   UNL     1      -5.954   5.808  29.917  1.00  0.00    -0.000 C 
BRANCH  14  15
ATOM     15  C   UNL     1      -4.769   5.655  30.890  1.00  0.00    -0.000 C 
BRANCH  15  16
ATOM     16  C   UNL     1      -4.851   4.398  31.782  1.00  0.00    -0.000 C 
BRANCH  16  17
ATOM     17  C   UNL     1      -4.164   4.602  33.141  1.00  0.00    -0.003 C 
ATOM     18  C   UNL     1      -4.652   3.581  34.165  1.00  0.00     0.004 C 
ENDBRANCH  16  17
ENDBRANCH  15  16
ENDBRANCH  14  15
ENDBRANCH  13  14
ENDBRANCH  12  13
ENDBRANCH  11  12
ENDBRANCH   1  11
TORSDOF 14
ENDMDL
MODEL 9
REMARK VINA RESULT:    -4.583     13.595     15.467
REMARK INTER + INTRA:          -9.770
REMARK INTER:                  -8.250
REMARK INTRA:                  -1.520
REMARK UNBOUND:                -1.435
REMARK SMILES CCCCCCCCCCCCCCCC(=O)[O-]
REMARK SMILES IDX 9 1 10 2 11 3 12 4 13 5 14 6 15 7 16 8 17 9 18 10 8 11 7 12
REMARK SMILES IDX 6 13 5 14 4 15 3 16 2 17 1 18
REMARK H PARENT
REMARK Flexibility Score: inf
ROOT
ATOM      1  C   UNL     1      -7.054   6.960  27.221  1.00  0.00     0.000 C 
ENDROOT
BRANCH   1   2
ATOM      2  C   UNL     1      -5.801   6.824  26.336  1.00  0.00     0.000 C 
BRANCH   2   3
ATOM      3  C   UNL     1      -4.498   6.843  27.149  1.00  0.00     0.000 C 
BRANCH   3   4
ATOM      4  C   UNL     1      -4.315   8.148  27.943  1.00  0.00     0.000 C 
BRANCH   4   5
ATOM      5  C   UNL     1      -3.985   7.895  29.422  1.00  0.00     0.000 C 
BRANCH   5   6
ATOM      6  C   UNL     1      -4.634   6.607  29.960  1.00  0.00     0.006 C 
BRANCH   6   7
ATOM      7  C   UNL     1      -5.624   6.890  31.098  1.00  0.00     0.053 C 
BRANCH   7   8
ATOM      8  C   UNL     1      -4.960   6.815  32.439  1.00  0.00     0.041 C 
ATOM      9  O   UNL     1      -4.683   5.696  32.948  1.00  0.00    -0.550 OA
ATOM     10  O   UNL     1      -4.619   7.980  33.113  1.00  0.00    -0.550 OA
ENDBRANCH   7   8
ENDBRANCH   6   7
ENDBRANCH   5   6
ENDBRANCH   4   5
ENDBRANCH   3   4
ENDBRANCH   2   3
ENDBRANCH   1   2
BRANCH   1  11
ATOM     11  C   UNL     1      -8.210   7.671  26.487  1.00  0.00     0.000 C 
BRANCH  11  12
ATOM     12  C   UNL     1      -7.746   8.804  25.555  1.00  0.00    -0.000 C 
BRANCH  12  13
ATOM     13  C   UNL     1      -8.449   8.775  24.188  1.00  0.00    -0.000 C 
BRANCH  13  14
ATOM     14  C   UNL     1      -7.479   8.979  23.012  1.00  0.00    -0.000 C 
BRANCH  14  15
ATOM     15  C   UNL     1      -6.527   7.797  22.740  1.00  0.00    -0.000 C 
BRANCH  15  16
ATOM     16  C   UNL     1      -5.038   8.125  22.985  1.00  0.00    -0.000 C 
BRANCH  16  17
ATOM     17  C   UNL     1      -4.620   9.453  22.338  1.00  0.00    -0.003 C 
ATOM     18  C   UNL     1      -4.185  10.467  23.391  1.00  0.00     0.004 C 
ENDBRANCH  16  17
ENDBRANCH  15  16
ENDBRANCH  14  15
ENDBRANCH  13  14
ENDBRANCH  12  13
ENDBRANCH  11  12
ENDBRANCH   1  11
TORSDOF 14
ENDMDL
