MODEL 1
REMARK VINA RESULT:    -4.224      0.000      0.000
REMARK INTER + INTRA:          -4.980
REMARK INTER:                  -5.211
REMARK INTRA:                   0.231
REMARK UNBOUND:                 0.231
REMARK SMILES Oc1cc(O)c2cc(O)c(-c3cc(O)c(O)c(O)c3)[o+]c2c1
REMARK SMILES IDX 10 1 20 2 21 3 22 4 2 5 3 6 4 7 6 8 7 9 8 10 11 11 12 12
REMARK SMILES IDX 13 13 19 14 15 15 17 16 14 17 16 19 18 21 9 23 1 25 5 27
REMARK H PARENT 14 18 16 20 18 22 9 24 1 26 5 28
REMARK Flexibility Score: inf
ROOT
ATOM      1  C   UNL     1      28.682  30.997  34.606  1.00  0.00     0.402 A 
ATOM      2  O   UNL     1      27.613  31.227  35.364  1.00  0.00    -0.202 OA
ATOM      3  C   UNL     1      26.961  32.385  35.375  1.00  0.00     0.368 A 
ATOM      4  C   UNL     1      25.850  32.531  36.209  1.00  0.00     0.162 A 
ATOM      5  C   UNL     1      25.147  33.737  36.243  1.00  0.00     0.128 A 
ATOM      6  C   UNL     1      25.559  34.806  35.440  1.00  0.00     0.093 A 
ATOM      7  C   UNL     1      26.670  34.685  34.596  1.00  0.00     0.136 A 
ATOM      8  C   UNL     1      27.385  33.459  34.556  1.00  0.00     0.125 A 
ATOM      9  C   UNL     1      28.502  33.243  33.733  1.00  0.00     0.078 A 
ATOM     10  C   UNL     1      29.152  32.005  33.744  1.00  0.00     0.223 A 
ENDROOT
BRANCH   1  11
ATOM     11  C   UNL     1      29.328  29.667  34.691  1.00  0.00     0.091 A 
ATOM     12  C   UNL     1      29.307  28.919  35.880  1.00  0.00     0.068 A 
ATOM     13  C   UNL     1      29.906  27.652  35.934  1.00  0.00     0.162 A 
ATOM     14  C   UNL     1      29.925  29.116  33.547  1.00  0.00     0.068 A 
ATOM     15  C   UNL     1      30.521  27.117  34.789  1.00  0.00     0.200 A 
ATOM     16  C   UNL     1      30.525  27.854  33.592  1.00  0.00     0.162 A 
BRANCH  13  17
ATOM     17  O   UNL     1      29.885  26.921  37.120  1.00  0.00    -0.504 OA
ATOM     18  H   UNL     1      30.504  27.141  37.892  1.00  0.00     0.293 HD
ENDBRANCH  13  17
BRANCH  15  19
ATOM     19  O   UNL     1      31.125  25.860  34.827  1.00  0.00    -0.502 OA
ATOM     20  H   UNL     1      30.726  25.084  35.342  1.00  0.00     0.293 HD
ENDBRANCH  15  19
BRANCH  16  21
ATOM     21  O   UNL     1      31.121  27.348  32.437  1.00  0.00    -0.504 OA
ATOM     22  H   UNL     1      32.085  27.546  32.197  1.00  0.00     0.293 HD
ENDBRANCH  16  21
ENDBRANCH   1  11
BRANCH  10  23
ATOM     23  O   UNL     1      30.230  31.773  32.890  1.00  0.00    -0.500 OA
ATOM     24  H   UNL     1      30.668  32.524  32.368  1.00  0.00     0.294 HD
ENDBRANCH  10  23
BRANCH   5  25
ATOM     25  O   UNL     1      24.042  33.863  37.081  1.00  0.00    -0.507 OA
ATOM     26  H   UNL     1      23.258  34.460  36.839  1.00  0.00     0.293 HD
ENDBRANCH   5  25
BRANCH   7  27
ATOM     27  O   UNL     1      27.020  35.799  33.827  1.00  0.00    -0.507 OA
ATOM     28  H   UNL     1      26.393  36.277  33.196  1.00  0.00     0.293 HD
ENDBRANCH   7  27
TORSDOF 7
ENDMDL
MODEL 2
REMARK VINA RESULT:    -3.702      1.412      7.402
REMARK INTER + INTRA:          -4.337
REMARK INTER:                  -4.453
REMARK INTRA:                   0.117
REMARK UNBOUND:                 0.231
REMARK SMILES Oc1cc(O)c2cc(O)c(-c3cc(O)c(O)c(O)c3)[o+]c2c1
REMARK SMILES IDX 10 1 20 2 21 3 22 4 2 5 3 6 4 7 6 8 7 9 8 10 11 11 12 12
REMARK SMILES IDX 13 13 19 14 15 15 17 16 14 17 16 19 18 21 9 23 1 25 5 27
REMARK H PARENT 14 18 16 20 18 22 9 24 1 26 5 28
REMARK Flexibility Score: inf
ROOT
ATOM      1  C   UNL     1      28.922  31.668  34.781  1.00  0.00     0.402 A 
ATOM      2  O   UNL     1      29.268  30.759  33.872  1.00  0.00    -0.202 OA
ATOM      3  C   UNL     1      29.856  29.608  34.179  1.00  0.00     0.368 A 
ATOM      4  C   UNL     1      30.185  28.718  33.154  1.00  0.00     0.162 A 
ATOM      5  C   UNL     1      30.805  27.502  33.446  1.00  0.00     0.128 A 
ATOM      6  C   UNL     1      31.101  27.173  34.773  1.00  0.00     0.093 A 
ATOM      7  C   UNL     1      30.782  28.047  35.819  1.00  0.00     0.136 A 
ATOM      8  C   UNL     1      30.148  29.283  35.526  1.00  0.00     0.125 A 
ATOM      9  C   UNL     1      29.781  30.216  36.510  1.00  0.00     0.078 A 
ATOM     10  C   UNL     1      29.155  31.412  36.144  1.00  0.00     0.223 A 
ENDROOT
BRANCH   1  11
ATOM     11  C   UNL     1      28.282  32.919  34.311  1.00  0.00     0.091 A 
ATOM     12  C   UNL     1      28.702  33.557  33.132  1.00  0.00     0.068 A 
ATOM     13  C   UNL     1      28.069  34.729  32.693  1.00  0.00     0.162 A 
ATOM     14  C   UNL     1      27.198  33.450  35.027  1.00  0.00     0.068 A 
ATOM     15  C   UNL     1      26.998  35.265  33.428  1.00  0.00     0.200 A 
ATOM     16  C   UNL     1      26.562  34.618  34.597  1.00  0.00     0.162 A 
BRANCH  13  17
ATOM     17  O   UNL     1      28.497  35.357  31.525  1.00  0.00    -0.504 OA
ATOM     18  H   UNL     1      27.921  35.378  30.691  1.00  0.00     0.293 HD
ENDBRANCH  13  17
BRANCH  15  19
ATOM     19  O   UNL     1      26.360  36.433  33.007  1.00  0.00    -0.502 OA
ATOM     20  H   UNL     1      26.026  36.554  32.059  1.00  0.00     0.293 HD
ENDBRANCH  15  19
BRANCH  16  21
ATOM     21  O   UNL     1      25.497  35.121  35.345  1.00  0.00    -0.504 OA
ATOM     22  H   UNL     1      24.720  34.539  35.633  1.00  0.00     0.293 HD
ENDBRANCH  16  21
ENDBRANCH   1  11
BRANCH  10  23
ATOM     23  O   UNL     1      28.745  32.314  37.125  1.00  0.00    -0.500 OA
ATOM     24  H   UNL     1      27.781  32.618  37.200  1.00  0.00     0.294 HD
ENDBRANCH  10  23
BRANCH   5  25
ATOM     25  O   UNL     1      31.125  26.629  32.409  1.00  0.00    -0.507 OA
ATOM     26  H   UNL     1      31.054  25.623  32.522  1.00  0.00     0.293 HD
ENDBRANCH   5  25
BRANCH   7  27
ATOM     27  O   UNL     1      31.112  27.647  37.117  1.00  0.00    -0.507 OA
ATOM     28  H   UNL     1      31.823  26.967  37.342  1.00  0.00     0.293 HD
ENDBRANCH   7  27
TORSDOF 7
ENDMDL
MODEL 3
REMARK VINA RESULT:    -3.598      1.417      7.204
REMARK INTER + INTRA:          -4.208
REMARK INTER:                  -4.322
REMARK INTRA:                   0.114
REMARK UNBOUND:                 0.231
REMARK SMILES Oc1cc(O)c2cc(O)c(-c3cc(O)c(O)c(O)c3)[o+]c2c1
REMARK SMILES IDX 10 1 20 2 21 3 22 4 2 5 3 6 4 7 6 8 7 9 8 10 11 11 12 12
REMARK SMILES IDX 13 13 19 14 15 15 17 16 14 17 16 19 18 21 9 23 1 25 5 27
REMARK H PARENT 14 18 16 20 18 22 9 24 1 26 5 28
REMARK Flexibility Score: inf
ROOT
ATOM      1  C   UNL     1      28.846  31.666  34.775  1.00  0.00     0.402 A 
ATOM      2  O   UNL     1      29.204  30.769  33.859  1.00  0.00    -0.202 OA
ATOM      3  C   UNL     1      29.813  29.626  34.155  1.00  0.00     0.368 A 
ATOM      4  C   UNL     1      30.152  28.750  33.122  1.00  0.00     0.162 A 
ATOM      5  C   UNL     1      30.795  27.543  33.403  1.00  0.00     0.128 A 
ATOM      6  C   UNL     1      31.102  27.209  34.726  1.00  0.00     0.093 A 
ATOM      7  C   UNL     1      30.773  28.070  35.780  1.00  0.00     0.136 A 
ATOM      8  C   UNL     1      30.117  29.297  35.499  1.00  0.00     0.125 A 
ATOM      9  C   UNL     1      29.738  30.216  36.490  1.00  0.00     0.078 A 
ATOM     10  C   UNL     1      29.089  31.403  36.136  1.00  0.00     0.223 A 
ENDROOT
BRANCH   1  11
ATOM     11  C   UNL     1      28.183  32.908  34.318  1.00  0.00     0.091 A 
ATOM     12  C   UNL     1      27.138  33.493  35.054  1.00  0.00     0.068 A 
ATOM     13  C   UNL     1      26.537  34.681  34.616  1.00  0.00     0.162 A 
ATOM     14  C   UNL     1      28.641  33.547  33.156  1.00  0.00     0.068 A 
ATOM     15  C   UNL     1      26.988  35.303  33.439  1.00  0.00     0.200 A 
ATOM     16  C   UNL     1      28.046  34.732  32.711  1.00  0.00     0.162 A 
BRANCH  13  17
ATOM     17  O   UNL     1      25.498  35.250  35.351  1.00  0.00    -0.504 OA
ATOM     18  H   UNL     1      24.817  34.679  35.838  1.00  0.00     0.293 HD
ENDBRANCH  13  17
BRANCH  15  19
ATOM     19  O   UNL     1      26.398  36.484  32.986  1.00  0.00    -0.502 OA
ATOM     20  H   UNL     1      26.656  36.915  32.107  1.00  0.00     0.293 HD
ENDBRANCH  15  19
BRANCH  16  21
ATOM     21  O   UNL     1      28.522  35.329  31.543  1.00  0.00    -0.504 OA
ATOM     22  H   UNL     1      29.316  34.958  31.034  1.00  0.00     0.293 HD
ENDBRANCH  16  21
ENDBRANCH   1  11
BRANCH  10  23
ATOM     23  O   UNL     1      28.668  32.292  37.125  1.00  0.00    -0.500 OA
ATOM     24  H   UNL     1      28.824  32.108  38.109  1.00  0.00     0.294 HD
ENDBRANCH  10  23
BRANCH   5  25
ATOM     25  O   UNL     1      31.125  26.682  32.358  1.00  0.00    -0.507 OA
ATOM     26  H   UNL     1      32.090  26.509  32.099  1.00  0.00     0.293 HD
ENDBRANCH   5  25
BRANCH   7  27
ATOM     27  O   UNL     1      31.116  27.667  37.074  1.00  0.00    -0.507 OA
ATOM     28  H   UNL     1      32.059  27.639  37.432  1.00  0.00     0.293 HD
ENDBRANCH   7  27
TORSDOF 7
ENDMDL
MODEL 4
REMARK VINA RESULT:    -3.549      1.152      2.618
REMARK INTER + INTRA:          -4.148
REMARK INTER:                  -4.456
REMARK INTRA:                   0.308
REMARK UNBOUND:                 0.231
REMARK SMILES Oc1cc(O)c2cc(O)c(-c3cc(O)c(O)c(O)c3)[o+]c2c1
REMARK SMILES IDX 10 1 20 2 21 3 22 4 2 5 3 6 4 7 6 8 7 9 8 10 11 11 12 12
REMARK SMILES IDX 13 13 19 14 15 15 17 16 14 17 16 19 18 21 9 23 1 25 5 27
REMARK H PARENT 14 18 16 20 18 22 9 24 1 26 5 28
REMARK Flexibility Score: inf
ROOT
ATOM      1  C   UNL     1      28.314  31.116  35.018  1.00  0.00     0.402 A 
ATOM      2  O   UNL     1      28.512  32.019  34.061  1.00  0.00    -0.202 OA
ATOM      3  C   UNL     1      27.892  33.193  34.025  1.00  0.00     0.368 A 
ATOM      4  C   UNL     1      28.163  34.074  32.976  1.00  0.00     0.162 A 
ATOM      5  C   UNL     1      27.525  35.314  32.911  1.00  0.00     0.128 A 
ATOM      6  C   UNL     1      26.606  35.676  33.902  1.00  0.00     0.093 A 
ATOM      7  C   UNL     1      26.316  34.811  34.964  1.00  0.00     0.136 A 
ATOM      8  C   UNL     1      26.965  33.551  35.035  1.00  0.00     0.125 A 
ATOM      9  C   UNL     1      26.746  32.625  36.068  1.00  0.00     0.078 A 
ATOM     10  C   UNL     1      27.428  31.404  36.073  1.00  0.00     0.223 A 
ENDROOT
BRANCH   1  11
ATOM     11  C   UNL     1      29.058  29.838  34.941  1.00  0.00     0.091 A 
ATOM     12  C   UNL     1      29.240  29.028  36.074  1.00  0.00     0.068 A 
ATOM     13  C   UNL     1      29.929  27.811  35.976  1.00  0.00     0.162 A 
ATOM     14  C   UNL     1      29.546  29.398  33.701  1.00  0.00     0.068 A 
ATOM     15  C   UNL     1      30.433  27.388  34.734  1.00  0.00     0.200 A 
ATOM     16  C   UNL     1      30.235  28.186  33.594  1.00  0.00     0.162 A 
BRANCH  13  17
ATOM     17  O   UNL     1      30.109  27.018  37.108  1.00  0.00    -0.504 OA
ATOM     18  H   UNL     1      29.482  27.076  37.903  1.00  0.00     0.293 HD
ENDBRANCH  13  17
BRANCH  15  19
ATOM     19  O   UNL     1      31.125  26.181  34.620  1.00  0.00    -0.502 OA
ATOM     20  H   UNL     1      31.922  26.072  34.005  1.00  0.00     0.293 HD
ENDBRANCH  15  19
BRANCH  16  21
ATOM     21  O   UNL     1      30.716  27.791  32.346  1.00  0.00    -0.504 OA
ATOM     22  H   UNL     1      31.685  27.536  32.198  1.00  0.00     0.293 HD
ENDBRANCH  16  21
ENDBRANCH   1  11
BRANCH  10  23
ATOM     23  O   UNL     1      27.249  30.507  37.125  1.00  0.00    -0.500 OA
ATOM     24  H   UNL     1      27.164  30.821  38.085  1.00  0.00     0.294 HD
ENDBRANCH  10  23
BRANCH   5  25
ATOM     25  O   UNL     1      27.809  36.178  31.856  1.00  0.00    -0.507 OA
ATOM     26  H   UNL     1      28.332  35.869  31.044  1.00  0.00     0.293 HD
ENDBRANCH   5  25
BRANCH   7  27
ATOM     27  O   UNL     1      25.384  35.244  35.912  1.00  0.00    -0.507 OA
ATOM     28  H   UNL     1      25.170  36.212  36.101  1.00  0.00     0.293 HD
ENDBRANCH   7  27
TORSDOF 7
ENDMDL
MODEL 5
REMARK VINA RESULT:    -3.487      4.042      7.229
REMARK INTER + INTRA:          -4.071
REMARK INTER:                  -4.522
REMARK INTRA:                   0.451
REMARK UNBOUND:                 0.231
REMARK SMILES Oc1cc(O)c2cc(O)c(-c3cc(O)c(O)c(O)c3)[o+]c2c1
REMARK SMILES IDX 10 1 20 2 21 3 22 4 2 5 3 6 4 7 6 8 7 9 8 10 11 11 12 12
REMARK SMILES IDX 13 13 19 14 15 15 17 16 14 17 16 19 18 21 9 23 1 25 5 27
REMARK H PARENT 14 18 16 20 18 22 9 24 1 26 5 28
REMARK Flexibility Score: inf
ROOT
ATOM      1  C   UNL     1      30.912  29.475  31.038  1.00  0.00     0.402 A 
ATOM      2  O   UNL     1      30.991  28.314  31.683  1.00  0.00    -0.202 OA
ATOM      3  C   UNL     1      30.945  28.209  33.006  1.00  0.00     0.368 A 
ATOM      4  C   UNL     1      31.039  26.944  33.592  1.00  0.00     0.162 A 
ATOM      5  C   UNL     1      30.996  26.804  34.980  1.00  0.00     0.128 A 
ATOM      6  C   UNL     1      30.860  27.936  35.791  1.00  0.00     0.093 A 
ATOM      7  C   UNL     1      30.765  29.215  35.228  1.00  0.00     0.136 A 
ATOM      8  C   UNL     1      30.805  29.362  33.817  1.00  0.00     0.125 A 
ATOM      9  C   UNL     1      30.704  30.601  33.165  1.00  0.00     0.078 A 
ATOM     10  C   UNL     1      30.746  30.666  31.769  1.00  0.00     0.223 A 
ENDROOT
BRANCH   1  11
ATOM     11  C   UNL     1      30.986  29.462  29.559  1.00  0.00     0.091 A 
ATOM     12  C   UNL     1      30.986  28.256  28.838  1.00  0.00     0.068 A 
ATOM     13  C   UNL     1      31.035  28.264  27.437  1.00  0.00     0.162 A 
ATOM     14  C   UNL     1      31.002  30.677  28.858  1.00  0.00     0.068 A 
ATOM     15  C   UNL     1      31.072  29.487  26.744  1.00  0.00     0.200 A 
ATOM     16  C   UNL     1      31.052  30.695  27.461  1.00  0.00     0.162 A 
BRANCH  13  17
ATOM     17  O   UNL     1      31.040  27.062  26.731  1.00  0.00    -0.504 OA
ATOM     18  H   UNL     1      30.179  26.582  26.492  1.00  0.00     0.293 HD
ENDBRANCH  13  17
BRANCH  15  19
ATOM     19  O   UNL     1      31.125  29.513  25.349  1.00  0.00    -0.502 OA
ATOM     20  H   UNL     1      31.242  30.374  24.829  1.00  0.00     0.293 HD
ENDBRANCH  15  19
BRANCH  16  21
ATOM     21  O   UNL     1      31.080  31.924  26.802  1.00  0.00    -0.504 OA
ATOM     22  H   UNL     1      31.494  32.749  27.219  1.00  0.00     0.293 HD
ENDBRANCH  16  21
ENDBRANCH   1  11
BRANCH  10  23
ATOM     23  O   UNL     1      30.595  31.891  31.121  1.00  0.00    -0.500 OA
ATOM     24  H   UNL     1      29.812  32.504  31.314  1.00  0.00     0.294 HD
ENDBRANCH  10  23
BRANCH   5  25
ATOM     25  O   UNL     1      31.091  25.534  35.545  1.00  0.00    -0.507 OA
ATOM     26  H   UNL     1      30.270  24.957  35.692  1.00  0.00     0.293 HD
ENDBRANCH   5  25
BRANCH   7  27
ATOM     27  O   UNL     1      30.635  30.296  36.105  1.00  0.00    -0.507 OA
ATOM     28  H   UNL     1      29.884  30.404  36.772  1.00  0.00     0.293 HD
ENDBRANCH   7  27
TORSDOF 7
ENDMDL
MODEL 6
REMARK VINA RESULT:    -2.407      4.176      7.090
REMARK INTER + INTRA:          -2.739
REMARK INTER:                  -3.199
REMARK INTRA:                   0.460
REMARK UNBOUND:                 0.231
REMARK SMILES Oc1cc(O)c2cc(O)c(-c3cc(O)c(O)c(O)c3)[o+]c2c1
REMARK SMILES IDX 10 1 20 2 21 3 22 4 2 5 3 6 4 7 6 8 7 9 8 10 11 11 12 12
REMARK SMILES IDX 13 13 19 14 15 15 17 16 14 17 16 19 18 21 9 23 1 25 5 27
REMARK H PARENT 14 18 16 20 18 22 9 24 1 26 5 28
REMARK Flexibility Score: inf
ROOT
ATOM      1  C   UNL     1      31.004  29.093  30.924  1.00  0.00     0.402 A 
ATOM      2  O   UNL     1      31.034  30.170  31.703  1.00  0.00    -0.202 OA
ATOM      3  C   UNL     1      31.017  30.112  33.030  1.00  0.00     0.368 A 
ATOM      4  C   UNL     1      31.048  31.300  33.764  1.00  0.00     0.162 A 
ATOM      5  C   UNL     1      31.029  31.269  35.159  1.00  0.00     0.128 A 
ATOM      6  C   UNL     1      30.978  30.042  35.828  1.00  0.00     0.093 A 
ATOM      7  C   UNL     1      30.946  28.836  35.116  1.00  0.00     0.136 A 
ATOM      8  C   UNL     1      30.968  28.863  33.697  1.00  0.00     0.125 A 
ATOM      9  C   UNL     1      30.951  27.706  32.902  1.00  0.00     0.078 A 
ATOM     10  C   UNL     1      30.980  27.813  31.508  1.00  0.00     0.223 A 
ENDROOT
BRANCH   1  11
ATOM     11  C   UNL     1      31.016  29.290  29.456  1.00  0.00     0.091 A 
ATOM     12  C   UNL     1      31.038  30.576  28.891  1.00  0.00     0.068 A 
ATOM     13  C   UNL     1      31.070  30.742  27.499  1.00  0.00     0.162 A 
ATOM     14  C   UNL     1      31.062  28.171  28.610  1.00  0.00     0.068 A 
ATOM     15  C   UNL     1      31.094  29.615  26.659  1.00  0.00     0.200 A 
ATOM     16  C   UNL     1      31.094  28.327  27.221  1.00  0.00     0.162 A 
BRANCH  13  17
ATOM     17  O   UNL     1      31.086  32.022  26.949  1.00  0.00    -0.504 OA
ATOM     18  H   UNL     1      30.933  32.178  25.959  1.00  0.00     0.293 HD
ENDBRANCH  13  17
BRANCH  15  19
ATOM     19  O   UNL     1      31.123  29.762  25.271  1.00  0.00    -0.502 OA
ATOM     20  H   UNL     1      30.556  29.192  24.656  1.00  0.00     0.293 HD
ENDBRANCH  15  19
BRANCH  16  21
ATOM     21  O   UNL     1      31.125  27.189  26.415  1.00  0.00    -0.504 OA
ATOM     22  H   UNL     1      30.479  27.056  25.646  1.00  0.00     0.293 HD
ENDBRANCH  16  21
ENDBRANCH   1  11
BRANCH  10  23
ATOM     23  O   UNL     1      31.014  26.663  30.719  1.00  0.00    -0.500 OA
ATOM     24  H   UNL     1      30.264  26.433  30.078  1.00  0.00     0.294 HD
ENDBRANCH  10  23
BRANCH   5  25
ATOM     25  O   UNL     1      31.061  32.465  35.872  1.00  0.00    -0.507 OA
ATOM     26  H   UNL     1      30.658  32.540  36.800  1.00  0.00     0.293 HD
ENDBRANCH   5  25
BRANCH   7  27
ATOM     27  O   UNL     1      30.892  27.652  35.857  1.00  0.00    -0.507 OA
ATOM     28  H   UNL     1      31.701  27.130  36.160  1.00  0.00     0.293 HD
ENDBRANCH   7  27
TORSDOF 7
ENDMDL
MODEL 7
REMARK VINA RESULT:    -2.256      0.966      2.098
REMARK INTER + INTRA:          -2.552
REMARK INTER:                  -2.781
REMARK INTRA:                   0.229
REMARK UNBOUND:                 0.231
REMARK SMILES Oc1cc(O)c2cc(O)c(-c3cc(O)c(O)c(O)c3)[o+]c2c1
REMARK SMILES IDX 10 1 20 2 21 3 22 4 2 5 3 6 4 7 6 8 7 9 8 10 11 11 12 12
REMARK SMILES IDX 13 13 19 14 15 15 17 16 14 17 16 19 18 21 9 23 1 25 5 27
REMARK H PARENT 14 18 16 20 18 22 9 24 1 26 5 28
REMARK Flexibility Score: inf
ROOT
ATOM      1  C   UNL     1      28.953  31.414  33.730  1.00  0.00     0.402 A 
ATOM      2  O   UNL     1      27.981  31.832  34.536  1.00  0.00    -0.202 OA
ATOM      3  C   UNL     1      27.419  33.032  34.441  1.00  0.00     0.368 A 
ATOM      4  C   UNL     1      26.406  33.382  35.337  1.00  0.00     0.162 A 
ATOM      5  C   UNL     1      25.799  34.637  35.261  1.00  0.00     0.128 A 
ATOM      6  C   UNL     1      26.208  35.551  34.285  1.00  0.00     0.093 A 
ATOM      7  C   UNL     1      27.222  35.225  33.375  1.00  0.00     0.136 A 
ATOM      8  C   UNL     1      27.839  33.949  33.446  1.00  0.00     0.125 A 
ATOM      9  C   UNL     1      28.853  33.531  32.569  1.00  0.00     0.078 A 
ATOM     10  C   UNL     1      29.410  32.255  32.698  1.00  0.00     0.223 A 
ENDROOT
BRANCH   1  11
ATOM     11  C   UNL     1      29.506  30.057  33.945  1.00  0.00     0.091 A 
ATOM     12  C   UNL     1      30.051  29.313  32.884  1.00  0.00     0.068 A 
ATOM     13  C   UNL     1      30.589  28.039  33.111  1.00  0.00     0.162 A 
ATOM     14  C   UNL     1      29.537  29.522  35.241  1.00  0.00     0.068 A 
ATOM     15  C   UNL     1      30.596  27.502  34.411  1.00  0.00     0.200 A 
ATOM     16  C   UNL     1      30.071  28.251  35.477  1.00  0.00     0.162 A 
BRANCH  13  17
ATOM     17  O   UNL     1      31.122  27.308  32.052  1.00  0.00    -0.504 OA
ATOM     18  H   UNL     1      30.825  27.463  31.095  1.00  0.00     0.293 HD
ENDBRANCH  13  17
BRANCH  15  19
ATOM     19  O   UNL     1      31.125  26.233  34.653  1.00  0.00    -0.502 OA
ATOM     20  H   UNL     1      32.040  25.956  34.319  1.00  0.00     0.293 HD
ENDBRANCH  15  19
BRANCH  16  21
ATOM     21  O   UNL     1      30.070  27.750  36.779  1.00  0.00    -0.504 OA
ATOM     22  H   UNL     1      30.269  28.335  37.581  1.00  0.00     0.293 HD
ENDBRANCH  16  21
ENDBRANCH   1  11
BRANCH  10  23
ATOM     23  O   UNL     1      30.381  31.821  31.797  1.00  0.00    -0.500 OA
ATOM     24  H   UNL     1      30.619  30.841  31.700  1.00  0.00     0.294 HD
ENDBRANCH  10  23
BRANCH   5  25
ATOM     25  O   UNL     1      24.791  34.967  36.164  1.00  0.00    -0.507 OA
ATOM     26  H   UNL     1      23.948  34.408  36.245  1.00  0.00     0.293 HD
ENDBRANCH   5  25
BRANCH   7  27
ATOM     27  O   UNL     1      27.576  36.193  32.431  1.00  0.00    -0.507 OA
ATOM     28  H   UNL     1      26.930  36.630  31.790  1.00  0.00     0.293 HD
ENDBRANCH   7  27
TORSDOF 7
ENDMDL
MODEL 8
REMARK VINA RESULT:    -2.171      2.216      3.007
REMARK INTER + INTRA:          -2.448
REMARK INTER:                  -2.508
REMARK INTRA:                   0.060
REMARK UNBOUND:                 0.231
REMARK SMILES Oc1cc(O)c2cc(O)c(-c3cc(O)c(O)c(O)c3)[o+]c2c1
REMARK SMILES IDX 10 1 20 2 21 3 22 4 2 5 3 6 4 7 6 8 7 9 8 10 11 11 12 12
REMARK SMILES IDX 13 13 19 14 15 15 17 16 14 17 16 19 18 21 9 23 1 25 5 27
REMARK H PARENT 14 18 16 20 18 22 9 24 1 26 5 28
REMARK Flexibility Score: inf
ROOT
ATOM      1  C   UNL     1      28.930  32.232  33.961  1.00  0.00     0.402 A 
ATOM      2  O   UNL     1      28.279  32.387  32.812  1.00  0.00    -0.202 OA
ATOM      3  C   UNL     1      27.710  33.530  32.444  1.00  0.00     0.368 A 
ATOM      4  C   UNL     1      27.043  33.594  31.218  1.00  0.00     0.162 A 
ATOM      5  C   UNL     1      26.434  34.781  30.807  1.00  0.00     0.128 A 
ATOM      6  C   UNL     1      26.489  35.913  31.628  1.00  0.00     0.093 A 
ATOM      7  C   UNL     1      27.149  35.874  32.862  1.00  0.00     0.136 A 
ATOM      8  C   UNL     1      27.773  34.670  33.282  1.00  0.00     0.125 A 
ATOM      9  C   UNL     1      28.468  34.542  34.495  1.00  0.00     0.078 A 
ATOM     10  C   UNL     1      29.061  33.324  34.839  1.00  0.00     0.223 A 
ENDROOT
BRANCH   1  11
ATOM     11  C   UNL     1      29.513  30.904  34.262  1.00  0.00     0.091 A 
ATOM     12  C   UNL     1      29.502  30.379  35.566  1.00  0.00     0.068 A 
ATOM     13  C   UNL     1      30.039  29.111  35.827  1.00  0.00     0.162 A 
ATOM     14  C   UNL     1      30.038  30.128  33.217  1.00  0.00     0.068 A 
ATOM     15  C   UNL     1      30.582  28.349  34.777  1.00  0.00     0.200 A 
ATOM     16  C   UNL     1      30.576  28.863  33.469  1.00  0.00     0.162 A 
BRANCH  13  17
ATOM     17  O   UNL     1      30.028  28.602  37.124  1.00  0.00    -0.504 OA
ATOM     18  H   UNL     1      29.990  27.605  37.305  1.00  0.00     0.293 HD
ENDBRANCH  13  17
BRANCH  15  19
ATOM     19  O   UNL     1      31.125  27.087  35.021  1.00  0.00    -0.502 OA
ATOM     20  H   UNL     1      30.814  26.504  35.789  1.00  0.00     0.293 HD
ENDBRANCH  15  19
BRANCH  16  21
ATOM     21  O   UNL     1      31.101  28.129  32.405  1.00  0.00    -0.504 OA
ATOM     22  H   UNL     1      31.572  27.243  32.542  1.00  0.00     0.293 HD
ENDBRANCH  16  21
ENDBRANCH   1  11
BRANCH  10  23
ATOM     23  O   UNL     1      29.794  33.211  36.020  1.00  0.00    -0.500 OA
ATOM     24  H   UNL     1      29.671  33.861  36.788  1.00  0.00     0.294 HD
ENDBRANCH  10  23
BRANCH   5  25
ATOM     25  O   UNL     1      25.775  34.825  29.580  1.00  0.00    -0.507 OA
ATOM     26  H   UNL     1      24.767  34.923  29.523  1.00  0.00     0.293 HD
ENDBRANCH   5  25
BRANCH   7  27
ATOM     27  O   UNL     1      27.157  37.045  33.625  1.00  0.00    -0.507 OA
ATOM     28  H   UNL     1      27.981  37.595  33.820  1.00  0.00     0.293 HD
ENDBRANCH   7  27
TORSDOF 7
ENDMDL
