MODEL 1
REMARK VINA RESULT:    -3.689      0.000      0.000
REMARK INTER + INTRA:          -8.139
REMARK INTER:                  -6.277
REMARK INTRA:                  -1.862
REMARK UNBOUND:                -1.862
REMARK SMILES CCCCCCCCCCCCCC(=O)[O-]
REMARK SMILES IDX 8 1 9 2 10 3 11 4 12 5 13 6 14 7 15 8 16 9 7 10 6 11 5 12
REMARK SMILES IDX 4 13 3 14 2 15 1 16
REMARK H PARENT
REMARK Flexibility Score: inf
ROOT
ATOM      1  C   UNL     1      20.277  -2.287  14.943  1.00  0.00     0.000 C 
ENDROOT
BRANCH   1   2
ATOM      2  C   UNL     1      21.140  -2.762  13.764  1.00  0.00     0.000 C 
BRANCH   2   3
ATOM      3  C   UNL     1      22.528  -2.099  13.746  1.00  0.00     0.000 C 
BRANCH   3   4
ATOM      4  C   UNL     1      23.623  -3.006  14.327  1.00  0.00     0.000 C 
BRANCH   4   5
ATOM      5  C   UNL     1      23.810  -2.808  15.843  1.00  0.00     0.006 C 
BRANCH   5   6
ATOM      6  C   UNL     1      23.185  -3.950  16.657  1.00  0.00     0.053 C 
BRANCH   6   7
ATOM      7  C   UNL     1      24.113  -4.444  17.722  1.00  0.00     0.041 C 
ATOM      8  O   UNL     1      24.878  -3.641  18.319  1.00  0.00    -0.550 OA
ATOM      9  O   UNL     1      24.159  -5.797  18.034  1.00  0.00    -0.550 OA
ENDBRANCH   6   7
ENDBRANCH   5   6
ENDBRANCH   4   5
ENDBRANCH   3   4
ENDBRANCH   2   3
ENDBRANCH   1   2
BRANCH   1  10
ATOM     10  C   UNL     1      20.426  -0.781  15.214  1.00  0.00     0.000 C 
BRANCH  10  11
ATOM     11  C   UNL     1      20.974  -0.477  16.620  1.00  0.00    -0.000 C 
BRANCH  11  12
ATOM     12  C   UNL     1      21.729   0.860  16.743  1.00  0.00    -0.000 C 
BRANCH  12  13
ATOM     13  C   UNL     1      23.227   0.732  16.419  1.00  0.00    -0.000 C 
BRANCH  13  14
ATOM     14  C   UNL     1      23.560   1.135  14.972  1.00  0.00    -0.000 C 
BRANCH  14  15
ATOM     15  C   UNL     1      22.637   2.213  14.375  1.00  0.00    -0.003 C 
ATOM     16  C   UNL     1      21.934   1.757  13.095  1.00  0.00     0.004 C 
ENDBRANCH  14  15
ENDBRANCH  13  14
ENDBRANCH  12  13
ENDBRANCH  11  12
ENDBRANCH  10  11
ENDBRANCH   1  10
TORSDOF 12
ENDMDL
MODEL 2
REMARK VINA RESULT:    -3.597      3.902      6.707
REMARK INTER + INTRA:          -7.982
REMARK INTER:                  -5.881
REMARK INTRA:                  -2.101
REMARK UNBOUND:                -1.862
REMARK SMILES CCCCCCCCCCCCCC(=O)[O-]
REMARK SMILES IDX 8 1 9 2 10 3 11 4 12 5 13 6 14 7 15 8 16 9 7 10 6 11 5 12
REMARK SMILES IDX 4 13 3 14 2 15 1 16
REMARK H PARENT
REMARK Flexibility Score: inf
ROOT
ATOM      1  C   UNL     1      24.402   6.434  16.213  1.00  0.00     0.000 C 
ENDROOT
BRANCH   1   2
ATOM      2  C   UNL     1      23.135   5.591  16.422  1.00  0.00     0.000 C 
BRANCH   2   3
ATOM      3  C   UNL     1      23.447   4.096  16.607  1.00  0.00     0.000 C 
BRANCH   3   4
ATOM      4  C   UNL     1      24.905   3.752  16.268  1.00  0.00     0.000 C 
BRANCH   4   5
ATOM      5  C   UNL     1      25.065   2.311  15.749  1.00  0.00     0.006 C 
BRANCH   5   6
ATOM      6  C   UNL     1      23.999   1.367  16.323  1.00  0.00     0.053 C 
BRANCH   6   7
ATOM      7  C   UNL     1      23.474   0.425  15.285  1.00  0.00     0.041 C 
ATOM      8  O   UNL     1      23.694  -0.811  15.382  1.00  0.00    -0.550 OA
ATOM      9  O   UNL     1      22.772   0.915  14.191  1.00  0.00    -0.550 OA
ENDBRANCH   6   7
ENDBRANCH   5   6
ENDBRANCH   4   5
ENDBRANCH   3   4
ENDBRANCH   2   3
ENDBRANCH   1   2
BRANCH   1  10
ATOM     10  C   UNL     1      24.403   7.173  14.864  1.00  0.00     0.000 C 
BRANCH  10  11
ATOM     11  C   UNL     1      25.586   6.774  13.963  1.00  0.00    -0.000 C 
BRANCH  11  12
ATOM     12  C   UNL     1      25.323   5.563  13.051  1.00  0.00    -0.000 C 
BRANCH  12  13
ATOM     13  C   UNL     1      23.853   5.457  12.608  1.00  0.00    -0.000 C 
BRANCH  13  14
ATOM     14  C   UNL     1      23.260   4.056  12.842  1.00  0.00    -0.000 C 
BRANCH  14  15
ATOM     15  C   UNL     1      21.730   4.025  13.011  1.00  0.00    -0.003 C 
ATOM     16  C   UNL     1      21.137   5.395  13.347  1.00  0.00     0.004 C 
ENDBRANCH  14  15
ENDBRANCH  13  14
ENDBRANCH  12  13
ENDBRANCH  11  12
ENDBRANCH  10  11
ENDBRANCH   1  10
TORSDOF 12
ENDMDL
MODEL 3
REMARK VINA RESULT:    -3.587      3.992      6.404
REMARK INTER + INTRA:          -7.965
REMARK INTER:                  -6.213
REMARK INTRA:                  -1.752
REMARK UNBOUND:                -1.862
REMARK SMILES CCCCCCCCCCCCCC(=O)[O-]
REMARK SMILES IDX 8 1 9 2 10 3 11 4 12 5 13 6 14 7 15 8 16 9 7 10 6 11 5 12
REMARK SMILES IDX 4 13 3 14 2 15 1 16
REMARK H PARENT
REMARK Flexibility Score: inf
ROOT
ATOM      1  C   UNL     1      21.306   0.659  16.382  1.00  0.00     0.000 C 
ENDROOT
BRANCH   1   2
ATOM      2  C   UNL     1      22.840   0.580  16.379  1.00  0.00     0.000 C 
BRANCH   2   3
ATOM      3  C   UNL     1      23.442   0.868  14.993  1.00  0.00     0.000 C 
BRANCH   3   4
ATOM      4  C   UNL     1      22.389   1.347  13.981  1.00  0.00     0.000 C 
BRANCH   4   5
ATOM      5  C   UNL     1      22.545   2.838  13.629  1.00  0.00     0.006 C 
BRANCH   5   6
ATOM      6  C   UNL     1      23.893   3.404  14.098  1.00  0.00     0.053 C 
BRANCH   6   7
ATOM      7  C   UNL     1      24.249   4.663  13.369  1.00  0.00     0.041 C 
ATOM      8  O   UNL     1      25.247   5.343  13.729  1.00  0.00    -0.550 OA
ATOM      9  O   UNL     1      23.460   5.104  12.315  1.00  0.00    -0.550 OA
ENDBRANCH   6   7
ENDBRANCH   5   6
ENDBRANCH   4   5
ENDBRANCH   3   4
ENDBRANCH   2   3
ENDBRANCH   1   2
BRANCH   1  10
ATOM     10  C   UNL     1      20.644  -0.722  16.520  1.00  0.00     0.000 C 
BRANCH  10  11
ATOM     11  C   UNL     1      20.191  -1.307  15.170  1.00  0.00    -0.000 C 
BRANCH  11  12
ATOM     12  C   UNL     1      20.858  -2.641  14.788  1.00  0.00    -0.000 C 
BRANCH  12  13
ATOM     13  C   UNL     1      22.154  -2.451  13.980  1.00  0.00    -0.000 C 
BRANCH  13  14
ATOM     14  C   UNL     1      23.399  -2.967  14.721  1.00  0.00    -0.000 C 
BRANCH  14  15
ATOM     15  C   UNL     1      23.134  -3.474  16.151  1.00  0.00    -0.003 C 
ATOM     16  C   UNL     1      24.195  -3.019  17.154  1.00  0.00     0.004 C 
ENDBRANCH  14  15
ENDBRANCH  13  14
ENDBRANCH  12  13
ENDBRANCH  11  12
ENDBRANCH  10  11
ENDBRANCH   1  10
TORSDOF 12
ENDMDL
MODEL 4
REMARK VINA RESULT:    -3.560      4.251      7.028
REMARK INTER + INTRA:          -7.920
REMARK INTER:                  -6.669
REMARK INTRA:                  -1.251
REMARK UNBOUND:                -1.862
REMARK SMILES CCCCCCCCCCCCCC(=O)[O-]
REMARK SMILES IDX 8 1 9 2 10 3 11 4 12 5 13 6 14 7 15 8 16 9 7 10 6 11 5 12
REMARK SMILES IDX 4 13 3 14 2 15 1 16
REMARK H PARENT
REMARK Flexibility Score: inf
ROOT
ATOM      1  C   UNL     1      23.465   0.871  14.986  1.00  0.00     0.000 C 
ENDROOT
BRANCH   1   2
ATOM      2  C   UNL     1      23.775   1.213  16.452  1.00  0.00     0.000 C 
BRANCH   2   3
ATOM      3  C   UNL     1      24.504   2.559  16.600  1.00  0.00     0.000 C 
BRANCH   3   4
ATOM      4  C   UNL     1      25.077   3.070  15.269  1.00  0.00     0.000 C 
BRANCH   4   5
ATOM      5  C   UNL     1      24.630   4.508  14.948  1.00  0.00     0.006 C 
BRANCH   5   6
ATOM      6  C   UNL     1      24.943   4.900  13.497  1.00  0.00     0.053 C 
BRANCH   6   7
ATOM      7  C   UNL     1      23.703   4.958  12.659  1.00  0.00     0.041 C 
ATOM      8  O   UNL     1      23.066   3.903  12.397  1.00  0.00    -0.550 OA
ATOM      9  O   UNL     1      23.270   6.170  12.139  1.00  0.00    -0.550 OA
ENDBRANCH   6   7
ENDBRANCH   5   6
ENDBRANCH   4   5
ENDBRANCH   3   4
ENDBRANCH   2   3
ENDBRANCH   1   2
BRANCH   1  10
ATOM     10  C   UNL     1      21.984   1.083  14.631  1.00  0.00     0.000 C 
BRANCH  10  11
ATOM     11  C   UNL     1      21.691   0.869  13.135  1.00  0.00    -0.000 C 
BRANCH  11  12
ATOM     12  C   UNL     1      21.429  -0.594  12.731  1.00  0.00    -0.000 C 
BRANCH  12  13
ATOM     13  C   UNL     1      20.642  -1.376  13.797  1.00  0.00    -0.000 C 
BRANCH  13  14
ATOM     14  C   UNL     1      21.370  -2.651  14.258  1.00  0.00    -0.000 C 
BRANCH  14  15
ATOM     15  C   UNL     1      22.897  -2.627  14.063  1.00  0.00    -0.003 C 
ATOM     16  C   UNL     1      23.666  -3.114  15.292  1.00  0.00     0.004 C 
ENDBRANCH  14  15
ENDBRANCH  13  14
ENDBRANCH  12  13
ENDBRANCH  11  12
ENDBRANCH  10  11
ENDBRANCH   1  10
TORSDOF 12
ENDMDL
MODEL 5
REMARK VINA RESULT:    -3.550      1.616      2.500
REMARK INTER + INTRA:          -7.902
REMARK INTER:                  -6.545
REMARK INTRA:                  -1.357
REMARK UNBOUND:                -1.862
REMARK SMILES CCCCCCCCCCCCCC(=O)[O-]
REMARK SMILES IDX 8 1 9 2 10 3 11 4 12 5 13 6 14 7 15 8 16 9 7 10 6 11 5 12
REMARK SMILES IDX 4 13 3 14 2 15 1 16
REMARK H PARENT
REMARK Flexibility Score: inf
ROOT
ATOM      1  C   UNL     1      21.568  -0.139  13.037  1.00  0.00     0.000 C 
ENDROOT
BRANCH   1   2
ATOM      2  C   UNL     1      20.636  -0.752  14.094  1.00  0.00     0.000 C 
BRANCH   2   3
ATOM      3  C   UNL     1      20.662  -2.290  14.081  1.00  0.00     0.000 C 
BRANCH   3   4
ATOM      4  C   UNL     1      21.984  -2.862  14.616  1.00  0.00     0.000 C 
BRANCH   4   5
ATOM      5  C   UNL     1      22.368  -2.277  15.988  1.00  0.00     0.006 C 
BRANCH   5   6
ATOM      6  C   UNL     1      23.877  -2.365  16.252  1.00  0.00     0.053 C 
BRANCH   6   7
ATOM      7  C   UNL     1      24.194  -3.349  17.336  1.00  0.00     0.041 C 
ATOM      8  O   UNL     1      24.121  -4.586  17.109  1.00  0.00    -0.550 OA
ATOM      9  O   UNL     1      24.537  -2.901  18.605  1.00  0.00    -0.550 OA
ENDBRANCH   6   7
ENDBRANCH   5   6
ENDBRANCH   4   5
ENDBRANCH   3   4
ENDBRANCH   2   3
ENDBRANCH   1   2
BRANCH   1  10
ATOM     10  C   UNL     1      21.856   1.349  13.296  1.00  0.00     0.000 C 
BRANCH  10  11
ATOM     11  C   UNL     1      22.321   1.627  14.737  1.00  0.00    -0.000 C 
BRANCH  11  12
ATOM     12  C   UNL     1      23.757   1.169  15.051  1.00  0.00    -0.000 C 
BRANCH  12  13
ATOM     13  C   UNL     1      24.687   2.336  15.425  1.00  0.00    -0.000 C 
BRANCH  13  14
ATOM     14  C   UNL     1      24.067   3.712  15.126  1.00  0.00    -0.000 C 
BRANCH  14  15
ATOM     15  C   UNL     1      24.687   4.452  13.927  1.00  0.00    -0.003 C 
ATOM     16  C   UNL     1      23.720   4.605  12.752  1.00  0.00     0.004 C 
ENDBRANCH  14  15
ENDBRANCH  13  14
ENDBRANCH  12  13
ENDBRANCH  11  12
ENDBRANCH  10  11
ENDBRANCH   1  10
TORSDOF 12
ENDMDL
MODEL 6
REMARK VINA RESULT:    -3.476      3.205      5.667
REMARK INTER + INTRA:          -7.775
REMARK INTER:                  -5.786
REMARK INTRA:                  -1.990
REMARK UNBOUND:                -1.862
REMARK SMILES CCCCCCCCCCCCCC(=O)[O-]
REMARK SMILES IDX 8 1 9 2 10 3 11 4 12 5 13 6 14 7 15 8 16 9 7 10 6 11 5 12
REMARK SMILES IDX 4 13 3 14 2 15 1 16
REMARK H PARENT
REMARK Flexibility Score: inf
ROOT
ATOM      1  C   UNL     1      22.757   4.913  17.025  1.00  0.00     0.000 C 
ENDROOT
BRANCH   1   2
ATOM      2  C   UNL     1      24.190   4.626  16.553  1.00  0.00     0.000 C 
BRANCH   2   3
ATOM      3  C   UNL     1      24.653   3.203  16.912  1.00  0.00     0.000 C 
BRANCH   3   4
ATOM      4  C   UNL     1      25.095   2.398  15.680  1.00  0.00     0.000 C 
BRANCH   4   5
ATOM      5  C   UNL     1      23.929   1.637  15.023  1.00  0.00     0.006 C 
BRANCH   5   6
ATOM      6  C   UNL     1      22.966   1.046  16.062  1.00  0.00     0.053 C 
BRANCH   6   7
ATOM      7  C   UNL     1      23.413  -0.306  16.526  1.00  0.00     0.041 C 
ATOM      8  O   UNL     1      23.598  -1.233  15.693  1.00  0.00    -0.550 OA
ATOM      9  O   UNL     1      23.591  -0.554  17.881  1.00  0.00    -0.550 OA
ENDBRANCH   6   7
ENDBRANCH   5   6
ENDBRANCH   4   5
ENDBRANCH   3   4
ENDBRANCH   2   3
ENDBRANCH   1   2
BRANCH   1  10
ATOM     10  C   UNL     1      21.703   4.564  15.960  1.00  0.00     0.000 C 
BRANCH  10  11
ATOM     11  C   UNL     1      21.891   5.354  14.652  1.00  0.00    -0.000 C 
BRANCH  11  12
ATOM     12  C   UNL     1      21.648   4.541  13.367  1.00  0.00    -0.000 C 
BRANCH  12  13
ATOM     13  C   UNL     1      22.952   4.046  12.719  1.00  0.00    -0.000 C 
BRANCH  13  14
ATOM     14  C   UNL     1      23.888   5.196  12.308  1.00  0.00    -0.000 C 
BRANCH  14  15
ATOM     15  C   UNL     1      25.218   5.253  13.082  1.00  0.00    -0.003 C 
ATOM     16  C   UNL     1      25.480   6.616  13.724  1.00  0.00     0.004 C 
ENDBRANCH  14  15
ENDBRANCH  13  14
ENDBRANCH  12  13
ENDBRANCH  11  12
ENDBRANCH  10  11
ENDBRANCH   1  10
TORSDOF 12
ENDMDL
MODEL 7
REMARK VINA RESULT:    -3.441      3.377      5.867
REMARK INTER + INTRA:          -7.717
REMARK INTER:                  -5.750
REMARK INTRA:                  -1.967
REMARK UNBOUND:                -1.862
REMARK SMILES CCCCCCCCCCCCCC(=O)[O-]
REMARK SMILES IDX 8 1 9 2 10 3 11 4 12 5 13 6 14 7 15 8 16 9 7 10 6 11 5 12
REMARK SMILES IDX 4 13 3 14 2 15 1 16
REMARK H PARENT
REMARK Flexibility Score: inf
ROOT
ATOM      1  C   UNL     1      22.792  -2.107  18.990  1.00  0.00     0.000 C 
ENDROOT
BRANCH   1   2
ATOM      2  C   UNL     1      22.337  -0.773  18.377  1.00  0.00     0.000 C 
BRANCH   2   3
ATOM      3  C   UNL     1      23.479  -0.037  17.656  1.00  0.00     0.000 C 
BRANCH   3   4
ATOM      4  C   UNL     1      22.969   1.043  16.691  1.00  0.00     0.000 C 
BRANCH   4   5
ATOM      5  C   UNL     1      23.766   1.082  15.374  1.00  0.00     0.006 C 
BRANCH   5   6
ATOM      6  C   UNL     1      22.957   1.703  14.227  1.00  0.00     0.053 C 
BRANCH   6   7
ATOM      7  C   UNL     1      23.466   3.064  13.862  1.00  0.00     0.041 C 
ATOM      8  O   UNL     1      24.329   3.632  14.583  1.00  0.00    -0.550 OA
ATOM      9  O   UNL     1      22.964   3.719  12.746  1.00  0.00    -0.550 OA
ENDBRANCH   6   7
ENDBRANCH   5   6
ENDBRANCH   4   5
ENDBRANCH   3   4
ENDBRANCH   2   3
ENDBRANCH   1   2
BRANCH   1  10
ATOM     10  C   UNL     1      24.224  -2.487  18.578  1.00  0.00     0.000 C 
BRANCH  10  11
ATOM     11  C   UNL     1      24.282  -3.774  17.735  1.00  0.00    -0.000 C 
BRANCH  11  12
ATOM     12  C   UNL     1      23.324  -3.800  16.529  1.00  0.00    -0.000 C 
BRANCH  12  13
ATOM     13  C   UNL     1      23.919  -3.127  15.280  1.00  0.00    -0.000 C 
BRANCH  13  14
ATOM     14  C   UNL     1      22.865  -2.374  14.450  1.00  0.00    -0.000 C 
BRANCH  14  15
ATOM     15  C   UNL     1      21.407  -2.634  14.872  1.00  0.00    -0.003 C 
ATOM     16  C   UNL     1      20.613  -1.348  15.109  1.00  0.00     0.004 C 
ENDBRANCH  14  15
ENDBRANCH  13  14
ENDBRANCH  12  13
ENDBRANCH  11  12
ENDBRANCH  10  11
ENDBRANCH   1  10
TORSDOF 12
ENDMDL
MODEL 8
REMARK VINA RESULT:    -3.437      1.488      2.818
REMARK INTER + INTRA:          -7.710
REMARK INTER:                  -5.871
REMARK INTRA:                  -1.838
REMARK UNBOUND:                -1.862
REMARK SMILES CCCCCCCCCCCCCC(=O)[O-]
REMARK SMILES IDX 8 1 9 2 10 3 11 4 12 5 13 6 14 7 15 8 16 9 7 10 6 11 5 12
REMARK SMILES IDX 4 13 3 14 2 15 1 16
REMARK H PARENT
REMARK Flexibility Score: inf
ROOT
ATOM      1  C   UNL     1      20.213  -1.426  16.381  1.00  0.00     0.000 C 
ENDROOT
BRANCH   1   2
ATOM      2  C   UNL     1      21.287  -2.191  17.168  1.00  0.00     0.000 C 
BRANCH   2   3
ATOM      3  C   UNL     1      21.695  -3.506  16.481  1.00  0.00     0.000 C 
BRANCH   3   4
ATOM      4  C   UNL     1      23.010  -3.379  15.698  1.00  0.00     0.000 C 
BRANCH   4   5
ATOM      5  C   UNL     1      24.237  -3.254  16.620  1.00  0.00     0.006 C 
BRANCH   5   6
ATOM      6  C   UNL     1      24.254  -4.335  17.710  1.00  0.00     0.053 C 
BRANCH   6   7
ATOM      7  C   UNL     1      24.334  -3.739  19.081  1.00  0.00     0.041 C 
ATOM      8  O   UNL     1      24.445  -2.493  19.225  1.00  0.00    -0.550 OA
ATOM      9  O   UNL     1      24.321  -4.562  20.200  1.00  0.00    -0.550 OA
ENDBRANCH   6   7
ENDBRANCH   5   6
ENDBRANCH   4   5
ENDBRANCH   3   4
ENDBRANCH   2   3
ENDBRANCH   1   2
BRANCH   1  10
ATOM     10  C   UNL     1      20.607   0.036  16.113  1.00  0.00     0.000 C 
BRANCH  10  11
ATOM     11  C   UNL     1      22.130   0.235  16.001  1.00  0.00    -0.000 C 
BRANCH  11  12
ATOM     12  C   UNL     1      22.692   0.125  14.572  1.00  0.00    -0.000 C 
BRANCH  12  13
ATOM     13  C   UNL     1      21.624   0.365  13.491  1.00  0.00    -0.000 C 
BRANCH  13  14
ATOM     14  C   UNL     1      21.387  -0.869  12.604  1.00  0.00    -0.000 C 
BRANCH  14  15
ATOM     15  C   UNL     1      20.000  -1.519  12.761  1.00  0.00    -0.003 C 
ATOM     16  C   UNL     1      20.068  -3.029  12.993  1.00  0.00     0.004 C 
ENDBRANCH  14  15
ENDBRANCH  13  14
ENDBRANCH  12  13
ENDBRANCH  11  12
ENDBRANCH  10  11
ENDBRANCH   1  10
TORSDOF 12
ENDMDL
MODEL 9
REMARK VINA RESULT:    -3.423      1.220      2.649
REMARK INTER + INTRA:          -7.686
REMARK INTER:                  -5.786
REMARK INTRA:                  -1.900
REMARK UNBOUND:                -1.862
REMARK SMILES CCCCCCCCCCCCCC(=O)[O-]
REMARK SMILES IDX 8 1 9 2 10 3 11 4 12 5 13 6 14 7 15 8 16 9 7 10 6 11 5 12
REMARK SMILES IDX 4 13 3 14 2 15 1 16
REMARK H PARENT
REMARK Flexibility Score: inf
ROOT
ATOM      1  C   UNL     1      20.913  -0.837  13.782  1.00  0.00     0.000 C 
ENDROOT
BRANCH   1   2
ATOM      2  C   UNL     1      21.701  -2.151  13.665  1.00  0.00     0.000 C 
BRANCH   2   3
ATOM      3  C   UNL     1      21.987  -2.789  15.036  1.00  0.00     0.000 C 
BRANCH   3   4
ATOM      4  C   UNL     1      23.488  -2.999  15.288  1.00  0.00     0.000 C 
BRANCH   4   5
ATOM      5  C   UNL     1      23.833  -3.046  16.788  1.00  0.00     0.006 C 
BRANCH   5   6
ATOM      6  C   UNL     1      24.264  -4.449  17.238  1.00  0.00     0.053 C 
BRANCH   6   7
ATOM      7  C   UNL     1      23.164  -5.160  17.964  1.00  0.00     0.041 C 
ATOM      8  O   UNL     1      23.313  -6.359  18.322  1.00  0.00    -0.550 OA
ATOM      9  O   UNL     1      21.962  -4.512  18.214  1.00  0.00    -0.550 OA
ENDBRANCH   6   7
ENDBRANCH   5   6
ENDBRANCH   4   5
ENDBRANCH   3   4
ENDBRANCH   2   3
ENDBRANCH   1   2
BRANCH   1  10
ATOM     10  C   UNL     1      21.641   0.347  13.123  1.00  0.00     0.000 C 
BRANCH  10  11
ATOM     11  C   UNL     1      22.264   1.312  14.148  1.00  0.00    -0.000 C 
BRANCH  11  12
ATOM     12  C   UNL     1      23.412   0.715  14.982  1.00  0.00    -0.000 C 
BRANCH  12  13
ATOM     13  C   UNL     1      23.131   0.746  16.494  1.00  0.00    -0.000 C 
BRANCH  13  14
ATOM     14  C   UNL     1      21.675   1.121  16.822  1.00  0.00    -0.000 C 
BRANCH  14  15
ATOM     15  C   UNL     1      20.802  -0.052  17.304  1.00  0.00    -0.003 C 
ATOM     16  C   UNL     1      21.435  -0.836  18.455  1.00  0.00     0.004 C 
ENDBRANCH  14  15
ENDBRANCH  13  14
ENDBRANCH  12  13
ENDBRANCH  11  12
ENDBRANCH  10  11
ENDBRANCH   1  10
TORSDOF 12
ENDMDL
