MODEL 1
REMARK VINA RESULT:    -0.009      0.000      0.000
REMARK INTER + INTRA:          -1.273
REMARK INTER:                  -0.018
REMARK INTRA:                  -1.255
REMARK UNBOUND:                -1.255
REMARK SMILES CCCCCCCCCCCCCCCCCC(=O)[O-]
REMARK SMILES IDX 10 1 11 2 12 3 13 4 14 5 15 6 16 7 17 8 18 9 19 10 20 11
REMARK SMILES IDX 9 12 8 13 7 14 6 15 5 16 4 17 3 18 2 19 1 20
REMARK H PARENT
REMARK Flexibility Score: inf
ROOT
ATOM      1  C   UNL     1      -4.766  34.266  22.999  1.00  0.00     0.000 C 
ENDROOT
BRANCH   1   2
ATOM      2  C   UNL     1      -4.717  35.380  21.932  1.00  0.00     0.000 C 
BRANCH   2   3
ATOM      3  C   UNL     1      -5.989  35.527  21.079  1.00  0.00     0.000 C 
BRANCH   3   4
ATOM      4  C   UNL     1      -5.882  34.812  19.721  1.00  0.00     0.000 C 
BRANCH   4   5
ATOM      5  C   UNL     1      -4.571  35.139  18.985  1.00  0.00     0.000 C 
BRANCH   5   6
ATOM      6  C   UNL     1      -4.460  34.417  17.631  1.00  0.00     0.000 C 
BRANCH   6   7
ATOM      7  C   UNL     1      -3.553  35.161  16.633  1.00  0.00     0.006 C 
BRANCH   7   8
ATOM      8  C   UNL     1      -4.259  36.276  15.843  1.00  0.00     0.053 C 
BRANCH   8   9
ATOM      9  C   UNL     1      -3.491  36.673  14.620  1.00  0.00     0.041 C 
ATOM     10  O   UNL     1      -3.867  37.654  13.928  1.00  0.00    -0.550 OA
ATOM     11  O   UNL     1      -2.340  35.981  14.266  1.00  0.00    -0.550 OA
ENDBRANCH   8   9
ENDBRANCH   7   8
ENDBRANCH   6   7
ENDBRANCH   5   6
ENDBRANCH   4   5
ENDBRANCH   3   4
ENDBRANCH   2   3
ENDBRANCH   1   2
BRANCH   1  12
ATOM     12  C   UNL     1      -6.108  34.131  23.740  1.00  0.00     0.000 C 
BRANCH  12  13
ATOM     13  C   UNL     1      -6.125  34.875  25.084  1.00  0.00    -0.000 C 
BRANCH  13  14
ATOM     14  C   UNL     1      -6.125  36.393  24.871  1.00  0.00    -0.000 C 
BRANCH  14  15
ATOM     15  C   UNL     1      -5.084  37.075  25.768  1.00  0.00    -0.000 C 
BRANCH  15  16
ATOM     16  C   UNL     1      -4.592  38.387  25.139  1.00  0.00    -0.000 C 
BRANCH  16  17
ATOM     17  C   UNL     1      -5.655  39.055  24.252  1.00  0.00    -0.000 C 
BRANCH  17  18
ATOM     18  C   UNL     1      -5.066  39.619  22.947  1.00  0.00    -0.000 C 
BRANCH  18  19
ATOM     19  C   UNL     1      -5.953  39.323  21.726  1.00  0.00    -0.003 C 
ATOM     20  C   UNL     1      -5.191  38.644  20.590  1.00  0.00     0.004 C 
ENDBRANCH  18  19
ENDBRANCH  17  18
ENDBRANCH  16  17
ENDBRANCH  15  16
ENDBRANCH  14  15
ENDBRANCH  13  14
ENDBRANCH  12  13
ENDBRANCH   1  12
TORSDOF 16
ENDMDL
MODEL 2
REMARK VINA RESULT:     0.422      2.552      7.138
REMARK INTER + INTRA:          -0.439
REMARK INTER:                   0.255
REMARK INTRA:                  -0.694
REMARK UNBOUND:                -1.255
REMARK SMILES CCCCCCCCCCCCCCCCCC(=O)[O-]
REMARK SMILES IDX 10 1 11 2 12 3 13 4 14 5 15 6 16 7 17 8 18 9 19 10 20 11
REMARK SMILES IDX 9 12 8 13 7 14 6 15 5 16 4 17 3 18 2 19 1 20
REMARK H PARENT
REMARK Flexibility Score: inf
ROOT
ATOM      1  C   UNL     1      -5.825  35.647  21.683  1.00  0.00     0.000 C 
ENDROOT
BRANCH   1   2
ATOM      2  C   UNL     1      -6.122  34.485  22.653  1.00  0.00     0.000 C 
BRANCH   2   3
ATOM      3  C   UNL     1      -6.124  34.859  24.146  1.00  0.00     0.000 C 
BRANCH   3   4
ATOM      4  C   UNL     1      -4.994  35.836  24.516  1.00  0.00     0.000 C 
BRANCH   4   5
ATOM      5  C   UNL     1      -5.402  36.812  25.633  1.00  0.00     0.000 C 
BRANCH   5   6
ATOM      6  C   UNL     1      -5.611  38.246  25.116  1.00  0.00     0.000 C 
BRANCH   6   7
ATOM      7  C   UNL     1      -5.884  38.297  23.601  1.00  0.00     0.006 C 
BRANCH   7   8
ATOM      8  C   UNL     1      -5.659  39.677  22.961  1.00  0.00     0.053 C 
BRANCH   8   9
ATOM      9  C   UNL     1      -5.801  39.637  21.471  1.00  0.00     0.041 C 
ATOM     10  O   UNL     1      -5.659  38.551  20.850  1.00  0.00    -0.550 OA
ATOM     11  O   UNL     1      -6.125  40.792  20.771  1.00  0.00    -0.550 OA
ENDBRANCH   8   9
ENDBRANCH   7   8
ENDBRANCH   6   7
ENDBRANCH   5   6
ENDBRANCH   4   5
ENDBRANCH   3   4
ENDBRANCH   2   3
ENDBRANCH   1   2
BRANCH   1  12
ATOM     12  C   UNL     1      -4.557  35.477  20.828  1.00  0.00     0.000 C 
BRANCH  12  13
ATOM     13  C   UNL     1      -4.838  35.569  19.321  1.00  0.00    -0.000 C 
BRANCH  13  14
ATOM     14  C   UNL     1      -4.817  34.180  18.673  1.00  0.00    -0.000 C 
BRANCH  14  15
ATOM     15  C   UNL     1      -4.507  34.276  17.173  1.00  0.00    -0.000 C 
BRANCH  15  16
ATOM     16  C   UNL     1      -3.848  35.621  16.834  1.00  0.00    -0.000 C 
BRANCH  16  17
ATOM     17  C   UNL     1      -2.676  35.476  15.851  1.00  0.00    -0.000 C 
BRANCH  17  18
ATOM     18  C   UNL     1      -2.950  36.156  14.498  1.00  0.00    -0.000 C 
BRANCH  18  19
ATOM     19  C   UNL     1      -4.321  36.851  14.457  1.00  0.00    -0.003 C 
ATOM     20  C   UNL     1      -4.216  38.355  14.215  1.00  0.00     0.004 C 
ENDBRANCH  18  19
ENDBRANCH  17  18
ENDBRANCH  16  17
ENDBRANCH  15  16
ENDBRANCH  14  15
ENDBRANCH  13  14
ENDBRANCH  12  13
ENDBRANCH   1  12
TORSDOF 16
ENDMDL
MODEL 3
REMARK VINA RESULT:     1.159      3.619      7.889
REMARK INTER + INTRA:           0.989
REMARK INTER:                   1.273
REMARK INTRA:                  -0.284
REMARK UNBOUND:                -1.255
REMARK SMILES CCCCCCCCCCCCCCCCCC(=O)[O-]
REMARK SMILES IDX 10 1 11 2 12 3 13 4 14 5 15 6 16 7 17 8 18 9 19 10 20 11
REMARK SMILES IDX 9 12 8 13 7 14 6 15 5 16 4 17 3 18 2 19 1 20
REMARK H PARENT
REMARK Flexibility Score: inf
ROOT
ATOM      1  C   UNL     1      -4.953  36.458  21.113  1.00  0.00     0.000 C 
ENDROOT
BRANCH   1   2
ATOM      2  C   UNL     1      -5.010  37.771  20.304  1.00  0.00     0.000 C 
BRANCH   2   3
ATOM      3  C   UNL     1      -6.089  38.772  20.754  1.00  0.00     0.000 C 
BRANCH   3   4
ATOM      4  C   UNL     1      -5.504  39.976  21.513  1.00  0.00     0.000 C 
BRANCH   4   5
ATOM      5  C   UNL     1      -4.734  39.557  22.778  1.00  0.00     0.000 C 
BRANCH   5   6
ATOM      6  C   UNL     1      -5.670  39.144  23.928  1.00  0.00     0.000 C 
BRANCH   6   7
ATOM      7  C   UNL     1      -6.123  37.675  23.827  1.00  0.00     0.006 C 
BRANCH   7   8
ATOM      8  C   UNL     1      -5.562  36.761  24.928  1.00  0.00     0.053 C 
BRANCH   8   9
ATOM      9  C   UNL     1      -5.858  35.317  24.667  1.00  0.00     0.041 C 
ATOM     10  O   UNL     1      -5.928  34.502  25.623  1.00  0.00    -0.550 OA
ATOM     11  O   UNL     1      -6.091  34.878  23.369  1.00  0.00    -0.550 OA
ENDBRANCH   8   9
ENDBRANCH   7   8
ENDBRANCH   6   7
ENDBRANCH   5   6
ENDBRANCH   4   5
ENDBRANCH   3   4
ENDBRANCH   2   3
ENDBRANCH   1   2
BRANCH   1  12
ATOM     12  C   UNL     1      -4.971  35.171  20.269  1.00  0.00     0.000 C 
BRANCH  12  13
ATOM     13  C   UNL     1      -5.256  35.435  18.783  1.00  0.00    -0.000 C 
BRANCH  13  14
ATOM     14  C   UNL     1      -4.944  34.196  17.935  1.00  0.00    -0.000 C 
BRANCH  14  15
ATOM     15  C   UNL     1      -3.655  34.393  17.127  1.00  0.00    -0.000 C 
BRANCH  15  16
ATOM     16  C   UNL     1      -3.740  35.656  16.257  1.00  0.00    -0.000 C 
BRANCH  16  17
ATOM     17  C   UNL     1      -2.534  35.812  15.317  1.00  0.00    -0.000 C 
BRANCH  17  18
ATOM     18  C   UNL     1      -2.910  36.467  13.977  1.00  0.00    -0.000 C 
BRANCH  18  19
ATOM     19  C   UNL     1      -4.339  37.033  13.979  1.00  0.00    -0.003 C 
ATOM     20  C   UNL     1      -4.390  38.516  14.341  1.00  0.00     0.004 C 
ENDBRANCH  18  19
ENDBRANCH  17  18
ENDBRANCH  16  17
ENDBRANCH  15  16
ENDBRANCH  14  15
ENDBRANCH  13  14
ENDBRANCH  12  13
ENDBRANCH   1  12
TORSDOF 16
ENDMDL
MODEL 4
REMARK VINA RESULT:     1.446      3.269      7.468
REMARK INTER + INTRA:           1.544
REMARK INTER:                   1.868
REMARK INTRA:                  -0.324
REMARK UNBOUND:                -1.255
REMARK SMILES CCCCCCCCCCCCCCCCCC(=O)[O-]
REMARK SMILES IDX 10 1 11 2 12 3 13 4 14 5 15 6 16 7 17 8 18 9 19 10 20 11
REMARK SMILES IDX 9 12 8 13 7 14 6 15 5 16 4 17 3 18 2 19 1 20
REMARK H PARENT
REMARK Flexibility Score: inf
ROOT
ATOM      1  C   UNL     1      -5.402  36.595  21.150  1.00  0.00     0.000 C 
ENDROOT
BRANCH   1   2
ATOM      2  C   UNL     1      -6.085  35.319  21.683  1.00  0.00     0.000 C 
BRANCH   2   3
ATOM      3  C   UNL     1      -5.193  34.407  22.544  1.00  0.00     0.000 C 
BRANCH   3   4
ATOM      4  C   UNL     1      -5.936  33.820  23.757  1.00  0.00     0.000 C 
BRANCH   4   5
ATOM      5  C   UNL     1      -6.119  34.846  24.888  1.00  0.00     0.000 C 
BRANCH   5   6
ATOM      6  C   UNL     1      -4.930  35.815  25.003  1.00  0.00     0.000 C 
BRANCH   6   7
ATOM      7  C   UNL     1      -5.370  37.288  25.104  1.00  0.00     0.006 C 
BRANCH   7   8
ATOM      8  C   UNL     1      -6.023  37.843  23.828  1.00  0.00     0.053 C 
BRANCH   8   9
ATOM      9  C   UNL     1      -5.524  39.215  23.491  1.00  0.00     0.041 C 
ATOM     10  O   UNL     1      -5.356  40.068  24.401  1.00  0.00    -0.550 OA
ATOM     11  O   UNL     1      -5.212  39.539  22.177  1.00  0.00    -0.550 OA
ENDBRANCH   8   9
ENDBRANCH   7   8
ENDBRANCH   6   7
ENDBRANCH   5   6
ENDBRANCH   4   5
ENDBRANCH   3   4
ENDBRANCH   2   3
ENDBRANCH   1   2
BRANCH   1  12
ATOM     12  C   UNL     1      -4.937  36.524  19.685  1.00  0.00     0.000 C 
BRANCH  12  13
ATOM     13  C   UNL     1      -5.526  35.323  18.929  1.00  0.00    -0.000 C 
BRANCH  13  14
ATOM     14  C   UNL     1      -4.462  34.244  18.699  1.00  0.00    -0.000 C 
BRANCH  14  15
ATOM     15  C   UNL     1      -4.103  34.133  17.211  1.00  0.00    -0.000 C 
BRANCH  15  16
ATOM     16  C   UNL     1      -4.055  35.521  16.553  1.00  0.00    -0.000 C 
BRANCH  16  17
ATOM     17  C   UNL     1      -2.949  35.636  15.492  1.00  0.00    -0.000 C 
BRANCH  17  18
ATOM     18  C   UNL     1      -3.253  36.712  14.435  1.00  0.00    -0.000 C 
BRANCH  18  19
ATOM     19  C   UNL     1      -4.318  37.715  14.906  1.00  0.00    -0.003 C 
ATOM     20  C   UNL     1      -4.605  38.804  13.875  1.00  0.00     0.004 C 
ENDBRANCH  18  19
ENDBRANCH  17  18
ENDBRANCH  16  17
ENDBRANCH  15  16
ENDBRANCH  14  15
ENDBRANCH  13  14
ENDBRANCH  12  13
ENDBRANCH   1  12
TORSDOF 16
ENDMDL
MODEL 5
REMARK VINA RESULT:     1.920      4.394      8.457
REMARK INTER + INTRA:           2.460
REMARK INTER:                   3.356
REMARK INTRA:                  -0.897
REMARK UNBOUND:                -1.255
REMARK SMILES CCCCCCCCCCCCCCCCCC(=O)[O-]
REMARK SMILES IDX 10 1 11 2 12 3 13 4 14 5 15 6 16 7 17 8 18 9 19 10 20 11
REMARK SMILES IDX 9 12 8 13 7 14 6 15 5 16 4 17 3 18 2 19 1 20
REMARK H PARENT
REMARK Flexibility Score: inf
ROOT
ATOM      1  C   UNL     1      -5.391  36.587  21.163  1.00  0.00     0.000 C 
ENDROOT
BRANCH   1   2
ATOM      2  C   UNL     1      -5.451  37.969  20.481  1.00  0.00     0.000 C 
BRANCH   2   3
ATOM      3  C   UNL     1      -5.379  39.175  21.435  1.00  0.00     0.000 C 
BRANCH   3   4
ATOM      4  C   UNL     1      -6.125  38.934  22.758  1.00  0.00     0.000 C 
BRANCH   4   5
ATOM      5  C   UNL     1      -5.168  38.661  23.932  1.00  0.00     0.000 C 
BRANCH   5   6
ATOM      6  C   UNL     1      -5.708  37.589  24.895  1.00  0.00     0.000 C 
BRANCH   6   7
ATOM      7  C   UNL     1      -4.610  36.988  25.792  1.00  0.00     0.006 C 
BRANCH   7   8
ATOM      8  C   UNL     1      -3.700  38.029  26.465  1.00  0.00     0.053 C 
BRANCH   8   9
ATOM      9  C   UNL     1      -2.438  37.417  26.992  1.00  0.00     0.041 C 
ATOM     10  O   UNL     1      -1.354  38.053  26.931  1.00  0.00    -0.550 OA
ATOM     11  O   UNL     1      -2.468  36.160  27.582  1.00  0.00    -0.550 OA
ENDBRANCH   8   9
ENDBRANCH   7   8
ENDBRANCH   6   7
ENDBRANCH   5   6
ENDBRANCH   4   5
ENDBRANCH   3   4
ENDBRANCH   2   3
ENDBRANCH   1   2
BRANCH   1  12
ATOM     12  C   UNL     1      -4.789  35.460  20.304  1.00  0.00     0.000 C 
BRANCH  12  13
ATOM     13  C   UNL     1      -5.811  34.830  19.346  1.00  0.00    -0.000 C 
BRANCH  13  14
ATOM     14  C   UNL     1      -5.117  34.246  18.110  1.00  0.00    -0.000 C 
BRANCH  14  15
ATOM     15  C   UNL     1      -3.955  35.139  17.657  1.00  0.00    -0.000 C 
BRANCH  15  16
ATOM     16  C   UNL     1      -3.889  35.219  16.124  1.00  0.00    -0.000 C 
BRANCH  16  17
ATOM     17  C   UNL     1      -2.508  35.658  15.612  1.00  0.00    -0.000 C 
BRANCH  17  18
ATOM     18  C   UNL     1      -2.598  36.554  14.364  1.00  0.00    -0.000 C 
BRANCH  18  19
ATOM     19  C   UNL     1      -4.047  36.925  14.009  1.00  0.00    -0.003 C 
ATOM     20  C   UNL     1      -4.345  38.409  14.210  1.00  0.00     0.004 C 
ENDBRANCH  18  19
ENDBRANCH  17  18
ENDBRANCH  16  17
ENDBRANCH  15  16
ENDBRANCH  14  15
ENDBRANCH  13  14
ENDBRANCH  12  13
ENDBRANCH   1  12
TORSDOF 16
ENDMDL
MODEL 6
REMARK VINA RESULT:     2.547      0.899      3.267
REMARK INTER + INTRA:           3.674
REMARK INTER:                   4.476
REMARK INTRA:                  -0.803
REMARK UNBOUND:                -1.255
REMARK SMILES CCCCCCCCCCCCCCCCCC(=O)[O-]
REMARK SMILES IDX 10 1 11 2 12 3 13 4 14 5 15 6 16 7 17 8 18 9 19 10 20 11
REMARK SMILES IDX 9 12 8 13 7 14 6 15 5 16 4 17 3 18 2 19 1 20
REMARK H PARENT
REMARK Flexibility Score: inf
ROOT
ATOM      1  C   UNL     1      -4.995  37.784  20.933  1.00  0.00     0.000 C 
ENDROOT
BRANCH   1   2
ATOM      2  C   UNL     1      -6.123  36.963  20.275  1.00  0.00     0.000 C 
BRANCH   2   3
ATOM      3  C   UNL     1      -5.658  35.746  19.456  1.00  0.00     0.000 C 
BRANCH   3   4
ATOM      4  C   UNL     1      -4.354  35.130  19.993  1.00  0.00     0.000 C 
BRANCH   4   5
ATOM      5  C   UNL     1      -3.585  34.347  18.915  1.00  0.00     0.000 C 
BRANCH   5   6
ATOM      6  C   UNL     1      -4.266  34.417  17.537  1.00  0.00     0.000 C 
BRANCH   6   7
ATOM      7  C   UNL     1      -3.387  35.099  16.472  1.00  0.00     0.006 C 
BRANCH   7   8
ATOM      8  C   UNL     1      -4.174  35.797  15.351  1.00  0.00     0.053 C 
BRANCH   8   9
ATOM      9  C   UNL     1      -3.328  36.773  14.593  1.00  0.00     0.041 C 
ATOM     10  O   UNL     1      -2.214  36.418  14.128  1.00  0.00    -0.550 OA
ATOM     11  O   UNL     1      -3.787  38.065  14.370  1.00  0.00    -0.550 OA
ENDBRANCH   8   9
ENDBRANCH   7   8
ENDBRANCH   6   7
ENDBRANCH   5   6
ENDBRANCH   4   5
ENDBRANCH   3   4
ENDBRANCH   2   3
ENDBRANCH   1   2
BRANCH   1  12
ATOM     12  C   UNL     1      -5.304  39.279  21.129  1.00  0.00     0.000 C 
BRANCH  12  13
ATOM     13  C   UNL     1      -5.523  39.655  22.602  1.00  0.00    -0.000 C 
BRANCH  13  14
ATOM     14  C   UNL     1      -6.107  38.476  23.389  1.00  0.00    -0.000 C 
BRANCH  14  15
ATOM     15  C   UNL     1      -5.310  38.223  24.674  1.00  0.00    -0.000 C 
BRANCH  15  16
ATOM     16  C   UNL     1      -6.001  37.168  25.551  1.00  0.00    -0.000 C 
BRANCH  16  17
ATOM     17  C   UNL     1      -6.114  35.802  24.856  1.00  0.00    -0.000 C 
BRANCH  17  18
ATOM     18  C   UNL     1      -5.179  35.677  23.641  1.00  0.00    -0.000 C 
BRANCH  18  19
ATOM     19  C   UNL     1      -5.048  34.228  23.145  1.00  0.00    -0.003 C 
ATOM     20  C   UNL     1      -6.125  33.307  23.714  1.00  0.00     0.004 C 
ENDBRANCH  18  19
ENDBRANCH  17  18
ENDBRANCH  16  17
ENDBRANCH  15  16
ENDBRANCH  14  15
ENDBRANCH  13  14
ENDBRANCH  12  13
ENDBRANCH   1  12
TORSDOF 16
ENDMDL
