MODEL 1
REMARK VINA RESULT:    -3.984      0.000      0.000
REMARK INTER + INTRA:         -10.938
REMARK INTER:                  -8.643
REMARK INTRA:                  -2.295
REMARK UNBOUND:                -2.295
REMARK SMILES CCCCCCCCCCCCCCCCCCCCCC(=O)[O-]
REMARK SMILES IDX 12 1 11 2 10 3 9 4 8 5 7 6 6 7 5 8 4 9 3 10 2 11 1 12 13 13
REMARK SMILES IDX 14 14 15 15 16 16 17 17 18 18 19 19 20 20 21 21 22 22 23 23
REMARK SMILES IDX 24 24
REMARK H PARENT
REMARK Flexibility Score: inf
ROOT
ATOM      1  C   UNL     1     -16.152 -20.291   5.050  1.00  0.00     0.000 C 
ENDROOT
BRANCH   1   2
ATOM      2  C   UNL     1     -15.623 -19.921   3.658  1.00  0.00     0.000 C 
BRANCH   2   3
ATOM      3  C   UNL     1     -16.539 -20.471   2.553  1.00  0.00     0.000 C 
BRANCH   3   4
ATOM      4  C   UNL     1     -16.973 -19.392   1.547  1.00  0.00    -0.000 C 
BRANCH   4   5
ATOM      5  C   UNL     1     -18.080 -18.475   2.100  1.00  0.00    -0.000 C 
BRANCH   5   6
ATOM      6  C   UNL     1     -17.659 -16.994   2.146  1.00  0.00    -0.000 C 
BRANCH   6   7
ATOM      7  C   UNL     1     -18.124 -16.163   0.936  1.00  0.00    -0.000 C 
BRANCH   7   8
ATOM      8  C   UNL     1     -17.687 -14.690   1.022  1.00  0.00    -0.000 C 
BRANCH   8   9
ATOM      9  C   UNL     1     -16.555 -14.361   0.025  1.00  0.00    -0.000 C 
BRANCH   9  10
ATOM     10  C   UNL     1     -17.023 -13.530  -1.185  1.00  0.00    -0.000 C 
BRANCH  10  11
ATOM     11  C   UNL     1     -17.175 -14.327  -2.492  1.00  0.00    -0.003 C 
ATOM     12  C   UNL     1     -18.395 -13.899  -3.309  1.00  0.00     0.004 C 
ENDBRANCH  10  11
ENDBRANCH   9  10
ENDBRANCH   8   9
ENDBRANCH   7   8
ENDBRANCH   6   7
ENDBRANCH   5   6
ENDBRANCH   4   5
ENDBRANCH   3   4
ENDBRANCH   2   3
ENDBRANCH   1   2
BRANCH   1  13
ATOM     13  C   UNL     1     -17.440 -19.519   5.369  1.00  0.00     0.000 C 
BRANCH  13  14
ATOM     14  C   UNL     1     -18.623 -20.444   5.692  1.00  0.00     0.000 C 
BRANCH  14  15
ATOM     15  C   UNL     1     -18.386 -21.895   5.236  1.00  0.00     0.000 C 
BRANCH  15  16
ATOM     16  C   UNL     1     -19.353 -22.329   4.123  1.00  0.00     0.000 C 
BRANCH  16  17
ATOM     17  C   UNL     1     -20.253 -21.178   3.640  1.00  0.00     0.000 C 
BRANCH  17  18
ATOM     18  C   UNL     1     -20.795 -21.425   2.215  1.00  0.00     0.000 C 
BRANCH  18  19
ATOM     19  C   UNL     1     -21.321 -20.152   1.528  1.00  0.00     0.000 C 
BRANCH  19  20
ATOM     20  C   UNL     1     -20.849 -20.022   0.070  1.00  0.00     0.006 C 
BRANCH  20  21
ATOM     21  C   UNL     1     -22.000 -20.190  -0.930  1.00  0.00     0.053 C 
BRANCH  21  22
ATOM     22  C   UNL     1     -22.909 -21.319  -0.551  1.00  0.00     0.041 C 
ATOM     23  O   UNL     1     -24.069 -21.082  -0.121  1.00  0.00    -0.550 OA
ATOM     24  O   UNL     1     -22.468 -22.633  -0.653  1.00  0.00    -0.550 OA
ENDBRANCH  21  22
ENDBRANCH  20  21
ENDBRANCH  19  20
ENDBRANCH  18  19
ENDBRANCH  17  18
ENDBRANCH  16  17
ENDBRANCH  15  16
ENDBRANCH  14  15
ENDBRANCH  13  14
ENDBRANCH   1  13
TORSDOF 20
ENDMDL
MODEL 2
REMARK VINA RESULT:    -3.960      3.056      6.695
REMARK INTER + INTRA:         -10.885
REMARK INTER:                  -7.814
REMARK INTRA:                  -3.071
REMARK UNBOUND:                -2.295
REMARK SMILES CCCCCCCCCCCCCCCCCCCCCC(=O)[O-]
REMARK SMILES IDX 12 1 11 2 10 3 9 4 8 5 7 6 6 7 5 8 4 9 3 10 2 11 1 12 13 13
REMARK SMILES IDX 14 14 15 15 16 16 17 17 18 18 19 19 20 20 21 21 22 22 23 23
REMARK SMILES IDX 24 24
REMARK H PARENT
REMARK Flexibility Score: inf
ROOT
ATOM      1  C   UNL     1     -16.842 -19.894   2.134  1.00  0.00     0.000 C 
ENDROOT
BRANCH   1   2
ATOM      2  C   UNL     1     -17.181 -20.506   3.499  1.00  0.00     0.000 C 
BRANCH   2   3
ATOM      3  C   UNL     1     -18.171 -21.672   3.353  1.00  0.00     0.000 C 
BRANCH   3   4
ATOM      4  C   UNL     1     -19.602 -21.295   3.769  1.00  0.00    -0.000 C 
BRANCH   4   5
ATOM      5  C   UNL     1     -19.637 -20.223   4.874  1.00  0.00    -0.000 C 
BRANCH   5   6
ATOM      6  C   UNL     1     -20.581 -19.053   4.539  1.00  0.00    -0.000 C 
BRANCH   6   7
ATOM      7  C   UNL     1     -21.427 -19.263   3.270  1.00  0.00    -0.000 C 
BRANCH   7   8
ATOM      8  C   UNL     1     -21.478 -18.012   2.375  1.00  0.00    -0.000 C 
BRANCH   8   9
ATOM      9  C   UNL     1     -21.184 -18.343   0.896  1.00  0.00    -0.000 C 
BRANCH   9  10
ATOM     10  C   UNL     1     -20.772 -19.809   0.664  1.00  0.00    -0.000 C 
BRANCH  10  11
ATOM     11  C   UNL     1     -21.808 -20.655  -0.097  1.00  0.00    -0.003 C 
ATOM     12  C   UNL     1     -21.655 -20.553  -1.615  1.00  0.00     0.004 C 
ENDBRANCH  10  11
ENDBRANCH   9  10
ENDBRANCH   8   9
ENDBRANCH   7   8
ENDBRANCH   6   7
ENDBRANCH   5   6
ENDBRANCH   4   5
ENDBRANCH   3   4
ENDBRANCH   2   3
ENDBRANCH   1   2
BRANCH   1  13
ATOM     13  C   UNL     1     -17.606 -18.579   1.919  1.00  0.00     0.000 C 
BRANCH  13  14
ATOM     14  C   UNL     1     -17.532 -17.643   3.135  1.00  0.00     0.000 C 
BRANCH  14  15
ATOM     15  C   UNL     1     -17.707 -16.161   2.758  1.00  0.00     0.000 C 
BRANCH  15  16
ATOM     16  C   UNL     1     -18.502 -15.974   1.457  1.00  0.00     0.000 C 
BRANCH  16  17
ATOM     17  C   UNL     1     -17.652 -15.368   0.326  1.00  0.00     0.000 C 
BRANCH  17  18
ATOM     18  C   UNL     1     -16.614 -14.358   0.860  1.00  0.00     0.000 C 
BRANCH  18  19
ATOM     19  C   UNL     1     -16.454 -13.111  -0.028  1.00  0.00     0.000 C 
BRANCH  19  20
ATOM     20  C   UNL     1     -17.743 -12.747  -0.784  1.00  0.00     0.006 C 
BRANCH  20  21
ATOM     21  C   UNL     1     -17.505 -12.578  -2.290  1.00  0.00     0.053 C 
BRANCH  21  22
ATOM     22  C   UNL     1     -17.875 -13.812  -3.056  1.00  0.00     0.041 C 
ATOM     23  O   UNL     1     -17.171 -14.851  -2.963  1.00  0.00    -0.550 OA
ATOM     24  O   UNL     1     -18.987 -13.806  -3.890  1.00  0.00    -0.550 OA
ENDBRANCH  21  22
ENDBRANCH  20  21
ENDBRANCH  19  20
ENDBRANCH  18  19
ENDBRANCH  17  18
ENDBRANCH  16  17
ENDBRANCH  15  16
ENDBRANCH  14  15
ENDBRANCH  13  14
ENDBRANCH   1  13
TORSDOF 20
ENDMDL
MODEL 3
REMARK VINA RESULT:    -3.951      3.658      7.730
REMARK INTER + INTRA:         -10.865
REMARK INTER:                  -8.705
REMARK INTRA:                  -2.161
REMARK UNBOUND:                -2.295
REMARK SMILES CCCCCCCCCCCCCCCCCCCCCC(=O)[O-]
REMARK SMILES IDX 12 1 11 2 10 3 9 4 8 5 7 6 6 7 5 8 4 9 3 10 2 11 1 12 13 13
REMARK SMILES IDX 14 14 15 15 16 16 17 17 18 18 19 19 20 20 21 21 22 22 23 23
REMARK SMILES IDX 24 24
REMARK H PARENT
REMARK Flexibility Score: inf
ROOT
ATOM      1  C   UNL     1     -18.467 -13.476  -2.681  1.00  0.00     0.000 C 
ENDROOT
BRANCH   1   2
ATOM      2  C   UNL     1     -18.148 -11.976  -2.757  1.00  0.00     0.000 C 
BRANCH   2   3
ATOM      3  C   UNL     1     -16.657 -11.714  -2.497  1.00  0.00     0.000 C 
BRANCH   3   4
ATOM      4  C   UNL     1     -16.416 -10.748  -1.326  1.00  0.00    -0.000 C 
BRANCH   4   5
ATOM      5  C   UNL     1     -14.920 -10.549  -1.017  1.00  0.00    -0.000 C 
BRANCH   5   6
ATOM      6  C   UNL     1     -14.589 -10.743   0.475  1.00  0.00    -0.000 C 
BRANCH   6   7
ATOM      7  C   UNL     1     -15.465 -11.789   1.189  1.00  0.00    -0.000 C 
BRANCH   7   8
ATOM      8  C   UNL     1     -14.637 -12.899   1.861  1.00  0.00    -0.000 C 
BRANCH   8   9
ATOM      9  C   UNL     1     -13.826 -13.720   0.835  1.00  0.00    -0.000 C 
BRANCH   9  10
ATOM     10  C   UNL     1     -12.328 -13.828   1.180  1.00  0.00    -0.000 C 
BRANCH  10  11
ATOM     11  C   UNL     1     -11.976 -13.460   2.632  1.00  0.00    -0.003 C 
ATOM     12  C   UNL     1     -11.732 -14.686   3.512  1.00  0.00     0.004 C 
ENDBRANCH  10  11
ENDBRANCH   9  10
ENDBRANCH   8   9
ENDBRANCH   7   8
ENDBRANCH   6   7
ENDBRANCH   5   6
ENDBRANCH   4   5
ENDBRANCH   3   4
ENDBRANCH   2   3
ENDBRANCH   1   2
BRANCH   1  13
ATOM     13  C   UNL     1     -17.182 -14.301  -2.528  1.00  0.00     0.000 C 
BRANCH  13  14
ATOM     14  C   UNL     1     -16.841 -14.604  -1.061  1.00  0.00     0.000 C 
BRANCH  14  15
ATOM     15  C   UNL     1     -18.088 -14.911  -0.211  1.00  0.00     0.000 C 
BRANCH  15  16
ATOM     16  C   UNL     1     -17.811 -14.818   1.297  1.00  0.00     0.000 C 
BRANCH  16  17
ATOM     17  C   UNL     1     -17.680 -16.200   1.961  1.00  0.00     0.000 C 
BRANCH  17  18
ATOM     18  C   UNL     1     -18.851 -17.135   1.588  1.00  0.00     0.000 C 
BRANCH  18  19
ATOM     19  C   UNL     1     -18.673 -18.577   2.095  1.00  0.00     0.000 C 
BRANCH  19  20
ATOM     20  C   UNL     1     -17.291 -19.163   1.759  1.00  0.00     0.006 C 
BRANCH  20  21
ATOM     21  C   UNL     1     -16.996 -20.443   2.551  1.00  0.00     0.053 C 
BRANCH  21  22
ATOM     22  C   UNL     1     -16.060 -20.191   3.693  1.00  0.00     0.041 C 
ATOM     23  O   UNL     1     -16.502 -20.119   4.870  1.00  0.00    -0.550 OA
ATOM     24  O   UNL     1     -14.702 -20.015   3.456  1.00  0.00    -0.550 OA
ENDBRANCH  21  22
ENDBRANCH  20  21
ENDBRANCH  19  20
ENDBRANCH  18  19
ENDBRANCH  17  18
ENDBRANCH  16  17
ENDBRANCH  15  16
ENDBRANCH  14  15
ENDBRANCH  13  14
ENDBRANCH   1  13
TORSDOF 20
ENDMDL
MODEL 4
REMARK VINA RESULT:    -3.945      3.548      8.327
REMARK INTER + INTRA:         -10.853
REMARK INTER:                  -8.655
REMARK INTRA:                  -2.198
REMARK UNBOUND:                -2.295
REMARK SMILES CCCCCCCCCCCCCCCCCCCCCC(=O)[O-]
REMARK SMILES IDX 12 1 11 2 10 3 9 4 8 5 7 6 6 7 5 8 4 9 3 10 2 11 1 12 13 13
REMARK SMILES IDX 14 14 15 15 16 16 17 17 18 18 19 19 20 20 21 21 22 22 23 23
REMARK SMILES IDX 24 24
REMARK H PARENT
REMARK Flexibility Score: inf
ROOT
ATOM      1  C   UNL     1     -17.809 -15.829   2.017  1.00  0.00     0.000 C 
ENDROOT
BRANCH   1   2
ATOM      2  C   UNL     1     -18.517 -17.161   1.735  1.00  0.00     0.000 C 
BRANCH   2   3
ATOM      3  C   UNL     1     -20.023 -17.058   2.021  1.00  0.00     0.000 C 
BRANCH   3   4
ATOM      4  C   UNL     1     -20.865 -17.976   1.120  1.00  0.00    -0.000 C 
BRANCH   4   5
ATOM      5  C   UNL     1     -20.220 -19.359   0.911  1.00  0.00    -0.000 C 
BRANCH   5   6
ATOM      6  C   UNL     1     -21.165 -20.518   1.278  1.00  0.00    -0.000 C 
BRANCH   6   7
ATOM      7  C   UNL     1     -20.626 -21.454   2.376  1.00  0.00    -0.000 C 
BRANCH   7   8
ATOM      8  C   UNL     1     -19.649 -20.748   3.333  1.00  0.00    -0.000 C 
BRANCH   8   9
ATOM      9  C   UNL     1     -18.304 -21.497   3.446  1.00  0.00    -0.000 C 
BRANCH   9  10
ATOM     10  C   UNL     1     -17.187 -20.660   4.097  1.00  0.00    -0.000 C 
BRANCH  10  11
ATOM     11  C   UNL     1     -16.430 -19.735   3.128  1.00  0.00    -0.003 C 
ATOM     12  C   UNL     1     -16.433 -20.253   1.690  1.00  0.00     0.004 C 
ENDBRANCH  10  11
ENDBRANCH   9  10
ENDBRANCH   8   9
ENDBRANCH   7   8
ENDBRANCH   6   7
ENDBRANCH   5   6
ENDBRANCH   4   5
ENDBRANCH   3   4
ENDBRANCH   2   3
ENDBRANCH   1   2
BRANCH   1  13
ATOM     13  C   UNL     1     -18.544 -14.664   1.339  1.00  0.00     0.000 C 
BRANCH  13  14
ATOM     14  C   UNL     1     -18.425 -14.697  -0.193  1.00  0.00     0.000 C 
BRANCH  14  15
ATOM     15  C   UNL     1     -16.969 -14.830  -0.674  1.00  0.00     0.000 C 
BRANCH  15  16
ATOM     16  C   UNL     1     -16.859 -14.918  -2.204  1.00  0.00     0.000 C 
BRANCH  16  17
ATOM     17  C   UNL     1     -17.438 -13.681  -2.911  1.00  0.00     0.000 C 
BRANCH  17  18
ATOM     18  C   UNL     1     -16.767 -12.374  -2.435  1.00  0.00     0.000 C 
BRANCH  18  19
ATOM     19  C   UNL     1     -17.769 -11.282  -2.022  1.00  0.00     0.000 C 
BRANCH  19  20
ATOM     20  C   UNL     1     -19.182 -11.526  -2.579  1.00  0.00     0.006 C 
BRANCH  20  21
ATOM     21  C   UNL     1     -19.365 -10.928  -3.979  1.00  0.00     0.053 C 
BRANCH  21  22
ATOM     22  C   UNL     1     -20.243 -11.782  -4.842  1.00  0.00     0.041 C 
ATOM     23  O   UNL     1     -21.187 -12.439  -4.331  1.00  0.00    -0.550 OA
ATOM     24  O   UNL     1     -20.005 -11.868  -6.209  1.00  0.00    -0.550 OA
ENDBRANCH  21  22
ENDBRANCH  20  21
ENDBRANCH  19  20
ENDBRANCH  18  19
ENDBRANCH  17  18
ENDBRANCH  16  17
ENDBRANCH  15  16
ENDBRANCH  14  15
ENDBRANCH  13  14
ENDBRANCH   1  13
TORSDOF 20
ENDMDL
MODEL 5
REMARK VINA RESULT:    -3.910      3.168      6.612
REMARK INTER + INTRA:         -10.776
REMARK INTER:                  -8.261
REMARK INTRA:                  -2.516
REMARK UNBOUND:                -2.295
REMARK SMILES CCCCCCCCCCCCCCCCCCCCCC(=O)[O-]
REMARK SMILES IDX 12 1 11 2 10 3 9 4 8 5 7 6 6 7 5 8 4 9 3 10 2 11 1 12 13 13
REMARK SMILES IDX 14 14 15 15 16 16 17 17 18 18 19 19 20 20 21 21 22 22 23 23
REMARK SMILES IDX 24 24
REMARK H PARENT
REMARK Flexibility Score: inf
ROOT
ATOM      1  C   UNL     1     -16.175 -19.922   4.899  1.00  0.00     0.000 C 
ENDROOT
BRANCH   1   2
ATOM      2  C   UNL     1     -17.652 -20.274   5.124  1.00  0.00     0.000 C 
BRANCH   2   3
ATOM      3  C   UNL     1     -17.796 -21.617   5.857  1.00  0.00     0.000 C 
BRANCH   3   4
ATOM      4  C   UNL     1     -18.923 -22.491   5.284  1.00  0.00    -0.000 C 
BRANCH   4   5
ATOM      5  C   UNL     1     -20.299 -21.802   5.347  1.00  0.00    -0.000 C 
BRANCH   5   6
ATOM      6  C   UNL     1     -21.167 -22.091   4.107  1.00  0.00    -0.000 C 
BRANCH   6   7
ATOM      7  C   UNL     1     -20.482 -21.777   2.765  1.00  0.00    -0.000 C 
BRANCH   7   8
ATOM      8  C   UNL     1     -20.619 -20.299   2.358  1.00  0.00    -0.000 C 
BRANCH   8   9
ATOM      9  C   UNL     1     -21.681 -20.096   1.255  1.00  0.00    -0.000 C 
BRANCH   9  10
ATOM     10  C   UNL     1     -21.079 -19.811  -0.133  1.00  0.00    -0.000 C 
BRANCH  10  11
ATOM     11  C   UNL     1     -21.629 -20.694  -1.266  1.00  0.00    -0.003 C 
ATOM     12  C   UNL     1     -22.256 -21.991  -0.755  1.00  0.00     0.004 C 
ENDBRANCH  10  11
ENDBRANCH   9  10
ENDBRANCH   8   9
ENDBRANCH   7   8
ENDBRANCH   6   7
ENDBRANCH   5   6
ENDBRANCH   4   5
ENDBRANCH   3   4
ENDBRANCH   2   3
ENDBRANCH   1   2
BRANCH   1  13
ATOM     13  C   UNL     1     -15.797 -20.071   3.418  1.00  0.00     0.000 C 
BRANCH  13  14
ATOM     14  C   UNL     1     -17.018 -20.292   2.512  1.00  0.00     0.000 C 
BRANCH  14  15
ATOM     15  C   UNL     1     -17.197 -19.174   1.469  1.00  0.00     0.000 C 
BRANCH  15  16
ATOM     16  C   UNL     1     -17.678 -17.856   2.094  1.00  0.00     0.000 C 
BRANCH  16  17
ATOM     17  C   UNL     1     -18.920 -17.285   1.387  1.00  0.00     0.000 C 
BRANCH  17  18
ATOM     18  C   UNL     1     -18.803 -15.764   1.150  1.00  0.00     0.000 C 
BRANCH  18  19
ATOM     19  C   UNL     1     -17.358 -15.239   1.216  1.00  0.00     0.000 C 
BRANCH  19  20
ATOM     20  C   UNL     1     -17.010 -14.296   0.052  1.00  0.00     0.006 C 
BRANCH  20  21
ATOM     21  C   UNL     1     -17.301 -14.930  -1.314  1.00  0.00     0.053 C 
BRANCH  21  22
ATOM     22  C   UNL     1     -17.403 -13.900  -2.398  1.00  0.00     0.041 C 
ATOM     23  O   UNL     1     -18.095 -14.127  -3.425  1.00  0.00    -0.550 OA
ATOM     24  O   UNL     1     -16.715 -12.698  -2.284  1.00  0.00    -0.550 OA
ENDBRANCH  21  22
ENDBRANCH  20  21
ENDBRANCH  19  20
ENDBRANCH  18  19
ENDBRANCH  17  18
ENDBRANCH  16  17
ENDBRANCH  15  16
ENDBRANCH  14  15
ENDBRANCH  13  14
ENDBRANCH   1  13
TORSDOF 20
ENDMDL
MODEL 6
REMARK VINA RESULT:    -3.897      1.877      4.605
REMARK INTER + INTRA:         -10.748
REMARK INTER:                  -8.504
REMARK INTRA:                  -2.245
REMARK UNBOUND:                -2.295
REMARK SMILES CCCCCCCCCCCCCCCCCCCCCC(=O)[O-]
REMARK SMILES IDX 12 1 11 2 10 3 9 4 8 5 7 6 6 7 5 8 4 9 3 10 2 11 1 12 13 13
REMARK SMILES IDX 14 14 15 15 16 16 17 17 18 18 19 19 20 20 21 21 22 22 23 23
REMARK SMILES IDX 24 24
REMARK H PARENT
REMARK Flexibility Score: inf
ROOT
ATOM      1  C   UNL     1     -19.117 -16.363   1.492  1.00  0.00     0.000 C 
ENDROOT
BRANCH   1   2
ATOM      2  C   UNL     1     -17.817 -15.741   0.965  1.00  0.00     0.000 C 
BRANCH   2   3
ATOM      3  C   UNL     1     -18.105 -14.686  -0.115  1.00  0.00     0.000 C 
BRANCH   3   4
ATOM      4  C   UNL     1     -17.223 -14.855  -1.363  1.00  0.00    -0.000 C 
BRANCH   4   5
ATOM      5  C   UNL     1     -17.107 -13.559  -2.187  1.00  0.00    -0.000 C 
BRANCH   5   6
ATOM      6  C   UNL     1     -17.475 -12.302  -1.376  1.00  0.00    -0.000 C 
BRANCH   6   7
ATOM      7  C   UNL     1     -16.441 -11.164  -1.464  1.00  0.00    -0.000 C 
BRANCH   7   8
ATOM      8  C   UNL     1     -15.147 -11.474  -0.691  1.00  0.00    -0.000 C 
BRANCH   8   9
ATOM      9  C   UNL     1     -15.434 -12.034   0.719  1.00  0.00    -0.000 C 
BRANCH   9  10
ATOM     10  C   UNL     1     -14.758 -13.391   0.991  1.00  0.00    -0.000 C 
BRANCH  10  11
ATOM     11  C   UNL     1     -13.463 -13.310   1.817  1.00  0.00    -0.003 C 
ATOM     12  C   UNL     1     -12.239 -13.811   1.051  1.00  0.00     0.004 C 
ENDBRANCH  10  11
ENDBRANCH   9  10
ENDBRANCH   8   9
ENDBRANCH   7   8
ENDBRANCH   6   7
ENDBRANCH   5   6
ENDBRANCH   4   5
ENDBRANCH   3   4
ENDBRANCH   2   3
ENDBRANCH   1   2
BRANCH   1  13
ATOM     13  C   UNL     1     -18.962 -17.879   1.677  1.00  0.00     0.000 C 
BRANCH  13  14
ATOM     14  C   UNL     1     -17.614 -18.266   2.305  1.00  0.00     0.000 C 
BRANCH  14  15
ATOM     15  C   UNL     1     -16.961 -19.478   1.614  1.00  0.00     0.000 C 
BRANCH  15  16
ATOM     16  C   UNL     1     -16.626 -20.608   2.600  1.00  0.00     0.000 C 
BRANCH  16  17
ATOM     17  C   UNL     1     -17.463 -20.537   3.889  1.00  0.00     0.000 C 
BRANCH  17  18
ATOM     18  C   UNL     1     -18.647 -21.528   3.867  1.00  0.00     0.000 C 
BRANCH  18  19
ATOM     19  C   UNL     1     -19.960 -20.930   4.402  1.00  0.00     0.000 C 
BRANCH  19  20
ATOM     20  C   UNL     1     -20.972 -20.615   3.287  1.00  0.00     0.006 C 
BRANCH  20  21
ATOM     21  C   UNL     1     -21.036 -21.727   2.232  1.00  0.00     0.053 C 
BRANCH  21  22
ATOM     22  C   UNL     1     -21.761 -21.286   0.997  1.00  0.00     0.041 C 
ATOM     23  O   UNL     1     -21.690 -20.089   0.615  1.00  0.00    -0.550 OA
ATOM     24  O   UNL     1     -22.534 -22.193   0.281  1.00  0.00    -0.550 OA
ENDBRANCH  21  22
ENDBRANCH  20  21
ENDBRANCH  19  20
ENDBRANCH  18  19
ENDBRANCH  17  18
ENDBRANCH  16  17
ENDBRANCH  15  16
ENDBRANCH  14  15
ENDBRANCH  13  14
ENDBRANCH   1  13
TORSDOF 20
ENDMDL
MODEL 7
REMARK VINA RESULT:    -3.881      3.848      6.539
REMARK INTER + INTRA:         -10.713
REMARK INTER:                  -7.828
REMARK INTRA:                  -2.885
REMARK UNBOUND:                -2.295
REMARK SMILES CCCCCCCCCCCCCCCCCCCCCC(=O)[O-]
REMARK SMILES IDX 12 1 11 2 10 3 9 4 8 5 7 6 6 7 5 8 4 9 3 10 2 11 1 12 13 13
REMARK SMILES IDX 14 14 15 15 16 16 17 17 18 18 19 19 20 20 21 21 22 22 23 23
REMARK SMILES IDX 24 24
REMARK H PARENT
REMARK Flexibility Score: inf
ROOT
ATOM      1  C   UNL     1     -20.719 -21.353   2.152  1.00  0.00     0.000 C 
ENDROOT
BRANCH   1   2
ATOM      2  C   UNL     1     -22.127 -21.642   1.615  1.00  0.00     0.000 C 
BRANCH   2   3
ATOM      3  C   UNL     1     -22.125 -21.741   0.082  1.00  0.00     0.000 C 
BRANCH   3   4
ATOM      4  C   UNL     1     -21.367 -20.584  -0.589  1.00  0.00    -0.000 C 
BRANCH   4   5
ATOM      5  C   UNL     1     -22.262 -19.750  -1.524  1.00  0.00    -0.000 C 
BRANCH   5   6
ATOM      6  C   UNL     1     -22.874 -18.521  -0.824  1.00  0.00    -0.000 C 
BRANCH   6   7
ATOM      7  C   UNL     1     -22.125 -18.076   0.446  1.00  0.00    -0.000 C 
BRANCH   7   8
ATOM      8  C   UNL     1     -21.825 -16.567   0.462  1.00  0.00    -0.000 C 
BRANCH   8   9
ATOM      9  C   UNL     1     -20.656 -16.217   1.408  1.00  0.00    -0.000 C 
BRANCH   9  10
ATOM     10  C   UNL     1     -19.673 -15.189   0.817  1.00  0.00    -0.000 C 
BRANCH  10  11
ATOM     11  C   UNL     1     -18.240 -15.712   0.617  1.00  0.00    -0.003 C 
ATOM     12  C   UNL     1     -17.270 -14.622   0.158  1.00  0.00     0.004 C 
ENDBRANCH  10  11
ENDBRANCH   9  10
ENDBRANCH   8   9
ENDBRANCH   7   8
ENDBRANCH   6   7
ENDBRANCH   5   6
ENDBRANCH   4   5
ENDBRANCH   3   4
ENDBRANCH   2   3
ENDBRANCH   1   2
BRANCH   1  13
ATOM     13  C   UNL     1     -20.743 -20.185   3.149  1.00  0.00     0.000 C 
BRANCH  13  14
ATOM     14  C   UNL     1     -19.450 -19.355   3.124  1.00  0.00     0.000 C 
BRANCH  14  15
ATOM     15  C   UNL     1     -18.819 -19.279   1.722  1.00  0.00     0.000 C 
BRANCH  15  16
ATOM     16  C   UNL     1     -17.305 -19.020   1.770  1.00  0.00     0.000 C 
BRANCH  16  17
ATOM     17  C   UNL     1     -16.501 -20.279   2.139  1.00  0.00     0.000 C 
BRANCH  17  18
ATOM     18  C   UNL     1     -15.567 -20.038   3.344  1.00  0.00     0.000 C 
BRANCH  18  19
ATOM     19  C   UNL     1     -16.213 -20.371   4.701  1.00  0.00     0.000 C 
BRANCH  19  20
ATOM     20  C   UNL     1     -16.561 -19.118   5.521  1.00  0.00     0.006 C 
BRANCH  20  21
ATOM     21  C   UNL     1     -15.672 -17.922   5.157  1.00  0.00     0.053 C 
BRANCH  21  22
ATOM     22  C   UNL     1     -14.372 -17.944   5.903  1.00  0.00     0.041 C 
ATOM     23  O   UNL     1     -13.390 -17.275   5.485  1.00  0.00    -0.550 OA
ATOM     24  O   UNL     1     -14.239 -18.720   7.048  1.00  0.00    -0.550 OA
ENDBRANCH  21  22
ENDBRANCH  20  21
ENDBRANCH  19  20
ENDBRANCH  18  19
ENDBRANCH  17  18
ENDBRANCH  16  17
ENDBRANCH  15  16
ENDBRANCH  14  15
ENDBRANCH  13  14
ENDBRANCH   1  13
TORSDOF 20
ENDMDL
MODEL 8
REMARK VINA RESULT:    -3.828      3.979      7.541
REMARK INTER + INTRA:         -10.599
REMARK INTER:                  -7.020
REMARK INTRA:                  -3.579
REMARK UNBOUND:                -2.295
REMARK SMILES CCCCCCCCCCCCCCCCCCCCCC(=O)[O-]
REMARK SMILES IDX 12 1 11 2 10 3 9 4 8 5 7 6 6 7 5 8 4 9 3 10 2 11 1 12 13 13
REMARK SMILES IDX 14 14 15 15 16 16 17 17 18 18 19 19 20 20 21 21 22 22 23 23
REMARK SMILES IDX 24 24
REMARK H PARENT
REMARK Flexibility Score: inf
ROOT
ATOM      1  C   UNL     1     -21.039 -16.917   1.119  1.00  0.00     0.000 C 
ENDROOT
BRANCH   1   2
ATOM      2  C   UNL     1     -22.363 -17.689   1.047  1.00  0.00     0.000 C 
BRANCH   2   3
ATOM      3  C   UNL     1     -22.920 -17.700  -0.385  1.00  0.00     0.000 C 
BRANCH   3   4
ATOM      4  C   UNL     1     -23.309 -19.109  -0.863  1.00  0.00    -0.000 C 
BRANCH   4   5
ATOM      5  C   UNL     1     -22.191 -19.791  -1.673  1.00  0.00    -0.000 C 
BRANCH   5   6
ATOM      6  C   UNL     1     -21.251 -20.639  -0.794  1.00  0.00    -0.000 C 
BRANCH   6   7
ATOM      7  C   UNL     1     -21.974 -21.526   0.236  1.00  0.00    -0.000 C 
BRANCH   7   8
ATOM      8  C   UNL     1     -21.400 -21.377   1.657  1.00  0.00    -0.000 C 
BRANCH   8   9
ATOM      9  C   UNL     1     -22.378 -21.894   2.734  1.00  0.00    -0.000 C 
BRANCH   9  10
ATOM     10  C   UNL     1     -22.450 -20.993   3.982  1.00  0.00    -0.000 C 
BRANCH  10  11
ATOM     11  C   UNL     1     -21.547 -19.749   3.929  1.00  0.00    -0.003 C 
ATOM     12  C   UNL     1     -21.401 -19.064   5.288  1.00  0.00     0.004 C 
ENDBRANCH  10  11
ENDBRANCH   9  10
ENDBRANCH   8   9
ENDBRANCH   7   8
ENDBRANCH   6   7
ENDBRANCH   5   6
ENDBRANCH   4   5
ENDBRANCH   3   4
ENDBRANCH   2   3
ENDBRANCH   1   2
BRANCH   1  13
ATOM     13  C   UNL     1     -19.865 -17.870   1.389  1.00  0.00     0.000 C 
BRANCH  13  14
ATOM     14  C   UNL     1     -18.993 -17.419   2.571  1.00  0.00     0.000 C 
BRANCH  14  15
ATOM     15  C   UNL     1     -17.567 -17.996   2.514  1.00  0.00     0.000 C 
BRANCH  15  16
ATOM     16  C   UNL     1     -17.508 -19.350   1.789  1.00  0.00     0.000 C 
BRANCH  16  17
ATOM     17  C   UNL     1     -17.019 -20.488   2.701  1.00  0.00     0.000 C 
BRANCH  17  18
ATOM     18  C   UNL     1     -18.190 -21.319   3.269  1.00  0.00     0.000 C 
BRANCH  18  19
ATOM     19  C   UNL     1     -18.152 -21.471   4.800  1.00  0.00     0.000 C 
BRANCH  19  20
ATOM     20  C   UNL     1     -17.949 -20.132   5.528  1.00  0.00     0.006 C 
BRANCH  20  21
ATOM     21  C   UNL     1     -16.898 -20.231   6.641  1.00  0.00     0.053 C 
BRANCH  21  22
ATOM     22  C   UNL     1     -15.503 -20.240   6.092  1.00  0.00     0.041 C 
ATOM     23  O   UNL     1     -15.070 -19.251   5.444  1.00  0.00    -0.550 OA
ATOM     24  O   UNL     1     -14.688 -21.350   6.280  1.00  0.00    -0.550 OA
ENDBRANCH  21  22
ENDBRANCH  20  21
ENDBRANCH  19  20
ENDBRANCH  18  19
ENDBRANCH  17  18
ENDBRANCH  16  17
ENDBRANCH  15  16
ENDBRANCH  14  15
ENDBRANCH  13  14
ENDBRANCH   1  13
TORSDOF 20
ENDMDL
MODEL 9
REMARK VINA RESULT:    -3.822      7.332     10.139
REMARK INTER + INTRA:         -10.587
REMARK INTER:                  -8.040
REMARK INTRA:                  -2.547
REMARK UNBOUND:                -2.295
REMARK SMILES CCCCCCCCCCCCCCCCCCCCCC(=O)[O-]
REMARK SMILES IDX 12 1 11 2 10 3 9 4 8 5 7 6 6 7 5 8 4 9 3 10 2 11 1 12 13 13
REMARK SMILES IDX 14 14 15 15 16 16 17 17 18 18 19 19 20 20 21 21 22 22 23 23
REMARK SMILES IDX 24 24
REMARK H PARENT
REMARK Flexibility Score: inf
ROOT
ATOM      1  C   UNL     1     -14.669 -10.985   1.694  1.00  0.00     0.000 C 
ENDROOT
BRANCH   1   2
ATOM      2  C   UNL     1     -16.000 -11.697   1.416  1.00  0.00     0.000 C 
BRANCH   2   3
ATOM      3  C   UNL     1     -15.980 -13.137   1.952  1.00  0.00     0.000 C 
BRANCH   3   4
ATOM      4  C   UNL     1     -15.974 -14.189   0.831  1.00  0.00    -0.000 C 
BRANCH   4   5
ATOM      5  C   UNL     1     -17.315 -14.937   0.711  1.00  0.00    -0.000 C 
BRANCH   5   6
ATOM      6  C   UNL     1     -18.082 -14.580  -0.577  1.00  0.00    -0.000 C 
BRANCH   6   7
ATOM      7  C   UNL     1     -17.229 -14.625  -1.857  1.00  0.00    -0.000 C 
BRANCH   7   8
ATOM      8  C   UNL     1     -17.400 -13.370  -2.731  1.00  0.00    -0.000 C 
BRANCH   8   9
ATOM      9  C   UNL     1     -16.422 -12.245  -2.329  1.00  0.00    -0.000 C 
BRANCH   9  10
ATOM     10  C   UNL     1     -17.121 -10.918  -1.978  1.00  0.00    -0.000 C 
BRANCH  10  11
ATOM     11  C   UNL     1     -16.302  -9.656  -2.303  1.00  0.00    -0.003 C 
ATOM     12  C   UNL     1     -16.231  -9.365  -3.802  1.00  0.00     0.004 C 
ENDBRANCH  10  11
ENDBRANCH   9  10
ENDBRANCH   8   9
ENDBRANCH   7   8
ENDBRANCH   6   7
ENDBRANCH   5   6
ENDBRANCH   4   5
ENDBRANCH   3   4
ENDBRANCH   2   3
ENDBRANCH   1   2
BRANCH   1  13
ATOM     13  C   UNL     1     -13.675 -11.217   0.547  1.00  0.00     0.000 C 
BRANCH  13  14
ATOM     14  C   UNL     1     -12.388 -11.918   1.008  1.00  0.00     0.000 C 
BRANCH  14  15
ATOM     15  C   UNL     1     -12.414 -13.436   0.756  1.00  0.00     0.000 C 
BRANCH  15  16
ATOM     16  C   UNL     1     -11.967 -14.246   1.983  1.00  0.00     0.000 C 
BRANCH  16  17
ATOM     17  C   UNL     1     -12.488 -13.654   3.304  1.00  0.00     0.000 C 
BRANCH  17  18
ATOM     18  C   UNL     1     -12.218 -14.587   4.504  1.00  0.00     0.000 C 
BRANCH  18  19
ATOM     19  C   UNL     1     -11.249 -15.739   4.183  1.00  0.00     0.000 C 
BRANCH  19  20
ATOM     20  C   UNL     1      -9.870 -15.562   4.840  1.00  0.00     0.006 C 
BRANCH  20  21
ATOM     21  C   UNL     1      -9.628 -16.579   5.962  1.00  0.00     0.053 C 
BRANCH  21  22
ATOM     22  C   UNL     1      -8.403 -17.405   5.713  1.00  0.00     0.041 C 
ATOM     23  O   UNL     1      -8.173 -18.426   6.413  1.00  0.00    -0.550 OA
ATOM     24  O   UNL     1      -7.503 -17.035   4.720  1.00  0.00    -0.550 OA
ENDBRANCH  21  22
ENDBRANCH  20  21
ENDBRANCH  19  20
ENDBRANCH  18  19
ENDBRANCH  17  18
ENDBRANCH  16  17
ENDBRANCH  15  16
ENDBRANCH  14  15
ENDBRANCH  13  14
ENDBRANCH   1  13
TORSDOF 20
ENDMDL
