MODEL 1
REMARK VINA RESULT:    -6.527      0.000      0.000
REMARK INTER + INTRA:          -7.734
REMARK INTER:                  -7.672
REMARK INTRA:                  -0.062
REMARK UNBOUND:                -0.062
REMARK SMILES O=c1c(O)c(-c2ccc(O)cc2)oc2cc(O)cc(O)c12
REMARK SMILES IDX 5 1 3 2 2 3 1 4 21 5 19 6 18 7 16 8 15 9 14 10 13 11 6 12
REMARK SMILES IDX 7 13 8 14 9 15 12 16 11 17 10 18 4 20 20 22 17 24
REMARK H PARENT 10 19 4 21 20 23 17 25
REMARK Flexibility Score: inf
ROOT
ATOM      1  C   UNL     1      31.008 -91.960  37.429  1.00  0.00     0.180 A 
ATOM      2  C   UNL     1      29.768 -92.545  37.120  1.00  0.00     0.208 A 
ATOM      3  C   UNL     1      29.620 -93.935  37.251  1.00  0.00     0.238 A 
ATOM      4  O   UNL     1      28.491 -94.446  37.025  1.00  0.00    -0.285 OA
ATOM      5  C   UNL     1      30.716 -94.724  37.674  1.00  0.00     0.111 A 
ATOM      6  C   UNL     1      30.690 -96.146  37.803  1.00  0.00     0.134 A 
ATOM      7  C   UNL     1      31.793 -96.809  38.355  1.00  0.00     0.093 A 
ATOM      8  C   UNL     1      32.945 -96.110  38.721  1.00  0.00     0.123 A 
ATOM      9  C   UNL     1      33.003 -94.729  38.543  1.00  0.00     0.094 A 
ATOM     10  C   UNL     1      31.905 -94.035  38.029  1.00  0.00     0.146 A 
ATOM     11  O   UNL     1      31.997 -92.718  37.885  1.00  0.00    -0.452 OA
ENDROOT
BRANCH   1  12
ATOM     12  C   UNL     1      31.249 -90.505  37.291  1.00  0.00     0.021 A 
ATOM     13  C   UNL     1      32.264 -90.005  36.454  1.00  0.00     0.016 A 
ATOM     14  C   UNL     1      32.486 -88.628  36.360  1.00  0.00     0.047 A 
ATOM     15  C   UNL     1      31.711 -87.735  37.106  1.00  0.00     0.115 A 
ATOM     16  C   UNL     1      30.488 -89.604  38.054  1.00  0.00     0.016 A 
ATOM     17  C   UNL     1      30.712 -88.227  37.956  1.00  0.00     0.047 A 
BRANCH  15  18
ATOM     18  O   UNL     1      31.944 -86.367  37.000  1.00  0.00    -0.508 OA
ATOM     19  H   UNL     1      31.660 -85.723  37.730  1.00  0.00     0.293 HD
ENDBRANCH  15  18
ENDBRANCH   1  12
BRANCH   2  20
ATOM     20  O   UNL     1      28.692 -91.745  36.724  1.00  0.00    -0.502 OA
ATOM     21  H   UNL     1      27.805 -92.135  36.428  1.00  0.00     0.293 HD
ENDBRANCH   2  20
BRANCH   6  22
ATOM     22  O   UNL     1      29.625 -96.948  37.382  1.00  0.00    -0.507 OA
ATOM     23  H   UNL     1      28.918 -97.330  37.991  1.00  0.00     0.293 HD
ENDBRANCH   6  22
BRANCH   8  24
ATOM     24  O   UNL     1      34.044 -96.779  39.254  1.00  0.00    -0.508 OA
ATOM     25  H   UNL     1      33.951 -97.694  39.681  1.00  0.00     0.293 HD
ENDBRANCH   8  24
TORSDOF 5
ENDMDL
MODEL 2
REMARK VINA RESULT:    -5.821      9.620     10.887
REMARK INTER + INTRA:          -6.904
REMARK INTER:                  -6.616
REMARK INTRA:                  -0.288
REMARK UNBOUND:                -0.062
REMARK SMILES O=c1c(O)c(-c2ccc(O)cc2)oc2cc(O)cc(O)c12
REMARK SMILES IDX 5 1 3 2 2 3 1 4 21 5 19 6 18 7 16 8 15 9 14 10 13 11 6 12
REMARK SMILES IDX 7 13 8 14 9 15 12 16 11 17 10 18 4 20 20 22 17 24
REMARK H PARENT 10 19 4 21 20 23 17 25
REMARK Flexibility Score: inf
ROOT
ATOM      1  C   UNL     1      36.206 -95.366  29.674  1.00  0.00     0.180 A 
ATOM      2  C   UNL     1      37.282 -95.754  28.856  1.00  0.00     0.208 A 
ATOM      3  C   UNL     1      38.582 -95.731  29.385  1.00  0.00     0.238 A 
ATOM      4  O   UNL     1      39.535 -96.130  28.665  1.00  0.00    -0.285 OA
ATOM      5  C   UNL     1      38.792 -95.305  30.718  1.00  0.00     0.111 A 
ATOM      6  C   UNL     1      40.071 -95.203  31.345  1.00  0.00     0.134 A 
ATOM      7  C   UNL     1      40.150 -94.895  32.709  1.00  0.00     0.093 A 
ATOM      8  C   UNL     1      38.999 -94.621  33.453  1.00  0.00     0.123 A 
ATOM      9  C   UNL     1      37.751 -94.659  32.836  1.00  0.00     0.094 A 
ATOM     10  C   UNL     1      37.638 -94.999  31.486  1.00  0.00     0.146 A 
ATOM     11  O   UNL     1      36.428 -95.035  30.939  1.00  0.00    -0.452 OA
ENDROOT
BRANCH   1  12
ATOM     12  C   UNL     1      34.810 -95.341  29.178  1.00  0.00     0.021 A 
ATOM     13  C   UNL     1      33.969 -96.462  29.295  1.00  0.00     0.016 A 
ATOM     14  C   UNL     1      32.663 -96.421  28.797  1.00  0.00     0.047 A 
ATOM     15  C   UNL     1      32.185 -95.268  28.166  1.00  0.00     0.115 A 
ATOM     16  C   UNL     1      34.331 -94.193  28.524  1.00  0.00     0.016 A 
ATOM     17  C   UNL     1      33.024 -94.155  28.029  1.00  0.00     0.047 A 
BRANCH  15  18
ATOM     18  O   UNL     1      30.882 -95.242  27.677  1.00  0.00    -0.508 OA
ATOM     19  H   UNL     1      30.083 -95.190  28.300  1.00  0.00     0.293 HD
ENDBRANCH  15  18
ENDBRANCH   1  12
BRANCH   2  20
ATOM     20  O   UNL     1      37.050 -96.192  27.549  1.00  0.00    -0.502 OA
ATOM     21  H   UNL     1      36.210 -95.951  27.035  1.00  0.00     0.293 HD
ENDBRANCH   2  20
BRANCH   6  22
ATOM     22  O   UNL     1      41.285 -95.366  30.671  1.00  0.00    -0.507 OA
ATOM     23  H   UNL     1      42.191 -95.383  31.114  1.00  0.00     0.293 HD
ENDBRANCH   6  22
BRANCH   8  24
ATOM     24  O   UNL     1      39.087 -94.301  34.805  1.00  0.00    -0.508 OA
ATOM     25  H   UNL     1      39.864 -93.762  35.173  1.00  0.00     0.293 HD
ENDBRANCH   8  24
TORSDOF 5
ENDMDL
MODEL 3
REMARK VINA RESULT:    -5.609      9.514     10.971
REMARK INTER + INTRA:          -6.655
REMARK INTER:                  -6.577
REMARK INTRA:                  -0.078
REMARK UNBOUND:                -0.062
REMARK SMILES O=c1c(O)c(-c2ccc(O)cc2)oc2cc(O)cc(O)c12
REMARK SMILES IDX 5 1 3 2 2 3 1 4 21 5 19 6 18 7 16 8 15 9 14 10 13 11 6 12
REMARK SMILES IDX 7 13 8 14 9 15 12 16 11 17 10 18 4 20 20 22 17 24
REMARK H PARENT 10 19 4 21 20 23 17 25
REMARK Flexibility Score: inf
ROOT
ATOM      1  C   UNL     1      37.630 -95.299  31.008  1.00  0.00     0.180 A 
ATOM      2  C   UNL     1      38.318 -95.902  29.941  1.00  0.00     0.208 A 
ATOM      3  C   UNL     1      37.660 -96.062  28.711  1.00  0.00     0.238 A 
ATOM      4  O   UNL     1      38.299 -96.553  27.743  1.00  0.00    -0.285 OA
ATOM      5  C   UNL     1      36.319 -95.633  28.568  1.00  0.00     0.111 A 
ATOM      6  C   UNL     1      35.543 -95.781  27.379  1.00  0.00     0.134 A 
ATOM      7  C   UNL     1      34.269 -95.202  27.309  1.00  0.00     0.093 A 
ATOM      8  C   UNL     1      33.719 -94.537  28.407  1.00  0.00     0.123 A 
ATOM      9  C   UNL     1      34.446 -94.438  29.591  1.00  0.00     0.094 A 
ATOM     10  C   UNL     1      35.733 -94.974  29.680  1.00  0.00     0.146 A 
ATOM     11  O   UNL     1      36.396 -94.848  30.824  1.00  0.00    -0.452 OA
ENDROOT
BRANCH   1  12
ATOM     12  C   UNL     1      38.248 -95.120  32.342  1.00  0.00     0.021 A 
ATOM     13  C   UNL     1      39.418 -94.357  32.513  1.00  0.00     0.016 A 
ATOM     14  C   UNL     1      39.996 -94.223  33.779  1.00  0.00     0.047 A 
ATOM     15  C   UNL     1      39.425 -94.858  34.885  1.00  0.00     0.115 A 
ATOM     16  C   UNL     1      37.692 -95.774  33.455  1.00  0.00     0.016 A 
ATOM     17  C   UNL     1      38.272 -95.637  34.719  1.00  0.00     0.047 A 
BRANCH  15  18
ATOM     18  O   UNL     1      40.012 -94.715  36.139  1.00  0.00    -0.508 OA
ATOM     19  H   UNL     1      40.973 -94.990  36.309  1.00  0.00     0.293 HD
ENDBRANCH  15  18
ENDBRANCH   1  12
BRANCH   2  20
ATOM     20  O   UNL     1      39.648 -96.300  30.097  1.00  0.00    -0.502 OA
ATOM     21  H   UNL     1      40.292 -95.818  30.714  1.00  0.00     0.293 HD
ENDBRANCH   2  20
BRANCH   6  22
ATOM     22  O   UNL     1      35.961 -96.506  26.259  1.00  0.00    -0.507 OA
ATOM     23  H   UNL     1      36.344 -97.439  26.289  1.00  0.00     0.293 HD
ENDBRANCH   6  22
BRANCH   8  24
ATOM     24  O   UNL     1      32.446 -93.976  28.334  1.00  0.00    -0.508 OA
ATOM     25  H   UNL     1      31.675 -94.468  27.896  1.00  0.00     0.293 HD
ENDBRANCH   8  24
TORSDOF 5
ENDMDL
MODEL 4
REMARK VINA RESULT:    -5.440      1.268      3.061
REMARK INTER + INTRA:          -6.457
REMARK INTER:                  -6.350
REMARK INTRA:                  -0.107
REMARK UNBOUND:                -0.062
REMARK SMILES O=c1c(O)c(-c2ccc(O)cc2)oc2cc(O)cc(O)c12
REMARK SMILES IDX 5 1 3 2 2 3 1 4 21 5 19 6 18 7 16 8 15 9 14 10 13 11 6 12
REMARK SMILES IDX 7 13 8 14 9 15 12 16 11 17 10 18 4 20 20 22 17 24
REMARK H PARENT 10 19 4 21 20 23 17 25
REMARK Flexibility Score: inf
ROOT
ATOM      1  C   UNL     1      31.027 -92.094  37.395  1.00  0.00     0.180 A 
ATOM      2  C   UNL     1      32.075 -92.950  37.778  1.00  0.00     0.208 A 
ATOM      3  C   UNL     1      31.800 -94.310  37.988  1.00  0.00     0.238 A 
ATOM      4  O   UNL     1      32.752 -95.082  38.278  1.00  0.00    -0.285 OA
ATOM      5  C   UNL     1      30.479 -94.795  37.828  1.00  0.00     0.111 A 
ATOM      6  C   UNL     1      30.079 -96.147  38.054  1.00  0.00     0.134 A 
ATOM      7  C   UNL     1      28.773 -96.542  37.739  1.00  0.00     0.093 A 
ATOM      8  C   UNL     1      27.835 -95.620  37.269  1.00  0.00     0.123 A 
ATOM      9  C   UNL     1      28.200 -94.286  37.102  1.00  0.00     0.094 A 
ATOM     10  C   UNL     1      29.505 -93.869  37.373  1.00  0.00     0.146 A 
ATOM     11  O   UNL     1      29.814 -92.591  37.190  1.00  0.00    -0.452 OA
ENDROOT
BRANCH   1  12
ATOM     12  C   UNL     1      31.235 -90.643  37.180  1.00  0.00     0.021 A 
ATOM     13  C   UNL     1      32.097 -90.166  36.176  1.00  0.00     0.016 A 
ATOM     14  C   UNL     1      32.295 -88.791  36.010  1.00  0.00     0.047 A 
ATOM     15  C   UNL     1      31.649 -87.880  36.849  1.00  0.00     0.115 A 
ATOM     16  C   UNL     1      30.605 -89.722  38.034  1.00  0.00     0.016 A 
ATOM     17  C   UNL     1      30.805 -88.349  37.864  1.00  0.00     0.047 A 
BRANCH  15  18
ATOM     18  O   UNL     1      31.855 -86.514  36.671  1.00  0.00    -0.508 OA
ATOM     19  H   UNL     1      31.081 -85.859  36.652  1.00  0.00     0.293 HD
ENDBRANCH  15  18
ENDBRANCH   1  12
BRANCH   2  20
ATOM     20  O   UNL     1      33.375 -92.455  37.909  1.00  0.00    -0.502 OA
ATOM     21  H   UNL     1      33.904 -92.536  38.770  1.00  0.00     0.293 HD
ENDBRANCH   2  20
BRANCH   6  22
ATOM     22  O   UNL     1      30.911 -97.125  38.608  1.00  0.00    -0.507 OA
ATOM     23  H   UNL     1      31.002 -97.311  39.595  1.00  0.00     0.293 HD
ENDBRANCH   6  22
BRANCH   8  24
ATOM     24  O   UNL     1      26.534 -96.018  36.973  1.00  0.00    -0.508 OA
ATOM     25  H   UNL     1      26.132 -96.858  37.374  1.00  0.00     0.293 HD
ENDBRANCH   8  24
TORSDOF 5
ENDMDL
MODEL 5
REMARK VINA RESULT:    -5.342     15.327     16.683
REMARK INTER + INTRA:          -6.341
REMARK INTER:                  -6.219
REMARK INTRA:                  -0.122
REMARK UNBOUND:                -0.062
REMARK SMILES O=c1c(O)c(-c2ccc(O)cc2)oc2cc(O)cc(O)c12
REMARK SMILES IDX 5 1 3 2 2 3 1 4 21 5 19 6 18 7 16 8 15 9 14 10 13 11 6 12
REMARK SMILES IDX 7 13 8 14 9 15 12 16 11 17 10 18 4 20 20 22 17 24
REMARK H PARENT 10 19 4 21 20 23 17 25
REMARK Flexibility Score: inf
ROOT
ATOM      1  C   UNL     1      37.317 -77.853  37.702  1.00  0.00     0.180 A 
ATOM      2  C   UNL     1      37.877 -77.767  36.416  1.00  0.00     0.208 A 
ATOM      3  C   UNL     1      37.022 -77.719  35.303  1.00  0.00     0.238 A 
ATOM      4  O   UNL     1      37.528 -77.587  34.157  1.00  0.00    -0.285 OA
ATOM      5  C   UNL     1      35.620 -77.773  35.489  1.00  0.00     0.111 A 
ATOM      6  C   UNL     1      34.661 -77.771  34.431  1.00  0.00     0.134 A 
ATOM      7  C   UNL     1      33.296 -77.697  34.737  1.00  0.00     0.093 A 
ATOM      8  C   UNL     1      32.854 -77.690  36.062  1.00  0.00     0.123 A 
ATOM      9  C   UNL     1      33.779 -77.751  37.101  1.00  0.00     0.094 A 
ATOM     10  C   UNL     1      35.149 -77.790  36.828  1.00  0.00     0.146 A 
ATOM     11  O   UNL     1      35.998 -77.836  37.848  1.00  0.00    -0.452 OA
ENDROOT
BRANCH   1  12
ATOM     12  C   UNL     1      38.155 -77.934  38.921  1.00  0.00     0.021 A 
ATOM     13  C   UNL     1      38.999 -76.875  39.303  1.00  0.00     0.016 A 
ATOM     14  C   UNL     1      39.799 -76.986  40.445  1.00  0.00     0.047 A 
ATOM     15  C   UNL     1      39.776 -78.156  41.210  1.00  0.00     0.115 A 
ATOM     16  C   UNL     1      38.153 -79.115  39.683  1.00  0.00     0.016 A 
ATOM     17  C   UNL     1      38.953 -79.221  40.825  1.00  0.00     0.047 A 
BRANCH  15  18
ATOM     18  O   UNL     1      40.577 -78.250  42.345  1.00  0.00    -0.508 OA
ATOM     19  H   UNL     1      40.946 -77.424  42.804  1.00  0.00     0.293 HD
ENDBRANCH  15  18
ENDBRANCH   1  12
BRANCH   2  20
ATOM     20  O   UNL     1      39.263 -77.693  36.255  1.00  0.00    -0.502 OA
ATOM     21  H   UNL     1      39.879 -78.467  36.474  1.00  0.00     0.293 HD
ENDBRANCH   2  20
BRANCH   6  22
ATOM     22  O   UNL     1      34.993 -77.870  33.077  1.00  0.00    -0.507 OA
ATOM     23  H   UNL     1      34.772 -78.657  32.487  1.00  0.00     0.293 HD
ENDBRANCH   6  22
BRANCH   8  24
ATOM     24  O   UNL     1      31.494 -77.630  36.357  1.00  0.00    -0.508 OA
ATOM     25  H   UNL     1      31.128 -77.971  37.239  1.00  0.00     0.293 HD
ENDBRANCH   8  24
TORSDOF 5
ENDMDL
MODEL 6
REMARK VINA RESULT:    -4.983      8.945     11.269
REMARK INTER + INTRA:          -5.919
REMARK INTER:                  -5.728
REMARK INTRA:                  -0.191
REMARK UNBOUND:                -0.062
REMARK SMILES O=c1c(O)c(-c2ccc(O)cc2)oc2cc(O)cc(O)c12
REMARK SMILES IDX 5 1 3 2 2 3 1 4 21 5 19 6 18 7 16 8 15 9 14 10 13 11 6 12
REMARK SMILES IDX 7 13 8 14 9 15 12 16 11 17 10 18 4 20 20 22 17 24
REMARK H PARENT 10 19 4 21 20 23 17 25
REMARK Flexibility Score: inf
ROOT
ATOM      1  C   UNL     1      40.414 -95.443  35.879  1.00  0.00     0.180 A 
ATOM      2  C   UNL     1      41.613 -95.408  35.147  1.00  0.00     0.208 A 
ATOM      3  C   UNL     1      41.554 -95.300  33.748  1.00  0.00     0.238 A 
ATOM      4  O   UNL     1      42.632 -95.214  33.103  1.00  0.00    -0.285 OA
ATOM      5  C   UNL     1      40.298 -95.245  33.098  1.00  0.00     0.111 A 
ATOM      6  C   UNL     1      40.120 -95.176  31.683  1.00  0.00     0.134 A 
ATOM      7  C   UNL     1      38.835 -94.995  31.157  1.00  0.00     0.093 A 
ATOM      8  C   UNL     1      37.715 -94.947  31.991  1.00  0.00     0.123 A 
ATOM      9  C   UNL     1      37.873 -95.073  33.370  1.00  0.00     0.094 A 
ATOM     10  C   UNL     1      39.146 -95.219  33.927  1.00  0.00     0.146 A 
ATOM     11  O   UNL     1      39.254 -95.325  35.246  1.00  0.00    -0.452 OA
ENDROOT
BRANCH   1  12
ATOM     12  C   UNL     1      40.395 -95.582  37.353  1.00  0.00     0.021 A 
ATOM     13  C   UNL     1      40.060 -94.500  38.188  1.00  0.00     0.016 A 
ATOM     14  C   UNL     1      40.074 -94.649  39.578  1.00  0.00     0.047 A 
ATOM     15  C   UNL     1      40.435 -95.872  40.152  1.00  0.00     0.115 A 
ATOM     16  C   UNL     1      40.778 -96.801  37.937  1.00  0.00     0.016 A 
ATOM     17  C   UNL     1      40.789 -96.948  39.327  1.00  0.00     0.047 A 
BRANCH  15  18
ATOM     18  O   UNL     1      40.442 -96.006  41.538  1.00  0.00    -0.508 OA
ATOM     19  H   UNL     1      39.747 -95.550  42.118  1.00  0.00     0.293 HD
ENDBRANCH  15  18
ENDBRANCH   1  12
BRANCH   2  20
ATOM     20  O   UNL     1      42.843 -95.441  35.810  1.00  0.00    -0.502 OA
ATOM     21  H   UNL     1      43.037 -96.088  36.566  1.00  0.00     0.293 HD
ENDBRANCH   2  20
BRANCH   6  22
ATOM     22  O   UNL     1      41.160 -95.307  30.758  1.00  0.00    -0.507 OA
ATOM     23  H   UNL     1      42.037 -94.810  30.805  1.00  0.00     0.293 HD
ENDBRANCH   6  22
BRANCH   8  24
ATOM     24  O   UNL     1      36.439 -94.782  31.459  1.00  0.00    -0.508 OA
ATOM     25  H   UNL     1      35.807 -95.567  31.345  1.00  0.00     0.293 HD
ENDBRANCH   8  24
TORSDOF 5
ENDMDL
MODEL 7
REMARK VINA RESULT:    -4.924     15.303     16.356
REMARK INTER + INTRA:          -5.850
REMARK INTER:                  -5.950
REMARK INTRA:                   0.100
REMARK UNBOUND:                -0.062
REMARK SMILES O=c1c(O)c(-c2ccc(O)cc2)oc2cc(O)cc(O)c12
REMARK SMILES IDX 5 1 3 2 2 3 1 4 21 5 19 6 18 7 16 8 15 9 14 10 13 11 6 12
REMARK SMILES IDX 7 13 8 14 9 15 12 16 11 17 10 18 4 20 20 22 17 24
REMARK H PARENT 10 19 4 21 20 23 17 25
REMARK Flexibility Score: inf
ROOT
ATOM      1  C   UNL     1      36.521 -77.817  37.802  1.00  0.00     0.180 A 
ATOM      2  C   UNL     1      37.613 -77.434  37.004  1.00  0.00     0.208 A 
ATOM      3  C   UNL     1      38.915 -77.647  37.484  1.00  0.00     0.238 A 
ATOM      4  O   UNL     1      39.889 -77.352  36.742  1.00  0.00    -0.285 OA
ATOM      5  C   UNL     1      39.109 -78.225  38.761  1.00  0.00     0.111 A 
ATOM      6  C   UNL     1      40.384 -78.450  39.364  1.00  0.00     0.134 A 
ATOM      7  C   UNL     1      40.460 -79.148  40.576  1.00  0.00     0.093 A 
ATOM      8  C   UNL     1      39.305 -79.570  41.239  1.00  0.00     0.123 A 
ATOM      9  C   UNL     1      38.054 -79.303  40.688  1.00  0.00     0.094 A 
ATOM     10  C   UNL     1      37.947 -78.641  39.462  1.00  0.00     0.146 A 
ATOM     11  O   UNL     1      36.736 -78.415  38.966  1.00  0.00    -0.452 OA
ENDROOT
BRANCH   1  12
ATOM     12  C   UNL     1      35.120 -77.600  37.374  1.00  0.00     0.021 A 
ATOM     13  C   UNL     1      34.164 -77.047  38.245  1.00  0.00     0.016 A 
ATOM     14  C   UNL     1      32.841 -76.875  37.825  1.00  0.00     0.047 A 
ATOM     15  C   UNL     1      32.453 -77.265  36.540  1.00  0.00     0.115 A 
ATOM     16  C   UNL     1      34.718 -78.010  36.091  1.00  0.00     0.016 A 
ATOM     17  C   UNL     1      33.395 -77.836  35.675  1.00  0.00     0.047 A 
BRANCH  15  18
ATOM     18  O   UNL     1      31.133 -77.087  36.136  1.00  0.00    -0.508 OA
ATOM     19  H   UNL     1      30.767 -77.537  35.304  1.00  0.00     0.293 HD
ENDBRANCH  15  18
ENDBRANCH   1  12
BRANCH   2  20
ATOM     20  O   UNL     1      37.400 -76.884  35.736  1.00  0.00    -0.502 OA
ATOM     21  H   UNL     1      37.799 -77.285  34.895  1.00  0.00     0.293 HD
ENDBRANCH   2  20
BRANCH   6  22
ATOM     22  O   UNL     1      41.591 -77.988  38.833  1.00  0.00    -0.507 OA
ATOM     23  H   UNL     1      41.732 -77.728  37.869  1.00  0.00     0.293 HD
ENDBRANCH   6  22
BRANCH   8  24
ATOM     24  O   UNL     1      39.390 -80.250  42.451  1.00  0.00    -0.508 OA
ATOM     25  H   UNL     1      40.191 -80.828  42.681  1.00  0.00     0.293 HD
ENDBRANCH   8  24
TORSDOF 5
ENDMDL
MODEL 8
REMARK VINA RESULT:    -4.853      9.044     10.354
REMARK INTER + INTRA:          -5.766
REMARK INTER:                  -5.473
REMARK INTRA:                  -0.294
REMARK UNBOUND:                -0.062
REMARK SMILES O=c1c(O)c(-c2ccc(O)cc2)oc2cc(O)cc(O)c12
REMARK SMILES IDX 5 1 3 2 2 3 1 4 21 5 19 6 18 7 16 8 15 9 14 10 13 11 6 12
REMARK SMILES IDX 7 13 8 14 9 15 12 16 11 17 10 18 4 20 20 22 17 24
REMARK H PARENT 10 19 4 21 20 23 17 25
REMARK Flexibility Score: inf
ROOT
ATOM      1  C   UNL     1      35.401 -95.774  29.934  1.00  0.00     0.180 A 
ATOM      2  C   UNL     1      35.214 -95.272  28.635  1.00  0.00     0.208 A 
ATOM      3  C   UNL     1      33.915 -95.221  28.105  1.00  0.00     0.238 A 
ATOM      4  O   UNL     1      33.747 -94.720  26.962  1.00  0.00    -0.285 OA
ATOM      5  C   UNL     1      32.822 -95.686  28.874  1.00  0.00     0.111 A 
ATOM      6  C   UNL     1      31.468 -95.718  28.422  1.00  0.00     0.134 A 
ATOM      7  C   UNL     1      30.450 -96.077  29.315  1.00  0.00     0.093 A 
ATOM      8  C   UNL     1      30.744 -96.468  30.624  1.00  0.00     0.123 A 
ATOM      9  C   UNL     1      32.068 -96.497  31.056  1.00  0.00     0.094 A 
ATOM     10  C   UNL     1      33.102 -96.110  30.200  1.00  0.00     0.146 A 
ATOM     11  O   UNL     1      34.349 -96.142  30.655  1.00  0.00    -0.452 OA
ENDROOT
BRANCH   1  12
ATOM     12  C   UNL     1      36.744 -95.883  30.550  1.00  0.00     0.021 A 
ATOM     13  C   UNL     1      37.570 -96.998  30.317  1.00  0.00     0.016 A 
ATOM     14  C   UNL     1      38.823 -97.089  30.930  1.00  0.00     0.047 A 
ATOM     15  C   UNL     1      39.261 -96.079  31.792  1.00  0.00     0.115 A 
ATOM     16  C   UNL     1      37.181 -94.883  31.435  1.00  0.00     0.016 A 
ATOM     17  C   UNL     1      38.435 -94.977  32.044  1.00  0.00     0.047 A 
BRANCH  15  18
ATOM     18  O   UNL     1      40.513 -96.184  32.394  1.00  0.00    -0.508 OA
ATOM     19  H   UNL     1      41.188 -95.428  32.347  1.00  0.00     0.293 HD
ENDBRANCH  15  18
ENDBRANCH   1  12
BRANCH   2  20
ATOM     20  O   UNL     1      36.304 -94.798  27.900  1.00  0.00    -0.502 OA
ATOM     21  H   UNL     1      36.290 -94.724  26.889  1.00  0.00     0.293 HD
ENDBRANCH   2  20
BRANCH   6  22
ATOM     22  O   UNL     1      31.076 -95.436  27.110  1.00  0.00    -0.507 OA
ATOM     23  H   UNL     1      30.657 -96.102  26.480  1.00  0.00     0.293 HD
ENDBRANCH   6  22
BRANCH   8  24
ATOM     24  O   UNL     1      29.728 -96.838  31.501  1.00  0.00    -0.508 OA
ATOM     25  H   UNL     1      29.173 -97.673  31.347  1.00  0.00     0.293 HD
ENDBRANCH   8  24
TORSDOF 5
ENDMDL
MODEL 9
REMARK VINA RESULT:    -4.754     15.613     18.013
REMARK INTER + INTRA:          -5.650
REMARK INTER:                  -6.224
REMARK INTRA:                   0.574
REMARK UNBOUND:                -0.062
REMARK SMILES O=c1c(O)c(-c2ccc(O)cc2)oc2cc(O)cc(O)c12
REMARK SMILES IDX 5 1 3 2 2 3 1 4 21 5 19 6 18 7 16 8 15 9 14 10 13 11 6 12
REMARK SMILES IDX 7 13 8 14 9 15 12 16 11 17 10 18 4 20 20 22 17 24
REMARK H PARENT 10 19 4 21 20 23 17 25
REMARK Flexibility Score: inf
ROOT
ATOM      1  C   UNL     1      37.844 -77.379  34.942  1.00  0.00     0.180 A 
ATOM      2  C   UNL     1      39.112 -77.319  35.548  1.00  0.00     0.208 A 
ATOM      3  C   UNL     1      40.253 -77.250  34.733  1.00  0.00     0.238 A 
ATOM      4  O   UNL     1      41.381 -77.142  35.281  1.00  0.00    -0.285 OA
ATOM      5  C   UNL     1      40.114 -77.259  33.324  1.00  0.00     0.111 A 
ATOM      6  C   UNL     1      41.204 -77.233  32.402  1.00  0.00     0.134 A 
ATOM      7  C   UNL     1      40.946 -77.113  31.031  1.00  0.00     0.093 A 
ATOM      8  C   UNL     1      39.636 -77.084  30.544  1.00  0.00     0.123 A 
ATOM      9  C   UNL     1      38.566 -77.168  31.432  1.00  0.00     0.094 A 
ATOM     10  C   UNL     1      38.792 -77.252  32.808  1.00  0.00     0.146 A 
ATOM     11  O   UNL     1      37.744 -77.319  33.621  1.00  0.00    -0.452 OA
ENDROOT
BRANCH   1  12
ATOM     12  C   UNL     1      36.597 -77.478  35.735  1.00  0.00     0.021 A 
ATOM     13  C   UNL     1      35.346 -77.655  35.116  1.00  0.00     0.016 A 
ATOM     14  C   UNL     1      34.181 -77.722  35.886  1.00  0.00     0.047 A 
ATOM     15  C   UNL     1      34.246 -77.600  37.277  1.00  0.00     0.115 A 
ATOM     16  C   UNL     1      36.654 -77.334  37.132  1.00  0.00     0.016 A 
ATOM     17  C   UNL     1      35.486 -77.403  37.898  1.00  0.00     0.047 A 
BRANCH  15  18
ATOM     18  O   UNL     1      33.077 -77.669  38.029  1.00  0.00    -0.508 OA
ATOM     19  H   UNL     1      33.081 -77.510  39.031  1.00  0.00     0.293 HD
ENDBRANCH  15  18
ENDBRANCH   1  12
BRANCH   2  20
ATOM     20  O   UNL     1      39.225 -77.290  36.940  1.00  0.00    -0.502 OA
ATOM     21  H   UNL     1      38.968 -76.479  37.491  1.00  0.00     0.293 HD
ENDBRANCH   2  20
BRANCH   6  22
ATOM     22  O   UNL     1      42.546 -77.351  32.776  1.00  0.00    -0.507 OA
ATOM     23  H   UNL     1      43.057 -76.662  33.306  1.00  0.00     0.293 HD
ENDBRANCH   6  22
BRANCH   8  24
ATOM     24  O   UNL     1      39.388 -76.979  29.178  1.00  0.00    -0.508 OA
ATOM     25  H   UNL     1      38.470 -76.733  28.823  1.00  0.00     0.293 HD
ENDBRANCH   8  24
TORSDOF 5
ENDMDL
