MODEL 1
REMARK VINA RESULT:    -3.252      0.000      0.000
REMARK INTER + INTRA:         -10.061
REMARK INTER:                  -7.054
REMARK INTRA:                  -3.006
REMARK UNBOUND:                -3.006
REMARK SMILES CCCCCCCCCCCCCCCCCCCCCC(=O)[O-]
REMARK SMILES IDX 12 1 11 2 10 3 9 4 8 5 7 6 6 7 5 8 4 9 3 10 2 11 1 12 13 13
REMARK SMILES IDX 14 14 15 15 16 16 17 17 18 18 19 19 20 20 21 21 22 22 23 23
REMARK SMILES IDX 24 24
REMARK H PARENT
REMARK Flexibility Score: inf
ROOT
ATOM      1  C   UNL     1      -8.009  -2.926 -24.396  1.00  0.00     0.000 C 
ENDROOT
BRANCH   1   2
ATOM      2  C   UNL     1      -8.234  -1.534 -23.783  1.00  0.00     0.000 C 
BRANCH   2   3
ATOM      3  C   UNL     1      -7.039  -1.045 -22.945  1.00  0.00     0.000 C 
BRANCH   3   4
ATOM      4  C   UNL     1      -6.451   0.315 -23.367  1.00  0.00    -0.000 C 
BRANCH   4   5
ATOM      5  C   UNL     1      -5.351   0.191 -24.432  1.00  0.00    -0.000 C 
BRANCH   5   6
ATOM      6  C   UNL     1      -5.915   0.454 -25.836  1.00  0.00    -0.000 C 
BRANCH   6   7
ATOM      7  C   UNL     1      -6.294   1.927 -26.059  1.00  0.00    -0.000 C 
BRANCH   7   8
ATOM      8  C   UNL     1      -7.713   2.093 -26.625  1.00  0.00    -0.000 C 
BRANCH   8   9
ATOM      9  C   UNL     1      -8.437   0.749 -26.827  1.00  0.00    -0.000 C 
BRANCH   9  10
ATOM     10  C   UNL     1      -9.967   0.797 -26.654  1.00  0.00    -0.000 C 
BRANCH  10  11
ATOM     11  C   UNL     1     -10.595  -0.593 -26.481  1.00  0.00    -0.003 C 
ATOM     12  C   UNL     1     -10.566  -1.376 -27.790  1.00  0.00     0.004 C 
ENDBRANCH  10  11
ENDBRANCH   9  10
ENDBRANCH   8   9
ENDBRANCH   7   8
ENDBRANCH   6   7
ENDBRANCH   5   6
ENDBRANCH   4   5
ENDBRANCH   3   4
ENDBRANCH   2   3
ENDBRANCH   1   2
BRANCH   1  13
ATOM     13  C   UNL     1      -7.647  -2.868 -25.892  1.00  0.00     0.000 C 
BRANCH  13  14
ATOM     14  C   UNL     1      -6.173  -3.182 -26.221  1.00  0.00     0.000 C 
BRANCH  14  15
ATOM     15  C   UNL     1      -5.531  -4.285 -25.357  1.00  0.00     0.000 C 
BRANCH  15  16
ATOM     16  C   UNL     1      -4.919  -5.460 -26.146  1.00  0.00     0.000 C 
BRANCH  16  17
ATOM     17  C   UNL     1      -5.942  -6.456 -26.721  1.00  0.00     0.000 C 
BRANCH  17  18
ATOM     18  C   UNL     1      -6.841  -7.079 -25.639  1.00  0.00     0.000 C 
BRANCH  18  19
ATOM     19  C   UNL     1      -8.334  -6.814 -25.888  1.00  0.00     0.000 C 
BRANCH  19  20
ATOM     20  C   UNL     1      -8.927  -7.747 -26.958  1.00  0.00     0.006 C 
BRANCH  20  21
ATOM     21  C   UNL     1     -10.191  -8.463 -26.468  1.00  0.00     0.053 C 
BRANCH  21  22
ATOM     22  C   UNL     1      -9.916  -9.889 -26.099  1.00  0.00     0.041 C 
ATOM     23  O   UNL     1     -10.868 -10.685 -25.885  1.00  0.00    -0.550 OA
ATOM     24  O   UNL     1      -8.605 -10.345 -26.018  1.00  0.00    -0.550 OA
ENDBRANCH  21  22
ENDBRANCH  20  21
ENDBRANCH  19  20
ENDBRANCH  18  19
ENDBRANCH  17  18
ENDBRANCH  16  17
ENDBRANCH  15  16
ENDBRANCH  14  15
ENDBRANCH  13  14
ENDBRANCH   1  13
TORSDOF 20
ENDMDL
MODEL 2
REMARK VINA RESULT:    -3.157      2.237      5.863
REMARK INTER + INTRA:          -9.855
REMARK INTER:                  -7.868
REMARK INTRA:                  -1.986
REMARK UNBOUND:                -3.006
REMARK SMILES CCCCCCCCCCCCCCCCCCCCCC(=O)[O-]
REMARK SMILES IDX 12 1 11 2 10 3 9 4 8 5 7 6 6 7 5 8 4 9 3 10 2 11 1 12 13 13
REMARK SMILES IDX 14 14 15 15 16 16 17 17 18 18 19 19 20 20 21 21 22 22 23 23
REMARK SMILES IDX 24 24
REMARK H PARENT
REMARK Flexibility Score: inf
ROOT
ATOM      1  C   UNL     1      -8.978  -7.296 -25.881  1.00  0.00     0.000 C 
ENDROOT
BRANCH   1   2
ATOM      2  C   UNL     1      -7.593  -7.944 -26.043  1.00  0.00     0.000 C 
BRANCH   2   3
ATOM      3  C   UNL     1      -6.713  -7.232 -27.085  1.00  0.00     0.000 C 
BRANCH   3   4
ATOM      4  C   UNL     1      -7.318  -5.953 -27.694  1.00  0.00    -0.000 C 
BRANCH   4   5
ATOM      5  C   UNL     1      -6.760  -4.666 -27.069  1.00  0.00    -0.000 C 
BRANCH   5   6
ATOM      6  C   UNL     1      -7.894  -3.779 -26.535  1.00  0.00    -0.000 C 
BRANCH   6   7
ATOM      7  C   UNL     1      -8.006  -3.814 -25.002  1.00  0.00    -0.000 C 
BRANCH   7   8
ATOM      8  C   UNL     1      -7.726  -2.447 -24.358  1.00  0.00    -0.000 C 
BRANCH   8   9
ATOM      9  C   UNL     1      -7.909  -1.274 -25.339  1.00  0.00    -0.000 C 
BRANCH   9  10
ATOM     10  C   UNL     1      -8.603  -0.031 -24.752  1.00  0.00    -0.000 C 
BRANCH  10  11
ATOM     11  C   UNL     1     -10.132  -0.082 -24.876  1.00  0.00    -0.003 C 
ATOM     12  C   UNL     1     -10.580   0.254 -26.295  1.00  0.00     0.004 C 
ENDBRANCH  10  11
ENDBRANCH   9  10
ENDBRANCH   8   9
ENDBRANCH   7   8
ENDBRANCH   6   7
ENDBRANCH   5   6
ENDBRANCH   4   5
ENDBRANCH   3   4
ENDBRANCH   2   3
ENDBRANCH   1   2
BRANCH   1  13
ATOM     13  C   UNL     1     -10.131  -8.305 -26.031  1.00  0.00     0.000 C 
BRANCH  13  14
ATOM     14  C   UNL     1     -10.071  -9.186 -27.295  1.00  0.00     0.000 C 
BRANCH  14  15
ATOM     15  C   UNL     1     -11.384  -9.266 -28.099  1.00  0.00     0.000 C 
BRANCH  15  16
ATOM     16  C   UNL     1     -12.141 -10.604 -27.982  1.00  0.00     0.000 C 
BRANCH  16  17
ATOM     17  C   UNL     1     -11.892 -11.378 -26.676  1.00  0.00     0.000 C 
BRANCH  17  18
ATOM     18  C   UNL     1     -12.150 -12.887 -26.819  1.00  0.00     0.000 C 
BRANCH  18  19
ATOM     19  C   UNL     1     -11.162 -13.567 -27.779  1.00  0.00     0.000 C 
BRANCH  19  20
ATOM     20  C   UNL     1      -9.782 -13.796 -27.138  1.00  0.00     0.006 C 
BRANCH  20  21
ATOM     21  C   UNL     1      -8.723 -12.826 -27.676  1.00  0.00     0.053 C 
BRANCH  21  22
ATOM     22  C   UNL     1      -8.117 -12.000 -26.583  1.00  0.00     0.041 C 
ATOM     23  O   UNL     1      -7.060 -11.348 -26.791  1.00  0.00    -0.550 OA
ATOM     24  O   UNL     1      -8.736 -11.930 -25.341  1.00  0.00    -0.550 OA
ENDBRANCH  21  22
ENDBRANCH  20  21
ENDBRANCH  19  20
ENDBRANCH  18  19
ENDBRANCH  17  18
ENDBRANCH  16  17
ENDBRANCH  15  16
ENDBRANCH  14  15
ENDBRANCH  13  14
ENDBRANCH   1  13
TORSDOF 20
ENDMDL
MODEL 3
REMARK VINA RESULT:    -3.112     12.566     15.969
REMARK INTER + INTRA:          -9.756
REMARK INTER:                  -6.955
REMARK INTRA:                  -2.801
REMARK UNBOUND:                -3.006
REMARK SMILES CCCCCCCCCCCCCCCCCCCCCC(=O)[O-]
REMARK SMILES IDX 12 1 11 2 10 3 9 4 8 5 7 6 6 7 5 8 4 9 3 10 2 11 1 12 13 13
REMARK SMILES IDX 14 14 15 15 16 16 17 17 18 18 19 19 20 20 21 21 22 22 23 23
REMARK SMILES IDX 24 24
REMARK H PARENT
REMARK Flexibility Score: inf
ROOT
ATOM      1  C   UNL     1     -20.486   2.937 -23.725  1.00  0.00     0.000 C 
ENDROOT
BRANCH   1   2
ATOM      2  C   UNL     1     -21.954   3.183 -24.112  1.00  0.00     0.000 C 
BRANCH   2   3
ATOM      3  C   UNL     1     -22.297   4.677 -24.252  1.00  0.00     0.000 C 
BRANCH   3   4
ATOM      4  C   UNL     1     -23.795   5.021 -24.147  1.00  0.00    -0.000 C 
BRANCH   4   5
ATOM      5  C   UNL     1     -24.552   4.122 -23.159  1.00  0.00    -0.000 C 
BRANCH   5   6
ATOM      6  C   UNL     1     -25.124   4.945 -21.996  1.00  0.00    -0.000 C 
BRANCH   6   7
ATOM      7  C   UNL     1     -24.776   4.354 -20.620  1.00  0.00    -0.000 C 
BRANCH   7   8
ATOM      8  C   UNL     1     -23.649   5.124 -19.914  1.00  0.00    -0.000 C 
BRANCH   8   9
ATOM      9  C   UNL     1     -22.261   4.837 -20.516  1.00  0.00    -0.000 C 
BRANCH   9  10
ATOM     10  C   UNL     1     -21.103   4.797 -19.501  1.00  0.00    -0.000 C 
BRANCH  10  11
ATOM     11  C   UNL     1     -19.844   4.115 -20.055  1.00  0.00    -0.003 C 
ATOM     12  C   UNL     1     -19.729   2.679 -19.553  1.00  0.00     0.004 C 
ENDBRANCH  10  11
ENDBRANCH   9  10
ENDBRANCH   8   9
ENDBRANCH   7   8
ENDBRANCH   6   7
ENDBRANCH   5   6
ENDBRANCH   4   5
ENDBRANCH   3   4
ENDBRANCH   2   3
ENDBRANCH   1   2
BRANCH   1  13
ATOM     13  C   UNL     1     -19.587   4.160 -23.984  1.00  0.00     0.000 C 
BRANCH  13  14
ATOM     14  C   UNL     1     -18.769   4.108 -25.290  1.00  0.00     0.000 C 
BRANCH  14  15
ATOM     15  C   UNL     1     -19.404   4.840 -26.489  1.00  0.00     0.000 C 
BRANCH  15  16
ATOM     16  C   UNL     1     -20.116   3.928 -27.509  1.00  0.00     0.000 C 
BRANCH  16  17
ATOM     17  C   UNL     1     -21.640   4.124 -27.600  1.00  0.00     0.000 C 
BRANCH  17  18
ATOM     18  C   UNL     1     -22.395   2.810 -27.858  1.00  0.00     0.000 C 
BRANCH  18  19
ATOM     19  C   UNL     1     -21.450   1.608 -28.019  1.00  0.00     0.000 C 
BRANCH  19  20
ATOM     20  C   UNL     1     -21.317   0.787 -26.725  1.00  0.00     0.006 C 
BRANCH  20  21
ATOM     21  C   UNL     1     -20.564  -0.530 -26.948  1.00  0.00     0.053 C 
BRANCH  21  22
ATOM     22  C   UNL     1     -19.340  -0.625 -26.088  1.00  0.00     0.041 C 
ATOM     23  O   UNL     1     -18.294  -1.168 -26.530  1.00  0.00    -0.550 OA
ATOM     24  O   UNL     1     -19.350  -0.088 -24.806  1.00  0.00    -0.550 OA
ENDBRANCH  21  22
ENDBRANCH  20  21
ENDBRANCH  19  20
ENDBRANCH  18  19
ENDBRANCH  17  18
ENDBRANCH  16  17
ENDBRANCH  15  16
ENDBRANCH  14  15
ENDBRANCH  13  14
ENDBRANCH   1  13
TORSDOF 20
ENDMDL
MODEL 4
REMARK VINA RESULT:    -3.074      4.123     10.554
REMARK INTER + INTRA:          -9.675
REMARK INTER:                  -7.639
REMARK INTRA:                  -2.036
REMARK UNBOUND:                -3.006
REMARK SMILES CCCCCCCCCCCCCCCCCCCCCC(=O)[O-]
REMARK SMILES IDX 12 1 11 2 10 3 9 4 8 5 7 6 6 7 5 8 4 9 3 10 2 11 1 12 13 13
REMARK SMILES IDX 14 14 15 15 16 16 17 17 18 18 19 19 20 20 21 21 22 22 23 23
REMARK SMILES IDX 24 24
REMARK H PARENT
REMARK Flexibility Score: inf
ROOT
ATOM      1  C   UNL     1      -9.418  -7.825 -26.258  1.00  0.00     0.000 C 
ENDROOT
BRANCH   1   2
ATOM      2  C   UNL     1      -8.897  -9.272 -26.228  1.00  0.00     0.000 C 
BRANCH   2   3
ATOM      3  C   UNL     1     -10.013 -10.317 -26.398  1.00  0.00     0.000 C 
BRANCH   3   4
ATOM      4  C   UNL     1     -10.996 -10.050 -27.553  1.00  0.00    -0.000 C 
BRANCH   4   5
ATOM      5  C   UNL     1     -12.158 -11.054 -27.600  1.00  0.00    -0.000 C 
BRANCH   5   6
ATOM      6  C   UNL     1     -12.083 -12.035 -26.420  1.00  0.00    -0.000 C 
BRANCH   6   7
ATOM      7  C   UNL     1     -13.061 -13.212 -26.561  1.00  0.00    -0.000 C 
BRANCH   7   8
ATOM      8  C   UNL     1     -12.352 -14.576 -26.535  1.00  0.00    -0.000 C 
BRANCH   8   9
ATOM      9  C   UNL     1     -11.138 -14.637 -27.481  1.00  0.00    -0.000 C 
BRANCH   9  10
ATOM     10  C   UNL     1      -9.806 -15.022 -26.811  1.00  0.00    -0.000 C 
BRANCH  10  11
ATOM     11  C   UNL     1      -8.875 -13.820 -26.595  1.00  0.00    -0.003 C 
ATOM     12  C   UNL     1      -7.928 -14.061 -25.424  1.00  0.00     0.004 C 
ENDBRANCH  10  11
ENDBRANCH   9  10
ENDBRANCH   8   9
ENDBRANCH   7   8
ENDBRANCH   6   7
ENDBRANCH   5   6
ENDBRANCH   4   5
ENDBRANCH   3   4
ENDBRANCH   2   3
ENDBRANCH   1   2
BRANCH   1  13
ATOM     13  C   UNL     1      -8.339  -6.793 -25.882  1.00  0.00     0.000 C 
BRANCH  13  14
ATOM     14  C   UNL     1      -6.960  -7.021 -26.534  1.00  0.00     0.000 C 
BRANCH  14  15
ATOM     15  C   UNL     1      -5.752  -6.798 -25.603  1.00  0.00     0.000 C 
BRANCH  15  16
ATOM     16  C   UNL     1      -5.139  -5.384 -25.654  1.00  0.00     0.000 C 
BRANCH  16  17
ATOM     17  C   UNL     1      -5.663  -4.492 -26.793  1.00  0.00     0.000 C 
BRANCH  17  18
ATOM     18  C   UNL     1      -6.185  -3.134 -26.294  1.00  0.00     0.000 C 
BRANCH  18  19
ATOM     19  C   UNL     1      -7.576  -3.238 -25.649  1.00  0.00     0.000 C 
BRANCH  19  20
ATOM     20  C   UNL     1      -7.565  -2.849 -24.160  1.00  0.00     0.006 C 
BRANCH  20  21
ATOM     21  C   UNL     1      -6.212  -2.278 -23.719  1.00  0.00     0.053 C 
BRANCH  21  22
ATOM     22  C   UNL     1      -6.300  -0.816 -23.406  1.00  0.00     0.041 C 
ATOM     23  O   UNL     1      -6.244   0.036 -24.332  1.00  0.00    -0.550 OA
ATOM     24  O   UNL     1      -6.469  -0.396 -22.092  1.00  0.00    -0.550 OA
ENDBRANCH  21  22
ENDBRANCH  20  21
ENDBRANCH  19  20
ENDBRANCH  18  19
ENDBRANCH  17  18
ENDBRANCH  16  17
ENDBRANCH  15  16
ENDBRANCH  14  15
ENDBRANCH  13  14
ENDBRANCH   1  13
TORSDOF 20
ENDMDL
MODEL 5
REMARK VINA RESULT:    -3.047      2.092      5.603
REMARK INTER + INTRA:          -9.616
REMARK INTER:                  -7.636
REMARK INTRA:                  -1.979
REMARK UNBOUND:                -3.006
REMARK SMILES CCCCCCCCCCCCCCCCCCCCCC(=O)[O-]
REMARK SMILES IDX 12 1 11 2 10 3 9 4 8 5 7 6 6 7 5 8 4 9 3 10 2 11 1 12 13 13
REMARK SMILES IDX 14 14 15 15 16 16 17 17 18 18 19 19 20 20 21 21 22 22 23 23
REMARK SMILES IDX 24 24
REMARK H PARENT
REMARK Flexibility Score: inf
ROOT
ATOM      1  C   UNL     1      -8.307  -6.198 -27.299  1.00  0.00     0.000 C 
ENDROOT
BRANCH   1   2
ATOM      2  C   UNL     1      -7.697  -6.350 -25.896  1.00  0.00     0.000 C 
BRANCH   2   3
ATOM      3  C   UNL     1      -6.188  -6.651 -25.925  1.00  0.00     0.000 C 
BRANCH   3   4
ATOM      4  C   UNL     1      -5.273  -5.478 -25.523  1.00  0.00    -0.000 C 
BRANCH   4   5
ATOM      5  C   UNL     1      -5.220  -4.366 -26.581  1.00  0.00    -0.000 C 
BRANCH   5   6
ATOM      6  C   UNL     1      -5.780  -3.050 -26.022  1.00  0.00    -0.000 C 
BRANCH   6   7
ATOM      7  C   UNL     1      -6.259  -3.177 -24.567  1.00  0.00    -0.000 C 
BRANCH   7   8
ATOM      8  C   UNL     1      -7.759  -2.879 -24.412  1.00  0.00    -0.000 C 
BRANCH   8   9
ATOM      9  C   UNL     1      -8.035  -1.473 -23.849  1.00  0.00    -0.000 C 
BRANCH   9  10
ATOM     10  C   UNL     1      -7.027  -0.981 -22.794  1.00  0.00    -0.000 C 
BRANCH  10  11
ATOM     11  C   UNL     1      -6.324   0.323 -23.198  1.00  0.00    -0.003 C 
ATOM     12  C   UNL     1      -6.547   0.633 -24.675  1.00  0.00     0.004 C 
ENDBRANCH  10  11
ENDBRANCH   9  10
ENDBRANCH   8   9
ENDBRANCH   7   8
ENDBRANCH   6   7
ENDBRANCH   5   6
ENDBRANCH   4   5
ENDBRANCH   3   4
ENDBRANCH   2   3
ENDBRANCH   1   2
BRANCH   1  13
ATOM     13  C   UNL     1      -9.369  -7.268 -27.607  1.00  0.00     0.000 C 
BRANCH  13  14
ATOM     14  C   UNL     1      -9.844  -8.090 -26.391  1.00  0.00     0.000 C 
BRANCH  14  15
ATOM     15  C   UNL     1     -10.357  -9.505 -26.720  1.00  0.00     0.000 C 
BRANCH  15  16
ATOM     16  C   UNL     1     -11.318  -9.590 -27.923  1.00  0.00     0.000 C 
BRANCH  16  17
ATOM     17  C   UNL     1     -12.296 -10.778 -27.887  1.00  0.00     0.000 C 
BRANCH  17  18
ATOM     18  C   UNL     1     -12.070 -11.700 -26.677  1.00  0.00     0.000 C 
BRANCH  18  19
ATOM     19  C   UNL     1     -11.607 -13.107 -27.087  1.00  0.00     0.000 C 
BRANCH  19  20
ATOM     20  C   UNL     1     -10.170 -13.116 -27.639  1.00  0.00     0.006 C 
BRANCH  20  21
ATOM     21  C   UNL     1      -9.205 -13.890 -26.734  1.00  0.00     0.053 C 
BRANCH  21  22
ATOM     22  C   UNL     1      -8.270 -12.974 -26.004  1.00  0.00     0.041 C 
ATOM     23  O   UNL     1      -8.724 -12.068 -25.257  1.00  0.00    -0.550 OA
ATOM     24  O   UNL     1      -6.896 -13.141 -26.129  1.00  0.00    -0.550 OA
ENDBRANCH  21  22
ENDBRANCH  20  21
ENDBRANCH  19  20
ENDBRANCH  18  19
ENDBRANCH  17  18
ENDBRANCH  16  17
ENDBRANCH  15  16
ENDBRANCH  14  15
ENDBRANCH  13  14
ENDBRANCH   1  13
TORSDOF 20
ENDMDL
MODEL 6
REMARK VINA RESULT:    -2.940      2.532      6.858
REMARK INTER + INTRA:          -9.384
REMARK INTER:                  -7.556
REMARK INTRA:                  -1.828
REMARK UNBOUND:                -3.006
REMARK SMILES CCCCCCCCCCCCCCCCCCCCCC(=O)[O-]
REMARK SMILES IDX 12 1 11 2 10 3 9 4 8 5 7 6 6 7 5 8 4 9 3 10 2 11 1 12 13 13
REMARK SMILES IDX 14 14 15 15 16 16 17 17 18 18 19 19 20 20 21 21 22 22 23 23
REMARK SMILES IDX 24 24
REMARK H PARENT
REMARK Flexibility Score: inf
ROOT
ATOM      1  C   UNL     1      -9.920  -8.076 -26.481  1.00  0.00     0.000 C 
ENDROOT
BRANCH   1   2
ATOM      2  C   UNL     1      -8.524  -8.151 -25.842  1.00  0.00     0.000 C 
BRANCH   2   3
ATOM      3  C   UNL     1      -7.444  -8.658 -26.814  1.00  0.00     0.000 C 
BRANCH   3   4
ATOM      4  C   UNL     1      -6.579  -7.563 -27.467  1.00  0.00    -0.000 C 
BRANCH   4   5
ATOM      5  C   UNL     1      -6.865  -6.159 -26.912  1.00  0.00    -0.000 C 
BRANCH   5   6
ATOM      6  C   UNL     1      -5.728  -5.692 -25.992  1.00  0.00    -0.000 C 
BRANCH   6   7
ATOM      7  C   UNL     1      -5.995  -4.312 -25.369  1.00  0.00    -0.000 C 
BRANCH   7   8
ATOM      8  C   UNL     1      -7.463  -3.877 -25.505  1.00  0.00    -0.000 C 
BRANCH   8   9
ATOM      9  C   UNL     1      -7.968  -3.085 -24.285  1.00  0.00    -0.000 C 
BRANCH   9  10
ATOM     10  C   UNL     1      -7.558  -1.601 -24.252  1.00  0.00    -0.000 C 
BRANCH  10  11
ATOM     11  C   UNL     1      -7.101  -1.136 -22.862  1.00  0.00    -0.003 C 
ATOM     12  C   UNL     1      -6.014  -0.071 -22.968  1.00  0.00     0.004 C 
ENDBRANCH  10  11
ENDBRANCH   9  10
ENDBRANCH   8   9
ENDBRANCH   7   8
ENDBRANCH   6   7
ENDBRANCH   5   6
ENDBRANCH   4   5
ENDBRANCH   3   4
ENDBRANCH   2   3
ENDBRANCH   1   2
BRANCH   1  13
ATOM     13  C   UNL     1     -10.090  -9.048 -27.663  1.00  0.00     0.000 C 
BRANCH  13  14
ATOM     14  C   UNL     1     -11.549  -9.345 -28.063  1.00  0.00     0.000 C 
BRANCH  14  15
ATOM     15  C   UNL     1     -11.944 -10.834 -28.038  1.00  0.00     0.000 C 
BRANCH  15  16
ATOM     16  C   UNL     1     -11.961 -11.483 -26.639  1.00  0.00     0.000 C 
BRANCH  16  17
ATOM     17  C   UNL     1     -12.426 -12.950 -26.611  1.00  0.00     0.000 C 
BRANCH  17  18
ATOM     18  C   UNL     1     -11.570 -13.863 -27.505  1.00  0.00     0.000 C 
BRANCH  18  19
ATOM     19  C   UNL     1     -10.863 -14.973 -26.711  1.00  0.00     0.000 C 
BRANCH  19  20
ATOM     20  C   UNL     1      -9.403 -14.620 -26.379  1.00  0.00     0.006 C 
BRANCH  20  21
ATOM     21  C   UNL     1      -8.884 -13.445 -27.217  1.00  0.00     0.053 C 
BRANCH  21  22
ATOM     22  C   UNL     1      -8.204 -12.413 -26.370  1.00  0.00     0.041 C 
ATOM     23  O   UNL     1      -8.848 -11.799 -25.479  1.00  0.00    -0.550 OA
ATOM     24  O   UNL     1      -6.852 -12.150 -26.548  1.00  0.00    -0.550 OA
ENDBRANCH  21  22
ENDBRANCH  20  21
ENDBRANCH  19  20
ENDBRANCH  18  19
ENDBRANCH  17  18
ENDBRANCH  16  17
ENDBRANCH  15  16
ENDBRANCH  14  15
ENDBRANCH  13  14
ENDBRANCH   1  13
TORSDOF 20
ENDMDL
MODEL 7
REMARK VINA RESULT:    -2.901      3.602      9.351
REMARK INTER + INTRA:          -9.300
REMARK INTER:                  -7.486
REMARK INTRA:                  -1.814
REMARK UNBOUND:                -3.006
REMARK SMILES CCCCCCCCCCCCCCCCCCCCCC(=O)[O-]
REMARK SMILES IDX 12 1 11 2 10 3 9 4 8 5 7 6 6 7 5 8 4 9 3 10 2 11 1 12 13 13
REMARK SMILES IDX 14 14 15 15 16 16 17 17 18 18 19 19 20 20 21 21 22 22 23 23
REMARK SMILES IDX 24 24
REMARK H PARENT
REMARK Flexibility Score: inf
ROOT
ATOM      1  C   UNL     1      -7.986  -4.128 -25.652  1.00  0.00     0.000 C 
ENDROOT
BRANCH   1   2
ATOM      2  C   UNL     1      -7.508  -5.558 -25.955  1.00  0.00     0.000 C 
BRANCH   2   3
ATOM      3  C   UNL     1      -8.294  -6.225 -27.098  1.00  0.00     0.000 C 
BRANCH   3   4
ATOM      4  C   UNL     1      -7.708  -7.554 -27.612  1.00  0.00    -0.000 C 
BRANCH   4   5
ATOM      5  C   UNL     1      -8.548  -8.777 -27.214  1.00  0.00    -0.000 C 
BRANCH   5   6
ATOM      6  C   UNL     1      -9.952  -8.352 -26.759  1.00  0.00    -0.000 C 
BRANCH   6   7
ATOM      7  C   UNL     1     -11.031  -8.631 -27.817  1.00  0.00    -0.000 C 
BRANCH   7   8
ATOM      8  C   UNL     1     -11.217 -10.132 -28.091  1.00  0.00    -0.000 C 
BRANCH   8   9
ATOM      9  C   UNL     1     -11.534 -10.938 -26.817  1.00  0.00    -0.000 C 
BRANCH   9  10
ATOM     10  C   UNL     1     -11.439 -12.468 -26.969  1.00  0.00    -0.000 C 
BRANCH  10  11
ATOM     11  C   UNL     1     -12.718 -13.194 -26.529  1.00  0.00    -0.003 C 
ATOM     12  C   UNL     1     -12.497 -14.702 -26.459  1.00  0.00     0.004 C 
ENDBRANCH  10  11
ENDBRANCH   9  10
ENDBRANCH   8   9
ENDBRANCH   7   8
ENDBRANCH   6   7
ENDBRANCH   5   6
ENDBRANCH   4   5
ENDBRANCH   3   4
ENDBRANCH   2   3
ENDBRANCH   1   2
BRANCH   1  13
ATOM     13  C   UNL     1      -7.161  -3.055 -26.387  1.00  0.00     0.000 C 
BRANCH  13  14
ATOM     14  C   UNL     1      -7.844  -2.436 -27.623  1.00  0.00     0.000 C 
BRANCH  14  15
ATOM     15  C   UNL     1      -9.370  -2.637 -27.696  1.00  0.00     0.000 C 
BRANCH  15  16
ATOM     16  C   UNL     1     -10.210  -1.503 -27.074  1.00  0.00     0.000 C 
BRANCH  16  17
ATOM     17  C   UNL     1      -9.472  -0.162 -26.918  1.00  0.00     0.000 C 
BRANCH  17  18
ATOM     18  C   UNL     1      -9.243   0.224 -25.446  1.00  0.00     0.000 C 
BRANCH  18  19
ATOM     19  C   UNL     1      -8.027   1.146 -25.261  1.00  0.00     0.000 C 
BRANCH  19  20
ATOM     20  C   UNL     1      -6.692   0.404 -25.451  1.00  0.00     0.006 C 
BRANCH  20  21
ATOM     21  C   UNL     1      -5.739   0.610 -24.266  1.00  0.00     0.053 C 
BRANCH  21  22
ATOM     22  C   UNL     1      -5.865  -0.486 -23.253  1.00  0.00     0.041 C 
ATOM     23  O   UNL     1      -5.341  -1.611 -23.467  1.00  0.00    -0.550 OA
ATOM     24  O   UNL     1      -6.539  -0.255 -22.060  1.00  0.00    -0.550 OA
ENDBRANCH  21  22
ENDBRANCH  20  21
ENDBRANCH  19  20
ENDBRANCH  18  19
ENDBRANCH  17  18
ENDBRANCH  16  17
ENDBRANCH  15  16
ENDBRANCH  14  15
ENDBRANCH  13  14
ENDBRANCH   1  13
TORSDOF 20
ENDMDL
MODEL 8
REMARK VINA RESULT:    -2.720      3.797      9.894
REMARK INTER + INTRA:          -8.906
REMARK INTER:                  -6.676
REMARK INTRA:                  -2.230
REMARK UNBOUND:                -3.006
REMARK SMILES CCCCCCCCCCCCCCCCCCCCCC(=O)[O-]
REMARK SMILES IDX 12 1 11 2 10 3 9 4 8 5 7 6 6 7 5 8 4 9 3 10 2 11 1 12 13 13
REMARK SMILES IDX 14 14 15 15 16 16 17 17 18 18 19 19 20 20 21 21 22 22 23 23
REMARK SMILES IDX 24 24
REMARK H PARENT
REMARK Flexibility Score: inf
ROOT
ATOM      1  C   UNL     1      -8.624  -7.054 -26.770  1.00  0.00     0.000 C 
ENDROOT
BRANCH   1   2
ATOM      2  C   UNL     1      -9.389  -7.261 -28.088  1.00  0.00     0.000 C 
BRANCH   2   3
ATOM      3  C   UNL     1     -10.178  -8.582 -28.124  1.00  0.00     0.000 C 
BRANCH   3   4
ATOM      4  C   UNL     1     -10.665  -9.097 -26.756  1.00  0.00    -0.000 C 
BRANCH   4   5
ATOM      5  C   UNL     1     -10.713 -10.630 -26.672  1.00  0.00    -0.000 C 
BRANCH   5   6
ATOM      6  C   UNL     1      -9.405 -11.188 -26.092  1.00  0.00    -0.000 C 
BRANCH   6   7
ATOM      7  C   UNL     1      -8.585 -11.978 -27.125  1.00  0.00    -0.000 C 
BRANCH   7   8
ATOM      8  C   UNL     1      -8.111 -13.338 -26.587  1.00  0.00    -0.000 C 
BRANCH   8   9
ATOM      9  C   UNL     1      -9.217 -14.409 -26.609  1.00  0.00    -0.000 C 
BRANCH   9  10
ATOM     10  C   UNL     1      -9.913 -14.603 -27.969  1.00  0.00    -0.000 C 
BRANCH  10  11
ATOM     11  C   UNL     1     -11.369 -14.117 -27.972  1.00  0.00    -0.003 C 
ATOM     12  C   UNL     1     -12.084 -14.511 -26.684  1.00  0.00     0.004 C 
ENDBRANCH  10  11
ENDBRANCH   9  10
ENDBRANCH   8   9
ENDBRANCH   7   8
ENDBRANCH   6   7
ENDBRANCH   5   6
ENDBRANCH   4   5
ENDBRANCH   3   4
ENDBRANCH   2   3
ENDBRANCH   1   2
BRANCH   1  13
ATOM     13  C   UNL     1      -7.148  -7.482 -26.863  1.00  0.00     0.000 C 
BRANCH  13  14
ATOM     14  C   UNL     1      -6.415  -7.604 -25.512  1.00  0.00     0.000 C 
BRANCH  14  15
ATOM     15  C   UNL     1      -5.076  -6.845 -25.424  1.00  0.00     0.000 C 
BRANCH  15  16
ATOM     16  C   UNL     1      -4.971  -5.598 -26.325  1.00  0.00     0.000 C 
BRANCH  16  17
ATOM     17  C   UNL     1      -5.284  -4.264 -25.624  1.00  0.00     0.000 C 
BRANCH  17  18
ATOM     18  C   UNL     1      -6.629  -3.661 -26.064  1.00  0.00     0.000 C 
BRANCH  18  19
ATOM     19  C   UNL     1      -7.772  -3.999 -25.094  1.00  0.00     0.000 C 
BRANCH  19  20
ATOM     20  C   UNL     1      -7.985  -2.907 -24.031  1.00  0.00     0.006 C 
BRANCH  20  21
ATOM     21  C   UNL     1      -7.129  -1.662 -24.299  1.00  0.00     0.053 C 
BRANCH  21  22
ATOM     22  C   UNL     1      -6.279  -1.306 -23.118  1.00  0.00     0.041 C 
ATOM     23  O   UNL     1      -6.434  -0.200 -22.535  1.00  0.00    -0.550 OA
ATOM     24  O   UNL     1      -5.333  -2.207 -22.646  1.00  0.00    -0.550 OA
ENDBRANCH  21  22
ENDBRANCH  20  21
ENDBRANCH  19  20
ENDBRANCH  18  19
ENDBRANCH  17  18
ENDBRANCH  16  17
ENDBRANCH  15  16
ENDBRANCH  14  15
ENDBRANCH  13  14
ENDBRANCH   1  13
TORSDOF 20
ENDMDL
MODEL 9
REMARK VINA RESULT:    -2.633      3.835      9.855
REMARK INTER + INTRA:          -8.717
REMARK INTER:                  -6.458
REMARK INTRA:                  -2.259
REMARK UNBOUND:                -3.006
REMARK SMILES CCCCCCCCCCCCCCCCCCCCCC(=O)[O-]
REMARK SMILES IDX 12 1 11 2 10 3 9 4 8 5 7 6 6 7 5 8 4 9 3 10 2 11 1 12 13 13
REMARK SMILES IDX 14 14 15 15 16 16 17 17 18 18 19 19 20 20 21 21 22 22 23 23
REMARK SMILES IDX 24 24
REMARK H PARENT
REMARK Flexibility Score: inf
ROOT
ATOM      1  C   UNL     1      -7.444 -10.452 -28.019  1.00  0.00     0.000 C 
ENDROOT
BRANCH   1   2
ATOM      2  C   UNL     1      -6.834 -11.654 -27.280  1.00  0.00     0.000 C 
BRANCH   2   3
ATOM      3  C   UNL     1      -7.429 -13.001 -27.728  1.00  0.00     0.000 C 
BRANCH   3   4
ATOM      4  C   UNL     1      -8.924 -12.970 -28.099  1.00  0.00    -0.000 C 
BRANCH   4   5
ATOM      5  C   UNL     1      -9.828 -13.557 -27.005  1.00  0.00    -0.000 C 
BRANCH   5   6
ATOM      6  C   UNL     1     -11.303 -13.517 -27.433  1.00  0.00    -0.000 C 
BRANCH   6   7
ATOM      7  C   UNL     1     -12.064 -12.323 -26.835  1.00  0.00    -0.000 C 
BRANCH   7   8
ATOM      8  C   UNL     1     -12.047 -11.091 -27.754  1.00  0.00    -0.000 C 
BRANCH   8   9
ATOM      9  C   UNL     1     -10.991 -10.050 -27.339  1.00  0.00    -0.000 C 
BRANCH   9  10
ATOM     10  C   UNL     1     -10.502 -10.157 -25.883  1.00  0.00    -0.000 C 
BRANCH  10  11
ATOM     11  C   UNL     1      -9.469  -9.083 -25.517  1.00  0.00    -0.003 C 
ATOM     12  C   UNL     1      -9.853  -7.728 -26.102  1.00  0.00     0.004 C 
ENDBRANCH  10  11
ENDBRANCH   9  10
ENDBRANCH   8   9
ENDBRANCH   7   8
ENDBRANCH   6   7
ENDBRANCH   5   6
ENDBRANCH   4   5
ENDBRANCH   3   4
ENDBRANCH   2   3
ENDBRANCH   1   2
BRANCH   1  13
ATOM     13  C   UNL     1      -6.586  -9.179 -27.899  1.00  0.00     0.000 C 
BRANCH  13  14
ATOM     14  C   UNL     1      -5.645  -9.135 -26.678  1.00  0.00     0.000 C 
BRANCH  14  15
ATOM     15  C   UNL     1      -5.326  -7.723 -26.149  1.00  0.00     0.000 C 
BRANCH  15  16
ATOM     16  C   UNL     1      -6.555  -6.832 -25.881  1.00  0.00     0.000 C 
BRANCH  16  17
ATOM     17  C   UNL     1      -6.447  -5.398 -26.430  1.00  0.00     0.000 C 
BRANCH  17  18
ATOM     18  C   UNL     1      -7.016  -4.345 -25.464  1.00  0.00     0.000 C 
BRANCH  18  19
ATOM     19  C   UNL     1      -8.057  -3.433 -26.131  1.00  0.00     0.000 C 
BRANCH  19  20
ATOM     20  C   UNL     1      -8.090  -2.026 -25.511  1.00  0.00     0.006 C 
BRANCH  20  21
ATOM     21  C   UNL     1      -7.871  -2.055 -23.993  1.00  0.00     0.053 C 
BRANCH  21  22
ATOM     22  C   UNL     1      -6.831  -1.067 -23.561  1.00  0.00     0.041 C 
ATOM     23  O   UNL     1      -6.177  -1.256 -22.502  1.00  0.00    -0.550 OA
ATOM     24  O   UNL     1      -6.566   0.050 -24.345  1.00  0.00    -0.550 OA
ENDBRANCH  21  22
ENDBRANCH  20  21
ENDBRANCH  19  20
ENDBRANCH  18  19
ENDBRANCH  17  18
ENDBRANCH  16  17
ENDBRANCH  15  16
ENDBRANCH  14  15
ENDBRANCH  13  14
ENDBRANCH   1  13
TORSDOF 20
ENDMDL
