MODEL 1
REMARK VINA RESULT:    -8.252      0.000      0.000
REMARK INTER + INTRA:         -10.017
REMARK INTER:                  -9.699
REMARK INTRA:                  -0.318
REMARK UNBOUND:                -0.318
REMARK SMILES O=c1cc(-c2ccc(O)c(O)c2)oc2cc(O)cc(O)c12
REMARK SMILES IDX 4 1 3 2 2 3 1 4 21 5 19 6 18 7 16 8 15 9 14 10 13 11 5 12
REMARK SMILES IDX 6 13 7 14 8 15 12 16 10 17 9 18 11 20 20 22 17 24
REMARK H PARENT 9 19 11 21 20 23 17 25
REMARK Flexibility Score: inf
ROOT
ATOM      1  C   UNL     1       9.402   1.648 -32.482  1.00  0.00     0.138 A 
ATOM      2  C   UNL     1       9.899   1.991 -31.217  1.00  0.00     0.100 A 
ATOM      3  C   UNL     1      11.245   2.331 -31.073  1.00  0.00     0.197 A 
ATOM      4  O   UNL     1      11.676   2.573 -29.916  1.00  0.00    -0.289 OA
ATOM      5  C   UNL     1      12.089   2.357 -32.209  1.00  0.00     0.107 A 
ATOM      6  C   UNL     1      13.467   2.728 -32.189  1.00  0.00     0.134 A 
ATOM      7  C   UNL     1      14.232   2.604 -33.355  1.00  0.00     0.093 A 
ATOM      8  C   UNL     1      13.654   2.182 -34.554  1.00  0.00     0.123 A 
ATOM      9  C   UNL     1      12.298   1.869 -34.597  1.00  0.00     0.094 A 
ATOM     10  C   UNL     1      11.516   1.949 -33.442  1.00  0.00     0.146 A 
ATOM     11  O   UNL     1      10.228   1.627 -33.523  1.00  0.00    -0.456 OA
ENDROOT
BRANCH   1  12
ATOM     12  C   UNL     1       7.979   1.278 -32.692  1.00  0.00     0.021 A 
ATOM     13  C   UNL     1       7.066   1.216 -31.621  1.00  0.00     0.016 A 
ATOM     14  C   UNL     1       5.731   0.875 -31.849  1.00  0.00     0.051 A 
ATOM     15  C   UNL     1       5.281   0.602 -33.147  1.00  0.00     0.157 A 
ATOM     16  C   UNL     1       7.516   1.016 -33.993  1.00  0.00     0.062 A 
ATOM     17  C   UNL     1       6.179   0.675 -34.224  1.00  0.00     0.158 A 
BRANCH  15  18
ATOM     18  O   UNL     1       3.947   0.262 -33.370  1.00  0.00    -0.504 OA
ATOM     19  H   UNL     1       3.298   0.128 -32.603  1.00  0.00     0.293 HD
ENDBRANCH  15  18
BRANCH  17  20
ATOM     20  O   UNL     1       5.762   0.413 -35.528  1.00  0.00    -0.504 OA
ATOM     21  H   UNL     1       5.927   1.063 -36.288  1.00  0.00     0.293 HD
ENDBRANCH  17  20
ENDBRANCH   1  12
BRANCH   6  22
ATOM     22  O   UNL     1      14.121   3.243 -31.065  1.00  0.00    -0.507 OA
ATOM     23  H   UNL     1      13.732   3.274 -30.136  1.00  0.00     0.293 HD
ENDBRANCH   6  22
BRANCH   8  24
ATOM     24  O   UNL     1      14.420   2.076 -35.714  1.00  0.00    -0.508 OA
ATOM     25  H   UNL     1      15.022   1.278 -35.880  1.00  0.00     0.293 HD
ENDBRANCH   8  24
TORSDOF 5
ENDMDL
MODEL 2
REMARK VINA RESULT:    -8.100      2.899      5.739
REMARK INTER + INTRA:          -9.839
REMARK INTER:                  -9.522
REMARK INTRA:                  -0.316
REMARK UNBOUND:                -0.318
REMARK SMILES O=c1cc(-c2ccc(O)c(O)c2)oc2cc(O)cc(O)c12
REMARK SMILES IDX 4 1 3 2 2 3 1 4 21 5 19 6 18 7 16 8 15 9 14 10 13 11 5 12
REMARK SMILES IDX 6 13 7 14 8 15 12 16 10 17 9 18 11 20 20 22 17 24
REMARK H PARENT 9 19 11 21 20 23 17 25
REMARK Flexibility Score: inf
ROOT
ATOM      1  C   UNL     1       8.697   1.264 -30.521  1.00  0.00     0.138 A 
ATOM      2  C   UNL     1       7.407   1.281 -31.071  1.00  0.00     0.100 A 
ATOM      3  C   UNL     1       7.249   1.379 -32.454  1.00  0.00     0.197 A 
ATOM      4  O   UNL     1       6.080   1.454 -32.914  1.00  0.00    -0.289 OA
ATOM      5  C   UNL     1       8.389   1.429 -33.291  1.00  0.00     0.107 A 
ATOM      6  C   UNL     1       8.349   1.489 -34.717  1.00  0.00     0.134 A 
ATOM      7  C   UNL     1       9.540   1.653 -35.435  1.00  0.00     0.093 A 
ATOM      8  C   UNL     1      10.774   1.698 -34.782  1.00  0.00     0.123 A 
ATOM      9  C   UNL     1      10.828   1.586 -33.395  1.00  0.00     0.094 A 
ATOM     10  C   UNL     1       9.654   1.457 -32.648  1.00  0.00     0.146 A 
ATOM     11  O   UNL     1       9.750   1.368 -31.325  1.00  0.00    -0.456 OA
ENDROOT
BRANCH   1  12
ATOM     12  C   UNL     1       8.923   1.161 -29.057  1.00  0.00     0.021 A 
ATOM     13  C   UNL     1       7.865   1.281 -28.135  1.00  0.00     0.016 A 
ATOM     14  C   UNL     1       8.106   1.169 -26.764  1.00  0.00     0.051 A 
ATOM     15  C   UNL     1       9.400   0.926 -26.289  1.00  0.00     0.157 A 
ATOM     16  C   UNL     1      10.218   0.903 -28.573  1.00  0.00     0.062 A 
ATOM     17  C   UNL     1      10.461   0.791 -27.200  1.00  0.00     0.158 A 
BRANCH  15  18
ATOM     18  O   UNL     1       9.636   0.815 -24.919  1.00  0.00    -0.504 OA
ATOM     19  H   UNL     1      10.545   0.552 -24.556  1.00  0.00     0.293 HD
ENDBRANCH  15  18
BRANCH  17  20
ATOM     20  O   UNL     1      11.761   0.544 -26.760  1.00  0.00    -0.504 OA
ATOM     21  H   UNL     1      12.041  -0.354 -26.383  1.00  0.00     0.293 HD
ENDBRANCH  17  20
ENDBRANCH   1  12
BRANCH   6  22
ATOM     22  O   UNL     1       7.177   1.368 -35.470  1.00  0.00    -0.507 OA
ATOM     23  H   UNL     1       6.329   0.928 -35.150  1.00  0.00     0.293 HD
ENDBRANCH   6  22
BRANCH   8  24
ATOM     24  O   UNL     1      11.955   1.847 -35.506  1.00  0.00    -0.508 OA
ATOM     25  H   UNL     1      12.279   1.131 -36.146  1.00  0.00     0.293 HD
ENDBRANCH   8  24
TORSDOF 5
ENDMDL
MODEL 3
REMARK VINA RESULT:    -7.938      1.614      7.171
REMARK INTER + INTRA:          -9.648
REMARK INTER:                  -9.335
REMARK INTRA:                  -0.314
REMARK UNBOUND:                -0.318
REMARK SMILES O=c1cc(-c2ccc(O)c(O)c2)oc2cc(O)cc(O)c12
REMARK SMILES IDX 4 1 3 2 2 3 1 4 21 5 19 6 18 7 16 8 15 9 14 10 13 11 5 12
REMARK SMILES IDX 6 13 7 14 8 15 12 16 10 17 9 18 11 20 20 22 17 24
REMARK H PARENT 9 19 11 21 20 23 17 25
REMARK Flexibility Score: inf
ROOT
ATOM      1  C   UNL     1      10.259   1.818 -33.622  1.00  0.00     0.138 A 
ATOM      2  C   UNL     1      10.396   1.735 -35.016  1.00  0.00     0.100 A 
ATOM      3  C   UNL     1       9.300   1.361 -35.795  1.00  0.00     0.197 A 
ATOM      4  O   UNL     1       9.469   1.234 -37.036  1.00  0.00    -0.289 OA
ATOM      5  C   UNL     1       8.054   1.100 -35.177  1.00  0.00     0.107 A 
ATOM      6  C   UNL     1       6.859   0.751 -35.875  1.00  0.00     0.134 A 
ATOM      7  C   UNL     1       5.713   0.401 -35.149  1.00  0.00     0.093 A 
ATOM      8  C   UNL     1       5.703   0.448 -33.753  1.00  0.00     0.123 A 
ATOM      9  C   UNL     1       6.848   0.839 -33.065  1.00  0.00     0.094 A 
ATOM     10  C   UNL     1       8.017   1.160 -33.759  1.00  0.00     0.146 A 
ATOM     11  O   UNL     1       9.093   1.514 -33.063  1.00  0.00    -0.456 OA
ENDROOT
BRANCH   1  12
ATOM     12  C   UNL     1      11.392   2.211 -32.746  1.00  0.00     0.021 A 
ATOM     13  C   UNL     1      12.723   2.191 -33.205  1.00  0.00     0.016 A 
ATOM     14  C   UNL     1      13.768   2.576 -32.361  1.00  0.00     0.051 A 
ATOM     15  C   UNL     1      13.503   2.997 -31.052  1.00  0.00     0.157 A 
ATOM     16  C   UNL     1      11.133   2.648 -31.435  1.00  0.00     0.062 A 
ATOM     17  C   UNL     1      12.178   3.035 -30.588  1.00  0.00     0.158 A 
BRANCH  15  18
ATOM     18  O   UNL     1      14.549   3.380 -30.214  1.00  0.00    -0.504 OA
ATOM     19  H   UNL     1      15.497   3.481 -30.559  1.00  0.00     0.293 HD
ENDBRANCH  15  18
BRANCH  17  20
ATOM     20  O   UNL     1      11.880   3.453 -29.292  1.00  0.00    -0.504 OA
ATOM     21  H   UNL     1      12.405   4.185 -28.828  1.00  0.00     0.293 HD
ENDBRANCH  17  20
ENDBRANCH   1  12
BRANCH   6  22
ATOM     22  O   UNL     1       6.738   0.756 -37.268  1.00  0.00    -0.507 OA
ATOM     23  H   UNL     1       6.665  -0.068 -37.844  1.00  0.00     0.293 HD
ENDBRANCH   6  22
BRANCH   8  24
ATOM     24  O   UNL     1       4.554   0.112 -33.040  1.00  0.00    -0.508 OA
ATOM     25  H   UNL     1       3.747  -0.299 -33.495  1.00  0.00     0.293 HD
ENDBRANCH   8  24
TORSDOF 5
ENDMDL
MODEL 4
REMARK VINA RESULT:    -7.641      1.015      2.638
REMARK INTER + INTRA:          -9.300
REMARK INTER:                  -9.005
REMARK INTRA:                  -0.295
REMARK UNBOUND:                -0.318
REMARK SMILES O=c1cc(-c2ccc(O)c(O)c2)oc2cc(O)cc(O)c12
REMARK SMILES IDX 4 1 3 2 2 3 1 4 21 5 19 6 18 7 16 8 15 9 14 10 13 11 5 12
REMARK SMILES IDX 6 13 7 14 8 15 12 16 10 17 9 18 11 20 20 22 17 24
REMARK H PARENT 9 19 11 21 20 23 17 25
REMARK Flexibility Score: inf
ROOT
ATOM      1  C   UNL     1       9.505   1.582 -33.372  1.00  0.00     0.138 A 
ATOM      2  C   UNL     1      10.202   1.555 -34.589  1.00  0.00     0.100 A 
ATOM      3  C   UNL     1      11.556   1.890 -34.616  1.00  0.00     0.197 A 
ATOM      4  O   UNL     1      12.139   1.918 -35.731  1.00  0.00    -0.289 OA
ATOM      5  C   UNL     1      12.223   2.223 -33.413  1.00  0.00     0.107 A 
ATOM      6  C   UNL     1      13.610   2.542 -33.314  1.00  0.00     0.134 A 
ATOM      7  C   UNL     1      14.135   2.969 -32.088  1.00  0.00     0.093 A 
ATOM      8  C   UNL     1      13.335   3.029 -30.944  1.00  0.00     0.123 A 
ATOM      9  C   UNL     1      11.992   2.669 -31.018  1.00  0.00     0.094 A 
ATOM     10  C   UNL     1      11.432   2.273 -32.235  1.00  0.00     0.146 A 
ATOM     11  O   UNL     1      10.142   1.951 -32.265  1.00  0.00    -0.456 OA
ENDROOT
BRANCH   1  12
ATOM     12  C   UNL     1       8.064   1.234 -33.286  1.00  0.00     0.021 A 
ATOM     13  C   UNL     1       7.356   1.311 -32.072  1.00  0.00     0.016 A 
ATOM     14  C   UNL     1       5.998   0.987 -32.023  1.00  0.00     0.051 A 
ATOM     15  C   UNL     1       5.322   0.592 -33.183  1.00  0.00     0.157 A 
ATOM     16  C   UNL     1       7.375   0.849 -34.449  1.00  0.00     0.062 A 
ATOM     17  C   UNL     1       6.014   0.525 -34.403  1.00  0.00     0.158 A 
BRANCH  15  18
ATOM     18  O   UNL     1       3.966   0.269 -33.130  1.00  0.00    -0.504 OA
ATOM     19  H   UNL     1       3.395   0.236 -33.967  1.00  0.00     0.293 HD
ENDBRANCH  15  18
BRANCH  17  20
ATOM     20  O   UNL     1       5.370   0.139 -35.578  1.00  0.00    -0.504 OA
ATOM     21  H   UNL     1       5.678   0.454 -36.490  1.00  0.00     0.293 HD
ENDBRANCH  17  20
ENDBRANCH   1  12
BRANCH   6  22
ATOM     22  O   UNL     1      14.514   2.432 -34.375  1.00  0.00    -0.507 OA
ATOM     23  H   UNL     1      15.130   1.649 -34.529  1.00  0.00     0.293 HD
ENDBRANCH   6  22
BRANCH   8  24
ATOM     24  O   UNL     1      13.869   3.442 -29.725  1.00  0.00    -0.508 OA
ATOM     25  H   UNL     1      14.380   4.312 -29.636  1.00  0.00     0.293 HD
ENDBRANCH   8  24
TORSDOF 5
ENDMDL
MODEL 5
REMARK VINA RESULT:    -7.584      2.477      6.753
REMARK INTER + INTRA:          -9.232
REMARK INTER:                  -8.915
REMARK INTRA:                  -0.317
REMARK UNBOUND:                -0.318
REMARK SMILES O=c1cc(-c2ccc(O)c(O)c2)oc2cc(O)cc(O)c12
REMARK SMILES IDX 4 1 3 2 2 3 1 4 21 5 19 6 18 7 16 8 15 9 14 10 13 11 5 12
REMARK SMILES IDX 6 13 7 14 8 15 12 16 10 17 9 18 11 20 20 22 17 24
REMARK H PARENT 9 19 11 21 20 23 17 25
REMARK Flexibility Score: inf
ROOT
ATOM      1  C   UNL     1      10.044   1.621 -32.057  1.00  0.00     0.138 A 
ATOM      2  C   UNL     1       8.677   1.514 -32.353  1.00  0.00     0.100 A 
ATOM      3  C   UNL     1       7.765   1.280 -31.323  1.00  0.00     0.197 A 
ATOM      4  O   UNL     1       6.553   1.127 -31.627  1.00  0.00    -0.289 OA
ATOM      5  C   UNL     1       8.221   1.182 -29.988  1.00  0.00     0.107 A 
ATOM      6  C   UNL     1       7.378   0.984 -28.853  1.00  0.00     0.134 A 
ATOM      7  C   UNL     1       7.953   0.787 -27.592  1.00  0.00     0.093 A 
ATOM      8  C   UNL     1       9.338   0.840 -27.415  1.00  0.00     0.123 A 
ATOM      9  C   UNL     1      10.166   1.086 -28.507  1.00  0.00     0.094 A 
ATOM     10  C   UNL     1       9.624   1.252 -29.784  1.00  0.00     0.146 A 
ATOM     11  O   UNL     1      10.452   1.470 -30.801  1.00  0.00    -0.456 OA
ENDROOT
BRANCH   1  12
ATOM     12  C   UNL     1      11.057   1.870 -33.113  1.00  0.00     0.021 A 
ATOM     13  C   UNL     1      10.717   1.867 -34.480  1.00  0.00     0.016 A 
ATOM     14  C   UNL     1      11.689   2.116 -35.451  1.00  0.00     0.051 A 
ATOM     15  C   UNL     1      13.012   2.381 -35.078  1.00  0.00     0.157 A 
ATOM     16  C   UNL     1      12.385   2.151 -32.746  1.00  0.00     0.062 A 
ATOM     17  C   UNL     1      13.361   2.400 -33.718  1.00  0.00     0.158 A 
BRANCH  15  18
ATOM     18  O   UNL     1      13.980   2.627 -36.051  1.00  0.00    -0.504 OA
ATOM     19  H   UNL     1      14.837   3.123 -35.834  1.00  0.00     0.293 HD
ENDBRANCH  15  18
BRANCH  17  20
ATOM     20  O   UNL     1      14.668   2.664 -33.312  1.00  0.00    -0.504 OA
ATOM     21  H   UNL     1      15.471   2.300 -33.812  1.00  0.00     0.293 HD
ENDBRANCH  17  20
ENDBRANCH   1  12
BRANCH   6  22
ATOM     22  O   UNL     1       5.980   0.999 -28.907  1.00  0.00    -0.507 OA
ATOM     23  H   UNL     1       5.415   0.315 -29.384  1.00  0.00     0.293 HD
ENDBRANCH   6  22
BRANCH   8  24
ATOM     24  O   UNL     1       9.900   0.656 -26.153  1.00  0.00    -0.508 OA
ATOM     25  H   UNL     1      10.711   0.066 -26.015  1.00  0.00     0.293 HD
ENDBRANCH   8  24
TORSDOF 5
ENDMDL
MODEL 6
REMARK VINA RESULT:    -7.577     13.670     14.326
REMARK INTER + INTRA:          -9.224
REMARK INTER:                  -8.929
REMARK INTRA:                  -0.295
REMARK UNBOUND:                -0.318
REMARK SMILES O=c1cc(-c2ccc(O)c(O)c2)oc2cc(O)cc(O)c12
REMARK SMILES IDX 4 1 3 2 2 3 1 4 21 5 19 6 18 7 16 8 15 9 14 10 13 11 5 12
REMARK SMILES IDX 6 13 7 14 8 15 12 16 10 17 9 18 11 20 20 22 17 24
REMARK H PARENT 9 19 11 21 20 23 17 25
REMARK Flexibility Score: inf
ROOT
ATOM      1  C   UNL     1      11.308 -10.245 -25.018  1.00  0.00     0.138 A 
ATOM      2  C   UNL     1      11.560 -10.233 -23.639  1.00  0.00     0.100 A 
ATOM      3  C   UNL     1      12.443  -9.292 -23.107  1.00  0.00     0.197 A 
ATOM      4  O   UNL     1      12.697  -9.346 -21.875  1.00  0.00    -0.289 OA
ATOM      5  C   UNL     1      13.052  -8.339 -23.957  1.00  0.00     0.107 A 
ATOM      6  C   UNL     1      13.937  -7.308 -23.520  1.00  0.00     0.134 A 
ATOM      7  C   UNL     1      14.571  -6.495 -24.467  1.00  0.00     0.093 A 
ATOM      8  C   UNL     1      14.304  -6.636 -25.832  1.00  0.00     0.123 A 
ATOM      9  C   UNL     1      13.401  -7.604 -26.264  1.00  0.00     0.094 A 
ATOM     10  C   UNL     1      12.780  -8.454 -25.346  1.00  0.00     0.146 A 
ATOM     11  O   UNL     1      11.935  -9.374 -25.802  1.00  0.00    -0.456 OA
ENDROOT
BRANCH   1  12
ATOM     12  C   UNL     1      10.378 -11.223 -25.637  1.00  0.00     0.021 A 
ATOM     13  C   UNL     1      10.142 -11.243 -27.024  1.00  0.00     0.016 A 
ATOM     14  C   UNL     1       9.269 -12.182 -27.580  1.00  0.00     0.051 A 
ATOM     15  C   UNL     1       8.625 -13.120 -26.764  1.00  0.00     0.157 A 
ATOM     16  C   UNL     1       9.738 -12.177 -24.826  1.00  0.00     0.062 A 
ATOM     17  C   UNL     1       8.863 -13.118 -25.380  1.00  0.00     0.158 A 
BRANCH  15  18
ATOM     18  O   UNL     1       7.754 -14.055 -27.323  1.00  0.00    -0.504 OA
ATOM     19  H   UNL     1       6.906 -13.771 -27.800  1.00  0.00     0.293 HD
ENDBRANCH  15  18
BRANCH  17  20
ATOM     20  O   UNL     1       8.241 -14.041 -24.541  1.00  0.00    -0.504 OA
ATOM     21  H   UNL     1       7.589 -13.758 -23.818  1.00  0.00     0.293 HD
ENDBRANCH  17  20
ENDBRANCH   1  12
BRANCH   6  22
ATOM     22  O   UNL     1      14.205  -7.027 -22.176  1.00  0.00    -0.507 OA
ATOM     23  H   UNL     1      14.769  -7.600 -21.569  1.00  0.00     0.293 HD
ENDBRANCH   6  22
BRANCH   8  24
ATOM     24  O   UNL     1      14.929  -5.813 -26.766  1.00  0.00    -0.508 OA
ATOM     25  H   UNL     1      15.675  -6.155 -27.360  1.00  0.00     0.293 HD
ENDBRANCH   8  24
TORSDOF 5
ENDMDL
MODEL 7
REMARK VINA RESULT:    -7.561      3.004      6.456
REMARK INTER + INTRA:          -9.205
REMARK INTER:                  -8.887
REMARK INTRA:                  -0.318
REMARK UNBOUND:                -0.318
REMARK SMILES O=c1cc(-c2ccc(O)c(O)c2)oc2cc(O)cc(O)c12
REMARK SMILES IDX 4 1 3 2 2 3 1 4 21 5 19 6 18 7 16 8 15 9 14 10 13 11 5 12
REMARK SMILES IDX 6 13 7 14 8 15 12 16 10 17 9 18 11 20 20 22 17 24
REMARK H PARENT 9 19 11 21 20 23 17 25
REMARK Flexibility Score: inf
ROOT
ATOM      1  C   UNL     1      10.422   1.654 -30.517  1.00  0.00     0.138 A 
ATOM      2  C   UNL     1      11.106   2.092 -29.374  1.00  0.00     0.100 A 
ATOM      3  C   UNL     1      10.542   1.890 -28.114  1.00  0.00     0.197 A 
ATOM      4  O   UNL     1      11.149   2.350 -27.111  1.00  0.00    -0.289 OA
ATOM      5  C   UNL     1       9.303   1.219 -27.996  1.00  0.00     0.107 A 
ATOM      6  C   UNL     1       8.653   0.922 -26.761  1.00  0.00     0.134 A 
ATOM      7  C   UNL     1       7.372   0.356 -26.773  1.00  0.00     0.093 A 
ATOM      8  C   UNL     1       6.744   0.020 -27.975  1.00  0.00     0.123 A 
ATOM      9  C   UNL     1       7.392   0.257 -29.184  1.00  0.00     0.094 A 
ATOM     10  C   UNL     1       8.656   0.853 -29.206  1.00  0.00     0.146 A 
ATOM     11  O   UNL     1       9.233   1.074 -30.383  1.00  0.00    -0.456 OA
ENDROOT
BRANCH   1  12
ATOM     12  C   UNL     1      10.976   1.842 -31.882  1.00  0.00     0.021 A 
ATOM     13  C   UNL     1      12.236   2.434 -32.094  1.00  0.00     0.016 A 
ATOM     14  C   UNL     1      12.736   2.589 -33.389  1.00  0.00     0.051 A 
ATOM     15  C   UNL     1      11.995   2.148 -34.492  1.00  0.00     0.157 A 
ATOM     16  C   UNL     1      10.244   1.390 -32.994  1.00  0.00     0.062 A 
ATOM     17  C   UNL     1      10.743   1.544 -34.292  1.00  0.00     0.158 A 
BRANCH  15  18
ATOM     18  O   UNL     1      12.498   2.306 -35.783  1.00  0.00    -0.504 OA
ATOM     19  H   UNL     1      11.966   2.778 -36.506  1.00  0.00     0.293 HD
ENDBRANCH  15  18
BRANCH  17  20
ATOM     20  O   UNL     1       9.981   1.091 -35.369  1.00  0.00    -0.504 OA
ATOM     21  H   UNL     1       9.236   0.415 -35.255  1.00  0.00     0.293 HD
ENDBRANCH  17  20
ENDBRANCH   1  12
BRANCH   6  22
ATOM     22  O   UNL     1       9.228   1.137 -25.504  1.00  0.00    -0.507 OA
ATOM     23  H   UNL     1       9.647   2.003 -25.203  1.00  0.00     0.293 HD
ENDBRANCH   6  22
BRANCH   8  24
ATOM     24  O   UNL     1       5.475  -0.556 -27.977  1.00  0.00    -0.508 OA
ATOM     25  H   UNL     1       4.752  -0.249 -27.337  1.00  0.00     0.293 HD
ENDBRANCH   8  24
TORSDOF 5
ENDMDL
MODEL 8
REMARK VINA RESULT:    -7.470     13.119     14.931
REMARK INTER + INTRA:          -9.098
REMARK INTER:                  -8.835
REMARK INTRA:                  -0.263
REMARK UNBOUND:                -0.318
REMARK SMILES O=c1cc(-c2ccc(O)c(O)c2)oc2cc(O)cc(O)c12
REMARK SMILES IDX 4 1 3 2 2 3 1 4 21 5 19 6 18 7 16 8 15 9 14 10 13 11 5 12
REMARK SMILES IDX 6 13 7 14 8 15 12 16 10 17 9 18 11 20 20 22 17 24
REMARK H PARENT 9 19 11 21 20 23 17 25
REMARK Flexibility Score: inf
ROOT
ATOM      1  C   UNL     1       8.971 -11.307 -28.742  1.00  0.00     0.138 A 
ATOM      2  C   UNL     1       9.566 -12.035 -29.782  1.00  0.00     0.100 A 
ATOM      3  C   UNL     1       9.001 -12.004 -31.058  1.00  0.00     0.197 A 
ATOM      4  O   UNL     1       9.521 -12.717 -31.955  1.00  0.00    -0.289 OA
ATOM      5  C   UNL     1       7.853 -11.214 -31.300  1.00  0.00     0.107 A 
ATOM      6  C   UNL     1       7.215 -11.074 -32.569  1.00  0.00     0.134 A 
ATOM      7  C   UNL     1       6.015 -10.358 -32.663  1.00  0.00     0.093 A 
ATOM      8  C   UNL     1       5.464  -9.725 -31.546  1.00  0.00     0.123 A 
ATOM      9  C   UNL     1       6.107  -9.811 -30.314  1.00  0.00     0.094 A 
ATOM     10  C   UNL     1       7.287 -10.548 -30.181  1.00  0.00     0.146 A 
ATOM     11  O   UNL     1       7.861 -10.616 -28.983  1.00  0.00    -0.456 OA
ENDROOT
BRANCH   1  12
ATOM     12  C   UNL     1       9.530 -11.304 -27.367  1.00  0.00     0.021 A 
ATOM     13  C   UNL     1      10.452 -10.327 -26.946  1.00  0.00     0.016 A 
ATOM     14  C   UNL     1      10.954 -10.343 -25.642  1.00  0.00     0.051 A 
ATOM     15  C   UNL     1      10.539 -11.326 -24.735  1.00  0.00     0.157 A 
ATOM     16  C   UNL     1       9.108 -12.279 -26.446  1.00  0.00     0.062 A 
ATOM     17  C   UNL     1       9.609 -12.297 -25.140  1.00  0.00     0.158 A 
BRANCH  15  18
ATOM     18  O   UNL     1      11.043 -11.339 -23.436  1.00  0.00    -0.504 OA
ATOM     19  H   UNL     1      11.742 -12.013 -23.144  1.00  0.00     0.293 HD
ENDBRANCH  15  18
BRANCH  17  20
ATOM     20  O   UNL     1       9.172 -13.287 -24.260  1.00  0.00    -0.504 OA
ATOM     21  H   UNL     1       8.734 -13.064 -23.374  1.00  0.00     0.293 HD
ENDBRANCH  17  20
ENDBRANCH   1  12
BRANCH   6  22
ATOM     22  O   UNL     1       7.727 -11.593 -33.762  1.00  0.00    -0.507 OA
ATOM     23  H   UNL     1       7.470 -12.482 -34.161  1.00  0.00     0.293 HD
ENDBRANCH   6  22
BRANCH   8  24
ATOM     24  O   UNL     1       4.277  -9.002 -31.653  1.00  0.00    -0.508 OA
ATOM     25  H   UNL     1       3.398  -9.373 -31.314  1.00  0.00     0.293 HD
ENDBRANCH   8  24
TORSDOF 5
ENDMDL
MODEL 9
REMARK VINA RESULT:    -7.454     13.457     14.136
REMARK INTER + INTRA:          -9.079
REMARK INTER:                  -8.785
REMARK INTRA:                  -0.295
REMARK UNBOUND:                -0.318
REMARK SMILES O=c1cc(-c2ccc(O)c(O)c2)oc2cc(O)cc(O)c12
REMARK SMILES IDX 4 1 3 2 2 3 1 4 21 5 19 6 18 7 16 8 15 9 14 10 13 11 5 12
REMARK SMILES IDX 6 13 7 14 8 15 12 16 10 17 9 18 11 20 20 22 17 24
REMARK H PARENT 9 19 11 21 20 23 17 25
REMARK Flexibility Score: inf
ROOT
ATOM      1  C   UNL     1      11.617 -10.010 -26.396  1.00  0.00     0.138 A 
ATOM      2  C   UNL     1      11.589  -8.807 -27.118  1.00  0.00     0.100 A 
ATOM      3  C   UNL     1      12.566  -7.839 -26.883  1.00  0.00     0.197 A 
ATOM      4  O   UNL     1      12.479  -6.745 -27.500  1.00  0.00    -0.289 OA
ATOM      5  C   UNL     1      13.593  -8.090 -25.942  1.00  0.00     0.107 A 
ATOM      6  C   UNL     1      14.664  -7.192 -25.650  1.00  0.00     0.134 A 
ATOM      7  C   UNL     1      15.558  -7.498 -24.616  1.00  0.00     0.093 A 
ATOM      8  C   UNL     1      15.455  -8.696 -23.905  1.00  0.00     0.123 A 
ATOM      9  C   UNL     1      14.446  -9.603 -24.219  1.00  0.00     0.094 A 
ATOM     10  C   UNL     1      13.518  -9.311 -25.222  1.00  0.00     0.146 A 
ATOM     11  O   UNL     1      12.561 -10.197 -25.480  1.00  0.00    -0.456 OA
ENDROOT
BRANCH   1  12
ATOM     12  C   UNL     1      10.603 -11.074 -26.607  1.00  0.00     0.021 A 
ATOM     13  C   UNL     1      10.210 -11.475 -27.898  1.00  0.00     0.016 A 
ATOM     14  C   UNL     1       9.261 -12.486 -28.067  1.00  0.00     0.051 A 
ATOM     15  C   UNL     1       8.697 -13.121 -26.954  1.00  0.00     0.157 A 
ATOM     16  C   UNL     1      10.042 -11.725 -25.495  1.00  0.00     0.062 A 
ATOM     17  C   UNL     1       9.091 -12.738 -25.661  1.00  0.00     0.158 A 
BRANCH  15  18
ATOM     18  O   UNL     1       7.749 -14.129 -27.126  1.00  0.00    -0.504 OA
ATOM     19  H   UNL     1       7.990 -15.108 -27.020  1.00  0.00     0.293 HD
ENDBRANCH  15  18
BRANCH  17  20
ATOM     20  O   UNL     1       8.551 -13.353 -24.532  1.00  0.00    -0.504 OA
ATOM     21  H   UNL     1       9.105 -13.541 -23.704  1.00  0.00     0.293 HD
ENDBRANCH  17  20
ENDBRANCH   1  12
BRANCH   6  22
ATOM     22  O   UNL     1      14.907  -6.010 -26.357  1.00  0.00    -0.507 OA
ATOM     23  H   UNL     1      15.315  -5.963 -27.277  1.00  0.00     0.293 HD
ENDBRANCH   6  22
BRANCH   8  24
ATOM     24  O   UNL     1      16.358  -8.998 -22.888  1.00  0.00    -0.508 OA
ATOM     25  H   UNL     1      17.029  -9.751 -22.980  1.00  0.00     0.293 HD
ENDBRANCH   8  24
TORSDOF 5
ENDMDL
