MODEL 1
REMARK VINA RESULT:    -5.269      0.000      0.000
REMARK INTER + INTRA:          -6.665
REMARK INTER:                  -6.347
REMARK INTRA:                  -0.318
REMARK UNBOUND:                -0.318
REMARK SMILES O=c1c(O)c(-c2ccc(O)c(O)c2)oc2cc(O)cc(O)c12
REMARK SMILES IDX 5 1 3 2 2 3 1 4 22 5 20 6 19 7 17 8 16 9 15 10 14 11 6 12
REMARK SMILES IDX 7 13 8 14 9 15 13 16 11 17 10 18 12 20 4 22 21 24 18 26
REMARK H PARENT 10 19 12 21 4 23 21 25 18 27
REMARK Flexibility Score: inf
ROOT
ATOM      1  C   UNL     1      -6.994 -12.744  25.335  1.00  0.00     0.180 A 
ATOM      2  C   UNL     1      -6.699 -14.115  25.247  1.00  0.00     0.208 A 
ATOM      3  C   UNL     1      -6.353 -14.813  26.416  1.00  0.00     0.238 A 
ATOM      4  O   UNL     1      -6.037 -16.028  26.323  1.00  0.00    -0.285 OA
ATOM      5  C   UNL     1      -6.322 -14.135  27.658  1.00  0.00     0.111 A 
ATOM      6  C   UNL     1      -6.025 -14.752  28.911  1.00  0.00     0.134 A 
ATOM      7  C   UNL     1      -5.894 -13.960  30.057  1.00  0.00     0.093 A 
ATOM      8  C   UNL     1      -6.116 -12.581  30.009  1.00  0.00     0.123 A 
ATOM      9  C   UNL     1      -6.465 -11.978  28.803  1.00  0.00     0.094 A 
ATOM     10  C   UNL     1      -6.567 -12.737  27.635  1.00  0.00     0.146 A 
ATOM     11  O   UNL     1      -6.892 -12.122  26.504  1.00  0.00    -0.452 OA
ENDROOT
BRANCH   1  12
ATOM     12  C   UNL     1      -7.390 -11.946  24.152  1.00  0.00     0.025 A 
ATOM     13  C   UNL     1      -8.733 -11.936  23.743  1.00  0.00     0.016 A 
ATOM     14  C   UNL     1      -9.125 -11.207  22.618  1.00  0.00     0.051 A 
ATOM     15  C   UNL     1      -8.181 -10.491  21.875  1.00  0.00     0.157 A 
ATOM     16  C   UNL     1      -6.439 -11.242  23.392  1.00  0.00     0.062 A 
ATOM     17  C   UNL     1      -6.830 -10.512  22.259  1.00  0.00     0.158 A 
BRANCH  15  18
ATOM     18  O   UNL     1      -8.602  -9.771  20.757  1.00  0.00    -0.504 OA
ATOM     19  H   UNL     1      -8.622  -8.759  20.745  1.00  0.00     0.293 HD
ENDBRANCH  15  18
BRANCH  17  20
ATOM     20  O   UNL     1      -5.882  -9.812  21.515  1.00  0.00    -0.504 OA
ATOM     21  H   UNL     1      -5.233 -10.288  20.899  1.00  0.00     0.293 HD
ENDBRANCH  17  20
ENDBRANCH   1  12
BRANCH   2  22
ATOM     22  O   UNL     1      -6.713 -14.759  24.008  1.00  0.00    -0.502 OA
ATOM     23  H   UNL     1      -5.869 -15.091  23.557  1.00  0.00     0.293 HD
ENDBRANCH   2  22
BRANCH   6  24
ATOM     24  O   UNL     1      -5.875 -16.132  29.085  1.00  0.00    -0.507 OA
ATOM     25  H   UNL     1      -5.086 -16.669  28.762  1.00  0.00     0.293 HD
ENDBRANCH   6  24
BRANCH   8  26
ATOM     26  O   UNL     1      -6.000 -11.801  31.158  1.00  0.00    -0.508 OA
ATOM     27  H   UNL     1      -5.116 -11.384  31.428  1.00  0.00     0.293 HD
ENDBRANCH   8  26
TORSDOF 6
ENDMDL
MODEL 2
REMARK VINA RESULT:    -5.049      7.282     10.815
REMARK INTER + INTRA:          -6.400
REMARK INTER:                  -6.202
REMARK INTRA:                  -0.198
REMARK UNBOUND:                -0.318
REMARK SMILES O=c1c(O)c(-c2ccc(O)c(O)c2)oc2cc(O)cc(O)c12
REMARK SMILES IDX 5 1 3 2 2 3 1 4 22 5 20 6 19 7 17 8 16 9 15 10 14 11 6 12
REMARK SMILES IDX 7 13 8 14 9 15 13 16 11 17 10 18 12 20 4 22 21 24 18 26
REMARK H PARENT 10 19 12 21 4 23 21 25 18 27
REMARK Flexibility Score: inf
ROOT
ATOM      1  C   UNL     1      -6.915 -12.519  34.515  1.00  0.00     0.180 A 
ATOM      2  C   UNL     1      -6.939 -12.574  33.111  1.00  0.00     0.208 A 
ATOM      3  C   UNL     1      -6.685 -11.401  32.380  1.00  0.00     0.238 A 
ATOM      4  O   UNL     1      -6.761 -11.444  31.125  1.00  0.00    -0.285 OA
ATOM      5  C   UNL     1      -6.394 -10.195  33.061  1.00  0.00     0.111 A 
ATOM      6  C   UNL     1      -6.081  -8.958  32.421  1.00  0.00     0.134 A 
ATOM      7  C   UNL     1      -5.940  -7.798  33.192  1.00  0.00     0.093 A 
ATOM      8  C   UNL     1      -6.033  -7.843  34.585  1.00  0.00     0.123 A 
ATOM      9  C   UNL     1      -6.279  -9.057  35.223  1.00  0.00     0.094 A 
ATOM     10  C   UNL     1      -6.462 -10.225  34.479  1.00  0.00     0.146 A 
ATOM     11  O   UNL     1      -6.704 -11.358  35.126  1.00  0.00    -0.452 OA
ENDROOT
BRANCH   1  12
ATOM     12  C   UNL     1      -7.149 -13.717  35.354  1.00  0.00     0.025 A 
ATOM     13  C   UNL     1      -6.212 -14.761  35.344  1.00  0.00     0.016 A 
ATOM     14  C   UNL     1      -6.423 -15.909  36.112  1.00  0.00     0.051 A 
ATOM     15  C   UNL     1      -7.579 -16.039  36.888  1.00  0.00     0.157 A 
ATOM     16  C   UNL     1      -8.321 -13.857  36.119  1.00  0.00     0.062 A 
ATOM     17  C   UNL     1      -8.537 -15.010  36.888  1.00  0.00     0.158 A 
BRANCH  15  18
ATOM     18  O   UNL     1      -7.762 -17.195  37.645  1.00  0.00    -0.504 OA
ATOM     19  H   UNL     1      -8.569 -17.325  38.243  1.00  0.00     0.293 HD
ENDBRANCH  15  18
BRANCH  17  20
ATOM     20  O   UNL     1      -9.697 -15.139  37.649  1.00  0.00    -0.504 OA
ATOM     21  H   UNL     1     -10.420 -15.807  37.406  1.00  0.00     0.293 HD
ENDBRANCH  17  20
ENDBRANCH   1  12
BRANCH   2  22
ATOM     22  O   UNL     1      -7.250 -13.769  32.459  1.00  0.00    -0.502 OA
ATOM     23  H   UNL     1      -7.871 -13.808  31.660  1.00  0.00     0.293 HD
ENDBRANCH   2  22
BRANCH   6  24
ATOM     24  O   UNL     1      -5.875  -8.822  31.045  1.00  0.00    -0.507 OA
ATOM     25  H   UNL     1      -5.360  -9.474  30.474  1.00  0.00     0.293 HD
ENDBRANCH   6  24
BRANCH   8  26
ATOM     26  O   UNL     1      -5.875  -6.687  35.347  1.00  0.00    -0.508 OA
ATOM     27  H   UNL     1      -6.673  -6.179  35.711  1.00  0.00     0.293 HD
ENDBRANCH   8  26
TORSDOF 6
ENDMDL
MODEL 3
REMARK VINA RESULT:    -4.725      2.904      7.542
REMARK INTER + INTRA:          -6.010
REMARK INTER:                  -6.274
REMARK INTRA:                   0.264
REMARK UNBOUND:                -0.318
REMARK SMILES O=c1c(O)c(-c2ccc(O)c(O)c2)oc2cc(O)cc(O)c12
REMARK SMILES IDX 5 1 3 2 2 3 1 4 22 5 20 6 19 7 17 8 16 9 15 10 14 11 6 12
REMARK SMILES IDX 7 13 8 14 9 15 13 16 11 17 10 18 12 20 4 22 21 24 18 26
REMARK H PARENT 10 19 12 21 4 23 21 25 18 27
REMARK Flexibility Score: inf
ROOT
ATOM      1  C   UNL     1      -6.222 -13.479  29.310  1.00  0.00     0.180 A 
ATOM      2  C   UNL     1      -6.086 -12.383  28.440  1.00  0.00     0.208 A 
ATOM      3  C   UNL     1      -6.059 -12.614  27.055  1.00  0.00     0.238 A 
ATOM      4  O   UNL     1      -5.884 -11.636  26.283  1.00  0.00    -0.285 OA
ATOM      5  C   UNL     1      -6.185 -13.933  26.557  1.00  0.00     0.111 A 
ATOM      6  C   UNL     1      -6.211 -14.278  25.173  1.00  0.00     0.134 A 
ATOM      7  C   UNL     1      -6.207 -15.627  24.796  1.00  0.00     0.093 A 
ATOM      8  C   UNL     1      -6.244 -16.642  25.755  1.00  0.00     0.123 A 
ATOM      9  C   UNL     1      -6.278 -16.314  27.109  1.00  0.00     0.094 A 
ATOM     10  C   UNL     1      -6.247 -14.979  27.516  1.00  0.00     0.146 A 
ATOM     11  O   UNL     1      -6.271 -14.710  28.815  1.00  0.00    -0.452 OA
ENDROOT
BRANCH   1  12
ATOM     12  C   UNL     1      -6.283 -13.314  30.781  1.00  0.00     0.025 A 
ATOM     13  C   UNL     1      -5.875 -14.369  31.612  1.00  0.00     0.016 A 
ATOM     14  C   UNL     1      -5.944 -14.242  33.001  1.00  0.00     0.051 A 
ATOM     15  C   UNL     1      -6.435 -13.068  33.581  1.00  0.00     0.157 A 
ATOM     16  C   UNL     1      -6.795 -12.141  31.365  1.00  0.00     0.062 A 
ATOM     17  C   UNL     1      -6.868 -12.014  32.760  1.00  0.00     0.158 A 
BRANCH  15  18
ATOM     18  O   UNL     1      -6.490 -12.970  34.971  1.00  0.00    -0.504 OA
ATOM     19  H   UNL     1      -5.741 -13.307  35.564  1.00  0.00     0.293 HD
ENDBRANCH  15  18
BRANCH  17  20
ATOM     20  O   UNL     1      -7.371 -10.846  33.331  1.00  0.00    -0.504 OA
ATOM     21  H   UNL     1      -8.147 -10.342  32.916  1.00  0.00     0.293 HD
ENDBRANCH  17  20
ENDBRANCH   1  12
BRANCH   2  22
ATOM     22  O   UNL     1      -5.942 -11.092  28.952  1.00  0.00    -0.502 OA
ATOM     23  H   UNL     1      -5.832 -10.279  28.358  1.00  0.00     0.293 HD
ENDBRANCH   2  22
BRANCH   6  24
ATOM     24  O   UNL     1      -6.269 -13.341  24.136  1.00  0.00    -0.507 OA
ATOM     25  H   UNL     1      -5.711 -12.502  24.088  1.00  0.00     0.293 HD
ENDBRANCH   6  24
BRANCH   8  26
ATOM     26  O   UNL     1      -6.255 -17.982  25.373  1.00  0.00    -0.508 OA
ATOM     27  H   UNL     1      -5.864 -18.284  24.488  1.00  0.00     0.293 HD
ENDBRANCH   8  26
TORSDOF 6
ENDMDL
MODEL 4
REMARK VINA RESULT:    -4.437      3.198      8.076
REMARK INTER + INTRA:          -5.663
REMARK INTER:                  -6.101
REMARK INTRA:                   0.439
REMARK UNBOUND:                -0.318
REMARK SMILES O=c1c(O)c(-c2ccc(O)c(O)c2)oc2cc(O)cc(O)c12
REMARK SMILES IDX 5 1 3 2 2 3 1 4 22 5 20 6 19 7 17 8 16 9 15 10 14 11 6 12
REMARK SMILES IDX 7 13 8 14 9 15 13 16 11 17 10 18 12 20 4 22 21 24 18 26
REMARK H PARENT 10 19 12 21 4 23 21 25 18 27
REMARK Flexibility Score: inf
ROOT
ATOM      1  C   UNL     1      -6.271 -11.862  31.521  1.00  0.00     0.180 A 
ATOM      2  C   UNL     1      -6.313 -13.209  31.920  1.00  0.00     0.208 A 
ATOM      3  C   UNL     1      -6.255 -14.211  30.937  1.00  0.00     0.238 A 
ATOM      4  O   UNL     1      -6.347 -15.414  31.295  1.00  0.00    -0.285 OA
ATOM      5  C   UNL     1      -6.139 -13.854  29.573  1.00  0.00     0.111 A 
ATOM      6  C   UNL     1      -6.032 -14.786  28.497  1.00  0.00     0.134 A 
ATOM      7  C   UNL     1      -6.055 -14.323  27.176  1.00  0.00     0.093 A 
ATOM      8  C   UNL     1      -6.115 -12.956  26.893  1.00  0.00     0.123 A 
ATOM      9  C   UNL     1      -6.160 -12.035  27.937  1.00  0.00     0.094 A 
ATOM     10  C   UNL     1      -6.175 -12.469  29.265  1.00  0.00     0.146 A 
ATOM     11  O   UNL     1      -6.229 -11.558  30.229  1.00  0.00    -0.452 OA
ENDROOT
BRANCH   1  12
ATOM     12  C   UNL     1      -6.303 -10.750  32.499  1.00  0.00     0.025 A 
ATOM     13  C   UNL     1      -5.923  -9.461  32.093  1.00  0.00     0.016 A 
ATOM     14  C   UNL     1      -5.926  -8.402  33.004  1.00  0.00     0.051 A 
ATOM     15  C   UNL     1      -6.292  -8.617  34.337  1.00  0.00     0.157 A 
ATOM     16  C   UNL     1      -6.651 -10.968  33.845  1.00  0.00     0.062 A 
ATOM     17  C   UNL     1      -6.651  -9.907  34.762  1.00  0.00     0.158 A 
BRANCH  15  18
ATOM     18  O   UNL     1      -6.286  -7.540  35.223  1.00  0.00    -0.504 OA
ATOM     19  H   UNL     1      -5.453  -7.263  35.728  1.00  0.00     0.293 HD
ENDBRANCH  15  18
BRANCH  17  20
ATOM     20  O   UNL     1      -7.004 -10.130  36.091  1.00  0.00    -0.504 OA
ATOM     21  H   UNL     1      -7.823  -9.696  36.504  1.00  0.00     0.293 HD
ENDBRANCH  17  20
ENDBRANCH   1  12
BRANCH   2  22
ATOM     22  O   UNL     1      -6.449 -13.539  33.270  1.00  0.00    -0.502 OA
ATOM     23  H   UNL     1      -7.344 -13.767  33.687  1.00  0.00     0.293 HD
ENDBRANCH   2  22
BRANCH   6  24
ATOM     24  O   UNL     1      -5.875 -16.165  28.673  1.00  0.00    -0.507 OA
ATOM     25  H   UNL     1      -6.606 -16.793  28.969  1.00  0.00     0.293 HD
ENDBRANCH   6  24
BRANCH   8  26
ATOM     26  O   UNL     1      -6.121 -12.502  25.576  1.00  0.00    -0.508 OA
ATOM     27  H   UNL     1      -5.420 -12.803  24.908  1.00  0.00     0.293 HD
ENDBRANCH   8  26
TORSDOF 6
ENDMDL
MODEL 5
REMARK VINA RESULT:    -4.195      3.432      5.323
REMARK INTER + INTRA:          -5.371
REMARK INTER:                  -5.828
REMARK INTRA:                   0.457
REMARK UNBOUND:                -0.318
REMARK SMILES O=c1c(O)c(-c2ccc(O)c(O)c2)oc2cc(O)cc(O)c12
REMARK SMILES IDX 5 1 3 2 2 3 1 4 22 5 20 6 19 7 17 8 16 9 15 10 14 11 6 12
REMARK SMILES IDX 7 13 8 14 9 15 13 16 11 17 10 18 12 20 4 22 21 24 18 26
REMARK H PARENT 10 19 12 21 4 23 21 25 18 27
REMARK Flexibility Score: inf
ROOT
ATOM      1  C   UNL     1      -6.149 -13.887  28.516  1.00  0.00     0.180 A 
ATOM      2  C   UNL     1      -6.016 -12.519  28.225  1.00  0.00     0.208 A 
ATOM      3  C   UNL     1      -6.038 -11.594  29.282  1.00  0.00     0.238 A 
ATOM      4  O   UNL     1      -5.972 -10.366  29.012  1.00  0.00    -0.285 OA
ATOM      5  C   UNL     1      -6.176 -12.050  30.615  1.00  0.00     0.111 A 
ATOM      6  C   UNL     1      -6.171 -11.204  31.765  1.00  0.00     0.134 A 
ATOM      7  C   UNL     1      -6.447 -11.750  33.025  1.00  0.00     0.093 A 
ATOM      8  C   UNL     1      -6.664 -13.121  33.184  1.00  0.00     0.123 A 
ATOM      9  C   UNL     1      -6.612 -13.963  32.076  1.00  0.00     0.094 A 
ATOM     10  C   UNL     1      -6.375 -13.443  30.801  1.00  0.00     0.146 A 
ATOM     11  O   UNL     1      -6.344 -14.279  29.770  1.00  0.00    -0.452 OA
ENDROOT
BRANCH   1  12
ATOM     12  C   UNL     1      -6.111 -14.924  27.459  1.00  0.00     0.025 A 
ATOM     13  C   UNL     1      -5.963 -16.273  27.819  1.00  0.00     0.016 A 
ATOM     14  C   UNL     1      -5.904 -17.265  26.838  1.00  0.00     0.051 A 
ATOM     15  C   UNL     1      -5.975 -16.925  25.482  1.00  0.00     0.157 A 
ATOM     16  C   UNL     1      -6.162 -14.582  26.096  1.00  0.00     0.062 A 
ATOM     17  C   UNL     1      -6.100 -15.577  25.109  1.00  0.00     0.158 A 
BRANCH  15  18
ATOM     18  O   UNL     1      -5.915 -17.937  24.525  1.00  0.00    -0.504 OA
ATOM     19  H   UNL     1      -6.695 -18.559  24.351  1.00  0.00     0.293 HD
ENDBRANCH  15  18
BRANCH  17  20
ATOM     20  O   UNL     1      -6.158 -15.230  23.760  1.00  0.00    -0.504 OA
ATOM     21  H   UNL     1      -5.357 -14.838  23.277  1.00  0.00     0.293 HD
ENDBRANCH  17  20
ENDBRANCH   1  12
BRANCH   2  22
ATOM     22  O   UNL     1      -5.902 -12.089  26.902  1.00  0.00    -0.502 OA
ATOM     23  H   UNL     1      -5.482 -12.660  26.178  1.00  0.00     0.293 HD
ENDBRANCH   2  22
BRANCH   6  24
ATOM     24  O   UNL     1      -5.876  -9.838  31.728  1.00  0.00    -0.507 OA
ATOM     25  H   UNL     1      -4.968  -9.441  31.916  1.00  0.00     0.293 HD
ENDBRANCH   6  24
BRANCH   8  26
ATOM     26  O   UNL     1      -6.922 -13.659  34.443  1.00  0.00    -0.508 OA
ATOM     27  H   UNL     1      -7.239 -13.079  35.212  1.00  0.00     0.293 HD
ENDBRANCH   8  26
TORSDOF 6
ENDMDL
MODEL 6
REMARK VINA RESULT:    -3.994      2.767      5.501
REMARK INTER + INTRA:          -5.130
REMARK INTER:                  -5.604
REMARK INTRA:                   0.475
REMARK UNBOUND:                -0.318
REMARK SMILES O=c1c(O)c(-c2ccc(O)c(O)c2)oc2cc(O)cc(O)c12
REMARK SMILES IDX 5 1 3 2 2 3 1 4 22 5 20 6 19 7 17 8 16 9 15 10 14 11 6 12
REMARK SMILES IDX 7 13 8 14 9 15 13 16 11 17 10 18 12 20 4 22 21 24 18 26
REMARK H PARENT 10 19 12 21 4 23 21 25 18 27
REMARK Flexibility Score: inf
ROOT
ATOM      1  C   UNL     1      -6.171 -13.617  29.646  1.00  0.00     0.180 A 
ATOM      2  C   UNL     1      -6.282 -12.293  30.103  1.00  0.00     0.208 A 
ATOM      3  C   UNL     1      -6.238 -12.045  31.485  1.00  0.00     0.238 A 
ATOM      4  O   UNL     1      -6.391 -10.863  31.891  1.00  0.00    -0.285 OA
ATOM      5  C   UNL     1      -6.067 -13.120  32.389  1.00  0.00     0.111 A 
ATOM      6  C   UNL     1      -5.968 -12.980  33.806  1.00  0.00     0.134 A 
ATOM      7  C   UNL     1      -5.933 -14.123  34.613  1.00  0.00     0.093 A 
ATOM      8  C   UNL     1      -5.926 -15.402  34.050  1.00  0.00     0.123 A 
ATOM      9  C   UNL     1      -5.963 -15.548  32.665  1.00  0.00     0.094 A 
ATOM     10  C   UNL     1      -6.036 -14.427  31.836  1.00  0.00     0.146 A 
ATOM     11  O   UNL     1      -6.079 -14.611  30.522  1.00  0.00    -0.452 OA
ENDROOT
BRANCH   1  12
ATOM     12  C   UNL     1      -6.185 -13.956  28.204  1.00  0.00     0.025 A 
ATOM     13  C   UNL     1      -6.048 -15.296  27.807  1.00  0.00     0.016 A 
ATOM     14  C   UNL     1      -6.037 -15.636  26.453  1.00  0.00     0.051 A 
ATOM     15  C   UNL     1      -6.146 -14.643  25.473  1.00  0.00     0.157 A 
ATOM     16  C   UNL     1      -6.273 -12.957  27.218  1.00  0.00     0.062 A 
ATOM     17  C   UNL     1      -6.259 -13.296  25.857  1.00  0.00     0.158 A 
BRANCH  15  18
ATOM     18  O   UNL     1      -6.133 -15.012  24.129  1.00  0.00    -0.504 OA
ATOM     19  H   UNL     1      -6.896 -15.527  23.706  1.00  0.00     0.293 HD
ENDBRANCH  15  18
BRANCH  17  20
ATOM     20  O   UNL     1      -6.354 -12.301  24.886  1.00  0.00    -0.504 OA
ATOM     21  H   UNL     1      -6.099 -11.339  25.083  1.00  0.00     0.293 HD
ENDBRANCH  17  20
ENDBRANCH   1  12
BRANCH   2  22
ATOM     22  O   UNL     1      -6.472 -11.249  29.195  1.00  0.00    -0.502 OA
ATOM     23  H   UNL     1      -7.392 -10.937  28.909  1.00  0.00     0.293 HD
ENDBRANCH   2  22
BRANCH   6  24
ATOM     24  O   UNL     1      -5.875 -11.749  34.464  1.00  0.00    -0.507 OA
ATOM     25  H   UNL     1      -6.450 -10.945  34.262  1.00  0.00     0.293 HD
ENDBRANCH   6  24
BRANCH   8  26
ATOM     26  O   UNL     1      -5.875 -16.535  34.859  1.00  0.00    -0.508 OA
ATOM     27  H   UNL     1      -6.717 -17.030  35.131  1.00  0.00     0.293 HD
ENDBRANCH   8  26
TORSDOF 6
ENDMDL
