MODEL 1
REMARK VINA RESULT:    -5.056      0.000      0.000
REMARK INTER + INTRA:          -8.709
REMARK INTER:                  -8.011
REMARK INTRA:                  -0.698
REMARK UNBOUND:                -0.698
REMARK SMILES CCCCCCCCCCCC(=O)[O-]
REMARK SMILES IDX 7 1 8 2 9 3 10 4 11 5 12 6 13 7 14 8 6 9 5 10 4 11 3 12 2 13
REMARK SMILES IDX 1 14
REMARK H PARENT
REMARK Flexibility Score: inf
ROOT
ATOM      1  C   UNL     1      13.386  37.786  22.398  1.00  0.00     0.000 C 
ENDROOT
BRANCH   1   2
ATOM      2  C   UNL     1      12.371  38.349  23.404  1.00  0.00     0.000 C 
BRANCH   2   3
ATOM      3  C   UNL     1      10.954  37.781  23.208  1.00  0.00     0.000 C 
BRANCH   3   4
ATOM      4  C   UNL     1      10.118  37.650  24.498  1.00  0.00     0.006 C 
BRANCH   4   5
ATOM      5  C   UNL     1       8.813  38.460  24.498  1.00  0.00     0.053 C 
BRANCH   5   6
ATOM      6  C   UNL     1       8.662  39.283  25.740  1.00  0.00     0.041 C 
ATOM      7  O   UNL     1       8.144  38.783  26.773  1.00  0.00    -0.550 OA
ATOM      8  O   UNL     1       9.126  40.593  25.768  1.00  0.00    -0.550 OA
ENDBRANCH   5   6
ENDBRANCH   4   5
ENDBRANCH   3   4
ENDBRANCH   2   3
ENDBRANCH   1   2
BRANCH   1   9
ATOM      9  C   UNL     1      12.728  36.755  21.473  1.00  0.00     0.000 C 
BRANCH   9  10
ATOM     10  C   UNL     1      13.138  35.329  21.859  1.00  0.00    -0.000 C 
BRANCH  10  11
ATOM     11  C   UNL     1      12.022  34.628  22.643  1.00  0.00    -0.000 C 
BRANCH  11  12
ATOM     12  C   UNL     1      12.316  34.644  24.150  1.00  0.00    -0.000 C 
BRANCH  12  13
ATOM     13  C   UNL     1      11.639  33.484  24.897  1.00  0.00    -0.003 C 
ATOM     14  C   UNL     1      10.535  32.818  24.077  1.00  0.00     0.004 C 
ENDBRANCH  12  13
ENDBRANCH  11  12
ENDBRANCH  10  11
ENDBRANCH   9  10
ENDBRANCH   1   9
TORSDOF 10
ENDMDL
MODEL 2
REMARK VINA RESULT:    -4.854      3.331      4.623
REMARK INTER + INTRA:          -8.389
REMARK INTER:                  -7.116
REMARK INTRA:                  -1.274
REMARK UNBOUND:                -0.698
REMARK SMILES CCCCCCCCCCCC(=O)[O-]
REMARK SMILES IDX 7 1 8 2 9 3 10 4 11 5 12 6 13 7 14 8 6 9 5 10 4 11 3 12 2 13
REMARK SMILES IDX 1 14
REMARK H PARENT
REMARK Flexibility Score: inf
ROOT
ATOM      1  C   UNL     1       9.367  36.316  22.669  1.00  0.00     0.000 C 
ENDROOT
BRANCH   1   2
ATOM      2  C   UNL     1      10.315  36.733  23.803  1.00  0.00     0.000 C 
BRANCH   2   3
ATOM      3  C   UNL     1      11.371  37.760  23.356  1.00  0.00     0.000 C 
BRANCH   3   4
ATOM      4  C   UNL     1      12.754  37.168  23.014  1.00  0.00     0.006 C 
BRANCH   4   5
ATOM      5  C   UNL     1      13.101  37.182  21.517  1.00  0.00     0.053 C 
BRANCH   5   6
ATOM      6  C   UNL     1      12.550  35.986  20.802  1.00  0.00     0.041 C 
ATOM      7  O   UNL     1      13.003  34.837  21.048  1.00  0.00    -0.550 OA
ATOM      8  O   UNL     1      11.513  36.137  19.890  1.00  0.00    -0.550 OA
ENDBRANCH   5   6
ENDBRANCH   4   5
ENDBRANCH   3   4
ENDBRANCH   2   3
ENDBRANCH   1   2
BRANCH   1   9
ATOM      9  C   UNL     1       9.175  34.795  22.644  1.00  0.00     0.000 C 
BRANCH   9  10
ATOM     10  C   UNL     1      10.493  34.068  22.936  1.00  0.00    -0.000 C 
BRANCH  10  11
ATOM     11  C   UNL     1      10.265  32.859  23.851  1.00  0.00    -0.000 C 
BRANCH  11  12
ATOM     12  C   UNL     1      11.170  32.927  25.089  1.00  0.00    -0.000 C 
BRANCH  12  13
ATOM     13  C   UNL     1      12.338  33.911  24.915  1.00  0.00    -0.003 C 
ATOM     14  C   UNL     1      12.375  34.981  26.006  1.00  0.00     0.004 C 
ENDBRANCH  12  13
ENDBRANCH  11  12
ENDBRANCH  10  11
ENDBRANCH   9  10
ENDBRANCH   1   9
TORSDOF 10
ENDMDL
MODEL 3
REMARK VINA RESULT:    -4.754      2.432      4.770
REMARK INTER + INTRA:          -8.230
REMARK INTER:                  -7.262
REMARK INTRA:                  -0.969
REMARK UNBOUND:                -0.698
REMARK SMILES CCCCCCCCCCCC(=O)[O-]
REMARK SMILES IDX 7 1 8 2 9 3 10 4 11 5 12 6 13 7 14 8 6 9 5 10 4 11 3 12 2 13
REMARK SMILES IDX 1 14
REMARK H PARENT
REMARK Flexibility Score: inf
ROOT
ATOM      1  C   UNL     1      10.113  35.670  22.501  1.00  0.00     0.000 C 
ENDROOT
BRANCH   1   2
ATOM      2  C   UNL     1       9.129  34.501  22.645  1.00  0.00     0.000 C 
BRANCH   2   3
ATOM      3  C   UNL     1       9.777  33.241  23.248  1.00  0.00     0.000 C 
BRANCH   3   4
ATOM      4  C   UNL     1      11.177  33.456  23.859  1.00  0.00     0.006 C 
BRANCH   4   5
ATOM      5  C   UNL     1      11.226  33.357  25.392  1.00  0.00     0.053 C 
BRANCH   5   6
ATOM      6  C   UNL     1      11.857  34.565  26.012  1.00  0.00     0.041 C 
ATOM      7  O   UNL     1      13.038  34.887  25.714  1.00  0.00    -0.550 OA
ATOM      8  O   UNL     1      11.130  35.357  26.893  1.00  0.00    -0.550 OA
ENDBRANCH   5   6
ENDBRANCH   4   5
ENDBRANCH   3   4
ENDBRANCH   2   3
ENDBRANCH   1   2
BRANCH   1   9
ATOM      9  C   UNL     1       9.715  36.839  23.410  1.00  0.00     0.000 C 
BRANCH   9  10
ATOM     10  C   UNL     1      10.924  37.726  23.728  1.00  0.00    -0.000 C 
BRANCH  10  11
ATOM     11  C   UNL     1      12.238  37.007  23.400  1.00  0.00    -0.000 C 
BRANCH  11  12
ATOM     12  C   UNL     1      13.022  37.761  22.317  1.00  0.00    -0.000 C 
BRANCH  12  13
ATOM     13  C   UNL     1      13.165  36.952  21.019  1.00  0.00    -0.003 C 
ATOM     14  C   UNL     1      13.214  35.444  21.265  1.00  0.00     0.004 C 
ENDBRANCH  12  13
ENDBRANCH  11  12
ENDBRANCH  10  11
ENDBRANCH   9  10
ENDBRANCH   1   9
TORSDOF 10
ENDMDL
MODEL 4
REMARK VINA RESULT:    -4.619      2.575      5.261
REMARK INTER + INTRA:          -8.017
REMARK INTER:                  -7.680
REMARK INTRA:                  -0.337
REMARK UNBOUND:                -0.698
REMARK SMILES CCCCCCCCCCCC(=O)[O-]
REMARK SMILES IDX 7 1 8 2 9 3 10 4 11 5 12 6 13 7 14 8 6 9 5 10 4 11 3 12 2 13
REMARK SMILES IDX 1 14
REMARK H PARENT
REMARK Flexibility Score: inf
ROOT
ATOM      1  C   UNL     1      13.032  37.790  22.760  1.00  0.00     0.000 C 
ENDROOT
BRANCH   1   2
ATOM      2  C   UNL     1      12.587  36.889  21.599  1.00  0.00     0.000 C 
BRANCH   2   3
ATOM      3  C   UNL     1      13.036  35.426  21.770  1.00  0.00     0.000 C 
BRANCH   3   4
ATOM      4  C   UNL     1      12.631  34.770  23.107  1.00  0.00     0.006 C 
BRANCH   4   5
ATOM      5  C   UNL     1      11.357  33.914  23.038  1.00  0.00     0.053 C 
BRANCH   5   6
ATOM      6  C   UNL     1      10.943  33.414  24.388  1.00  0.00     0.041 C 
ATOM      7  O   UNL     1      10.441  32.266  24.512  1.00  0.00    -0.550 OA
ATOM      8  O   UNL     1      11.144  34.202  25.514  1.00  0.00    -0.550 OA
ENDBRANCH   5   6
ENDBRANCH   4   5
ENDBRANCH   3   4
ENDBRANCH   2   3
ENDBRANCH   1   2
BRANCH   1   9
ATOM      9  C   UNL     1      11.821  38.375  23.496  1.00  0.00     0.000 C 
BRANCH   9  10
ATOM     10  C   UNL     1      10.759  37.298  23.752  1.00  0.00    -0.000 C 
BRANCH  10  11
ATOM     11  C   UNL     1       9.389  37.930  24.028  1.00  0.00    -0.000 C 
BRANCH  11  12
ATOM     12  C   UNL     1       9.496  39.032  25.091  1.00  0.00    -0.000 C 
BRANCH  12  13
ATOM     13  C   UNL     1       8.186  39.232  25.869  1.00  0.00    -0.003 C 
ATOM     14  C   UNL     1       8.258  40.396  26.857  1.00  0.00     0.004 C 
ENDBRANCH  12  13
ENDBRANCH  11  12
ENDBRANCH  10  11
ENDBRANCH   9  10
ENDBRANCH   1   9
TORSDOF 10
ENDMDL
MODEL 5
REMARK VINA RESULT:    -4.500     17.176     18.485
REMARK INTER + INTRA:          -7.829
REMARK INTER:                  -6.911
REMARK INTRA:                  -0.917
REMARK UNBOUND:                -0.698
REMARK SMILES CCCCCCCCCCCC(=O)[O-]
REMARK SMILES IDX 7 1 8 2 9 3 10 4 11 5 12 6 13 7 14 8 6 9 5 10 4 11 3 12 2 13
REMARK SMILES IDX 1 14
REMARK H PARENT
REMARK Flexibility Score: inf
ROOT
ATOM      1  C   UNL     1      24.372  26.306  21.882  1.00  0.00     0.000 C 
ENDROOT
BRANCH   1   2
ATOM      2  C   UNL     1      25.844  25.874  21.955  1.00  0.00     0.000 C 
BRANCH   2   3
ATOM      3  C   UNL     1      26.611  26.551  23.106  1.00  0.00     0.000 C 
BRANCH   3   4
ATOM      4  C   UNL     1      26.091  27.948  23.505  1.00  0.00     0.006 C 
BRANCH   4   5
ATOM      5  C   UNL     1      27.185  29.015  23.659  1.00  0.00     0.053 C 
BRANCH   5   6
ATOM      6  C   UNL     1      26.942  29.901  24.843  1.00  0.00     0.041 C 
ATOM      7  O   UNL     1      25.944  30.669  24.865  1.00  0.00    -0.550 OA
ATOM      8  O   UNL     1      27.798  29.853  25.936  1.00  0.00    -0.550 OA
ENDBRANCH   5   6
ENDBRANCH   4   5
ENDBRANCH   3   4
ENDBRANCH   2   3
ENDBRANCH   1   2
BRANCH   1   9
ATOM      9  C   UNL     1      23.516  25.228  21.207  1.00  0.00     0.000 C 
BRANCH   9  10
ATOM     10  C   UNL     1      24.147  23.840  21.372  1.00  0.00    -0.000 C 
BRANCH  10  11
ATOM     11  C   UNL     1      23.459  23.051  22.491  1.00  0.00    -0.000 C 
BRANCH  11  12
ATOM     12  C   UNL     1      24.395  21.976  23.062  1.00  0.00    -0.000 C 
BRANCH  12  13
ATOM     13  C   UNL     1      25.871  22.236  22.723  1.00  0.00    -0.003 C 
ATOM     14  C   UNL     1      26.661  22.791  23.908  1.00  0.00     0.004 C 
ENDBRANCH  12  13
ENDBRANCH  11  12
ENDBRANCH  10  11
ENDBRANCH   9  10
ENDBRANCH   1   9
TORSDOF 10
ENDMDL
MODEL 6
REMARK VINA RESULT:    -4.416     17.797     19.403
REMARK INTER + INTRA:          -7.695
REMARK INTER:                  -7.266
REMARK INTRA:                  -0.429
REMARK UNBOUND:                -0.698
REMARK SMILES CCCCCCCCCCCC(=O)[O-]
REMARK SMILES IDX 7 1 8 2 9 3 10 4 11 5 12 6 13 7 14 8 6 9 5 10 4 11 3 12 2 13
REMARK SMILES IDX 1 14
REMARK H PARENT
REMARK Flexibility Score: inf
ROOT
ATOM      1  C   UNL     1      25.690  27.757  22.989  1.00  0.00     0.000 C 
ENDROOT
BRANCH   1   2
ATOM      2  C   UNL     1      25.927  26.300  22.567  1.00  0.00     0.000 C 
BRANCH   2   3
ATOM      3  C   UNL     1      24.741  25.699  21.792  1.00  0.00     0.000 C 
BRANCH   3   4
ATOM      4  C   UNL     1      24.950  24.254  21.294  1.00  0.00     0.006 C 
BRANCH   4   5
ATOM      5  C   UNL     1      25.333  24.139  19.810  1.00  0.00     0.053 C 
BRANCH   5   6
ATOM      6  C   UNL     1      26.809  23.971  19.622  1.00  0.00     0.041 C 
ATOM      7  O   UNL     1      27.314  22.818  19.568  1.00  0.00    -0.550 OA
ATOM      8  O   UNL     1      27.624  25.087  19.471  1.00  0.00    -0.550 OA
ENDBRANCH   5   6
ENDBRANCH   4   5
ENDBRANCH   3   4
ENDBRANCH   2   3
ENDBRANCH   1   2
BRANCH   1   9
ATOM      9  C   UNL     1      27.019  28.502  23.163  1.00  0.00     0.000 C 
BRANCH   9  10
ATOM     10  C   UNL     1      27.491  28.454  24.621  1.00  0.00    -0.000 C 
BRANCH  10  11
ATOM     11  C   UNL     1      27.791  29.862  25.150  1.00  0.00    -0.000 C 
BRANCH  11  12
ATOM     12  C   UNL     1      26.527  30.733  25.140  1.00  0.00    -0.000 C 
BRANCH  12  13
ATOM     13  C   UNL     1      26.838  32.229  25.310  1.00  0.00    -0.003 C 
ATOM     14  C   UNL     1      26.996  32.637  26.774  1.00  0.00     0.004 C 
ENDBRANCH  12  13
ENDBRANCH  11  12
ENDBRANCH  10  11
ENDBRANCH   9  10
ENDBRANCH   1   9
TORSDOF 10
ENDMDL
MODEL 7
REMARK VINA RESULT:    -4.339     16.610     18.675
REMARK INTER + INTRA:          -7.573
REMARK INTER:                  -7.129
REMARK INTRA:                  -0.445
REMARK UNBOUND:                -0.698
REMARK SMILES CCCCCCCCCCCC(=O)[O-]
REMARK SMILES IDX 7 1 8 2 9 3 10 4 11 5 12 6 13 7 14 8 6 9 5 10 4 11 3 12 2 13
REMARK SMILES IDX 1 14
REMARK H PARENT
REMARK Flexibility Score: inf
ROOT
ATOM      1  C   UNL     1      26.205  26.725  23.026  1.00  0.00     0.000 C 
ENDROOT
BRANCH   1   2
ATOM      2  C   UNL     1      27.025  25.446  23.252  1.00  0.00     0.000 C 
BRANCH   2   3
ATOM      3  C   UNL     1      26.602  24.291  22.326  1.00  0.00     0.000 C 
BRANCH   3   4
ATOM      4  C   UNL     1      26.279  24.701  20.875  1.00  0.00     0.006 C 
BRANCH   4   5
ATOM      5  C   UNL     1      24.951  24.147  20.336  1.00  0.00     0.053 C 
BRANCH   5   6
ATOM      6  C   UNL     1      23.793  24.516  21.210  1.00  0.00     0.041 C 
ATOM      7  O   UNL     1      23.301  23.668  22.001  1.00  0.00    -0.550 OA
ATOM      8  O   UNL     1      23.278  25.806  21.178  1.00  0.00    -0.550 OA
ENDBRANCH   5   6
ENDBRANCH   4   5
ENDBRANCH   3   4
ENDBRANCH   2   3
ENDBRANCH   1   2
BRANCH   1   9
ATOM      9  C   UNL     1      26.994  27.967  23.455  1.00  0.00     0.000 C 
BRANCH   9  10
ATOM     10  C   UNL     1      26.066  29.032  24.050  1.00  0.00    -0.000 C 
BRANCH  10  11
ATOM     11  C   UNL     1      26.867  30.115  24.783  1.00  0.00    -0.000 C 
BRANCH  11  12
ATOM     12  C   UNL     1      25.953  31.261  25.239  1.00  0.00    -0.000 C 
BRANCH  12  13
ATOM     13  C   UNL     1      26.713  32.353  26.009  1.00  0.00    -0.003 C 
ATOM     14  C   UNL     1      27.923  32.884  25.241  1.00  0.00     0.004 C 
ENDBRANCH  12  13
ENDBRANCH  11  12
ENDBRANCH  10  11
ENDBRANCH   9  10
ENDBRANCH   1   9
TORSDOF 10
ENDMDL
MODEL 8
REMARK VINA RESULT:    -4.298     16.682     17.663
REMARK INTER + INTRA:          -7.508
REMARK INTER:                  -6.966
REMARK INTRA:                  -0.543
REMARK UNBOUND:                -0.698
REMARK SMILES CCCCCCCCCCCC(=O)[O-]
REMARK SMILES IDX 7 1 8 2 9 3 10 4 11 5 12 6 13 7 14 8 6 9 5 10 4 11 3 12 2 13
REMARK SMILES IDX 1 14
REMARK H PARENT
REMARK Flexibility Score: inf
ROOT
ATOM      1  C   UNL     1      25.484  27.762  22.996  1.00  0.00     0.000 C 
ENDROOT
BRANCH   1   2
ATOM      2  C   UNL     1      26.023  28.961  23.789  1.00  0.00     0.000 C 
BRANCH   2   3
ATOM      3  C   UNL     1      27.455  28.742  24.310  1.00  0.00     0.000 C 
BRANCH   3   4
ATOM      4  C   UNL     1      27.923  29.750  25.379  1.00  0.00     0.006 C 
BRANCH   4   5
ATOM      5  C   UNL     1      27.843  31.222  24.947  1.00  0.00     0.053 C 
BRANCH   5   6
ATOM      6  C   UNL     1      26.771  31.966  25.682  1.00  0.00     0.041 C 
ATOM      7  O   UNL     1      25.578  31.919  25.280  1.00  0.00    -0.550 OA
ATOM      8  O   UNL     1      27.082  32.681  26.832  1.00  0.00    -0.550 OA
ENDBRANCH   5   6
ENDBRANCH   4   5
ENDBRANCH   3   4
ENDBRANCH   2   3
ENDBRANCH   1   2
BRANCH   1   9
ATOM      9  C   UNL     1      26.442  26.568  23.087  1.00  0.00     0.000 C 
BRANCH   9  10
ATOM     10  C   UNL     1      25.842  25.327  22.415  1.00  0.00    -0.000 C 
BRANCH  10  11
ATOM     11  C   UNL     1      24.679  25.708  21.491  1.00  0.00    -0.000 C 
BRANCH  11  12
ATOM     12  C   UNL     1      23.661  24.563  21.388  1.00  0.00    -0.000 C 
BRANCH  12  13
ATOM     13  C   UNL     1      24.206  23.236  21.938  1.00  0.00    -0.003 C 
ATOM     14  C   UNL     1      23.260  22.581  22.945  1.00  0.00     0.004 C 
ENDBRANCH  12  13
ENDBRANCH  11  12
ENDBRANCH  10  11
ENDBRANCH   9  10
ENDBRANCH   1   9
TORSDOF 10
ENDMDL
MODEL 9
REMARK VINA RESULT:    -4.297     16.662     17.825
REMARK INTER + INTRA:          -7.506
REMARK INTER:                  -6.996
REMARK INTRA:                  -0.510
REMARK UNBOUND:                -0.698
REMARK SMILES CCCCCCCCCCCC(=O)[O-]
REMARK SMILES IDX 7 1 8 2 9 3 10 4 11 5 12 6 13 7 14 8 6 9 5 10 4 11 3 12 2 13
REMARK SMILES IDX 1 14
REMARK H PARENT
REMARK Flexibility Score: inf
ROOT
ATOM      1  C   UNL     1      25.981  27.524  23.205  1.00  0.00     0.000 C 
ENDROOT
BRANCH   1   2
ATOM      2  C   UNL     1      27.029  27.083  24.237  1.00  0.00     0.000 C 
BRANCH   2   3
ATOM      3  C   UNL     1      28.002  28.212  24.624  1.00  0.00     0.000 C 
BRANCH   3   4
ATOM      4  C   UNL     1      27.429  29.639  24.501  1.00  0.00     0.006 C 
BRANCH   4   5
ATOM      5  C   UNL     1      27.790  30.574  25.665  1.00  0.00     0.053 C 
BRANCH   5   6
ATOM      6  C   UNL     1      26.773  31.658  25.851  1.00  0.00     0.041 C 
ATOM      7  O   UNL     1      25.675  31.609  25.237  1.00  0.00    -0.550 OA
ATOM      8  O   UNL     1      27.024  32.705  26.729  1.00  0.00    -0.550 OA
ENDBRANCH   5   6
ENDBRANCH   4   5
ENDBRANCH   3   4
ENDBRANCH   2   3
ENDBRANCH   1   2
BRANCH   1   9
ATOM      9  C   UNL     1      25.648  26.382  22.238  1.00  0.00     0.000 C 
BRANCH   9  10
ATOM     10  C   UNL     1      24.164  26.399  21.853  1.00  0.00    -0.000 C 
BRANCH  10  11
ATOM     11  C   UNL     1      23.678  24.997  21.466  1.00  0.00    -0.000 C 
BRANCH  11  12
ATOM     12  C   UNL     1      24.849  24.006  21.408  1.00  0.00    -0.000 C 
BRANCH  12  13
ATOM     13  C   UNL     1      24.602  22.748  22.255  1.00  0.00    -0.003 C 
ATOM     14  C   UNL     1      23.194  22.702  22.846  1.00  0.00     0.004 C 
ENDBRANCH  12  13
ENDBRANCH  11  12
ENDBRANCH  10  11
ENDBRANCH   9  10
ENDBRANCH   1   9
TORSDOF 10
ENDMDL
