MODEL 1
REMARK VINA RESULT:    -6.149      0.000      0.000
REMARK INTER + INTRA:          -6.329
REMARK INTER:                  -6.329
REMARK INTRA:                   0.000
REMARK UNBOUND:                 0.000
REMARK SMILES O=c1ccc2ccc(O)cc2o1
REMARK SMILES IDX 6 1 7 2 8 3 10 4 11 5 5 6 4 7 3 8 2 9 1 10 12 11 9 12
REMARK H PARENT 9 13
REMARK Flexibility Score: inf
ROOT
ATOM      1  C   UNL     1      13.176   8.246  20.375  1.00  0.00     0.016 A 
ATOM      2  C   UNL     1      13.013   9.074  21.490  1.00  0.00     0.047 A 
ATOM      3  C   UNL     1      11.767   9.171  22.123  1.00  0.00     0.119 A 
ATOM      4  C   UNL     1      10.676   8.436  21.637  1.00  0.00     0.094 A 
ATOM      5  C   UNL     1      10.830   7.604  20.522  1.00  0.00     0.142 A 
ATOM      6  C   UNL     1      12.088   7.509  19.887  1.00  0.00     0.018 A 
ATOM      7  C   UNL     1      12.211   6.669  18.775  1.00  0.00     0.019 A 
ATOM      8  C   UNL     1      11.098   5.957  18.328  1.00  0.00     0.094 A 
ATOM      9  C   UNL     1       9.883   6.102  19.008  1.00  0.00     0.336 A 
ATOM     10  O   UNL     1       8.867   5.468  18.620  1.00  0.00    -0.246 OA
ATOM     11  O   UNL     1       9.793   6.908  20.063  1.00  0.00    -0.423 OA
ENDROOT
BRANCH   3  12
ATOM     12  O   UNL     1      11.624  10.002  23.232  1.00  0.00    -0.508 OA
ATOM     13  H   UNL     1      12.165  10.853  23.329  1.00  0.00     0.293 HD
ENDBRANCH   3  12
TORSDOF 1
ENDMDL
MODEL 2
REMARK VINA RESULT:    -6.143      8.829      8.958
REMARK INTER + INTRA:          -6.322
REMARK INTER:                  -6.322
REMARK INTRA:                   0.000
REMARK UNBOUND:                 0.000
REMARK SMILES O=c1ccc2ccc(O)cc2o1
REMARK SMILES IDX 6 1 7 2 8 3 10 4 11 5 5 6 4 7 3 8 2 9 1 10 12 11 9 12
REMARK H PARENT 9 13
REMARK Flexibility Score: inf
ROOT
ATOM      1  C   UNL     1      14.684   0.571  26.694  1.00  0.00     0.016 A 
ATOM      2  C   UNL     1      15.511   1.511  26.070  1.00  0.00     0.047 A 
ATOM      3  C   UNL     1      15.005   2.335  25.057  1.00  0.00     0.119 A 
ATOM      4  C   UNL     1      13.665   2.217  24.662  1.00  0.00     0.094 A 
ATOM      5  C   UNL     1      12.830   1.278  25.280  1.00  0.00     0.142 A 
ATOM      6  C   UNL     1      13.344   0.450  26.303  1.00  0.00     0.018 A 
ATOM      7  C   UNL     1      12.486  -0.478  26.902  1.00  0.00     0.019 A 
ATOM      8  C   UNL     1      11.161  -0.559  26.477  1.00  0.00     0.094 A 
ATOM      9  C   UNL     1      10.722   0.294  25.458  1.00  0.00     0.336 A 
ATOM     10  O   UNL     1       9.529   0.236  25.061  1.00  0.00    -0.246 OA
ATOM     11  O   UNL     1      11.559   1.168  24.904  1.00  0.00    -0.423 OA
ENDROOT
BRANCH   3  12
ATOM     12  O   UNL     1      15.844   3.265  24.447  1.00  0.00    -0.508 OA
ATOM     13  H   UNL     1      15.531   4.208  24.245  1.00  0.00     0.293 HD
ENDBRANCH   3  12
TORSDOF 1
ENDMDL
MODEL 3
REMARK VINA RESULT:    -5.986     20.856     21.274
REMARK INTER + INTRA:          -6.161
REMARK INTER:                  -6.161
REMARK INTRA:                   0.000
REMARK UNBOUND:                 0.000
REMARK SMILES O=c1ccc2ccc(O)cc2o1
REMARK SMILES IDX 6 1 7 2 8 3 10 4 11 5 5 6 4 7 3 8 2 9 1 10 12 11 9 12
REMARK H PARENT 9 13
REMARK Flexibility Score: inf
ROOT
ATOM      1  C   UNL     1      17.308  -8.798  31.891  1.00  0.00     0.016 A 
ATOM      2  C   UNL     1      16.092  -9.384  31.528  1.00  0.00     0.047 A 
ATOM      3  C   UNL     1      14.925  -9.091  32.245  1.00  0.00     0.119 A 
ATOM      4  C   UNL     1      14.974  -8.207  33.332  1.00  0.00     0.094 A 
ATOM      5  C   UNL     1      16.187  -7.615  33.702  1.00  0.00     0.142 A 
ATOM      6  C   UNL     1      17.362  -7.913  32.976  1.00  0.00     0.018 A 
ATOM      7  C   UNL     1      18.559  -7.306  33.370  1.00  0.00     0.019 A 
ATOM      8  C   UNL     1      18.559  -6.433  34.456  1.00  0.00     0.094 A 
ATOM      9  C   UNL     1      17.357  -6.186  35.128  1.00  0.00     0.336 A 
ATOM     10  O   UNL     1      17.337  -5.401  36.112  1.00  0.00    -0.246 OA
ATOM     11  O   UNL     1      16.231  -6.776  34.734  1.00  0.00    -0.423 OA
ENDROOT
BRANCH   3  12
ATOM     12  O   UNL     1      13.722  -9.686  31.869  1.00  0.00    -0.508 OA
ATOM     13  H   UNL     1      13.626 -10.177  30.988  1.00  0.00     0.293 HD
ENDBRANCH   3  12
TORSDOF 1
ENDMDL
MODEL 4
REMARK VINA RESULT:    -5.917      2.650      5.331
REMARK INTER + INTRA:          -6.090
REMARK INTER:                  -6.090
REMARK INTRA:                   0.000
REMARK UNBOUND:                 0.000
REMARK SMILES O=c1ccc2ccc(O)cc2o1
REMARK SMILES IDX 6 1 7 2 8 3 10 4 11 5 5 6 4 7 3 8 2 9 1 10 12 11 9 12
REMARK H PARENT 9 13
REMARK Flexibility Score: inf
ROOT
ATOM      1  C   UNL     1      10.279   3.548  20.972  1.00  0.00     0.016 A 
ATOM      2  C   UNL     1      10.015   2.657  19.926  1.00  0.00     0.047 A 
ATOM      3  C   UNL     1      10.427   2.957  18.622  1.00  0.00     0.119 A 
ATOM      4  C   UNL     1      11.107   4.155  18.360  1.00  0.00     0.094 A 
ATOM      5  C   UNL     1      11.376   5.052  19.400  1.00  0.00     0.142 A 
ATOM      6  C   UNL     1      10.959   4.746  20.714  1.00  0.00     0.018 A 
ATOM      7  C   UNL     1      11.242   5.662  21.733  1.00  0.00     0.019 A 
ATOM      8  C   UNL     1      11.921   6.840  21.425  1.00  0.00     0.094 A 
ATOM      9  C   UNL     1      12.304   7.076  20.099  1.00  0.00     0.336 A 
ATOM     10  O   UNL     1      12.917   8.134  19.801  1.00  0.00    -0.246 OA
ATOM     11  O   UNL     1      12.022   6.188  19.149  1.00  0.00    -0.423 OA
ENDROOT
BRANCH   3  12
ATOM     12  O   UNL     1      10.154   2.057  17.593  1.00  0.00    -0.508 OA
ATOM     13  H   UNL     1       9.867   2.375  16.675  1.00  0.00     0.293 HD
ENDBRANCH   3  12
TORSDOF 1
ENDMDL
MODEL 5
REMARK VINA RESULT:    -5.892      9.687     10.350
REMARK INTER + INTRA:          -6.064
REMARK INTER:                  -6.064
REMARK INTRA:                   0.000
REMARK UNBOUND:                 0.000
REMARK SMILES O=c1ccc2ccc(O)cc2o1
REMARK SMILES IDX 6 1 7 2 8 3 10 4 11 5 5 6 4 7 3 8 2 9 1 10 12 11 9 12
REMARK H PARENT 9 13
REMARK Flexibility Score: inf
ROOT
ATOM      1  C   UNL     1      12.887   1.498  24.881  1.00  0.00     0.016 A 
ATOM      2  C   UNL     1      11.615   1.156  24.411  1.00  0.00     0.047 A 
ATOM      3  C   UNL     1      10.736   0.425  25.219  1.00  0.00     0.119 A 
ATOM      4  C   UNL     1      11.130   0.032  26.506  1.00  0.00     0.094 A 
ATOM      5  C   UNL     1      12.401   0.370  26.985  1.00  0.00     0.142 A 
ATOM      6  C   UNL     1      13.285   1.108  26.167  1.00  0.00     0.018 A 
ATOM      7  C   UNL     1      14.548   1.431  26.674  1.00  0.00     0.019 A 
ATOM      8  C   UNL     1      14.896   1.020  27.959  1.00  0.00     0.094 A 
ATOM      9  C   UNL     1      13.968   0.291  28.713  1.00  0.00     0.336 A 
ATOM     10  O   UNL     1      14.264  -0.089  29.876  1.00  0.00    -0.246 OA
ATOM     11  O   UNL     1      12.773  -0.003  28.207  1.00  0.00    -0.423 OA
ENDROOT
BRANCH   3  12
ATOM     12  O   UNL     1       9.473   0.092  24.733  1.00  0.00    -0.508 OA
ATOM     13  H   UNL     1       9.356  -0.550  23.957  1.00  0.00     0.293 HD
ENDBRANCH   3  12
TORSDOF 1
ENDMDL
MODEL 6
REMARK VINA RESULT:    -5.880     19.234     19.764
REMARK INTER + INTRA:          -6.052
REMARK INTER:                  -6.052
REMARK INTRA:                   0.000
REMARK UNBOUND:                 0.000
REMARK SMILES O=c1ccc2ccc(O)cc2o1
REMARK SMILES IDX 6 1 7 2 8 3 10 4 11 5 5 6 4 7 3 8 2 9 1 10 12 11 9 12
REMARK H PARENT 9 13
REMARK Flexibility Score: inf
ROOT
ATOM      1  C   UNL     1      18.412  -7.078  33.445  1.00  0.00     0.016 A 
ATOM      2  C   UNL     1      17.393  -7.915  32.978  1.00  0.00     0.047 A 
ATOM      3  C   UNL     1      16.147  -7.382  32.624  1.00  0.00     0.119 A 
ATOM      4  C   UNL     1      15.918  -6.003  32.738  1.00  0.00     0.094 A 
ATOM      5  C   UNL     1      16.932  -5.158  33.204  1.00  0.00     0.142 A 
ATOM      6  C   UNL     1      18.187  -5.700  33.560  1.00  0.00     0.018 A 
ATOM      7  C   UNL     1      19.180  -4.831  34.022  1.00  0.00     0.019 A 
ATOM      8  C   UNL     1      18.906  -3.467  34.118  1.00  0.00     0.094 A 
ATOM      9  C   UNL     1      17.639  -3.002  33.748  1.00  0.00     0.336 A 
ATOM     10  O   UNL     1      17.373  -1.775  33.828  1.00  0.00    -0.246 OA
ATOM     11  O   UNL     1      16.711  -3.851  33.312  1.00  0.00    -0.423 OA
ENDROOT
BRANCH   3  12
ATOM     12  O   UNL     1      15.144  -8.231  32.162  1.00  0.00    -0.508 OA
ATOM     13  H   UNL     1      15.021  -8.416  31.173  1.00  0.00     0.293 HD
ENDBRANCH   3  12
TORSDOF 1
ENDMDL
MODEL 7
REMARK VINA RESULT:    -5.843      2.177      2.917
REMARK INTER + INTRA:          -6.014
REMARK INTER:                  -6.014
REMARK INTRA:                   0.000
REMARK UNBOUND:                 0.000
REMARK SMILES O=c1ccc2ccc(O)cc2o1
REMARK SMILES IDX 6 1 7 2 8 3 10 4 11 5 5 6 4 7 3 8 2 9 1 10 12 11 9 12
REMARK H PARENT 9 13
REMARK Flexibility Score: inf
ROOT
ATOM      1  C   UNL     1      11.824   6.229  19.567  1.00  0.00     0.016 A 
ATOM      2  C   UNL     1      11.455   7.172  20.532  1.00  0.00     0.047 A 
ATOM      3  C   UNL     1      10.285   6.996  21.280  1.00  0.00     0.119 A 
ATOM      4  C   UNL     1       9.476   5.872  21.062  1.00  0.00     0.094 A 
ATOM      5  C   UNL     1       9.837   4.924  20.098  1.00  0.00     0.142 A 
ATOM      6  C   UNL     1      11.019   5.104  19.345  1.00  0.00     0.018 A 
ATOM      7  C   UNL     1      11.353   4.139  18.389  1.00  0.00     0.019 A 
ATOM      8  C   UNL     1      10.519   3.037  18.207  1.00  0.00     0.094 A 
ATOM      9  C   UNL     1       9.363   2.925  18.990  1.00  0.00     0.336 A 
ATOM     10  O   UNL     1       8.597   1.938  18.840  1.00  0.00    -0.246 OA
ATOM     11  O   UNL     1       9.068   3.857  19.892  1.00  0.00    -0.423 OA
ENDROOT
BRANCH   3  12
ATOM     12  O   UNL     1       9.934   7.946  22.237  1.00  0.00    -0.508 OA
ATOM     13  H   UNL     1      10.132   8.931  22.104  1.00  0.00     0.293 HD
ENDBRANCH   3  12
TORSDOF 1
ENDMDL
MODEL 8
REMARK VINA RESULT:    -5.836     19.319     19.456
REMARK INTER + INTRA:          -6.007
REMARK INTER:                  -6.007
REMARK INTRA:                   0.000
REMARK UNBOUND:                 0.000
REMARK SMILES O=c1ccc2ccc(O)cc2o1
REMARK SMILES IDX 6 1 7 2 8 3 10 4 11 5 5 6 4 7 3 8 2 9 1 10 12 11 9 12
REMARK H PARENT 9 13
REMARK Flexibility Score: inf
ROOT
ATOM      1  C   UNL     1      19.292  -4.747  34.251  1.00  0.00     0.016 A 
ATOM      2  C   UNL     1      18.975  -3.385  34.277  1.00  0.00     0.047 A 
ATOM      3  C   UNL     1      17.754  -2.933  33.761  1.00  0.00     0.119 A 
ATOM      4  C   UNL     1      16.843  -3.849  33.215  1.00  0.00     0.094 A 
ATOM      5  C   UNL     1      17.152  -5.213  33.184  1.00  0.00     0.142 A 
ATOM      6  C   UNL     1      18.384  -5.665  33.705  1.00  0.00     0.018 A 
ATOM      7  C   UNL     1      18.664  -7.035  33.661  1.00  0.00     0.019 A 
ATOM      8  C   UNL     1      17.728  -7.908  33.108  1.00  0.00     0.094 A 
ATOM      9  C   UNL     1      16.527  -7.388  32.610  1.00  0.00     0.336 A 
ATOM     10  O   UNL     1      15.670  -8.159  32.107  1.00  0.00    -0.246 OA
ATOM     11  O   UNL     1      16.286  -6.080  32.664  1.00  0.00    -0.423 OA
ENDROOT
BRANCH   3  12
ATOM     12  O   UNL     1      17.456  -1.573  33.796  1.00  0.00    -0.508 OA
ATOM     13  H   UNL     1      16.660  -1.192  33.298  1.00  0.00     0.293 HD
ENDBRANCH   3  12
TORSDOF 1
ENDMDL
MODEL 9
REMARK VINA RESULT:    -5.745     19.614     19.836
REMARK INTER + INTRA:          -5.913
REMARK INTER:                  -5.913
REMARK INTRA:                   0.000
REMARK UNBOUND:                 0.000
REMARK SMILES O=c1ccc2ccc(O)cc2o1
REMARK SMILES IDX 6 1 7 2 8 3 10 4 11 5 5 6 4 7 3 8 2 9 1 10 12 11 9 12
REMARK H PARENT 9 13
REMARK Flexibility Score: inf
ROOT
ATOM      1  C   UNL     1      16.624  -4.137  35.475  1.00  0.00     0.016 A 
ATOM      2  C   UNL     1      17.810  -3.421  35.282  1.00  0.00     0.047 A 
ATOM      3  C   UNL     1      18.698  -3.785  34.262  1.00  0.00     0.119 A 
ATOM      4  C   UNL     1      18.399  -4.873  33.430  1.00  0.00     0.094 A 
ATOM      5  C   UNL     1      17.214  -5.595  33.615  1.00  0.00     0.142 A 
ATOM      6  C   UNL     1      16.321  -5.224  34.645  1.00  0.00     0.018 A 
ATOM      7  C   UNL     1      15.145  -5.964  34.805  1.00  0.00     0.019 A 
ATOM      8  C   UNL     1      14.890  -7.038  33.953  1.00  0.00     0.094 A 
ATOM      9  C   UNL     1      15.822  -7.347  32.955  1.00  0.00     0.336 A 
ATOM     10  O   UNL     1      15.609  -8.313  32.176  1.00  0.00    -0.246 OA
ATOM     11  O   UNL     1      16.933  -6.627  32.823  1.00  0.00    -0.423 OA
ENDROOT
BRANCH   3  12
ATOM     12  O   UNL     1      19.875  -3.061  34.086  1.00  0.00    -0.508 OA
ATOM     13  H   UNL     1      20.665  -3.173  34.711  1.00  0.00     0.293 HD
ENDBRANCH   3  12
TORSDOF 1
ENDMDL
