MODEL 1
REMARK VINA RESULT:    -3.968      0.000      0.000
REMARK INTER + INTRA:          -9.589
REMARK INTER:                  -7.216
REMARK INTRA:                  -2.373
REMARK UNBOUND:                -2.373
REMARK SMILES CCCCCCCCCCCCCCCC(=O)[O-]
REMARK SMILES IDX 9 1 10 2 11 3 12 4 13 5 14 6 15 7 16 8 17 9 18 10 8 11 7 12
REMARK SMILES IDX 6 13 5 14 4 15 3 16 2 17 1 18
REMARK H PARENT
REMARK Flexibility Score: inf
ROOT
ATOM      1  C   UNL     1     -18.974 -14.065 -18.048  1.00  0.00     0.000 C 
ENDROOT
BRANCH   1   2
ATOM      2  C   UNL     1     -19.699 -15.382 -17.748  1.00  0.00     0.000 C 
BRANCH   2   3
ATOM      3  C   UNL     1     -21.115 -15.121 -17.212  1.00  0.00     0.000 C 
BRANCH   3   4
ATOM      4  C   UNL     1     -21.342 -13.655 -16.800  1.00  0.00     0.000 C 
BRANCH   4   5
ATOM      5  C   UNL     1     -22.773 -13.132 -17.020  1.00  0.00     0.000 C 
BRANCH   5   6
ATOM      6  C   UNL     1     -23.340 -12.404 -15.788  1.00  0.00     0.006 C 
BRANCH   6   7
ATOM      7  C   UNL     1     -23.158 -13.218 -14.500  1.00  0.00     0.053 C 
BRANCH   7   8
ATOM      8  C   UNL     1     -24.192 -14.295 -14.374  1.00  0.00     0.041 C 
ATOM      9  O   UNL     1     -23.901 -15.488 -14.656  1.00  0.00    -0.550 OA
ATOM     10  O   UNL     1     -25.486 -13.976 -13.982  1.00  0.00    -0.550 OA
ENDBRANCH   7   8
ENDBRANCH   6   7
ENDBRANCH   5   6
ENDBRANCH   4   5
ENDBRANCH   3   4
ENDBRANCH   2   3
ENDBRANCH   1   2
BRANCH   1  11
ATOM     11  C   UNL     1     -18.380 -14.075 -19.465  1.00  0.00     0.000 C 
BRANCH  11  12
ATOM     12  C   UNL     1     -19.040 -13.048 -20.402  1.00  0.00    -0.000 C 
BRANCH  12  13
ATOM     13  C   UNL     1     -20.048 -12.096 -19.730  1.00  0.00    -0.000 C 
BRANCH  13  14
ATOM     14  C   UNL     1     -21.458 -12.189 -20.338  1.00  0.00    -0.000 C 
BRANCH  14  15
ATOM     15  C   UNL     1     -21.742 -13.553 -20.992  1.00  0.00    -0.000 C 
BRANCH  15  16
ATOM     16  C   UNL     1     -22.942 -14.323 -20.412  1.00  0.00    -0.000 C 
BRANCH  16  17
ATOM     17  C   UNL     1     -22.760 -15.847 -20.466  1.00  0.00    -0.003 C 
ATOM     18  C   UNL     1     -23.801 -16.557 -19.607  1.00  0.00     0.004 C 
ENDBRANCH  16  17
ENDBRANCH  15  16
ENDBRANCH  14  15
ENDBRANCH  13  14
ENDBRANCH  12  13
ENDBRANCH  11  12
ENDBRANCH   1  11
TORSDOF 14
ENDMDL
MODEL 2
REMARK VINA RESULT:    -3.926      1.740      3.483
REMARK INTER + INTRA:          -9.512
REMARK INTER:                  -7.564
REMARK INTRA:                  -1.948
REMARK UNBOUND:                -2.373
REMARK SMILES CCCCCCCCCCCCCCCC(=O)[O-]
REMARK SMILES IDX 9 1 10 2 11 3 12 4 13 5 14 6 15 7 16 8 17 9 18 10 8 11 7 12
REMARK SMILES IDX 6 13 5 14 4 15 3 16 2 17 1 18
REMARK H PARENT
REMARK Flexibility Score: inf
ROOT
ATOM      1  C   UNL     1     -23.035 -13.546 -18.493  1.00  0.00     0.000 C 
ENDROOT
BRANCH   1   2
ATOM      2  C   UNL     1     -22.421 -12.350 -17.756  1.00  0.00     0.000 C 
BRANCH   2   3
ATOM      3  C   UNL     1     -23.091 -12.144 -16.388  1.00  0.00     0.000 C 
BRANCH   3   4
ATOM      4  C   UNL     1     -22.849 -13.315 -15.418  1.00  0.00     0.000 C 
BRANCH   4   5
ATOM      5  C   UNL     1     -23.949 -13.520 -14.360  1.00  0.00     0.000 C 
BRANCH   5   6
ATOM      6  C   UNL     1     -24.369 -14.992 -14.210  1.00  0.00     0.006 C 
BRANCH   6   7
ATOM      7  C   UNL     1     -23.710 -15.892 -15.264  1.00  0.00     0.053 C 
BRANCH   7   8
ATOM      8  C   UNL     1     -23.377 -17.243 -14.709  1.00  0.00     0.041 C 
ATOM      9  O   UNL     1     -22.388 -17.884 -15.153  1.00  0.00    -0.550 OA
ATOM     10  O   UNL     1     -24.181 -17.811 -13.728  1.00  0.00    -0.550 OA
ENDBRANCH   7   8
ENDBRANCH   6   7
ENDBRANCH   5   6
ENDBRANCH   4   5
ENDBRANCH   3   4
ENDBRANCH   2   3
ENDBRANCH   1   2
BRANCH   1  11
ATOM     11  C   UNL     1     -22.636 -13.541 -19.977  1.00  0.00     0.000 C 
BRANCH  11  12
ATOM     12  C   UNL     1     -21.732 -12.353 -20.353  1.00  0.00    -0.000 C 
BRANCH  12  13
ATOM     13  C   UNL     1     -20.411 -12.727 -21.052  1.00  0.00    -0.000 C 
BRANCH  13  14
ATOM     14  C   UNL     1     -19.476 -13.561 -20.160  1.00  0.00    -0.000 C 
BRANCH  14  15
ATOM     15  C   UNL     1     -19.217 -12.914 -18.788  1.00  0.00    -0.000 C 
BRANCH  15  16
ATOM     16  C   UNL     1     -18.884 -13.897 -17.650  1.00  0.00    -0.000 C 
BRANCH  16  17
ATOM     17  C   UNL     1     -19.264 -15.347 -17.979  1.00  0.00    -0.003 C 
ATOM     18  C   UNL     1     -20.540 -15.761 -17.253  1.00  0.00     0.004 C 
ENDBRANCH  16  17
ENDBRANCH  15  16
ENDBRANCH  14  15
ENDBRANCH  13  14
ENDBRANCH  12  13
ENDBRANCH  11  12
ENDBRANCH   1  11
TORSDOF 14
ENDMDL
MODEL 3
REMARK VINA RESULT:    -3.898      2.415      5.565
REMARK INTER + INTRA:          -9.462
REMARK INTER:                  -7.856
REMARK INTRA:                  -1.606
REMARK UNBOUND:                -2.373
REMARK SMILES CCCCCCCCCCCCCCCC(=O)[O-]
REMARK SMILES IDX 9 1 10 2 11 3 12 4 13 5 14 6 15 7 16 8 17 9 18 10 8 11 7 12
REMARK SMILES IDX 6 13 5 14 4 15 3 16 2 17 1 18
REMARK H PARENT
REMARK Flexibility Score: inf
ROOT
ATOM      1  C   UNL     1     -20.659 -15.138 -17.443  1.00  0.00     0.000 C 
ENDROOT
BRANCH   1   2
ATOM      2  C   UNL     1     -19.849 -13.837 -17.393  1.00  0.00     0.000 C 
BRANCH   2   3
ATOM      3  C   UNL     1     -18.736 -13.841 -18.452  1.00  0.00     0.000 C 
BRANCH   3   4
ATOM      4  C   UNL     1     -19.183 -13.234 -19.795  1.00  0.00     0.000 C 
BRANCH   4   5
ATOM      5  C   UNL     1     -20.289 -12.169 -19.691  1.00  0.00     0.000 C 
BRANCH   5   6
ATOM      6  C   UNL     1     -21.418 -12.376 -20.715  1.00  0.00     0.006 C 
BRANCH   6   7
ATOM      7  C   UNL     1     -22.629 -13.096 -20.104  1.00  0.00     0.053 C 
BRANCH   7   8
ATOM      8  C   UNL     1     -22.709 -14.523 -20.552  1.00  0.00     0.041 C 
ATOM      9  O   UNL     1     -22.052 -14.910 -21.554  1.00  0.00    -0.550 OA
ATOM     10  O   UNL     1     -23.537 -15.417 -19.885  1.00  0.00    -0.550 OA
ENDBRANCH   7   8
ENDBRANCH   6   7
ENDBRANCH   5   6
ENDBRANCH   4   5
ENDBRANCH   3   4
ENDBRANCH   2   3
ENDBRANCH   1   2
BRANCH   1  11
ATOM     11  C   UNL     1     -22.015 -14.969 -16.741  1.00  0.00     0.000 C 
BRANCH  11  12
ATOM     12  C   UNL     1     -22.422 -13.495 -16.564  1.00  0.00    -0.000 C 
BRANCH  12  13
ATOM     13  C   UNL     1     -22.646 -13.044 -15.109  1.00  0.00    -0.000 C 
BRANCH  13  14
ATOM     14  C   UNL     1     -24.022 -12.390 -14.889  1.00  0.00    -0.000 C 
BRANCH  14  15
ATOM     15  C   UNL     1     -24.906 -13.170 -13.899  1.00  0.00    -0.000 C 
BRANCH  15  16
ATOM     16  C   UNL     1     -24.717 -14.698 -13.913  1.00  0.00    -0.000 C 
BRANCH  16  17
ATOM     17  C   UNL     1     -26.043 -15.468 -13.836  1.00  0.00    -0.003 C 
ATOM     18  C   UNL     1     -25.885 -16.760 -13.041  1.00  0.00     0.004 C 
ENDBRANCH  16  17
ENDBRANCH  15  16
ENDBRANCH  14  15
ENDBRANCH  13  14
ENDBRANCH  12  13
ENDBRANCH  11  12
ENDBRANCH   1  11
TORSDOF 14
ENDMDL
MODEL 4
REMARK VINA RESULT:    -3.896      1.181      3.723
REMARK INTER + INTRA:          -9.459
REMARK INTER:                  -6.995
REMARK INTRA:                  -2.464
REMARK UNBOUND:                -2.373
REMARK SMILES CCCCCCCCCCCCCCCC(=O)[O-]
REMARK SMILES IDX 9 1 10 2 11 3 12 4 13 5 14 6 15 7 16 8 17 9 18 10 8 11 7 12
REMARK SMILES IDX 6 13 5 14 4 15 3 16 2 17 1 18
REMARK H PARENT
REMARK Flexibility Score: inf
ROOT
ATOM      1  C   UNL     1     -22.950 -14.610 -19.903  1.00  0.00     0.000 C 
ENDROOT
BRANCH   1   2
ATOM      2  C   UNL     1     -22.571 -13.172 -20.277  1.00  0.00     0.000 C 
BRANCH   2   3
ATOM      3  C   UNL     1     -22.598 -12.258 -19.042  1.00  0.00     0.000 C 
BRANCH   3   4
ATOM      4  C   UNL     1     -22.972 -13.004 -17.749  1.00  0.00     0.000 C 
BRANCH   4   5
ATOM      5  C   UNL     1     -22.970 -12.139 -16.475  1.00  0.00     0.000 C 
BRANCH   5   6
ATOM      6  C   UNL     1     -23.158 -12.964 -15.191  1.00  0.00     0.006 C 
BRANCH   6   7
ATOM      7  C   UNL     1     -23.168 -14.474 -15.469  1.00  0.00     0.053 C 
BRANCH   7   8
ATOM      8  C   UNL     1     -24.255 -15.170 -14.708  1.00  0.00     0.041 C 
ATOM      9  O   UNL     1     -24.744 -14.640 -13.675  1.00  0.00    -0.550 OA
ATOM     10  O   UNL     1     -24.702 -16.419 -15.118  1.00  0.00    -0.550 OA
ENDBRANCH   7   8
ENDBRANCH   6   7
ENDBRANCH   5   6
ENDBRANCH   4   5
ENDBRANCH   3   4
ENDBRANCH   2   3
ENDBRANCH   1   2
BRANCH   1  11
ATOM     11  C   UNL     1     -21.750 -15.556 -20.067  1.00  0.00     0.000 C 
BRANCH  11  12
ATOM     12  C   UNL     1     -21.672 -16.626 -18.963  1.00  0.00    -0.000 C 
BRANCH  12  13
ATOM     13  C   UNL     1     -21.054 -16.155 -17.633  1.00  0.00    -0.000 C 
BRANCH  13  14
ATOM     14  C   UNL     1     -19.627 -15.605 -17.796  1.00  0.00    -0.000 C 
BRANCH  14  15
ATOM     15  C   UNL     1     -19.497 -14.133 -17.367  1.00  0.00    -0.000 C 
BRANCH  15  16
ATOM     16  C   UNL     1     -19.233 -13.136 -18.510  1.00  0.00    -0.000 C 
BRANCH  16  17
ATOM     17  C   UNL     1     -18.632 -13.799 -19.758  1.00  0.00    -0.003 C 
ATOM     18  C   UNL     1     -18.905 -12.969 -21.008  1.00  0.00     0.004 C 
ENDBRANCH  16  17
ENDBRANCH  15  16
ENDBRANCH  14  15
ENDBRANCH  13  14
ENDBRANCH  12  13
ENDBRANCH  11  12
ENDBRANCH   1  11
TORSDOF 14
ENDMDL
MODEL 5
REMARK VINA RESULT:    -3.865      1.338      3.142
REMARK INTER + INTRA:          -9.401
REMARK INTER:                  -6.850
REMARK INTRA:                  -2.551
REMARK UNBOUND:                -2.373
REMARK SMILES CCCCCCCCCCCCCCCC(=O)[O-]
REMARK SMILES IDX 9 1 10 2 11 3 12 4 13 5 14 6 15 7 16 8 17 9 18 10 8 11 7 12
REMARK SMILES IDX 6 13 5 14 4 15 3 16 2 17 1 18
REMARK H PARENT
REMARK Flexibility Score: inf
ROOT
ATOM      1  C   UNL     1     -21.595 -15.156 -21.740  1.00  0.00     0.000 C 
ENDROOT
BRANCH   1   2
ATOM      2  C   UNL     1     -22.590 -14.410 -20.844  1.00  0.00     0.000 C 
BRANCH   2   3
ATOM      3  C   UNL     1     -23.055 -15.298 -19.679  1.00  0.00     0.000 C 
BRANCH   3   4
ATOM      4  C   UNL     1     -22.913 -14.614 -18.308  1.00  0.00     0.000 C 
BRANCH   4   5
ATOM      5  C   UNL     1     -22.916 -13.075 -18.346  1.00  0.00     0.000 C 
BRANCH   5   6
ATOM      6  C   UNL     1     -22.623 -12.441 -16.975  1.00  0.00     0.006 C 
BRANCH   6   7
ATOM      7  C   UNL     1     -22.393 -13.499 -15.886  1.00  0.00     0.053 C 
BRANCH   7   8
ATOM      8  C   UNL     1     -23.419 -13.406 -14.798  1.00  0.00     0.041 C 
ATOM      9  O   UNL     1     -23.964 -12.302 -14.534  1.00  0.00    -0.550 OA
ATOM     10  O   UNL     1     -23.747 -14.531 -14.051  1.00  0.00    -0.550 OA
ENDBRANCH   7   8
ENDBRANCH   6   7
ENDBRANCH   5   6
ENDBRANCH   4   5
ENDBRANCH   3   4
ENDBRANCH   2   3
ENDBRANCH   1   2
BRANCH   1  11
ATOM     11  C   UNL     1     -20.473 -14.220 -22.214  1.00  0.00     0.000 C 
BRANCH  11  12
ATOM     12  C   UNL     1     -20.248 -13.024 -21.271  1.00  0.00    -0.000 C 
BRANCH  12  13
ATOM     13  C   UNL     1     -19.107 -13.195 -20.251  1.00  0.00    -0.000 C 
BRANCH  13  14
ATOM     14  C   UNL     1     -19.473 -12.677 -18.849  1.00  0.00    -0.000 C 
BRANCH  14  15
ATOM     15  C   UNL     1     -18.902 -13.550 -17.718  1.00  0.00    -0.000 C 
BRANCH  15  16
ATOM     16  C   UNL     1     -18.529 -14.988 -18.123  1.00  0.00    -0.000 C 
BRANCH  16  17
ATOM     17  C   UNL     1     -19.624 -16.010 -17.787  1.00  0.00    -0.003 C 
ATOM     18  C   UNL     1     -19.843 -16.982 -18.942  1.00  0.00     0.004 C 
ENDBRANCH  16  17
ENDBRANCH  15  16
ENDBRANCH  14  15
ENDBRANCH  13  14
ENDBRANCH  12  13
ENDBRANCH  11  12
ENDBRANCH   1  11
TORSDOF 14
ENDMDL
MODEL 6
REMARK VINA RESULT:    -3.849      1.290      2.180
REMARK INTER + INTRA:          -9.372
REMARK INTER:                  -6.769
REMARK INTRA:                  -2.604
REMARK UNBOUND:                -2.373
REMARK SMILES CCCCCCCCCCCCCCCC(=O)[O-]
REMARK SMILES IDX 9 1 10 2 11 3 12 4 13 5 14 6 15 7 16 8 17 9 18 10 8 11 7 12
REMARK SMILES IDX 6 13 5 14 4 15 3 16 2 17 1 18
REMARK H PARENT
REMARK Flexibility Score: inf
ROOT
ATOM      1  C   UNL     1     -19.904 -16.407 -17.261  1.00  0.00     0.000 C 
ENDROOT
BRANCH   1   2
ATOM      2  C   UNL     1     -20.893 -16.985 -18.280  1.00  0.00     0.000 C 
BRANCH   2   3
ATOM      3  C   UNL     1     -22.259 -16.288 -18.178  1.00  0.00     0.000 C 
BRANCH   3   4
ATOM      4  C   UNL     1     -22.333 -15.278 -17.018  1.00  0.00     0.000 C 
BRANCH   4   5
ATOM      5  C   UNL     1     -22.888 -13.893 -17.397  1.00  0.00     0.000 C 
BRANCH   5   6
ATOM      6  C   UNL     1     -22.650 -12.834 -16.307  1.00  0.00     0.006 C 
BRANCH   6   7
ATOM      7  C   UNL     1     -22.689 -13.438 -14.896  1.00  0.00     0.053 C 
BRANCH   7   8
ATOM      8  C   UNL     1     -24.068 -13.395 -14.313  1.00  0.00     0.041 C 
ATOM      9  O   UNL     1     -24.534 -12.313 -13.867  1.00  0.00    -0.550 OA
ATOM     10  O   UNL     1     -24.825 -14.557 -14.227  1.00  0.00    -0.550 OA
ENDBRANCH   7   8
ENDBRANCH   6   7
ENDBRANCH   5   6
ENDBRANCH   4   5
ENDBRANCH   3   4
ENDBRANCH   2   3
ENDBRANCH   1   2
BRANCH   1  11
ATOM     11  C   UNL     1     -18.507 -16.249 -17.881  1.00  0.00     0.000 C 
BRANCH  11  12
ATOM     12  C   UNL     1     -18.190 -14.798 -18.288  1.00  0.00    -0.000 C 
BRANCH  12  13
ATOM     13  C   UNL     1     -19.086 -13.723 -17.645  1.00  0.00    -0.000 C 
BRANCH  13  14
ATOM     14  C   UNL     1     -19.695 -12.755 -18.674  1.00  0.00    -0.000 C 
BRANCH  14  15
ATOM     15  C   UNL     1     -19.667 -13.309 -20.110  1.00  0.00    -0.000 C 
BRANCH  15  16
ATOM     16  C   UNL     1     -21.033 -13.744 -20.673  1.00  0.00    -0.000 C 
BRANCH  16  17
ATOM     17  C   UNL     1     -20.969 -15.070 -21.445  1.00  0.00    -0.003 C 
ATOM     18  C   UNL     1     -22.352 -15.494 -21.928  1.00  0.00     0.004 C 
ENDBRANCH  16  17
ENDBRANCH  15  16
ENDBRANCH  14  15
ENDBRANCH  13  14
ENDBRANCH  12  13
ENDBRANCH  11  12
ENDBRANCH   1  11
TORSDOF 14
ENDMDL
MODEL 7
REMARK VINA RESULT:    -3.843      3.858      6.250
REMARK INTER + INTRA:          -9.361
REMARK INTER:                  -7.181
REMARK INTRA:                  -2.180
REMARK UNBOUND:                -2.373
REMARK SMILES CCCCCCCCCCCCCCCC(=O)[O-]
REMARK SMILES IDX 9 1 10 2 11 3 12 4 13 5 14 6 15 7 16 8 17 9 18 10 8 11 7 12
REMARK SMILES IDX 6 13 5 14 4 15 3 16 2 17 1 18
REMARK H PARENT
REMARK Flexibility Score: inf
ROOT
ATOM      1  C   UNL     1     -19.410 -13.236 -19.325  1.00  0.00     0.000 C 
ENDROOT
BRANCH   1   2
ATOM      2  C   UNL     1     -20.482 -12.148 -19.461  1.00  0.00     0.000 C 
BRANCH   2   3
ATOM      3  C   UNL     1     -21.421 -12.445 -20.640  1.00  0.00     0.000 C 
BRANCH   3   4
ATOM      4  C   UNL     1     -22.693 -13.204 -20.219  1.00  0.00     0.000 C 
BRANCH   4   5
ATOM      5  C   UNL     1     -22.796 -14.645 -20.753  1.00  0.00     0.000 C 
BRANCH   5   6
ATOM      6  C   UNL     1     -21.722 -14.972 -21.804  1.00  0.00     0.006 C 
BRANCH   6   7
ATOM      7  C   UNL     1     -22.257 -15.889 -22.912  1.00  0.00     0.053 C 
BRANCH   7   8
ATOM      8  C   UNL     1     -21.356 -15.897 -24.109  1.00  0.00     0.041 C 
ATOM      9  O   UNL     1     -21.665 -15.242 -25.139  1.00  0.00    -0.550 OA
ATOM     10  O   UNL     1     -20.193 -16.657 -24.100  1.00  0.00    -0.550 OA
ENDBRANCH   7   8
ENDBRANCH   6   7
ENDBRANCH   5   6
ENDBRANCH   4   5
ENDBRANCH   3   4
ENDBRANCH   2   3
ENDBRANCH   1   2
BRANCH   1  11
ATOM     11  C   UNL     1     -19.183 -13.602 -17.850  1.00  0.00     0.000 C 
BRANCH  11  12
ATOM     12  C   UNL     1     -19.097 -15.121 -17.613  1.00  0.00    -0.000 C 
BRANCH  12  13
ATOM     13  C   UNL     1     -20.193 -15.957 -18.301  1.00  0.00    -0.000 C 
BRANCH  13  14
ATOM     14  C   UNL     1     -21.277 -16.445 -17.325  1.00  0.00    -0.000 C 
BRANCH  14  15
ATOM     15  C   UNL     1     -22.495 -15.507 -17.262  1.00  0.00    -0.000 C 
BRANCH  15  16
ATOM     16  C   UNL     1     -22.466 -14.468 -16.125  1.00  0.00    -0.000 C 
BRANCH  16  17
ATOM     17  C   UNL     1     -22.781 -13.044 -16.606  1.00  0.00    -0.003 C 
ATOM     18  C   UNL     1     -23.386 -12.205 -15.484  1.00  0.00     0.004 C 
ENDBRANCH  16  17
ENDBRANCH  15  16
ENDBRANCH  14  15
ENDBRANCH  13  14
ENDBRANCH  12  13
ENDBRANCH  11  12
ENDBRANCH   1  11
TORSDOF 14
ENDMDL
MODEL 8
REMARK VINA RESULT:    -3.811      1.388      3.020
REMARK INTER + INTRA:          -9.304
REMARK INTER:                  -6.682
REMARK INTRA:                  -2.622
REMARK UNBOUND:                -2.373
REMARK SMILES CCCCCCCCCCCCCCCC(=O)[O-]
REMARK SMILES IDX 9 1 10 2 11 3 12 4 13 5 14 6 15 7 16 8 17 9 18 10 8 11 7 12
REMARK SMILES IDX 6 13 5 14 4 15 3 16 2 17 1 18
REMARK H PARENT
REMARK Flexibility Score: inf
ROOT
ATOM      1  C   UNL     1     -20.895 -14.128 -21.302  1.00  0.00     0.000 C 
ENDROOT
BRANCH   1   2
ATOM      2  C   UNL     1     -22.341 -14.562 -21.034  1.00  0.00     0.000 C 
BRANCH   2   3
ATOM      3  C   UNL     1     -22.980 -13.700 -19.934  1.00  0.00     0.000 C 
BRANCH   3   4
ATOM      4  C   UNL     1     -22.207 -12.395 -19.668  1.00  0.00     0.000 C 
BRANCH   4   5
ATOM      5  C   UNL     1     -22.019 -12.043 -18.181  1.00  0.00     0.000 C 
BRANCH   5   6
ATOM      6  C   UNL     1     -22.968 -12.823 -17.256  1.00  0.00     0.006 C 
BRANCH   6   7
ATOM      7  C   UNL     1     -22.234 -13.436 -16.056  1.00  0.00     0.053 C 
BRANCH   7   8
ATOM      8  C   UNL     1     -23.120 -13.527 -14.851  1.00  0.00     0.041 C 
ATOM      9  O   UNL     1     -23.263 -14.625 -14.252  1.00  0.00    -0.550 OA
ATOM     10  O   UNL     1     -23.816 -12.407 -14.413  1.00  0.00    -0.550 OA
ENDBRANCH   7   8
ENDBRANCH   6   7
ENDBRANCH   5   6
ENDBRANCH   4   5
ENDBRANCH   3   4
ENDBRANCH   2   3
ENDBRANCH   1   2
BRANCH   1  11
ATOM     11  C   UNL     1     -19.925 -15.304 -21.116  1.00  0.00     0.000 C 
BRANCH  11  12
ATOM     12  C   UNL     1     -18.680 -14.933 -20.288  1.00  0.00    -0.000 C 
BRANCH  12  13
ATOM     13  C   UNL     1     -18.872 -13.770 -19.297  1.00  0.00    -0.000 C 
BRANCH  13  14
ATOM     14  C   UNL     1     -19.025 -14.242 -17.840  1.00  0.00    -0.000 C 
BRANCH  14  15
ATOM     15  C   UNL     1     -19.019 -15.775 -17.702  1.00  0.00    -0.000 C 
BRANCH  15  16
ATOM     16  C   UNL     1     -20.287 -16.383 -17.072  1.00  0.00    -0.000 C 
BRANCH  16  17
ATOM     17  C   UNL     1     -21.215 -17.039 -18.104  1.00  0.00    -0.003 C 
ATOM     18  C   UNL     1     -22.663 -16.608 -17.896  1.00  0.00     0.004 C 
ENDBRANCH  16  17
ENDBRANCH  15  16
ENDBRANCH  14  15
ENDBRANCH  13  14
ENDBRANCH  12  13
ENDBRANCH  11  12
ENDBRANCH   1  11
TORSDOF 14
ENDMDL
MODEL 9
REMARK VINA RESULT:    -3.718      2.137      4.011
REMARK INTER + INTRA:          -9.134
REMARK INTER:                  -7.412
REMARK INTRA:                  -1.722
REMARK UNBOUND:                -2.373
REMARK SMILES CCCCCCCCCCCCCCCC(=O)[O-]
REMARK SMILES IDX 9 1 10 2 11 3 12 4 13 5 14 6 15 7 16 8 17 9 18 10 8 11 7 12
REMARK SMILES IDX 6 13 5 14 4 15 3 16 2 17 1 18
REMARK H PARENT
REMARK Flexibility Score: inf
ROOT
ATOM      1  C   UNL     1     -22.710 -13.200 -16.831  1.00  0.00     0.000 C 
ENDROOT
BRANCH   1   2
ATOM      2  C   UNL     1     -23.008 -12.619 -15.443  1.00  0.00     0.000 C 
BRANCH   2   3
ATOM      3  C   UNL     1     -23.448 -13.722 -14.468  1.00  0.00     0.000 C 
BRANCH   3   4
ATOM      4  C   UNL     1     -24.919 -13.587 -14.031  1.00  0.00     0.000 C 
BRANCH   4   5
ATOM      5  C   UNL     1     -25.661 -14.920 -13.828  1.00  0.00     0.000 C 
BRANCH   5   6
ATOM      6  C   UNL     1     -24.941 -16.112 -14.482  1.00  0.00     0.006 C 
BRANCH   6   7
ATOM      7  C   UNL     1     -24.991 -17.371 -13.604  1.00  0.00     0.053 C 
BRANCH   7   8
ATOM      8  C   UNL     1     -25.679 -18.505 -14.300  1.00  0.00     0.041 C 
ATOM      9  O   UNL     1     -26.783 -18.318 -14.876  1.00  0.00    -0.550 OA
ATOM     10  O   UNL     1     -25.119 -19.776 -14.281  1.00  0.00    -0.550 OA
ENDBRANCH   7   8
ENDBRANCH   6   7
ENDBRANCH   5   6
ENDBRANCH   4   5
ENDBRANCH   3   4
ENDBRANCH   2   3
ENDBRANCH   1   2
BRANCH   1  11
ATOM     11  C   UNL     1     -22.292 -14.675 -16.731  1.00  0.00     0.000 C 
BRANCH  11  12
ATOM     12  C   UNL     1     -20.905 -14.949 -17.340  1.00  0.00    -0.000 C 
BRANCH  12  13
ATOM     13  C   UNL     1     -19.936 -13.752 -17.337  1.00  0.00    -0.000 C 
BRANCH  13  14
ATOM     14  C   UNL     1     -19.358 -13.444 -18.730  1.00  0.00    -0.000 C 
BRANCH  14  15
ATOM     15  C   UNL     1     -20.154 -12.366 -19.486  1.00  0.00    -0.000 C 
BRANCH  15  16
ATOM     16  C   UNL     1     -20.992 -12.878 -20.672  1.00  0.00    -0.000 C 
BRANCH  16  17
ATOM     17  C   UNL     1     -22.485 -13.012 -20.338  1.00  0.00    -0.003 C 
ATOM     18  C   UNL     1     -22.938 -14.466 -20.416  1.00  0.00     0.004 C 
ENDBRANCH  16  17
ENDBRANCH  15  16
ENDBRANCH  14  15
ENDBRANCH  13  14
ENDBRANCH  12  13
ENDBRANCH  11  12
ENDBRANCH   1  11
TORSDOF 14
ENDMDL
