MODEL 1
REMARK VINA RESULT:    -2.806      0.000      0.000
REMARK INTER + INTRA:         -12.967
REMARK INTER:                  -7.070
REMARK INTRA:                  -5.896
REMARK UNBOUND:                -5.896
REMARK SMILES CCCCCCCCCCCCCCCCCCCCCCCCCCCC(=O)[O-]
REMARK SMILES IDX 15 1 16 2 17 3 18 4 19 5 20 6 21 7 22 8 23 9 24 10 25 11
REMARK SMILES IDX 26 12 27 13 28 14 29 15 30 16 14 17 13 18 12 19 11 20 10 21
REMARK SMILES IDX 9 22 8 23 7 24 6 25 5 26 4 27 3 28 2 29 1 30
REMARK H PARENT
REMARK Flexibility Score: inf
ROOT
ATOM      1  C   UNL     1      61.468  34.453  57.693  1.00  0.00     0.000 C 
ENDROOT
BRANCH   1   2
ATOM      2  C   UNL     1      61.331  32.976  57.268  1.00  0.00     0.000 C 
BRANCH   2   3
ATOM      3  C   UNL     1      59.939  32.348  57.488  1.00  0.00     0.000 C 
BRANCH   3   4
ATOM      4  C   UNL     1      59.853  31.340  58.656  1.00  0.00     0.000 C 
BRANCH   4   5
ATOM      5  C   UNL     1      61.117  31.249  59.526  1.00  0.00     0.000 C 
BRANCH   5   6
ATOM      6  C   UNL     1      60.795  31.052  61.016  1.00  0.00     0.000 C 
BRANCH   6   7
ATOM      7  C   UNL     1      61.767  30.078  61.703  1.00  0.00     0.000 C 
BRANCH   7   8
ATOM      8  C   UNL     1      62.567  29.242  60.688  1.00  0.00     0.000 C 
BRANCH   8   9
ATOM      9  C   UNL     1      62.623  27.748  61.057  1.00  0.00     0.000 C 
BRANCH   9  10
ATOM     10  C   UNL     1      61.302  26.975  60.865  1.00  0.00     0.000 C 
BRANCH  10  11
ATOM     11  C   UNL     1      60.782  26.917  59.417  1.00  0.00     0.000 C 
BRANCH  11  12
ATOM     12  C   UNL     1      59.457  27.676  59.226  1.00  0.00     0.006 C 
BRANCH  12  13
ATOM     13  C   UNL     1      58.770  27.982  60.564  1.00  0.00     0.053 C 
BRANCH  13  14
ATOM     14  C   UNL     1      57.481  27.230  60.706  1.00  0.00     0.041 C 
ATOM     15  O   UNL     1      56.943  27.100  61.839  1.00  0.00    -0.550 OA
ATOM     16  O   UNL     1      56.886  26.654  59.588  1.00  0.00    -0.550 OA
ENDBRANCH  13  14
ENDBRANCH  12  13
ENDBRANCH  11  12
ENDBRANCH  10  11
ENDBRANCH   9  10
ENDBRANCH   8   9
ENDBRANCH   7   8
ENDBRANCH   6   7
ENDBRANCH   5   6
ENDBRANCH   4   5
ENDBRANCH   3   4
ENDBRANCH   2   3
ENDBRANCH   1   2
BRANCH   1  17
ATOM     17  C   UNL     1      60.205  35.081  58.313  1.00  0.00     0.000 C 
BRANCH  17  18
ATOM     18  C   UNL     1      60.435  35.640  59.730  1.00  0.00     0.000 C 
BRANCH  18  19
ATOM     19  C   UNL     1      61.459  34.801  60.511  1.00  0.00     0.000 C 
BRANCH  19  20
ATOM     20  C   UNL     1      62.629  35.644  61.049  1.00  0.00     0.000 C 
BRANCH  20  21
ATOM     21  C   UNL     1      63.916  34.818  61.227  1.00  0.00     0.000 C 
BRANCH  21  22
ATOM     22  C   UNL     1      63.806  33.348  60.759  1.00  0.00    -0.000 C 
BRANCH  22  23
ATOM     23  C   UNL     1      64.464  33.043  59.398  1.00  0.00    -0.000 C 
BRANCH  23  24
ATOM     24  C   UNL     1      64.835  31.563  59.169  1.00  0.00    -0.000 C 
BRANCH  24  25
ATOM     25  C   UNL     1      64.527  31.024  57.758  1.00  0.00    -0.000 C 
BRANCH  25  26
ATOM     26  C   UNL     1      64.583  29.488  57.681  1.00  0.00    -0.000 C 
BRANCH  26  27
ATOM     27  C   UNL     1      63.665  28.915  56.589  1.00  0.00    -0.000 C 
BRANCH  27  28
ATOM     28  C   UNL     1      62.172  29.145  56.886  1.00  0.00    -0.000 C 
BRANCH  28  29
ATOM     29  C   UNL     1      61.267  28.652  55.746  1.00  0.00    -0.003 C 
ATOM     30  C   UNL     1      61.162  27.127  55.696  1.00  0.00     0.004 C 
ENDBRANCH  28  29
ENDBRANCH  27  28
ENDBRANCH  26  27
ENDBRANCH  25  26
ENDBRANCH  24  25
ENDBRANCH  23  24
ENDBRANCH  22  23
ENDBRANCH  21  22
ENDBRANCH  20  21
ENDBRANCH  19  20
ENDBRANCH  18  19
ENDBRANCH  17  18
ENDBRANCH   1  17
TORSDOF 26
ENDMDL
MODEL 2
REMARK VINA RESULT:    -2.803      8.240     11.741
REMARK INTER + INTRA:         -12.961
REMARK INTER:                  -8.790
REMARK INTRA:                  -4.171
REMARK UNBOUND:                -5.896
REMARK SMILES CCCCCCCCCCCCCCCCCCCCCCCCCCCC(=O)[O-]
REMARK SMILES IDX 15 1 16 2 17 3 18 4 19 5 20 6 21 7 22 8 23 9 24 10 25 11
REMARK SMILES IDX 26 12 27 13 28 14 29 15 30 16 14 17 13 18 12 19 11 20 10 21
REMARK SMILES IDX 9 22 8 23 7 24 6 25 5 26 4 27 3 28 2 29 1 30
REMARK H PARENT
REMARK Flexibility Score: inf
ROOT
ATOM      1  C   UNL     1      58.536  25.502  51.084  1.00  0.00     0.000 C 
ENDROOT
BRANCH   1   2
ATOM      2  C   UNL     1      59.930  25.939  51.582  1.00  0.00     0.000 C 
BRANCH   2   3
ATOM      3  C   UNL     1      60.218  25.664  53.073  1.00  0.00     0.000 C 
BRANCH   3   4
ATOM      4  C   UNL     1      61.527  24.893  53.355  1.00  0.00     0.000 C 
BRANCH   4   5
ATOM      5  C   UNL     1      61.530  23.429  52.886  1.00  0.00     0.000 C 
BRANCH   5   6
ATOM      6  C   UNL     1      62.483  23.190  51.704  1.00  0.00     0.000 C 
BRANCH   6   7
ATOM      7  C   UNL     1      61.732  23.006  50.374  1.00  0.00     0.000 C 
BRANCH   7   8
ATOM      8  C   UNL     1      60.416  22.227  50.550  1.00  0.00     0.000 C 
BRANCH   8   9
ATOM      9  C   UNL     1      60.444  20.845  49.873  1.00  0.00     0.000 C 
BRANCH   9  10
ATOM     10  C   UNL     1      61.217  19.753  50.640  1.00  0.00     0.000 C 
BRANCH  10  11
ATOM     11  C   UNL     1      60.363  18.888  51.586  1.00  0.00     0.000 C 
BRANCH  11  12
ATOM     12  C   UNL     1      58.910  18.730  51.105  1.00  0.00     0.006 C 
BRANCH  12  13
ATOM     13  C   UNL     1      57.903  19.283  52.121  1.00  0.00     0.053 C 
BRANCH  13  14
ATOM     14  C   UNL     1      56.500  18.872  51.787  1.00  0.00     0.041 C 
ATOM     15  O   UNL     1      56.244  18.326  50.681  1.00  0.00    -0.550 OA
ATOM     16  O   UNL     1      55.472  19.115  52.693  1.00  0.00    -0.550 OA
ENDBRANCH  13  14
ENDBRANCH  12  13
ENDBRANCH  11  12
ENDBRANCH  10  11
ENDBRANCH   9  10
ENDBRANCH   8   9
ENDBRANCH   7   8
ENDBRANCH   6   7
ENDBRANCH   5   6
ENDBRANCH   4   5
ENDBRANCH   3   4
ENDBRANCH   2   3
ENDBRANCH   1   2
BRANCH   1  17
ATOM     17  C   UNL     1      57.515  25.169  52.188  1.00  0.00     0.000 C 
BRANCH  17  18
ATOM     18  C   UNL     1      56.104  25.716  51.897  1.00  0.00     0.000 C 
BRANCH  18  19
ATOM     19  C   UNL     1      55.971  26.195  50.443  1.00  0.00     0.000 C 
BRANCH  19  20
ATOM     20  C   UNL     1      54.519  26.141  49.933  1.00  0.00     0.000 C 
BRANCH  20  21
ATOM     21  C   UNL     1      53.781  27.479  50.121  1.00  0.00     0.000 C 
BRANCH  21  22
ATOM     22  C   UNL     1      54.670  28.640  50.622  1.00  0.00    -0.000 C 
BRANCH  22  23
ATOM     23  C   UNL     1      53.919  29.768  51.360  1.00  0.00    -0.000 C 
BRANCH  23  24
ATOM     24  C   UNL     1      54.660  30.356  52.579  1.00  0.00    -0.000 C 
BRANCH  24  25
ATOM     25  C   UNL     1      55.350  29.318  53.485  1.00  0.00    -0.000 C 
BRANCH  25  26
ATOM     26  C   UNL     1      56.834  29.642  53.739  1.00  0.00    -0.000 C 
BRANCH  26  27
ATOM     27  C   UNL     1      57.783  28.750  52.923  1.00  0.00    -0.000 C 
BRANCH  27  28
ATOM     28  C   UNL     1      58.610  29.545  51.895  1.00  0.00    -0.000 C 
BRANCH  28  29
ATOM     29  C   UNL     1      58.231  29.198  50.447  1.00  0.00    -0.003 C 
ATOM     30  C   UNL     1      59.454  28.949  49.563  1.00  0.00     0.004 C 
ENDBRANCH  28  29
ENDBRANCH  27  28
ENDBRANCH  26  27
ENDBRANCH  25  26
ENDBRANCH  24  25
ENDBRANCH  23  24
ENDBRANCH  22  23
ENDBRANCH  21  22
ENDBRANCH  20  21
ENDBRANCH  19  20
ENDBRANCH  18  19
ENDBRANCH  17  18
ENDBRANCH   1  17
TORSDOF 26
ENDMDL
MODEL 3
REMARK VINA RESULT:    -2.780      9.140     12.500
REMARK INTER + INTRA:         -12.902
REMARK INTER:                  -9.466
REMARK INTRA:                  -3.436
REMARK UNBOUND:                -5.896
REMARK SMILES CCCCCCCCCCCCCCCCCCCCCCCCCCCC(=O)[O-]
REMARK SMILES IDX 15 1 16 2 17 3 18 4 19 5 20 6 21 7 22 8 23 9 24 10 25 11
REMARK SMILES IDX 26 12 27 13 28 14 29 15 30 16 14 17 13 18 12 19 11 20 10 21
REMARK SMILES IDX 9 22 8 23 7 24 6 25 5 26 4 27 3 28 2 29 1 30
REMARK H PARENT
REMARK Flexibility Score: inf
ROOT
ATOM      1  C   UNL     1      60.302  24.025  51.136  1.00  0.00     0.000 C 
ENDROOT
BRANCH   1   2
ATOM      2  C   UNL     1      61.488  23.208  50.580  1.00  0.00     0.000 C 
BRANCH   2   3
ATOM      3  C   UNL     1      61.113  22.088  49.587  1.00  0.00     0.000 C 
BRANCH   3   4
ATOM      4  C   UNL     1      61.558  20.668  50.003  1.00  0.00     0.000 C 
BRANCH   4   5
ATOM      5  C   UNL     1      60.429  19.626  50.059  1.00  0.00     0.000 C 
BRANCH   5   6
ATOM      6  C   UNL     1      60.862  18.323  50.748  1.00  0.00     0.000 C 
BRANCH   6   7
ATOM      7  C   UNL     1      60.241  17.078  50.092  1.00  0.00     0.000 C 
BRANCH   7   8
ATOM      8  C   UNL     1      58.827  17.351  49.547  1.00  0.00     0.000 C 
BRANCH   8   9
ATOM      9  C   UNL     1      57.732  17.180  50.615  1.00  0.00     0.000 C 
BRANCH   9  10
ATOM     10  C   UNL     1      56.723  18.343  50.712  1.00  0.00     0.000 C 
BRANCH  10  11
ATOM     11  C   UNL     1      56.481  18.883  52.133  1.00  0.00     0.000 C 
BRANCH  11  12
ATOM     12  C   UNL     1      57.752  18.879  53.000  1.00  0.00     0.006 C 
BRANCH  12  13
ATOM     13  C   UNL     1      58.404  20.266  53.075  1.00  0.00     0.053 C 
BRANCH  13  14
ATOM     14  C   UNL     1      59.780  20.199  53.666  1.00  0.00     0.041 C 
ATOM     15  O   UNL     1      60.127  19.201  54.353  1.00  0.00    -0.550 OA
ATOM     16  O   UNL     1      60.670  21.250  53.474  1.00  0.00    -0.550 OA
ENDBRANCH  13  14
ENDBRANCH  12  13
ENDBRANCH  11  12
ENDBRANCH  10  11
ENDBRANCH   9  10
ENDBRANCH   8   9
ENDBRANCH   7   8
ENDBRANCH   6   7
ENDBRANCH   5   6
ENDBRANCH   4   5
ENDBRANCH   3   4
ENDBRANCH   2   3
ENDBRANCH   1   2
BRANCH   1  17
ATOM     17  C   UNL     1      60.666  25.405  51.716  1.00  0.00     0.000 C 
BRANCH  17  18
ATOM     18  C   UNL     1      60.990  26.454  50.635  1.00  0.00     0.000 C 
BRANCH  18  19
ATOM     19  C   UNL     1      59.718  26.951  49.929  1.00  0.00     0.000 C 
BRANCH  19  20
ATOM     20  C   UNL     1      59.838  28.409  49.451  1.00  0.00     0.000 C 
BRANCH  20  21
ATOM     21  C   UNL     1      58.664  29.282  49.932  1.00  0.00     0.000 C 
BRANCH  21  22
ATOM     22  C   UNL     1      58.378  29.198  51.449  1.00  0.00    -0.000 C 
BRANCH  22  23
ATOM     23  C   UNL     1      56.895  29.348  51.846  1.00  0.00    -0.000 C 
BRANCH  23  24
ATOM     24  C   UNL     1      55.883  28.911  50.766  1.00  0.00    -0.000 C 
BRANCH  24  25
ATOM     25  C   UNL     1      54.766  27.973  51.262  1.00  0.00    -0.000 C 
BRANCH  25  26
ATOM     26  C   UNL     1      54.836  26.573  50.623  1.00  0.00    -0.000 C 
BRANCH  26  27
ATOM     27  C   UNL     1      56.274  26.040  50.520  1.00  0.00    -0.000 C 
BRANCH  27  28
ATOM     28  C   UNL     1      56.906  25.763  51.896  1.00  0.00    -0.000 C 
BRANCH  28  29
ATOM     29  C   UNL     1      55.948  25.019  52.840  1.00  0.00    -0.003 C 
ATOM     30  C   UNL     1      56.685  24.124  53.838  1.00  0.00     0.004 C 
ENDBRANCH  28  29
ENDBRANCH  27  28
ENDBRANCH  26  27
ENDBRANCH  25  26
ENDBRANCH  24  25
ENDBRANCH  23  24
ENDBRANCH  22  23
ENDBRANCH  21  22
ENDBRANCH  20  21
ENDBRANCH  19  20
ENDBRANCH  18  19
ENDBRANCH  17  18
ENDBRANCH   1  17
TORSDOF 26
ENDMDL
MODEL 4
REMARK VINA RESULT:    -2.752      8.376     12.287
REMARK INTER + INTRA:         -12.830
REMARK INTER:                  -9.391
REMARK INTRA:                  -3.440
REMARK UNBOUND:                -5.896
REMARK SMILES CCCCCCCCCCCCCCCCCCCCCCCCCCCC(=O)[O-]
REMARK SMILES IDX 15 1 16 2 17 3 18 4 19 5 20 6 21 7 22 8 23 9 24 10 25 11
REMARK SMILES IDX 26 12 27 13 28 14 29 15 30 16 14 17 13 18 12 19 11 20 10 21
REMARK SMILES IDX 9 22 8 23 7 24 6 25 5 26 4 27 3 28 2 29 1 30
REMARK H PARENT
REMARK Flexibility Score: inf
ROOT
ATOM      1  C   UNL     1      57.067  25.590  51.886  1.00  0.00     0.000 C 
ENDROOT
BRANCH   1   2
ATOM      2  C   UNL     1      56.699  25.936  50.427  1.00  0.00     0.000 C 
BRANCH   2   3
ATOM      3  C   UNL     1      55.190  26.085  50.142  1.00  0.00     0.000 C 
BRANCH   3   4
ATOM      4  C   UNL     1      54.629  27.514  50.311  1.00  0.00     0.000 C 
BRANCH   4   5
ATOM      5  C   UNL     1      53.890  27.766  51.636  1.00  0.00     0.000 C 
BRANCH   5   6
ATOM      6  C   UNL     1      54.794  28.402  52.704  1.00  0.00     0.000 C 
BRANCH   6   7
ATOM      7  C   UNL     1      55.712  29.491  52.123  1.00  0.00     0.000 C 
BRANCH   7   8
ATOM      8  C   UNL     1      57.052  29.585  52.873  1.00  0.00     0.000 C 
BRANCH   8   9
ATOM      9  C   UNL     1      58.242  29.086  52.035  1.00  0.00     0.000 C 
BRANCH   9  10
ATOM     10  C   UNL     1      58.030  29.121  50.507  1.00  0.00     0.000 C 
BRANCH  10  11
ATOM     11  C   UNL     1      59.317  29.226  49.669  1.00  0.00     0.000 C 
BRANCH  11  12
ATOM     12  C   UNL     1      60.550  29.605  50.509  1.00  0.00     0.006 C 
BRANCH  12  13
ATOM     13  C   UNL     1      61.607  28.493  50.517  1.00  0.00     0.053 C 
BRANCH  13  14
ATOM     14  C   UNL     1      62.488  28.579  51.727  1.00  0.00     0.041 C 
ATOM     15  O   UNL     1      63.300  29.533  51.854  1.00  0.00    -0.550 OA
ATOM     16  O   UNL     1      62.426  27.588  52.702  1.00  0.00    -0.550 OA
ENDBRANCH  13  14
ENDBRANCH  12  13
ENDBRANCH  11  12
ENDBRANCH  10  11
ENDBRANCH   9  10
ENDBRANCH   8   9
ENDBRANCH   7   8
ENDBRANCH   6   7
ENDBRANCH   5   6
ENDBRANCH   4   5
ENDBRANCH   3   4
ENDBRANCH   2   3
ENDBRANCH   1   2
BRANCH   1  17
ATOM     17  C   UNL     1      58.365  24.779  52.064  1.00  0.00     0.000 C 
BRANCH  17  18
ATOM     18  C   UNL     1      59.640  25.607  51.820  1.00  0.00     0.000 C 
BRANCH  18  19
ATOM     19  C   UNL     1      60.364  25.169  50.537  1.00  0.00     0.000 C 
BRANCH  19  20
ATOM     20  C   UNL     1      61.773  24.614  50.813  1.00  0.00     0.000 C 
BRANCH  20  21
ATOM     21  C   UNL     1      61.793  23.077  50.895  1.00  0.00     0.000 C 
BRANCH  21  22
ATOM     22  C   UNL     1      61.190  22.358  49.666  1.00  0.00    -0.000 C 
BRANCH  22  23
ATOM     23  C   UNL     1      60.389  21.079  49.983  1.00  0.00    -0.000 C 
BRANCH  23  24
ATOM     24  C   UNL     1      61.244  19.842  50.329  1.00  0.00    -0.000 C 
BRANCH  24  25
ATOM     25  C   UNL     1      60.461  18.519  50.436  1.00  0.00    -0.000 C 
BRANCH  25  26
ATOM     26  C   UNL     1      59.010  18.642  49.936  1.00  0.00    -0.000 C 
BRANCH  26  27
ATOM     27  C   UNL     1      58.016  17.852  50.801  1.00  0.00    -0.000 C 
BRANCH  27  28
ATOM     28  C   UNL     1      56.652  18.554  50.933  1.00  0.00    -0.000 C 
BRANCH  28  29
ATOM     29  C   UNL     1      56.476  19.237  52.299  1.00  0.00    -0.003 C 
ATOM     30  C   UNL     1      55.027  19.206  52.788  1.00  0.00     0.004 C 
ENDBRANCH  28  29
ENDBRANCH  27  28
ENDBRANCH  26  27
ENDBRANCH  25  26
ENDBRANCH  24  25
ENDBRANCH  23  24
ENDBRANCH  22  23
ENDBRANCH  21  22
ENDBRANCH  20  21
ENDBRANCH  19  20
ENDBRANCH  18  19
ENDBRANCH  17  18
ENDBRANCH   1  17
TORSDOF 26
ENDMDL
MODEL 5
REMARK VINA RESULT:    -2.694      7.790     11.277
REMARK INTER + INTRA:         -12.685
REMARK INTER:                  -7.031
REMARK INTRA:                  -5.655
REMARK UNBOUND:                -5.896
REMARK SMILES CCCCCCCCCCCCCCCCCCCCCCCCCCCC(=O)[O-]
REMARK SMILES IDX 15 1 16 2 17 3 18 4 19 5 20 6 21 7 22 8 23 9 24 10 25 11
REMARK SMILES IDX 26 12 27 13 28 14 29 15 30 16 14 17 13 18 12 19 11 20 10 21
REMARK SMILES IDX 9 22 8 23 7 24 6 25 5 26 4 27 3 28 2 29 1 30
REMARK H PARENT
REMARK Flexibility Score: inf
ROOT
ATOM      1  C   UNL     1      57.126  28.196  52.102  1.00  0.00     0.000 C 
ENDROOT
BRANCH   1   2
ATOM      2  C   UNL     1      58.252  29.186  52.465  1.00  0.00     0.000 C 
BRANCH   2   3
ATOM      3  C   UNL     1      59.133  29.651  51.285  1.00  0.00     0.000 C 
BRANCH   3   4
ATOM      4  C   UNL     1      58.912  28.886  49.962  1.00  0.00     0.000 C 
BRANCH   4   5
ATOM      5  C   UNL     1      60.094  28.009  49.516  1.00  0.00     0.000 C 
BRANCH   5   6
ATOM      6  C   UNL     1      59.912  26.532  49.903  1.00  0.00     0.000 C 
BRANCH   6   7
ATOM      7  C   UNL     1      61.118  25.977  50.680  1.00  0.00     0.000 C 
BRANCH   7   8
ATOM      8  C   UNL     1      60.770  25.656  52.144  1.00  0.00     0.000 C 
BRANCH   8   9
ATOM      9  C   UNL     1      60.963  26.862  53.082  1.00  0.00     0.000 C 
BRANCH   9  10
ATOM     10  C   UNL     1      62.378  27.476  53.079  1.00  0.00     0.000 C 
BRANCH  10  11
ATOM     11  C   UNL     1      62.432  28.994  52.821  1.00  0.00     0.000 C 
BRANCH  11  12
ATOM     12  C   UNL     1      62.891  29.343  51.395  1.00  0.00     0.006 C 
BRANCH  12  13
ATOM     13  C   UNL     1      64.303  28.822  51.099  1.00  0.00     0.053 C 
BRANCH  13  14
ATOM     14  C   UNL     1      64.296  27.803  49.999  1.00  0.00     0.041 C 
ATOM     15  O   UNL     1      64.849  26.683  50.167  1.00  0.00    -0.550 OA
ATOM     16  O   UNL     1      63.696  28.102  48.780  1.00  0.00    -0.550 OA
ENDBRANCH  13  14
ENDBRANCH  12  13
ENDBRANCH  11  12
ENDBRANCH  10  11
ENDBRANCH   9  10
ENDBRANCH   8   9
ENDBRANCH   7   8
ENDBRANCH   6   7
ENDBRANCH   5   6
ENDBRANCH   4   5
ENDBRANCH   3   4
ENDBRANCH   2   3
ENDBRANCH   1   2
BRANCH   1  17
ATOM     17  C   UNL     1      57.287  26.774  52.673  1.00  0.00     0.000 C 
BRANCH  17  18
ATOM     18  C   UNL     1      56.613  25.691  51.809  1.00  0.00     0.000 C 
BRANCH  18  19
ATOM     19  C   UNL     1      56.367  26.183  50.374  1.00  0.00     0.000 C 
BRANCH  19  20
ATOM     20  C   UNL     1      54.909  25.987  49.923  1.00  0.00     0.000 C 
BRANCH  20  21
ATOM     21  C   UNL     1      53.912  26.107  51.091  1.00  0.00     0.000 C 
BRANCH  21  22
ATOM     22  C   UNL     1      53.304  27.516  51.276  1.00  0.00    -0.000 C 
BRANCH  22  23
ATOM     23  C   UNL     1      53.933  28.621  50.403  1.00  0.00    -0.000 C 
BRANCH  23  24
ATOM     24  C   UNL     1      54.088  29.991  51.095  1.00  0.00    -0.000 C 
BRANCH  24  25
ATOM     25  C   UNL     1      53.779  29.997  52.605  1.00  0.00    -0.000 C 
BRANCH  25  26
ATOM     26  C   UNL     1      54.799  30.814  53.419  1.00  0.00    -0.000 C 
BRANCH  26  27
ATOM     27  C   UNL     1      55.345  30.043  54.631  1.00  0.00    -0.000 C 
BRANCH  27  28
ATOM     28  C   UNL     1      54.231  29.403  55.480  1.00  0.00    -0.000 C 
BRANCH  28  29
ATOM     29  C   UNL     1      54.565  27.961  55.891  1.00  0.00    -0.003 C 
ATOM     30  C   UNL     1      54.337  26.959  54.758  1.00  0.00     0.004 C 
ENDBRANCH  28  29
ENDBRANCH  27  28
ENDBRANCH  26  27
ENDBRANCH  25  26
ENDBRANCH  24  25
ENDBRANCH  23  24
ENDBRANCH  22  23
ENDBRANCH  21  22
ENDBRANCH  20  21
ENDBRANCH  19  20
ENDBRANCH  18  19
ENDBRANCH  17  18
ENDBRANCH   1  17
TORSDOF 26
ENDMDL
MODEL 6
REMARK VINA RESULT:    -2.681      7.489     11.526
REMARK INTER + INTRA:         -12.652
REMARK INTER:                  -7.925
REMARK INTRA:                  -4.728
REMARK UNBOUND:                -5.896
REMARK SMILES CCCCCCCCCCCCCCCCCCCCCCCCCCCC(=O)[O-]
REMARK SMILES IDX 15 1 16 2 17 3 18 4 19 5 20 6 21 7 22 8 23 9 24 10 25 11
REMARK SMILES IDX 26 12 27 13 28 14 29 15 30 16 14 17 13 18 12 19 11 20 10 21
REMARK SMILES IDX 9 22 8 23 7 24 6 25 5 26 4 27 3 28 2 29 1 30
REMARK H PARENT
REMARK Flexibility Score: inf
ROOT
ATOM      1  C   UNL     1      59.456  25.281  52.072  1.00  0.00     0.000 C 
ENDROOT
BRANCH   1   2
ATOM      2  C   UNL     1      60.411  26.187  51.266  1.00  0.00     0.000 C 
BRANCH   2   3
ATOM      3  C   UNL     1      59.889  26.642  49.887  1.00  0.00     0.000 C 
BRANCH   3   4
ATOM      4  C   UNL     1      60.162  28.123  49.540  1.00  0.00     0.000 C 
BRANCH   4   5
ATOM      5  C   UNL     1      58.934  29.044  49.628  1.00  0.00     0.000 C 
BRANCH   5   6
ATOM      6  C   UNL     1      58.429  29.219  51.069  1.00  0.00     0.000 C 
BRANCH   6   7
ATOM      7  C   UNL     1      59.299  30.195  51.881  1.00  0.00     0.000 C 
BRANCH   7   8
ATOM      8  C   UNL     1      60.161  29.472  52.931  1.00  0.00     0.000 C 
BRANCH   8   9
ATOM      9  C   UNL     1      61.586  30.045  53.032  1.00  0.00     0.000 C 
BRANCH   9  10
ATOM     10  C   UNL     1      62.462  29.851  51.777  1.00  0.00     0.000 C 
BRANCH  10  11
ATOM     11  C   UNL     1      62.570  31.080  50.857  1.00  0.00     0.000 C 
BRANCH  11  12
ATOM     12  C   UNL     1      62.508  32.411  51.625  1.00  0.00     0.006 C 
BRANCH  12  13
ATOM     13  C   UNL     1      63.257  33.534  50.896  1.00  0.00     0.053 C 
BRANCH  13  14
ATOM     14  C   UNL     1      62.367  34.252  49.926  1.00  0.00     0.041 C 
ATOM     15  O   UNL     1      62.216  33.810  48.755  1.00  0.00    -0.550 OA
ATOM     16  O   UNL     1      61.722  35.422  50.312  1.00  0.00    -0.550 OA
ENDBRANCH  13  14
ENDBRANCH  12  13
ENDBRANCH  11  12
ENDBRANCH  10  11
ENDBRANCH   9  10
ENDBRANCH   8   9
ENDBRANCH   7   8
ENDBRANCH   6   7
ENDBRANCH   5   6
ENDBRANCH   4   5
ENDBRANCH   3   4
ENDBRANCH   2   3
ENDBRANCH   1   2
BRANCH   1  17
ATOM     17  C   UNL     1      58.641  25.992  53.170  1.00  0.00     0.000 C 
BRANCH  17  18
ATOM     18  C   UNL     1      57.247  26.445  52.697  1.00  0.00     0.000 C 
BRANCH  18  19
ATOM     19  C   UNL     1      56.702  25.535  51.585  1.00  0.00     0.000 C 
BRANCH  19  20
ATOM     20  C   UNL     1      56.190  26.327  50.369  1.00  0.00     0.000 C 
BRANCH  20  21
ATOM     21  C   UNL     1      54.781  25.887  49.932  1.00  0.00     0.000 C 
BRANCH  21  22
ATOM     22  C   UNL     1      53.716  27.007  49.970  1.00  0.00    -0.000 C 
BRANCH  22  23
ATOM     23  C   UNL     1      54.253  28.410  50.322  1.00  0.00    -0.000 C 
BRANCH  23  24
ATOM     24  C   UNL     1      53.204  29.385  50.896  1.00  0.00    -0.000 C 
BRANCH  24  25
ATOM     25  C   UNL     1      53.648  30.152  52.157  1.00  0.00    -0.000 C 
BRANCH  25  26
ATOM     26  C   UNL     1      55.154  30.010  52.441  1.00  0.00    -0.000 C 
BRANCH  26  27
ATOM     27  C   UNL     1      55.442  29.395  53.820  1.00  0.00    -0.000 C 
BRANCH  27  28
ATOM     28  C   UNL     1      56.726  29.949  54.462  1.00  0.00    -0.000 C 
BRANCH  28  29
ATOM     29  C   UNL     1      56.577  31.416  54.896  1.00  0.00    -0.003 C 
ATOM     30  C   UNL     1      57.523  32.351  54.140  1.00  0.00     0.004 C 
ENDBRANCH  28  29
ENDBRANCH  27  28
ENDBRANCH  26  27
ENDBRANCH  25  26
ENDBRANCH  24  25
ENDBRANCH  23  24
ENDBRANCH  22  23
ENDBRANCH  21  22
ENDBRANCH  20  21
ENDBRANCH  19  20
ENDBRANCH  18  19
ENDBRANCH  17  18
ENDBRANCH   1  17
TORSDOF 26
ENDMDL
MODEL 7
REMARK VINA RESULT:    -2.674      7.086     10.986
REMARK INTER + INTRA:         -12.634
REMARK INTER:                  -7.163
REMARK INTRA:                  -5.471
REMARK UNBOUND:                -5.896
REMARK SMILES CCCCCCCCCCCCCCCCCCCCCCCCCCCC(=O)[O-]
REMARK SMILES IDX 15 1 16 2 17 3 18 4 19 5 20 6 21 7 22 8 23 9 24 10 25 11
REMARK SMILES IDX 26 12 27 13 28 14 29 15 30 16 14 17 13 18 12 19 11 20 10 21
REMARK SMILES IDX 9 22 8 23 7 24 6 25 5 26 4 27 3 28 2 29 1 30
REMARK H PARENT
REMARK Flexibility Score: inf
ROOT
ATOM      1  C   UNL     1      58.193  29.481  52.027  1.00  0.00     0.000 C 
ENDROOT
BRANCH   1   2
ATOM      2  C   UNL     1      58.216  29.220  50.506  1.00  0.00     0.000 C 
BRANCH   2   3
ATOM      3  C   UNL     1      59.567  28.740  49.936  1.00  0.00     0.000 C 
BRANCH   3   4
ATOM      4  C   UNL     1      59.659  27.223  49.658  1.00  0.00     0.000 C 
BRANCH   4   5
ATOM      5  C   UNL     1      60.978  26.564  50.093  1.00  0.00     0.000 C 
BRANCH   5   6
ATOM      6  C   UNL     1      61.968  27.571  50.700  1.00  0.00     0.000 C 
BRANCH   6   7
ATOM      7  C   UNL     1      63.188  27.812  49.794  1.00  0.00     0.000 C 
BRANCH   7   8
ATOM      8  C   UNL     1      64.471  28.076  50.602  1.00  0.00     0.000 C 
BRANCH   8   9
ATOM      9  C   UNL     1      65.154  29.402  50.223  1.00  0.00     0.000 C 
BRANCH   9  10
ATOM     10  C   UNL     1      64.350  30.304  49.265  1.00  0.00     0.000 C 
BRANCH  10  11
ATOM     11  C   UNL     1      63.715  31.548  49.915  1.00  0.00     0.000 C 
BRANCH  11  12
ATOM     12  C   UNL     1      62.328  31.267  50.518  1.00  0.00     0.006 C 
BRANCH  12  13
ATOM     13  C   UNL     1      62.198  31.813  51.946  1.00  0.00     0.053 C 
BRANCH  13  14
ATOM     14  C   UNL     1      63.180  31.165  52.875  1.00  0.00     0.041 C 
ATOM     15  O   UNL     1      63.055  29.950  53.185  1.00  0.00    -0.550 OA
ATOM     16  O   UNL     1      64.220  31.913  53.417  1.00  0.00    -0.550 OA
ENDBRANCH  13  14
ENDBRANCH  12  13
ENDBRANCH  11  12
ENDBRANCH  10  11
ENDBRANCH   9  10
ENDBRANCH   8   9
ENDBRANCH   7   8
ENDBRANCH   6   7
ENDBRANCH   5   6
ENDBRANCH   4   5
ENDBRANCH   3   4
ENDBRANCH   2   3
ENDBRANCH   1   2
BRANCH   1  17
ATOM     17  C   UNL     1      59.561  29.401  52.731  1.00  0.00     0.000 C 
BRANCH  17  18
ATOM     18  C   UNL     1      59.710  28.162  53.634  1.00  0.00     0.000 C 
BRANCH  18  19
ATOM     19  C   UNL     1      58.465  27.263  53.572  1.00  0.00     0.000 C 
BRANCH  19  20
ATOM     20  C   UNL     1      58.792  25.829  53.119  1.00  0.00     0.000 C 
BRANCH  20  21
ATOM     21  C   UNL     1      57.887  25.357  51.966  1.00  0.00     0.000 C 
BRANCH  21  22
ATOM     22  C   UNL     1      56.544  26.113  51.851  1.00  0.00    -0.000 C 
BRANCH  22  23
ATOM     23  C   UNL     1      55.961  26.202  50.425  1.00  0.00    -0.000 C 
BRANCH  23  24
ATOM     24  C   UNL     1      54.585  26.891  50.324  1.00  0.00    -0.000 C 
BRANCH  24  25
ATOM     25  C   UNL     1      54.621  28.431  50.383  1.00  0.00    -0.000 C 
BRANCH  25  26
ATOM     26  C   UNL     1      53.246  29.048  50.698  1.00  0.00    -0.000 C 
BRANCH  26  27
ATOM     27  C   UNL     1      53.212  29.757  52.060  1.00  0.00    -0.000 C 
BRANCH  27  28
ATOM     28  C   UNL     1      54.584  30.321  52.472  1.00  0.00    -0.000 C 
BRANCH  28  29
ATOM     29  C   UNL     1      54.972  29.925  53.905  1.00  0.00    -0.003 C 
ATOM     30  C   UNL     1      54.874  28.417  54.145  1.00  0.00     0.004 C 
ENDBRANCH  28  29
ENDBRANCH  27  28
ENDBRANCH  26  27
ENDBRANCH  25  26
ENDBRANCH  24  25
ENDBRANCH  23  24
ENDBRANCH  22  23
ENDBRANCH  21  22
ENDBRANCH  20  21
ENDBRANCH  19  20
ENDBRANCH  18  19
ENDBRANCH  17  18
ENDBRANCH   1  17
TORSDOF 26
ENDMDL
MODEL 8
REMARK VINA RESULT:    -2.673      7.647     11.001
REMARK INTER + INTRA:         -12.632
REMARK INTER:                  -7.789
REMARK INTRA:                  -4.843
REMARK UNBOUND:                -5.896
REMARK SMILES CCCCCCCCCCCCCCCCCCCCCCCCCCCC(=O)[O-]
REMARK SMILES IDX 15 1 16 2 17 3 18 4 19 5 20 6 21 7 22 8 23 9 24 10 25 11
REMARK SMILES IDX 26 12 27 13 28 14 29 15 30 16 14 17 13 18 12 19 11 20 10 21
REMARK SMILES IDX 9 22 8 23 7 24 6 25 5 26 4 27 3 28 2 29 1 30
REMARK H PARENT
REMARK Flexibility Score: inf
ROOT
ATOM      1  C   UNL     1      56.743  25.881  52.836  1.00  0.00     0.000 C 
ENDROOT
BRANCH   1   2
ATOM      2  C   UNL     1      57.713  26.672  53.739  1.00  0.00     0.000 C 
BRANCH   2   3
ATOM      3  C   UNL     1      58.804  27.474  52.999  1.00  0.00     0.000 C 
BRANCH   3   4
ATOM      4  C   UNL     1      58.829  28.987  53.310  1.00  0.00     0.000 C 
BRANCH   4   5
ATOM      5  C   UNL     1      58.638  29.902  52.089  1.00  0.00     0.000 C 
BRANCH   5   6
ATOM      6  C   UNL     1      58.150  29.136  50.849  1.00  0.00     0.000 C 
BRANCH   6   7
ATOM      7  C   UNL     1      59.195  29.121  49.720  1.00  0.00     0.000 C 
BRANCH   7   8
ATOM      8  C   UNL     1      59.884  27.752  49.581  1.00  0.00     0.000 C 
BRANCH   8   9
ATOM      9  C   UNL     1      61.291  27.724  50.202  1.00  0.00     0.000 C 
BRANCH   9  10
ATOM     10  C   UNL     1      61.919  26.322  50.345  1.00  0.00     0.000 C 
BRANCH  10  11
ATOM     11  C   UNL     1      61.311  25.442  51.453  1.00  0.00     0.000 C 
BRANCH  11  12
ATOM     12  C   UNL     1      60.497  24.260  50.899  1.00  0.00     0.006 C 
BRANCH  12  13
ATOM     13  C   UNL     1      61.169  22.911  51.188  1.00  0.00     0.053 C 
BRANCH  13  14
ATOM     14  C   UNL     1      60.776  21.872  50.182  1.00  0.00     0.041 C 
ATOM     15  O   UNL     1      60.111  20.863  50.537  1.00  0.00    -0.550 OA
ATOM     16  O   UNL     1      61.166  22.010  48.853  1.00  0.00    -0.550 OA
ENDBRANCH  13  14
ENDBRANCH  12  13
ENDBRANCH  11  12
ENDBRANCH  10  11
ENDBRANCH   9  10
ENDBRANCH   8   9
ENDBRANCH   7   8
ENDBRANCH   6   7
ENDBRANCH   5   6
ENDBRANCH   4   5
ENDBRANCH   3   4
ENDBRANCH   2   3
ENDBRANCH   1   2
BRANCH   1  17
ATOM     17  C   UNL     1      57.187  25.723  51.370  1.00  0.00     0.000 C 
BRANCH  17  18
ATOM     18  C   UNL     1      56.122  26.185  50.358  1.00  0.00     0.000 C 
BRANCH  18  19
ATOM     19  C   UNL     1      54.992  26.971  51.043  1.00  0.00     0.000 C 
BRANCH  19  20
ATOM     20  C   UNL     1      53.894  27.408  50.058  1.00  0.00     0.000 C 
BRANCH  20  21
ATOM     21  C   UNL     1      53.331  28.803  50.388  1.00  0.00     0.000 C 
BRANCH  21  22
ATOM     22  C   UNL     1      54.374  29.807  50.929  1.00  0.00    -0.000 C 
BRANCH  22  23
ATOM     23  C   UNL     1      54.100  30.334  52.352  1.00  0.00    -0.000 C 
BRANCH  23  24
ATOM     24  C   UNL     1      55.282  30.205  53.335  1.00  0.00    -0.000 C 
BRANCH  24  25
ATOM     25  C   UNL     1      55.065  29.202  54.486  1.00  0.00    -0.000 C 
BRANCH  25  26
ATOM     26  C   UNL     1      55.968  29.484  55.700  1.00  0.00    -0.000 C 
BRANCH  26  27
ATOM     27  C   UNL     1      56.202  28.236  56.567  1.00  0.00    -0.000 C 
BRANCH  27  28
ATOM     28  C   UNL     1      54.898  27.492  56.904  1.00  0.00    -0.000 C 
BRANCH  28  29
ATOM     29  C   UNL     1      54.949  26.010  56.498  1.00  0.00    -0.003 C 
ATOM     30  C   UNL     1      56.261  25.336  56.901  1.00  0.00     0.004 C 
ENDBRANCH  28  29
ENDBRANCH  27  28
ENDBRANCH  26  27
ENDBRANCH  25  26
ENDBRANCH  24  25
ENDBRANCH  23  24
ENDBRANCH  22  23
ENDBRANCH  21  22
ENDBRANCH  20  21
ENDBRANCH  19  20
ENDBRANCH  18  19
ENDBRANCH  17  18
ENDBRANCH   1  17
TORSDOF 26
ENDMDL
MODEL 9
REMARK VINA RESULT:    -2.672      6.592     10.298
REMARK INTER + INTRA:         -12.630
REMARK INTER:                  -7.142
REMARK INTRA:                  -5.488
REMARK UNBOUND:                -5.896
REMARK SMILES CCCCCCCCCCCCCCCCCCCCCCCCCCCC(=O)[O-]
REMARK SMILES IDX 15 1 16 2 17 3 18 4 19 5 20 6 21 7 22 8 23 9 24 10 25 11
REMARK SMILES IDX 26 12 27 13 28 14 29 15 30 16 14 17 13 18 12 19 11 20 10 21
REMARK SMILES IDX 9 22 8 23 7 24 6 25 5 26 4 27 3 28 2 29 1 30
REMARK H PARENT
REMARK Flexibility Score: inf
ROOT
ATOM      1  C   UNL     1      54.652  25.532  51.988  1.00  0.00     0.000 C 
ENDROOT
BRANCH   1   2
ATOM      2  C   UNL     1      54.926  25.961  50.532  1.00  0.00     0.000 C 
BRANCH   2   3
ATOM      3  C   UNL     1      54.035  27.102  49.998  1.00  0.00     0.000 C 
BRANCH   3   4
ATOM      4  C   UNL     1      53.624  28.158  51.048  1.00  0.00     0.000 C 
BRANCH   4   5
ATOM      5  C   UNL     1      54.078  29.593  50.734  1.00  0.00     0.000 C 
BRANCH   5   6
ATOM      6  C   UNL     1      53.886  30.546  51.924  1.00  0.00     0.000 C 
BRANCH   6   7
ATOM      7  C   UNL     1      53.840  29.802  53.270  1.00  0.00     0.000 C 
BRANCH   7   8
ATOM      8  C   UNL     1      54.628  30.536  54.370  1.00  0.00     0.000 C 
BRANCH   8   9
ATOM      9  C   UNL     1      55.341  31.798  53.853  1.00  0.00     0.000 C 
BRANCH   9  10
ATOM     10  C   UNL     1      56.457  32.342  54.767  1.00  0.00     0.000 C 
BRANCH  10  11
ATOM     11  C   UNL     1      57.762  31.525  54.765  1.00  0.00     0.000 C 
BRANCH  11  12
ATOM     12  C   UNL     1      58.778  32.021  53.721  1.00  0.00     0.006 C 
BRANCH  12  13
ATOM     13  C   UNL     1      58.861  33.552  53.680  1.00  0.00     0.053 C 
BRANCH  13  14
ATOM     14  C   UNL     1      60.263  34.023  53.436  1.00  0.00     0.041 C 
ATOM     15  O   UNL     1      61.056  33.327  52.746  1.00  0.00    -0.550 OA
ATOM     16  O   UNL     1      60.700  35.220  53.993  1.00  0.00    -0.550 OA
ENDBRANCH  13  14
ENDBRANCH  12  13
ENDBRANCH  11  12
ENDBRANCH  10  11
ENDBRANCH   9  10
ENDBRANCH   8   9
ENDBRANCH   7   8
ENDBRANCH   6   7
ENDBRANCH   5   6
ENDBRANCH   4   5
ENDBRANCH   3   4
ENDBRANCH   2   3
ENDBRANCH   1   2
BRANCH   1  17
ATOM     17  C   UNL     1      55.888  25.489  52.907  1.00  0.00     0.000 C 
BRANCH  17  18
ATOM     18  C   UNL     1      57.021  26.427  52.449  1.00  0.00     0.000 C 
BRANCH  18  19
ATOM     19  C   UNL     1      56.822  27.856  52.979  1.00  0.00     0.000 C 
BRANCH  19  20
ATOM     20  C   UNL     1      57.625  28.900  52.181  1.00  0.00     0.000 C 
BRANCH  20  21
ATOM     21  C   UNL     1      57.563  28.653  50.663  1.00  0.00     0.000 C 
BRANCH  21  22
ATOM     22  C   UNL     1      58.769  29.208  49.871  1.00  0.00    -0.000 C 
BRANCH  22  23
ATOM     23  C   UNL     1      59.866  28.176  49.539  1.00  0.00    -0.000 C 
BRANCH  23  24
ATOM     24  C   UNL     1      59.474  26.704  49.784  1.00  0.00    -0.000 C 
BRANCH  24  25
ATOM     25  C   UNL     1      60.416  25.927  50.724  1.00  0.00    -0.000 C 
BRANCH  25  26
ATOM     26  C   UNL     1      61.309  26.852  51.572  1.00  0.00    -0.000 C 
BRANCH  26  27
ATOM     27  C   UNL     1      60.995  26.766  53.073  1.00  0.00    -0.000 C 
BRANCH  27  28
ATOM     28  C   UNL     1      60.726  28.144  53.705  1.00  0.00    -0.000 C 
BRANCH  28  29
ATOM     29  C   UNL     1      61.173  29.300  52.797  1.00  0.00    -0.003 C 
ATOM     30  C   UNL     1      62.474  29.950  53.271  1.00  0.00     0.004 C 
ENDBRANCH  28  29
ENDBRANCH  27  28
ENDBRANCH  26  27
ENDBRANCH  25  26
ENDBRANCH  24  25
ENDBRANCH  23  24
ENDBRANCH  22  23
ENDBRANCH  21  22
ENDBRANCH  20  21
ENDBRANCH  19  20
ENDBRANCH  18  19
ENDBRANCH  17  18
ENDBRANCH   1  17
TORSDOF 26
ENDMDL
