MODEL 1
REMARK VINA RESULT:    34.435      0.000      0.000
REMARK INTER + INTRA:          42.118
REMARK INTER:                  42.487
REMARK INTRA:                  -0.369
REMARK UNBOUND:                -0.369
REMARK SMILES Oc1cc(O)c2cc(O)c(-c3cc(O)c(O)c(O)c3)[o+]c2c1
REMARK SMILES IDX 10 1 20 2 21 3 22 4 2 5 3 6 4 7 6 8 7 9 8 10 11 11 12 12
REMARK SMILES IDX 13 13 19 14 15 15 17 16 14 17 16 19 18 21 9 23 1 25 5 27
REMARK H PARENT 14 18 16 20 18 22 9 24 1 26 5 28
REMARK Flexibility Score: inf
ROOT
ATOM      1  C   UNL     1     -38.790  25.002   4.258  1.00  0.00     0.402 A 
ATOM      2  O   UNL     1     -38.317  24.820   3.028  1.00  0.00    -0.202 OA
ATOM      3  C   UNL     1     -38.506  25.687   2.038  1.00  0.00     0.368 A 
ATOM      4  C   UNL     1     -37.968  25.409   0.779  1.00  0.00     0.162 A 
ATOM      5  C   UNL     1     -38.147  26.302  -0.278  1.00  0.00     0.128 A 
ATOM      6  C   UNL     1     -38.868  27.484  -0.076  1.00  0.00     0.093 A 
ATOM      7  C   UNL     1     -39.417  27.786   1.177  1.00  0.00     0.136 A 
ATOM      8  C   UNL     1     -39.240  26.879   2.253  1.00  0.00     0.125 A 
ATOM      9  C   UNL     1     -39.764  27.094   3.538  1.00  0.00     0.078 A 
ATOM     10  C   UNL     1     -39.551  26.150   4.548  1.00  0.00     0.223 A 
ENDROOT
BRANCH   1  11
ATOM     11  C   UNL     1     -38.505  23.968   5.278  1.00  0.00     0.091 A 
ATOM     12  C   UNL     1     -39.436  22.942   5.500  1.00  0.00     0.068 A 
ATOM     13  C   UNL     1     -39.181  21.940   6.445  1.00  0.00     0.162 A 
ATOM     14  C   UNL     1     -37.293  23.957   5.992  1.00  0.00     0.068 A 
ATOM     15  C   UNL     1     -37.982  21.947   7.169  1.00  0.00     0.200 A 
ATOM     16  C   UNL     1     -37.033  22.956   6.938  1.00  0.00     0.162 A 
BRANCH  13  17
ATOM     17  O   UNL     1     -40.118  20.932   6.672  1.00  0.00    -0.504 OA
ATOM     18  H   UNL     1     -41.014  21.127   7.103  1.00  0.00     0.293 HD
ENDBRANCH  13  17
BRANCH  15  19
ATOM     19  O   UNL     1     -37.747  20.942   8.108  1.00  0.00    -0.502 OA
ATOM     20  H   UNL     1     -37.592  21.146   9.088  1.00  0.00     0.293 HD
ENDBRANCH  15  19
BRANCH  16  21
ATOM     21  O   UNL     1     -35.832  22.958   7.645  1.00  0.00    -0.504 OA
ATOM     22  H   UNL     1     -35.731  22.463   8.524  1.00  0.00     0.293 HD
ENDBRANCH  16  21
ENDBRANCH   1  11
BRANCH  10  23
ATOM     23  O   UNL     1     -40.114  26.338   5.811  1.00  0.00    -0.500 OA
ATOM     24  H   UNL     1     -40.183  25.582   6.481  1.00  0.00     0.294 HD
ENDBRANCH  10  23
BRANCH   5  25
ATOM     25  O   UNL     1     -37.603  26.007  -1.526  1.00  0.00    -0.507 OA
ATOM     26  H   UNL     1     -36.744  26.439  -1.846  1.00  0.00     0.293 HD
ENDBRANCH   5  25
BRANCH   7  27
ATOM     27  O   UNL     1     -40.121  28.988   1.298  1.00  0.00    -0.507 OA
ATOM     28  H   UNL     1     -40.923  29.121   1.897  1.00  0.00     0.293 HD
ENDBRANCH   7  27
TORSDOF 7
ENDMDL
