MODEL 1
REMARK VINA RESULT:    -4.239      0.000      0.000
REMARK INTER + INTRA:          -5.122
REMARK INTER:                  -4.983
REMARK INTRA:                  -0.139
REMARK UNBOUND:                -0.139
REMARK SMILES O=C([O-])C=Cc1ccc(O)c(O)c1
REMARK SMILES IDX 6 1 13 2 7 3 11 4 8 5 9 6 5 7 4 8 2 9 1 10 3 11 12 12 10 14
REMARK H PARENT 12 13 10 15
REMARK Flexibility Score: inf
ROOT
ATOM      1  C   UNL     1      24.112   5.080  23.730  1.00  0.00    -0.022 A 
ATOM      2  C   UNL     1      24.690   4.039  22.984  1.00  0.00     0.058 A 
ATOM      3  C   UNL     1      24.709   6.355  23.695  1.00  0.00     0.012 A 
ATOM      4  C   UNL     1      25.856   4.257  22.236  1.00  0.00     0.157 A 
ATOM      5  C   UNL     1      25.871   6.571  22.949  1.00  0.00     0.051 A 
ATOM      6  C   UNL     1      26.449   5.525  22.221  1.00  0.00     0.157 A 
ENDROOT
BRANCH   1   7
ATOM      7  C   UNL     1      22.872   4.799  24.497  1.00  0.00     0.010 C 
ATOM      8  C   UNL     1      21.869   5.678  24.637  1.00  0.00     0.025 C 
BRANCH   8   9
ATOM      9  C   UNL     1      20.658   5.369  25.416  1.00  0.00     0.064 C 
ATOM     10  O   UNL     1      20.670   4.491  26.320  1.00  0.00    -0.545 OA
ATOM     11  O   UNL     1      19.481   6.056  25.148  1.00  0.00    -0.545 OA
ENDBRANCH   8   9
ENDBRANCH   1   7
BRANCH   4  12
ATOM     12  O   UNL     1      26.431   3.217  21.506  1.00  0.00    -0.504 OA
ATOM     13  H   UNL     1      27.410   3.228  21.248  1.00  0.00     0.293 HD
ENDBRANCH   4  12
BRANCH   6  14
ATOM     14  O   UNL     1      27.608   5.737  21.477  1.00  0.00    -0.504 OA
ATOM     15  H   UNL     1      28.436   6.149  21.892  1.00  0.00     0.293 HD
ENDBRANCH   6  14
TORSDOF 4
ENDMDL
MODEL 2
REMARK VINA RESULT:    -4.215      2.327      5.970
REMARK INTER + INTRA:          -5.094
REMARK INTER:                  -4.961
REMARK INTRA:                  -0.133
REMARK UNBOUND:                -0.139
REMARK SMILES O=C([O-])C=Cc1ccc(O)c(O)c1
REMARK SMILES IDX 6 1 13 2 7 3 11 4 8 5 9 6 5 7 4 8 2 9 1 10 3 11 12 12 10 14
REMARK H PARENT 12 13 10 15
REMARK Flexibility Score: inf
ROOT
ATOM      1  C   UNL     1      23.215   3.847  24.955  1.00  0.00    -0.022 A 
ATOM      2  C   UNL     1      23.697   2.717  25.637  1.00  0.00     0.058 A 
ATOM      3  C   UNL     1      22.115   4.547  25.490  1.00  0.00     0.012 A 
ATOM      4  C   UNL     1      23.080   2.276  26.817  1.00  0.00     0.157 A 
ATOM      5  C   UNL     1      21.501   4.106  26.666  1.00  0.00     0.051 A 
ATOM      6  C   UNL     1      21.979   2.971  27.330  1.00  0.00     0.157 A 
ENDROOT
BRANCH   1   7
ATOM      7  C   UNL     1      23.910   4.279  23.716  1.00  0.00     0.010 C 
ATOM      8  C   UNL     1      25.095   3.793  23.319  1.00  0.00     0.025 C 
BRANCH   8   9
ATOM      9  C   UNL     1      25.760   4.254  22.089  1.00  0.00     0.064 C 
ATOM     10  O   UNL     1      26.259   3.435  21.271  1.00  0.00    -0.545 OA
ATOM     11  O   UNL     1      25.842   5.615  21.826  1.00  0.00    -0.545 OA
ENDBRANCH   8   9
ENDBRANCH   1   7
BRANCH   4  12
ATOM     12  O   UNL     1      23.558   1.148  27.483  1.00  0.00    -0.504 OA
ATOM     13  H   UNL     1      22.954   0.364  27.697  1.00  0.00     0.293 HD
ENDBRANCH   4  12
BRANCH   6  14
ATOM     14  O   UNL     1      21.368   2.528  28.502  1.00  0.00    -0.504 OA
ATOM     15  H   UNL     1      20.634   1.829  28.485  1.00  0.00     0.293 HD
ENDBRANCH   6  14
TORSDOF 4
ENDMDL
MODEL 3
REMARK VINA RESULT:    -4.071      1.724      2.011
REMARK INTER + INTRA:          -4.924
REMARK INTER:                  -4.797
REMARK INTRA:                  -0.128
REMARK UNBOUND:                -0.139
REMARK SMILES O=C([O-])C=Cc1ccc(O)c(O)c1
REMARK SMILES IDX 6 1 13 2 7 3 11 4 8 5 9 6 5 7 4 8 2 9 1 10 3 11 12 12 10 14
REMARK H PARENT 12 13 10 15
REMARK Flexibility Score: inf
ROOT
ATOM      1  C   UNL     1      24.289   4.506  23.971  1.00  0.00    -0.022 A 
ATOM      2  C   UNL     1      25.025   3.799  23.005  1.00  0.00     0.058 A 
ATOM      3  C   UNL     1      24.437   5.905  24.049  1.00  0.00     0.012 A 
ATOM      4  C   UNL     1      25.911   4.469  22.148  1.00  0.00     0.157 A 
ATOM      5  C   UNL     1      25.320   6.571  23.194  1.00  0.00     0.051 A 
ATOM      6  C   UNL     1      26.060   5.857  22.245  1.00  0.00     0.157 A 
ENDROOT
BRANCH   1   7
ATOM      7  C   UNL     1      23.357   3.752  24.846  1.00  0.00     0.010 C 
ATOM      8  C   UNL     1      23.433   3.746  26.185  1.00  0.00     0.025 C 
BRANCH   8   9
ATOM      9  C   UNL     1      22.498   2.976  27.021  1.00  0.00     0.064 C 
ATOM     10  O   UNL     1      22.719   1.768  27.305  1.00  0.00    -0.545 OA
ATOM     11  O   UNL     1      21.350   3.590  27.505  1.00  0.00    -0.545 OA
ENDBRANCH   8   9
ENDBRANCH   1   7
BRANCH   4  12
ATOM     12  O   UNL     1      26.645   3.759  21.199  1.00  0.00    -0.504 OA
ATOM     13  H   UNL     1      26.542   3.938  20.207  1.00  0.00     0.293 HD
ENDBRANCH   4  12
BRANCH   6  14
ATOM     14  O   UNL     1      26.942   6.518  21.393  1.00  0.00    -0.504 OA
ATOM     15  H   UNL     1      27.023   6.265  20.415  1.00  0.00     0.293 HD
ENDBRANCH   6  14
TORSDOF 4
ENDMDL
MODEL 4
REMARK VINA RESULT:    -4.030      1.269      5.882
REMARK INTER + INTRA:          -4.876
REMARK INTER:                  -4.743
REMARK INTRA:                  -0.133
REMARK UNBOUND:                -0.139
REMARK SMILES O=C([O-])C=Cc1ccc(O)c(O)c1
REMARK SMILES IDX 6 1 13 2 7 3 11 4 8 5 9 6 5 7 4 8 2 9 1 10 3 11 12 12 10 14
REMARK H PARENT 12 13 10 15
REMARK Flexibility Score: inf
ROOT
ATOM      1  C   UNL     1      23.650   5.009  24.761  1.00  0.00    -0.022 A 
ATOM      2  C   UNL     1      22.445   4.417  24.348  1.00  0.00     0.058 A 
ATOM      3  C   UNL     1      23.753   5.495  26.080  1.00  0.00     0.012 A 
ATOM      4  C   UNL     1      21.352   4.332  25.224  1.00  0.00     0.157 A 
ATOM      5  C   UNL     1      22.663   5.409  26.951  1.00  0.00     0.051 A 
ATOM      6  C   UNL     1      21.462   4.832  26.526  1.00  0.00     0.157 A 
ENDROOT
BRANCH   1   7
ATOM      7  C   UNL     1      24.780   5.064  23.800  1.00  0.00     0.010 C 
ATOM      8  C   UNL     1      24.971   4.166  22.823  1.00  0.00     0.025 C 
BRANCH   8   9
ATOM      9  C   UNL     1      26.111   4.246  21.893  1.00  0.00     0.064 C 
ATOM     10  O   UNL     1      26.815   5.288  21.814  1.00  0.00    -0.545 OA
ATOM     11  O   UNL     1      26.414   3.156  21.090  1.00  0.00    -0.545 OA
ENDBRANCH   8   9
ENDBRANCH   1   7
BRANCH   4  12
ATOM     12  O   UNL     1      20.155   3.753  24.804  1.00  0.00    -0.504 OA
ATOM     13  H   UNL     1      19.918   3.679  23.822  1.00  0.00     0.293 HD
ENDBRANCH   4  12
BRANCH   6  14
ATOM     14  O   UNL     1      20.373   4.747  27.393  1.00  0.00    -0.504 OA
ATOM     15  H   UNL     1      20.464   4.960  28.380  1.00  0.00     0.293 HD
ENDBRANCH   6  14
TORSDOF 4
ENDMDL
MODEL 5
REMARK VINA RESULT:    -3.940      2.417      3.532
REMARK INTER + INTRA:          -4.770
REMARK INTER:                  -4.645
REMARK INTRA:                  -0.126
REMARK UNBOUND:                -0.139
REMARK SMILES O=C([O-])C=Cc1ccc(O)c(O)c1
REMARK SMILES IDX 6 1 13 2 7 3 11 4 8 5 9 6 5 7 4 8 2 9 1 10 3 11 12 12 10 14
REMARK H PARENT 12 13 10 15
REMARK Flexibility Score: inf
ROOT
ATOM      1  C   UNL     1      21.910   4.508  25.309  1.00  0.00    -0.022 A 
ATOM      2  C   UNL     1      22.416   3.376  25.969  1.00  0.00     0.058 A 
ATOM      3  C   UNL     1      22.675   5.096  24.282  1.00  0.00     0.012 A 
ATOM      4  C   UNL     1      23.673   2.852  25.631  1.00  0.00     0.157 A 
ATOM      5  C   UNL     1      23.927   4.573  23.946  1.00  0.00     0.051 A 
ATOM      6  C   UNL     1      24.430   3.454  24.620  1.00  0.00     0.157 A 
ENDROOT
BRANCH   1   7
ATOM      7  C   UNL     1      20.570   5.016  25.697  1.00  0.00     0.010 C 
ATOM      8  C   UNL     1      20.354   5.812  26.754  1.00  0.00     0.025 C 
BRANCH   8   9
ATOM      9  C   UNL     1      19.007   6.288  27.116  1.00  0.00     0.064 C 
ATOM     10  O   UNL     1      18.277   6.879  26.276  1.00  0.00    -0.545 OA
ATOM     11  O   UNL     1      18.536   6.084  28.406  1.00  0.00    -0.545 OA
ENDBRANCH   8   9
ENDBRANCH   1   7
BRANCH   4  12
ATOM     12  O   UNL     1      24.174   1.734  26.298  1.00  0.00    -0.504 OA
ATOM     13  H   UNL     1      24.949   1.806  26.944  1.00  0.00     0.293 HD
ENDBRANCH   4  12
BRANCH   6  14
ATOM     14  O   UNL     1      25.679   2.932  24.288  1.00  0.00    -0.504 OA
ATOM     15  H   UNL     1      26.312   3.425  23.669  1.00  0.00     0.293 HD
ENDBRANCH   6  14
TORSDOF 4
ENDMDL
MODEL 6
REMARK VINA RESULT:    -3.937     13.036     14.942
REMARK INTER + INTRA:          -4.767
REMARK INTER:                  -4.638
REMARK INTRA:                  -0.129
REMARK UNBOUND:                -0.139
REMARK SMILES O=C([O-])C=Cc1ccc(O)c(O)c1
REMARK SMILES IDX 6 1 13 2 7 3 11 4 8 5 9 6 5 7 4 8 2 9 1 10 3 11 12 12 10 14
REMARK H PARENT 12 13 10 15
REMARK Flexibility Score: inf
ROOT
ATOM      1  C   UNL     1      16.943  -7.194  26.978  1.00  0.00    -0.022 A 
ATOM      2  C   UNL     1      16.338  -7.112  25.713  1.00  0.00     0.058 A 
ATOM      3  C   UNL     1      17.294  -8.461  27.484  1.00  0.00     0.012 A 
ATOM      4  C   UNL     1      16.065  -8.272  24.974  1.00  0.00     0.157 A 
ATOM      5  C   UNL     1      17.021  -9.617  26.746  1.00  0.00     0.051 A 
ATOM      6  C   UNL     1      16.405  -9.527  25.494  1.00  0.00     0.157 A 
ENDROOT
BRANCH   1   7
ATOM      7  C   UNL     1      17.221  -5.935  27.715  1.00  0.00     0.010 C 
ATOM      8  C   UNL     1      18.401  -5.301  27.688  1.00  0.00     0.025 C 
BRANCH   8   9
ATOM      9  C   UNL     1      18.644  -4.060  28.442  1.00  0.00     0.064 C 
ATOM     10  O   UNL     1      18.198  -3.909  29.610  1.00  0.00    -0.545 OA
ATOM     11  O   UNL     1      19.376  -3.036  27.854  1.00  0.00    -0.545 OA
ENDBRANCH   8   9
ENDBRANCH   1   7
BRANCH   4  12
ATOM     12  O   UNL     1      15.455  -8.184  23.723  1.00  0.00    -0.504 OA
ATOM     13  H   UNL     1      14.453  -8.076  23.628  1.00  0.00     0.293 HD
ENDBRANCH   4  12
BRANCH   6  14
ATOM     14  O   UNL     1      16.130 -10.677  24.756  1.00  0.00    -0.504 OA
ATOM     15  H   UNL     1      15.958 -10.638  23.758  1.00  0.00     0.293 HD
ENDBRANCH   6  14
TORSDOF 4
ENDMDL
MODEL 7
REMARK VINA RESULT:    -3.913      5.151      5.995
REMARK INTER + INTRA:          -4.739
REMARK INTER:                  -4.610
REMARK INTRA:                  -0.129
REMARK UNBOUND:                -0.139
REMARK SMILES O=C([O-])C=Cc1ccc(O)c(O)c1
REMARK SMILES IDX 6 1 13 2 7 3 11 4 8 5 9 6 5 7 4 8 2 9 1 10 3 11 12 12 10 14
REMARK H PARENT 12 13 10 15
REMARK Flexibility Score: inf
ROOT
ATOM      1  C   UNL     1      23.931   1.975  27.366  1.00  0.00    -0.022 A 
ATOM      2  C   UNL     1      23.250   2.324  26.187  1.00  0.00     0.058 A 
ATOM      3  C   UNL     1      25.122   2.653  27.690  1.00  0.00     0.012 A 
ATOM      4  C   UNL     1      23.759   3.313  25.333  1.00  0.00     0.157 A 
ATOM      5  C   UNL     1      25.628   3.639  26.838  1.00  0.00     0.051 A 
ATOM      6  C   UNL     1      24.952   3.970  25.659  1.00  0.00     0.157 A 
ENDROOT
BRANCH   1   7
ATOM      7  C   UNL     1      23.344   0.929  28.240  1.00  0.00     0.010 C 
ATOM      8  C   UNL     1      23.977  -0.206  28.571  1.00  0.00     0.025 C 
BRANCH   8   9
ATOM      9  C   UNL     1      23.359  -1.228  29.433  1.00  0.00     0.064 C 
ATOM     10  O   UNL     1      22.226  -1.710  29.163  1.00  0.00    -0.545 OA
ATOM     11  O   UNL     1      24.034  -1.666  30.564  1.00  0.00    -0.545 OA
ENDBRANCH   8   9
ENDBRANCH   1   7
BRANCH   4  12
ATOM     12  O   UNL     1      23.084   3.648  24.159  1.00  0.00    -0.504 OA
ATOM     13  H   UNL     1      22.832   2.946  23.475  1.00  0.00     0.293 HD
ENDBRANCH   4  12
BRANCH   6  14
ATOM     14  O   UNL     1      25.455   4.951  24.807  1.00  0.00    -0.504 OA
ATOM     15  H   UNL     1      25.304   5.937  24.987  1.00  0.00     0.293 HD
ENDBRANCH   6  14
TORSDOF 4
ENDMDL
MODEL 8
REMARK VINA RESULT:    -3.874     10.897     11.845
REMARK INTER + INTRA:          -4.692
REMARK INTER:                  -4.562
REMARK INTRA:                  -0.131
REMARK UNBOUND:                -0.139
REMARK SMILES O=C([O-])C=Cc1ccc(O)c(O)c1
REMARK SMILES IDX 6 1 13 2 7 3 11 4 8 5 9 6 5 7 4 8 2 9 1 10 3 11 12 12 10 14
REMARK H PARENT 12 13 10 15
REMARK Flexibility Score: inf
ROOT
ATOM      1  C   UNL     1      17.546  -3.142  28.907  1.00  0.00    -0.022 A 
ATOM      2  C   UNL     1      18.880  -2.709  28.984  1.00  0.00     0.058 A 
ATOM      3  C   UNL     1      17.282  -4.461  28.488  1.00  0.00     0.012 A 
ATOM      4  C   UNL     1      19.932  -3.565  28.628  1.00  0.00     0.157 A 
ATOM      5  C   UNL     1      18.332  -5.313  28.133  1.00  0.00     0.051 A 
ATOM      6  C   UNL     1      19.657  -4.868  28.199  1.00  0.00     0.157 A 
ENDROOT
BRANCH   1   7
ATOM      7  C   UNL     1      16.469  -2.201  29.305  1.00  0.00     0.010 C 
ATOM      8  C   UNL     1      15.415  -1.904  28.532  1.00  0.00     0.025 C 
BRANCH   8   9
ATOM      9  C   UNL     1      14.371  -0.956  28.956  1.00  0.00     0.064 C 
ATOM     10  O   UNL     1      13.701  -1.151  30.005  1.00  0.00    -0.545 OA
ATOM     11  O   UNL     1      14.121   0.172  28.186  1.00  0.00    -0.545 OA
ENDBRANCH   8   9
ENDBRANCH   1   7
BRANCH   4  12
ATOM     12  O   UNL     1      21.254  -3.124  28.698  1.00  0.00    -0.504 OA
ATOM     13  H   UNL     1      21.481  -2.140  28.769  1.00  0.00     0.293 HD
ENDBRANCH   4  12
BRANCH   6  14
ATOM     14  O   UNL     1      20.706  -5.715  27.844  1.00  0.00    -0.504 OA
ATOM     15  H   UNL     1      21.279  -6.170  28.545  1.00  0.00     0.293 HD
ENDBRANCH   6  14
TORSDOF 4
ENDMDL
MODEL 9
REMARK VINA RESULT:    -3.867     11.868     13.890
REMARK INTER + INTRA:          -4.684
REMARK INTER:                  -4.557
REMARK INTRA:                  -0.127
REMARK UNBOUND:                -0.139
REMARK SMILES O=C([O-])C=Cc1ccc(O)c(O)c1
REMARK SMILES IDX 6 1 13 2 7 3 11 4 8 5 9 6 5 7 4 8 2 9 1 10 3 11 12 12 10 14
REMARK H PARENT 12 13 10 15
REMARK Flexibility Score: inf
ROOT
ATOM      1  C   UNL     1      17.254  -5.839  27.679  1.00  0.00    -0.022 A 
ATOM      2  C   UNL     1      18.632  -5.566  27.686  1.00  0.00     0.058 A 
ATOM      3  C   UNL     1      16.372  -4.905  28.257  1.00  0.00     0.012 A 
ATOM      4  C   UNL     1      19.126  -4.395  28.281  1.00  0.00     0.157 A 
ATOM      5  C   UNL     1      16.866  -3.739  28.849  1.00  0.00     0.051 A 
ATOM      6  C   UNL     1      18.241  -3.482  28.865  1.00  0.00     0.157 A 
ENDROOT
BRANCH   1   7
ATOM      7  C   UNL     1      16.781  -7.086  27.028  1.00  0.00     0.010 C 
ATOM      8  C   UNL     1      16.393  -7.157  25.746  1.00  0.00     0.025 C 
BRANCH   8   9
ATOM      9  C   UNL     1      15.918  -8.411  25.137  1.00  0.00     0.064 C 
ATOM     10  O   UNL     1      14.886  -8.993  25.564  1.00  0.00    -0.545 OA
ATOM     11  O   UNL     1      16.622  -8.962  24.074  1.00  0.00    -0.545 OA
ENDBRANCH   8   9
ENDBRANCH   1   7
BRANCH   4  12
ATOM     12  O   UNL     1      20.496  -4.136  28.293  1.00  0.00    -0.504 OA
ATOM     13  H   UNL     1      20.949  -3.716  29.096  1.00  0.00     0.293 HD
ENDBRANCH   4  12
BRANCH   6  14
ATOM     14  O   UNL     1      18.737  -2.321  29.456  1.00  0.00    -0.504 OA
ATOM     15  H   UNL     1      19.077  -1.547  28.897  1.00  0.00     0.293 HD
ENDBRANCH   6  14
TORSDOF 4
ENDMDL
