MODEL 1
REMARK VINA RESULT:    -4.677      0.000      0.000
REMARK INTER + INTRA:          -5.620
REMARK INTER:                  -5.497
REMARK INTRA:                  -0.123
REMARK UNBOUND:                -0.123
REMARK SMILES O=C([O-])C=Cc1ccc(O)c(O)c1
REMARK SMILES IDX 6 1 13 2 7 3 11 4 8 5 9 6 5 7 4 8 2 9 1 10 3 11 12 12 10 14
REMARK H PARENT 12 13 10 15
REMARK Flexibility Score: inf
ROOT
ATOM      1  C   UNL     1      13.700  36.991  49.740  1.00  0.00    -0.022 A 
ATOM      2  C   UNL     1      14.421  36.983  48.528  1.00  0.00     0.058 A 
ATOM      3  C   UNL     1      14.364  37.361  50.920  1.00  0.00     0.012 A 
ATOM      4  C   UNL     1      15.771  37.362  48.500  1.00  0.00     0.157 A 
ATOM      5  C   UNL     1      15.708  37.741  50.892  1.00  0.00     0.051 A 
ATOM      6  C   UNL     1      16.415  37.746  49.683  1.00  0.00     0.157 A 
ENDROOT
BRANCH   1   7
ATOM      7  C   UNL     1      12.275  36.588  49.824  1.00  0.00     0.010 C 
ATOM      8  C   UNL     1      11.529  36.261  48.759  1.00  0.00     0.025 C 
BRANCH   8   9
ATOM      9  C   UNL     1      10.114  35.878  48.889  1.00  0.00     0.064 C 
ATOM     10  O   UNL     1       9.808  34.663  49.005  1.00  0.00    -0.545 OA
ATOM     11  O   UNL     1       9.108  36.838  48.888  1.00  0.00    -0.545 OA
ENDBRANCH   8   9
ENDBRANCH   1   7
BRANCH   4  12
ATOM     12  O   UNL     1      16.481  37.357  47.301  1.00  0.00    -0.504 OA
ATOM     13  H   UNL     1      17.474  37.554  47.271  1.00  0.00     0.293 HD
ENDBRANCH   4  12
BRANCH   6  14
ATOM     14  O   UNL     1      17.755  38.125  49.650  1.00  0.00    -0.504 OA
ATOM     15  H   UNL     1      18.407  37.713  48.991  1.00  0.00     0.293 HD
ENDBRANCH   6  14
TORSDOF 4
ENDMDL
MODEL 2
REMARK VINA RESULT:    -4.665      2.616      3.566
REMARK INTER + INTRA:          -5.606
REMARK INTER:                  -5.480
REMARK INTRA:                  -0.126
REMARK UNBOUND:                -0.123
REMARK SMILES O=C([O-])C=Cc1ccc(O)c(O)c1
REMARK SMILES IDX 6 1 13 2 7 3 11 4 8 5 9 6 5 7 4 8 2 9 1 10 3 11 12 12 10 14
REMARK H PARENT 12 13 10 15
REMARK Flexibility Score: inf
ROOT
ATOM      1  C   UNL     1      14.643  37.097  48.243  1.00  0.00    -0.022 A 
ATOM      2  C   UNL     1      16.007  37.449  48.301  1.00  0.00     0.058 A 
ATOM      3  C   UNL     1      13.906  37.042  49.438  1.00  0.00     0.012 A 
ATOM      4  C   UNL     1      16.609  37.763  49.528  1.00  0.00     0.157 A 
ATOM      5  C   UNL     1      14.507  37.357  50.659  1.00  0.00     0.051 A 
ATOM      6  C   UNL     1      15.858  37.721  50.709  1.00  0.00     0.157 A 
ENDROOT
BRANCH   1   7
ATOM      7  C   UNL     1      13.962  36.745  46.973  1.00  0.00     0.010 C 
ATOM      8  C   UNL     1      13.992  37.512  45.874  1.00  0.00     0.025 C 
BRANCH   8   9
ATOM      9  C   UNL     1      13.292  37.129  44.638  1.00  0.00     0.064 C 
ATOM     10  O   UNL     1      12.188  36.530  44.711  1.00  0.00    -0.545 OA
ATOM     11  O   UNL     1      13.830  37.421  43.390  1.00  0.00    -0.545 OA
ENDBRANCH   8   9
ENDBRANCH   1   7
BRANCH   4  12
ATOM     12  O   UNL     1      17.957  38.115  49.583  1.00  0.00    -0.504 OA
ATOM     13  H   UNL     1      18.544  38.099  48.757  1.00  0.00     0.293 HD
ENDBRANCH   4  12
BRANCH   6  14
ATOM     14  O   UNL     1      16.460  38.037  51.925  1.00  0.00    -0.504 OA
ATOM     15  H   UNL     1      17.080  37.387  52.394  1.00  0.00     0.293 HD
ENDBRANCH   6  14
TORSDOF 4
ENDMDL
MODEL 3
REMARK VINA RESULT:    -4.404      2.203      2.809
REMARK INTER + INTRA:          -5.299
REMARK INTER:                  -5.152
REMARK INTRA:                  -0.148
REMARK UNBOUND:                -0.123
REMARK SMILES O=C([O-])C=Cc1ccc(O)c(O)c1
REMARK SMILES IDX 6 1 13 2 7 3 11 4 8 5 9 6 5 7 4 8 2 9 1 10 3 11 12 12 10 14
REMARK H PARENT 12 13 10 15
REMARK Flexibility Score: inf
ROOT
ATOM      1  C   UNL     1      14.664  37.007  48.364  1.00  0.00    -0.022 A 
ATOM      2  C   UNL     1      16.025  37.374  48.376  1.00  0.00     0.058 A 
ATOM      3  C   UNL     1      13.953  36.998  49.575  1.00  0.00     0.012 A 
ATOM      4  C   UNL     1      16.650  37.748  49.575  1.00  0.00     0.157 A 
ATOM      5  C   UNL     1      14.576  37.372  50.768  1.00  0.00     0.051 A 
ATOM      6  C   UNL     1      15.925  37.750  50.772  1.00  0.00     0.157 A 
ENDROOT
BRANCH   1   7
ATOM      7  C   UNL     1      13.960  36.594  47.125  1.00  0.00     0.010 C 
ATOM      8  C   UNL     1      12.673  36.221  47.088  1.00  0.00     0.025 C 
BRANCH   8   9
ATOM      9  C   UNL     1      12.018  35.808  45.838  1.00  0.00     0.064 C 
ATOM     10  O   UNL     1      11.342  36.645  45.185  1.00  0.00    -0.545 OA
ATOM     11  O   UNL     1      12.136  34.506  45.362  1.00  0.00    -0.545 OA
ENDBRANCH   8   9
ENDBRANCH   1   7
BRANCH   4  12
ATOM     12  O   UNL     1      17.995  38.114  49.585  1.00  0.00    -0.504 OA
ATOM     13  H   UNL     1      18.541  38.109  50.439  1.00  0.00     0.293 HD
ENDBRANCH   4  12
BRANCH   6  14
ATOM     14  O   UNL     1      16.549  38.125  51.960  1.00  0.00    -0.504 OA
ATOM     15  H   UNL     1      17.543  37.985  52.103  1.00  0.00     0.293 HD
ENDBRANCH   6  14
TORSDOF 4
ENDMDL
MODEL 4
REMARK VINA RESULT:    -4.361      2.834      4.270
REMARK INTER + INTRA:          -5.249
REMARK INTER:                  -5.122
REMARK INTRA:                  -0.127
REMARK UNBOUND:                -0.123
REMARK SMILES O=C([O-])C=Cc1ccc(O)c(O)c1
REMARK SMILES IDX 6 1 13 2 7 3 11 4 8 5 9 6 5 7 4 8 2 9 1 10 3 11 12 12 10 14
REMARK H PARENT 12 13 10 15
REMARK Flexibility Score: inf
ROOT
ATOM      1  C   UNL     1      15.075  37.248  48.061  1.00  0.00    -0.022 A 
ATOM      2  C   UNL     1      13.981  36.966  48.904  1.00  0.00     0.058 A 
ATOM      3  C   UNL     1      16.264  37.733  48.632  1.00  0.00     0.012 A 
ATOM      4  C   UNL     1      14.088  37.142  50.292  1.00  0.00     0.157 A 
ATOM      5  C   UNL     1      16.370  37.906  50.014  1.00  0.00     0.051 A 
ATOM      6  C   UNL     1      15.285  37.609  50.848  1.00  0.00     0.157 A 
ENDROOT
BRANCH   1   7
ATOM      7  C   UNL     1      15.009  37.090  46.587  1.00  0.00     0.010 C 
ATOM      8  C   UNL     1      13.890  37.256  45.869  1.00  0.00     0.025 C 
BRANCH   8   9
ATOM      9  C   UNL     1      13.868  37.078  44.409  1.00  0.00     0.064 C 
ATOM     10  O   UNL     1      12.814  37.326  43.769  1.00  0.00    -0.545 OA
ATOM     11  O   UNL     1      14.997  36.641  43.723  1.00  0.00    -0.545 OA
ENDBRANCH   8   9
ENDBRANCH   1   7
BRANCH   4  12
ATOM     12  O   UNL     1      13.007  36.858  51.124  1.00  0.00    -0.504 OA
ATOM     13  H   UNL     1      12.844  35.925  51.483  1.00  0.00     0.293 HD
ENDBRANCH   4  12
BRANCH   6  14
ATOM     14  O   UNL     1      15.388  37.779  52.227  1.00  0.00    -0.504 OA
ATOM     15  H   UNL     1      16.036  38.444  52.633  1.00  0.00     0.293 HD
ENDBRANCH   6  14
TORSDOF 4
ENDMDL
MODEL 5
REMARK VINA RESULT:    -4.191      1.935      2.472
REMARK INTER + INTRA:          -5.048
REMARK INTER:                  -4.903
REMARK INTRA:                  -0.145
REMARK UNBOUND:                -0.123
REMARK SMILES O=C([O-])C=Cc1ccc(O)c(O)c1
REMARK SMILES IDX 6 1 13 2 7 3 11 4 8 5 9 6 5 7 4 8 2 9 1 10 3 11 12 12 10 14
REMARK H PARENT 12 13 10 15
REMARK Flexibility Score: inf
ROOT
ATOM      1  C   UNL     1      13.620  36.384  50.438  1.00  0.00    -0.022 A 
ATOM      2  C   UNL     1      14.511  37.412  50.808  1.00  0.00     0.058 A 
ATOM      3  C   UNL     1      13.994  35.049  50.662  1.00  0.00     0.012 A 
ATOM      4  C   UNL     1      15.739  37.106  51.413  1.00  0.00     0.157 A 
ATOM      5  C   UNL     1      15.217  34.745  51.266  1.00  0.00     0.051 A 
ATOM      6  C   UNL     1      16.091  35.771  51.646  1.00  0.00     0.157 A 
ENDROOT
BRANCH   1   7
ATOM      7  C   UNL     1      12.315  36.655  49.786  1.00  0.00     0.010 C 
ATOM      8  C   UNL     1      11.770  35.862  48.853  1.00  0.00     0.025 C 
BRANCH   8   9
ATOM      9  C   UNL     1      10.477  36.176  48.224  1.00  0.00     0.064 C 
ATOM     10  O   UNL     1      10.335  36.014  46.984  1.00  0.00    -0.545 OA
ATOM     11  O   UNL     1       9.408  36.646  48.979  1.00  0.00    -0.545 OA
ENDBRANCH   8   9
ENDBRANCH   1   7
BRANCH   4  12
ATOM     12  O   UNL     1      16.617  38.123  51.782  1.00  0.00    -0.504 OA
ATOM     13  H   UNL     1      17.560  38.170  51.415  1.00  0.00     0.293 HD
ENDBRANCH   4  12
BRANCH   6  14
ATOM     14  O   UNL     1      17.311  35.472  52.250  1.00  0.00    -0.504 OA
ATOM     15  H   UNL     1      17.659  36.008  53.036  1.00  0.00     0.293 HD
ENDBRANCH   6  14
TORSDOF 4
ENDMDL
MODEL 6
REMARK VINA RESULT:    -3.949      8.897     10.298
REMARK INTER + INTRA:          -4.764
REMARK INTER:                  -4.641
REMARK INTRA:                  -0.124
REMARK UNBOUND:                -0.123
REMARK SMILES O=C([O-])C=Cc1ccc(O)c(O)c1
REMARK SMILES IDX 6 1 13 2 7 3 11 4 8 5 9 6 5 7 4 8 2 9 1 10 3 11 12 12 10 14
REMARK H PARENT 12 13 10 15
REMARK Flexibility Score: inf
ROOT
ATOM      1  C   UNL     1      13.367  32.590  57.036  1.00  0.00    -0.022 A 
ATOM      2  C   UNL     1      11.987  32.870  56.960  1.00  0.00     0.058 A 
ATOM      3  C   UNL     1      14.206  33.028  55.999  1.00  0.00     0.012 A 
ATOM      4  C   UNL     1      11.467  33.596  55.878  1.00  0.00     0.157 A 
ATOM      5  C   UNL     1      13.688  33.753  54.922  1.00  0.00     0.051 A 
ATOM      6  C   UNL     1      12.319  34.042  54.860  1.00  0.00     0.157 A 
ENDROOT
BRANCH   1   7
ATOM      7  C   UNL     1      13.964  31.817  58.153  1.00  0.00     0.010 C 
ATOM      8  C   UNL     1      13.329  31.562  59.305  1.00  0.00     0.025 C 
BRANCH   8   9
ATOM      9  C   UNL     1      13.965  30.800  60.391  1.00  0.00     0.064 C 
ATOM     10  O   UNL     1      13.273  30.423  61.373  1.00  0.00    -0.545 OA
ATOM     11  O   UNL     1      15.319  30.486  60.350  1.00  0.00    -0.545 OA
ENDBRANCH   8   9
ENDBRANCH   1   7
BRANCH   4  12
ATOM     12  O   UNL     1      10.104  33.876  55.806  1.00  0.00    -0.504 OA
ATOM     13  H   UNL     1       9.733  34.543  55.140  1.00  0.00     0.293 HD
ENDBRANCH   4  12
BRANCH   6  14
ATOM     14  O   UNL     1      11.798  34.765  53.789  1.00  0.00    -0.504 OA
ATOM     15  H   UNL     1      10.822  35.037  53.757  1.00  0.00     0.293 HD
ENDBRANCH   6  14
TORSDOF 4
ENDMDL
MODEL 7
REMARK VINA RESULT:    -3.864      2.486      5.469
REMARK INTER + INTRA:          -4.665
REMARK INTER:                  -4.537
REMARK INTRA:                  -0.128
REMARK UNBOUND:                -0.123
REMARK SMILES O=C([O-])C=Cc1ccc(O)c(O)c1
REMARK SMILES IDX 6 1 13 2 7 3 11 4 8 5 9 6 5 7 4 8 2 9 1 10 3 11 12 12 10 14
REMARK H PARENT 12 13 10 15
REMARK Flexibility Score: inf
ROOT
ATOM      1  C   UNL     1      14.331  36.685  47.933  1.00  0.00    -0.022 A 
ATOM      2  C   UNL     1      14.900  37.112  49.150  1.00  0.00     0.058 A 
ATOM      3  C   UNL     1      12.967  36.354  47.902  1.00  0.00     0.012 A 
ATOM      4  C   UNL     1      14.109  37.228  50.303  1.00  0.00     0.157 A 
ATOM      5  C   UNL     1      12.180  36.471  49.050  1.00  0.00     0.051 A 
ATOM      6  C   UNL     1      12.746  36.911  50.253  1.00  0.00     0.157 A 
ENDROOT
BRANCH   1   7
ATOM      7  C   UNL     1      15.126  36.536  46.689  1.00  0.00     0.010 C 
ATOM      8  C   UNL     1      16.256  35.820  46.608  1.00  0.00     0.025 C 
BRANCH   8   9
ATOM      9  C   UNL     1      17.019  35.708  45.355  1.00  0.00     0.064 C 
ATOM     10  O   UNL     1      16.841  36.557  44.443  1.00  0.00    -0.545 OA
ATOM     11  O   UNL     1      17.937  34.682  45.163  1.00  0.00    -0.545 OA
ENDBRANCH   8   9
ENDBRANCH   1   7
BRANCH   4  12
ATOM     12  O   UNL     1      14.672  37.654  51.505  1.00  0.00    -0.504 OA
ATOM     13  H   UNL     1      15.533  38.188  51.528  1.00  0.00     0.293 HD
ENDBRANCH   4  12
BRANCH   6  14
ATOM     14  O   UNL     1      11.965  37.030  51.400  1.00  0.00    -0.504 OA
ATOM     15  H   UNL     1      11.114  36.491  51.520  1.00  0.00     0.293 HD
ENDBRANCH   6  14
TORSDOF 4
ENDMDL
MODEL 8
REMARK VINA RESULT:    -3.774      8.377      9.841
REMARK INTER + INTRA:          -4.559
REMARK INTER:                  -4.432
REMARK INTRA:                  -0.127
REMARK UNBOUND:                -0.123
REMARK SMILES O=C([O-])C=Cc1ccc(O)c(O)c1
REMARK SMILES IDX 6 1 13 2 7 3 11 4 8 5 9 6 5 7 4 8 2 9 1 10 3 11 12 12 10 14
REMARK H PARENT 12 13 10 15
REMARK Flexibility Score: inf
ROOT
ATOM      1  C   UNL     1      13.694  32.628  56.785  1.00  0.00    -0.022 A 
ATOM      2  C   UNL     1      14.393  33.322  55.776  1.00  0.00     0.058 A 
ATOM      3  C   UNL     1      12.290  32.663  56.782  1.00  0.00     0.012 A 
ATOM      4  C   UNL     1      13.697  34.013  54.773  1.00  0.00     0.157 A 
ATOM      5  C   UNL     1      11.597  33.351  55.783  1.00  0.00     0.051 A 
ATOM      6  C   UNL     1      12.297  34.025  54.774  1.00  0.00     0.157 A 
ENDROOT
BRANCH   1   7
ATOM      7  C   UNL     1      14.383  31.892  57.872  1.00  0.00     0.010 C 
ATOM      8  C   UNL     1      15.656  32.112  58.232  1.00  0.00     0.025 C 
BRANCH   8   9
ATOM      9  C   UNL     1      16.303  31.350  59.310  1.00  0.00     0.064 C 
ATOM     10  O   UNL     1      17.450  31.684  59.705  1.00  0.00    -0.545 OA
ATOM     11  O   UNL     1      15.666  30.265  59.903  1.00  0.00    -0.545 OA
ENDBRANCH   8   9
ENDBRANCH   1   7
BRANCH   4  12
ATOM     12  O   UNL     1      14.390  34.695  53.775  1.00  0.00    -0.504 OA
ATOM     13  H   UNL     1      15.395  34.614  53.677  1.00  0.00     0.293 HD
ENDBRANCH   4  12
BRANCH   6  14
ATOM     14  O   UNL     1      11.609  34.710  53.775  1.00  0.00    -0.504 OA
ATOM     15  H   UNL     1      11.227  35.636  53.934  1.00  0.00     0.293 HD
ENDBRANCH   6  14
TORSDOF 4
ENDMDL
