MODEL 1
REMARK VINA RESULT:    -4.639      0.000      0.000
REMARK INTER + INTRA:          -5.548
REMARK INTER:                  -5.723
REMARK INTRA:                   0.175
REMARK UNBOUND:                 0.175
REMARK SMILES C=CC(=C)CCC=C(C)C
REMARK SMILES IDX 5 1 6 2 7 3 9 4 8 5 10 6 3 7 4 8 2 9 1 10
REMARK H PARENT
REMARK Flexibility Score: inf
ROOT
ATOM      1  C   UNL     1       5.886   4.994  12.485  1.00  0.00     0.039 C 
ENDROOT
BRANCH   1   2
ATOM      2  C   UNL     1       6.536   5.026  13.877  1.00  0.00     0.032 C 
BRANCH   2   3
ATOM      3  C   UNL     1       7.060   6.396  14.231  1.00  0.00    -0.028 C 
ATOM      4  C   UNL     1       8.190   8.548  13.878  1.00  0.00     0.039 C 
ATOM      5  C   UNL     1       7.775   7.182  13.396  1.00  0.00    -0.080 C 
ATOM      6  C   UNL     1       8.169   6.729  12.011  1.00  0.00     0.039 C 
ENDBRANCH   2   3
ENDBRANCH   1   2
BRANCH   1   7
ATOM      7  C   UNL     1       4.519   5.652  12.479  1.00  0.00    -0.055 C 
ATOM      8  C   UNL     1       3.433   4.875  12.396  1.00  0.00     0.012 C 
BRANCH   7   9
ATOM      9  C   UNL     1       4.330   7.123  12.599  1.00  0.00    -0.005 C 
ATOM     10  C   UNL     1       4.740   8.014  11.696  1.00  0.00     0.009 C 
ENDBRANCH   7   9
ENDBRANCH   1   7
TORSDOF 4
ENDMDL
MODEL 2
REMARK VINA RESULT:    -4.355      0.912      3.566
REMARK INTER + INTRA:          -5.199
REMARK INTER:                  -4.732
REMARK INTRA:                  -0.467
REMARK UNBOUND:                 0.175
REMARK SMILES C=CC(=C)CCC=C(C)C
REMARK SMILES IDX 5 1 6 2 7 3 9 4 8 5 10 6 3 7 4 8 2 9 1 10
REMARK H PARENT
REMARK Flexibility Score: inf
ROOT
ATOM      1  C   UNL     1       6.163   4.875  13.149  1.00  0.00     0.039 C 
ENDROOT
BRANCH   1   2
ATOM      2  C   UNL     1       4.782   5.419  12.749  1.00  0.00     0.032 C 
BRANCH   2   3
ATOM      3  C   UNL     1       4.881   6.561  11.766  1.00  0.00    -0.028 C 
ATOM      4  C   UNL     1       4.752   8.883  10.974  1.00  0.00     0.039 C 
ATOM      5  C   UNL     1       4.556   7.843  12.047  1.00  0.00    -0.080 C 
ATOM      6  C   UNL     1       4.003   8.253  13.390  1.00  0.00     0.039 C 
ENDBRANCH   2   3
ENDBRANCH   1   2
BRANCH   1   7
ATOM      7  C   UNL     1       7.234   5.949  13.102  1.00  0.00    -0.055 C 
ATOM      8  C   UNL     1       8.067   5.978  12.055  1.00  0.00     0.012 C 
BRANCH   7   9
ATOM      9  C   UNL     1       7.376   6.995  14.150  1.00  0.00    -0.005 C 
ATOM     10  C   UNL     1       7.794   8.241  13.924  1.00  0.00     0.009 C 
ENDBRANCH   7   9
ENDBRANCH   1   7
TORSDOF 4
ENDMDL
MODEL 3
REMARK VINA RESULT:    -4.301      0.750      2.298
REMARK INTER + INTRA:          -5.132
REMARK INTER:                  -4.864
REMARK INTRA:                  -0.268
REMARK UNBOUND:                 0.175
REMARK SMILES C=CC(=C)CCC=C(C)C
REMARK SMILES IDX 5 1 6 2 7 3 9 4 8 5 10 6 3 7 4 8 2 9 1 10
REMARK H PARENT
REMARK Flexibility Score: inf
ROOT
ATOM      1  C   UNL     1       4.418   7.127  12.796  1.00  0.00     0.039 C 
ENDROOT
BRANCH   1   2
ATOM      2  C   UNL     1       5.462   7.933  12.009  1.00  0.00     0.032 C 
BRANCH   2   3
ATOM      3  C   UNL     1       6.627   8.355  12.871  1.00  0.00    -0.028 C 
ATOM      4  C   UNL     1       8.958   8.438  13.642  1.00  0.00     0.039 C 
ATOM      5  C   UNL     1       7.888   7.887  12.736  1.00  0.00    -0.080 C 
ATOM      6  C   UNL     1       8.246   6.834  11.715  1.00  0.00     0.039 C 
ENDBRANCH   2   3
ENDBRANCH   1   2
BRANCH   1   7
ATOM      7  C   UNL     1       4.565   5.633  12.574  1.00  0.00    -0.055 C 
ATOM      8  C   UNL     1       3.520   4.949  12.094  1.00  0.00     0.012 C 
BRANCH   7   9
ATOM      9  C   UNL     1       5.834   4.900  12.831  1.00  0.00    -0.005 C 
ATOM     10  C   UNL     1       6.495   4.914  13.989  1.00  0.00     0.009 C 
ENDBRANCH   7   9
ENDBRANCH   1   7
TORSDOF 4
ENDMDL
MODEL 4
REMARK VINA RESULT:    -3.783      1.162      2.564
REMARK INTER + INTRA:          -4.493
REMARK INTER:                  -3.965
REMARK INTRA:                  -0.528
REMARK UNBOUND:                 0.175
REMARK SMILES C=CC(=C)CCC=C(C)C
REMARK SMILES IDX 5 1 6 2 7 3 9 4 8 5 10 6 3 7 4 8 2 9 1 10
REMARK H PARENT
REMARK Flexibility Score: inf
ROOT
ATOM      1  C   UNL     1       4.593   8.231  11.557  1.00  0.00     0.039 C 
ENDROOT
BRANCH   1   2
ATOM      2  C   UNL     1       6.083   8.191  11.180  1.00  0.00     0.032 C 
BRANCH   2   3
ATOM      3  C   UNL     1       6.979   8.482  12.360  1.00  0.00    -0.028 C 
ATOM      4  C   UNL     1       8.707   8.048  14.050  1.00  0.00     0.039 C 
ATOM      5  C   UNL     1       7.843   7.596  12.902  1.00  0.00    -0.080 C 
ATOM      6  C   UNL     1       7.958   6.178  12.396  1.00  0.00     0.039 C 
ENDBRANCH   2   3
ENDBRANCH   1   2
BRANCH   1   7
ATOM      7  C   UNL     1       4.264   7.269  12.682  1.00  0.00    -0.055 C 
ATOM      8  C   UNL     1       3.646   7.741  13.771  1.00  0.00     0.012 C 
BRANCH   7   9
ATOM      9  C   UNL     1       4.565   5.813  12.615  1.00  0.00    -0.005 C 
ATOM     10  C   UNL     1       3.690   4.876  12.248  1.00  0.00     0.009 C 
ENDBRANCH   7   9
ENDBRANCH   1   7
TORSDOF 4
ENDMDL
MODEL 5
REMARK VINA RESULT:    -3.591      1.144      4.312
REMARK INTER + INTRA:          -4.255
REMARK INTER:                  -3.895
REMARK INTRA:                  -0.360
REMARK UNBOUND:                 0.175
REMARK SMILES C=CC(=C)CCC=C(C)C
REMARK SMILES IDX 5 1 6 2 7 3 9 4 8 5 10 6 3 7 4 8 2 9 1 10
REMARK H PARENT
REMARK Flexibility Score: inf
ROOT
ATOM      1  C   UNL     1       6.912   8.512  11.986  1.00  0.00     0.039 C 
ENDROOT
BRANCH   1   2
ATOM      2  C   UNL     1       5.399   8.421  11.734  1.00  0.00     0.032 C 
BRANCH   2   3
ATOM      3  C   UNL     1       4.912   6.992  11.688  1.00  0.00    -0.028 C 
ATOM      4  C   UNL     1       3.665   5.002  12.409  1.00  0.00     0.039 C 
ATOM      5  C   UNL     1       4.106   6.428  12.615  1.00  0.00    -0.080 C 
ATOM      6  C   UNL     1       3.645   7.181  13.840  1.00  0.00     0.039 C 
ENDBRANCH   2   3
ENDBRANCH   1   2
BRANCH   1   7
ATOM      7  C   UNL     1       7.417   7.365  12.841  1.00  0.00    -0.055 C 
ATOM      8  C   UNL     1       7.394   7.499  14.172  1.00  0.00     0.012 C 
BRANCH   7   9
ATOM      9  C   UNL     1       7.905   6.083  12.266  1.00  0.00    -0.005 C 
ATOM     10  C   UNL     1       7.490   4.875  12.652  1.00  0.00     0.009 C 
ENDBRANCH   7   9
ENDBRANCH   1   7
TORSDOF 4
ENDMDL
MODEL 6
REMARK VINA RESULT:    -3.568      1.102      3.898
REMARK INTER + INTRA:          -4.228
REMARK INTER:                  -3.771
REMARK INTRA:                  -0.457
REMARK UNBOUND:                 0.175
REMARK SMILES C=CC(=C)CCC=C(C)C
REMARK SMILES IDX 5 1 6 2 7 3 9 4 8 5 10 6 3 7 4 8 2 9 1 10
REMARK H PARENT
REMARK Flexibility Score: inf
ROOT
ATOM      1  C   UNL     1       7.542   7.683  11.504  1.00  0.00     0.039 C 
ENDROOT
BRANCH   1   2
ATOM      2  C   UNL     1       6.110   7.837  10.969  1.00  0.00     0.032 C 
BRANCH   2   3
ATOM      3  C   UNL     1       5.141   8.265  12.045  1.00  0.00    -0.028 C 
ATOM      4  C   UNL     1       3.428   7.998  13.785  1.00  0.00     0.039 C 
ATOM      5  C   UNL     1       4.307   7.429  12.702  1.00  0.00    -0.080 C 
ATOM      6  C   UNL     1       4.231   5.956  12.377  1.00  0.00     0.039 C 
ENDBRANCH   2   3
ENDBRANCH   1   2
BRANCH   1   7
ATOM      7  C   UNL     1       7.614   6.717  12.672  1.00  0.00    -0.055 C 
ATOM      8  C   UNL     1       7.692   5.406  12.416  1.00  0.00     0.012 C 
BRANCH   7   9
ATOM      9  C   UNL     1       7.637   7.165  14.090  1.00  0.00    -0.005 C 
ATOM     10  C   UNL     1       7.968   8.393  14.491  1.00  0.00     0.009 C 
ENDBRANCH   7   9
ENDBRANCH   1   7
TORSDOF 4
ENDMDL
MODEL 7
REMARK VINA RESULT:    -3.346      0.990      2.153
REMARK INTER + INTRA:          -3.954
REMARK INTER:                  -3.361
REMARK INTRA:                  -0.593
REMARK UNBOUND:                 0.175
REMARK SMILES C=CC(=C)CCC=C(C)C
REMARK SMILES IDX 5 1 6 2 7 3 9 4 8 5 10 6 3 7 4 8 2 9 1 10
REMARK H PARENT
REMARK Flexibility Score: inf
ROOT
ATOM      1  C   UNL     1       4.982   7.567  13.831  1.00  0.00     0.039 C 
ENDROOT
BRANCH   1   2
ATOM      2  C   UNL     1       6.195   6.808  14.391  1.00  0.00     0.032 C 
BRANCH   2   3
ATOM      3  C   UNL     1       7.463   7.625  14.319  1.00  0.00    -0.028 C 
ATOM      4  C   UNL     1       9.536   8.503  13.338  1.00  0.00     0.039 C 
ATOM      5  C   UNL     1       8.335   7.595  13.288  1.00  0.00    -0.080 C 
ATOM      6  C   UNL     1       8.142   6.680  12.102  1.00  0.00     0.039 C 
ENDBRANCH   2   3
ENDBRANCH   1   2
BRANCH   1   7
ATOM      7  C   UNL     1       4.672   7.169  12.400  1.00  0.00    -0.055 C 
ATOM      8  C   UNL     1       4.624   8.124  11.464  1.00  0.00     0.012 C 
BRANCH   7   9
ATOM      9  C   UNL     1       4.455   5.757  11.983  1.00  0.00    -0.005 C 
ATOM     10  C   UNL     1       3.704   4.879  12.648  1.00  0.00     0.009 C 
ENDBRANCH   7   9
ENDBRANCH   1   7
TORSDOF 4
ENDMDL
MODEL 8
REMARK VINA RESULT:    -3.117      1.255      2.964
REMARK INTER + INTRA:          -3.671
REMARK INTER:                  -3.447
REMARK INTRA:                  -0.223
REMARK UNBOUND:                 0.175
REMARK SMILES C=CC(=C)CCC=C(C)C
REMARK SMILES IDX 5 1 6 2 7 3 9 4 8 5 10 6 3 7 4 8 2 9 1 10
REMARK H PARENT
REMARK Flexibility Score: inf
ROOT
ATOM      1  C   UNL     1       5.208   8.608  11.386  1.00  0.00     0.039 C 
ENDROOT
BRANCH   1   2
ATOM      2  C   UNL     1       6.719   8.507  11.645  1.00  0.00     0.032 C 
BRANCH   2   3
ATOM      3  C   UNL     1       7.222   7.087  11.544  1.00  0.00    -0.028 C 
ATOM      4  C   UNL     1       7.976   4.891  12.346  1.00  0.00     0.039 C 
ATOM      5  C   UNL     1       7.529   6.306  12.604  1.00  0.00    -0.080 C 
ATOM      6  C   UNL     1       7.440   6.812  14.024  1.00  0.00     0.039 C 
ENDBRANCH   2   3
ENDBRANCH   1   2
BRANCH   1   7
ATOM      7  C   UNL     1       4.415   7.653  12.258  1.00  0.00    -0.055 C 
ATOM      8  C   UNL     1       3.790   8.138  13.338  1.00  0.00     0.012 C 
BRANCH   7   9
ATOM      9  C   UNL     1       4.270   6.206  11.947  1.00  0.00    -0.005 C 
ATOM     10  C   UNL     1       3.935   5.271  12.837  1.00  0.00     0.009 C 
ENDBRANCH   7   9
ENDBRANCH   1   7
TORSDOF 4
ENDMDL
