MODEL 1
REMARK VINA RESULT:    -4.358      0.000      0.000
REMARK INTER + INTRA:         -10.338
REMARK INTER:                  -8.435
REMARK INTRA:                  -1.903
REMARK UNBOUND:                -1.903
REMARK SMILES CCCCCCCCCCCCCCCCCC(=O)[O-]
REMARK SMILES IDX 10 1 11 2 12 3 13 4 14 5 15 6 16 7 17 8 18 9 19 10 20 11
REMARK SMILES IDX 9 12 8 13 7 14 6 15 5 16 4 17 3 18 2 19 1 20
REMARK H PARENT
REMARK Flexibility Score: inf
ROOT
ATOM      1  C   UNL     1     -13.290  -9.088 -29.437  1.00  0.00     0.000 C 
ENDROOT
BRANCH   1   2
ATOM      2  C   UNL     1     -13.688  -7.662 -29.854  1.00  0.00     0.000 C 
BRANCH   2   3
ATOM      3  C   UNL     1     -15.014  -7.620 -30.635  1.00  0.00     0.000 C 
BRANCH   3   4
ATOM      4  C   UNL     1     -15.318  -6.277 -31.328  1.00  0.00     0.000 C 
BRANCH   4   5
ATOM      5  C   UNL     1     -14.200  -5.226 -31.164  1.00  0.00     0.000 C 
BRANCH   5   6
ATOM      6  C   UNL     1     -13.902  -4.484 -32.479  1.00  0.00     0.000 C 
BRANCH   6   7
ATOM      7  C   UNL     1     -15.156  -3.870 -33.124  1.00  0.00     0.006 C 
BRANCH   7   8
ATOM      8  C   UNL     1     -14.934  -2.461 -33.703  1.00  0.00     0.053 C 
BRANCH   8   9
ATOM      9  C   UNL     1     -15.279  -1.375 -32.730  1.00  0.00     0.041 C 
ATOM     10  O   UNL     1     -15.019  -0.172 -33.000  1.00  0.00    -0.550 OA
ATOM     11  O   UNL     1     -15.923  -1.687 -31.539  1.00  0.00    -0.550 OA
ENDBRANCH   8   9
ENDBRANCH   7   8
ENDBRANCH   6   7
ENDBRANCH   5   6
ENDBRANCH   4   5
ENDBRANCH   3   4
ENDBRANCH   2   3
ENDBRANCH   1   2
BRANCH   1  12
ATOM     12  C   UNL     1     -12.127  -9.106 -28.434  1.00  0.00     0.000 C 
BRANCH  12  13
ATOM     13  C   UNL     1     -11.461  -7.731 -28.271  1.00  0.00    -0.000 C 
BRANCH  13  14
ATOM     14  C   UNL     1      -9.938  -7.839 -28.418  1.00  0.00    -0.000 C 
BRANCH  14  15
ATOM     15  C   UNL     1      -9.385  -6.695 -29.279  1.00  0.00    -0.000 C 
BRANCH  15  16
ATOM     16  C   UNL     1     -10.442  -6.084 -30.214  1.00  0.00    -0.000 C 
BRANCH  16  17
ATOM     17  C   UNL     1     -10.790  -4.618 -29.881  1.00  0.00    -0.000 C 
BRANCH  17  18
ATOM     18  C   UNL     1     -10.565  -3.680 -31.076  1.00  0.00    -0.000 C 
BRANCH  18  19
ATOM     19  C   UNL     1     -10.731  -2.213 -30.664  1.00  0.00    -0.003 C 
ATOM     20  C   UNL     1     -12.200  -1.801 -30.672  1.00  0.00     0.004 C 
ENDBRANCH  18  19
ENDBRANCH  17  18
ENDBRANCH  16  17
ENDBRANCH  15  16
ENDBRANCH  14  15
ENDBRANCH  13  14
ENDBRANCH  12  13
ENDBRANCH   1  12
TORSDOF 16
ENDMDL
MODEL 2
REMARK VINA RESULT:    -4.329     20.399     23.407
REMARK INTER + INTRA:         -10.282
REMARK INTER:                  -7.559
REMARK INTRA:                  -2.723
REMARK UNBOUND:                -1.903
REMARK SMILES CCCCCCCCCCCCCCCCCC(=O)[O-]
REMARK SMILES IDX 10 1 11 2 12 3 13 4 14 5 15 6 16 7 17 8 18 9 19 10 20 11
REMARK SMILES IDX 9 12 8 13 7 14 6 15 5 16 4 17 3 18 2 19 1 20
REMARK H PARENT
REMARK Flexibility Score: inf
ROOT
ATOM      1  C   UNL     1       3.274  10.192 -17.955  1.00  0.00     0.000 C 
ENDROOT
BRANCH   1   2
ATOM      2  C   UNL     1       3.901   9.316 -19.053  1.00  0.00     0.000 C 
BRANCH   2   3
ATOM      3  C   UNL     1       2.892   8.922 -20.147  1.00  0.00     0.000 C 
BRANCH   3   4
ATOM      4  C   UNL     1       3.150   7.554 -20.808  1.00  0.00     0.000 C 
BRANCH   4   5
ATOM      5  C   UNL     1       2.975   6.357 -19.849  1.00  0.00     0.000 C 
BRANCH   5   6
ATOM      6  C   UNL     1       3.566   5.059 -20.426  1.00  0.00     0.000 C 
BRANCH   6   7
ATOM      7  C   UNL     1       2.948   3.790 -19.814  1.00  0.00     0.006 C 
BRANCH   7   8
ATOM      8  C   UNL     1       1.487   3.962 -19.361  1.00  0.00     0.053 C 
BRANCH   8   9
ATOM      9  C   UNL     1       0.717   2.676 -19.391  1.00  0.00     0.041 C 
ATOM     10  O   UNL     1      -0.404   2.592 -18.822  1.00  0.00    -0.550 OA
ATOM     11  O   UNL     1       1.221   1.580 -20.080  1.00  0.00    -0.550 OA
ENDBRANCH   8   9
ENDBRANCH   7   8
ENDBRANCH   6   7
ENDBRANCH   5   6
ENDBRANCH   4   5
ENDBRANCH   3   4
ENDBRANCH   2   3
ENDBRANCH   1   2
BRANCH   1  12
ATOM     12  C   UNL     1       1.790  10.491 -18.216  1.00  0.00     0.000 C 
BRANCH  12  13
ATOM     13  C   UNL     1       1.009  10.797 -16.929  1.00  0.00    -0.000 C 
BRANCH  13  14
ATOM     14  C   UNL     1       1.725  10.219 -15.702  1.00  0.00    -0.000 C 
BRANCH  14  15
ATOM     15  C   UNL     1       0.995   8.980 -15.169  1.00  0.00    -0.000 C 
BRANCH  15  16
ATOM     16  C   UNL     1       1.760   7.673 -15.432  1.00  0.00    -0.000 C 
BRANCH  16  17
ATOM     17  C   UNL     1       1.423   7.021 -16.790  1.00  0.00    -0.000 C 
BRANCH  17  18
ATOM     18  C   UNL     1      -0.059   7.176 -17.158  1.00  0.00    -0.000 C 
BRANCH  18  19
ATOM     19  C   UNL     1      -0.232   7.397 -18.665  1.00  0.00    -0.003 C 
ATOM     20  C   UNL     1      -1.223   8.523 -18.947  1.00  0.00     0.004 C 
ENDBRANCH  18  19
ENDBRANCH  17  18
ENDBRANCH  16  17
ENDBRANCH  15  16
ENDBRANCH  14  15
ENDBRANCH  13  14
ENDBRANCH  12  13
ENDBRANCH   1  12
TORSDOF 16
ENDMDL
MODEL 3
REMARK VINA RESULT:    -4.303      3.175      6.673
REMARK INTER + INTRA:         -10.231
REMARK INTER:                  -7.781
REMARK INTRA:                  -2.449
REMARK UNBOUND:                -1.903
REMARK SMILES CCCCCCCCCCCCCCCCCC(=O)[O-]
REMARK SMILES IDX 10 1 11 2 12 3 13 4 14 5 15 6 16 7 17 8 18 9 19 10 20 11
REMARK SMILES IDX 9 12 8 13 7 14 6 15 5 16 4 17 3 18 2 19 1 20
REMARK H PARENT
REMARK Flexibility Score: inf
ROOT
ATOM      1  C   UNL     1     -14.544  -4.461 -32.896  1.00  0.00     0.000 C 
ENDROOT
BRANCH   1   2
ATOM      2  C   UNL     1     -15.918  -4.815 -32.299  1.00  0.00     0.000 C 
BRANCH   2   3
ATOM      3  C   UNL     1     -15.814  -5.413 -30.885  1.00  0.00     0.000 C 
BRANCH   3   4
ATOM      4  C   UNL     1     -15.440  -6.908 -30.838  1.00  0.00     0.000 C 
BRANCH   4   5
ATOM      5  C   UNL     1     -14.050  -7.181 -30.223  1.00  0.00     0.000 C 
BRANCH   5   6
ATOM      6  C   UNL     1     -13.825  -8.676 -29.936  1.00  0.00     0.000 C 
BRANCH   6   7
ATOM      7  C   UNL     1     -12.808  -8.928 -28.809  1.00  0.00     0.006 C 
BRANCH   7   8
ATOM      8  C   UNL     1     -12.080  -7.660 -28.329  1.00  0.00     0.053 C 
BRANCH   8   9
ATOM      9  C   UNL     1     -10.590  -7.768 -28.449  1.00  0.00     0.041 C 
ATOM     10  O   UNL     1      -9.846  -6.871 -27.971  1.00  0.00    -0.550 OA
ATOM     11  O   UNL     1     -10.020  -8.879 -29.060  1.00  0.00    -0.550 OA
ENDBRANCH   8   9
ENDBRANCH   7   8
ENDBRANCH   6   7
ENDBRANCH   5   6
ENDBRANCH   4   5
ENDBRANCH   3   4
ENDBRANCH   2   3
ENDBRANCH   1   2
BRANCH   1  12
ATOM     12  C   UNL     1     -14.594  -3.211 -33.787  1.00  0.00     0.000 C 
BRANCH  12  13
ATOM     13  C   UNL     1     -15.716  -2.240 -33.390  1.00  0.00    -0.000 C 
BRANCH  13  14
ATOM     14  C   UNL     1     -15.165  -0.825 -33.173  1.00  0.00    -0.000 C 
BRANCH  14  15
ATOM     15  C   UNL     1     -15.237  -0.426 -31.694  1.00  0.00    -0.000 C 
BRANCH  15  16
ATOM     16  C   UNL     1     -15.739  -1.563 -30.789  1.00  0.00    -0.000 C 
BRANCH  16  17
ATOM     17  C   UNL     1     -14.727  -1.982 -29.702  1.00  0.00    -0.000 C 
BRANCH  17  18
ATOM     18  C   UNL     1     -13.336  -2.276 -30.283  1.00  0.00    -0.000 C 
BRANCH  18  19
ATOM     19  C   UNL     1     -12.765  -3.578 -29.713  1.00  0.00    -0.003 C 
ATOM     20  C   UNL     1     -11.744  -4.196 -30.665  1.00  0.00     0.004 C 
ENDBRANCH  18  19
ENDBRANCH  17  18
ENDBRANCH  16  17
ENDBRANCH  15  16
ENDBRANCH  14  15
ENDBRANCH  13  14
ENDBRANCH  12  13
ENDBRANCH   1  12
TORSDOF 16
ENDMDL
MODEL 4
REMARK VINA RESULT:    -4.246     20.849     23.635
REMARK INTER + INTRA:         -10.120
REMARK INTER:                  -7.131
REMARK INTRA:                  -2.990
REMARK UNBOUND:                -1.903
REMARK SMILES CCCCCCCCCCCCCCCCCC(=O)[O-]
REMARK SMILES IDX 10 1 11 2 12 3 13 4 14 5 15 6 16 7 17 8 18 9 19 10 20 11
REMARK SMILES IDX 9 12 8 13 7 14 6 15 5 16 4 17 3 18 2 19 1 20
REMARK H PARENT
REMARK Flexibility Score: inf
ROOT
ATOM      1  C   UNL     1       1.817  10.534 -17.883  1.00  0.00     0.000 C 
ENDROOT
BRANCH   1   2
ATOM      2  C   UNL     1       3.298  10.291 -17.545  1.00  0.00     0.000 C 
BRANCH   2   3
ATOM      3  C   UNL     1       4.079   9.669 -18.716  1.00  0.00     0.000 C 
BRANCH   3   4
ATOM      4  C   UNL     1       3.292   8.638 -19.549  1.00  0.00     0.000 C 
BRANCH   4   5
ATOM      5  C   UNL     1       3.914   8.351 -20.932  1.00  0.00     0.000 C 
BRANCH   5   6
ATOM      6  C   UNL     1       3.508   6.971 -21.477  1.00  0.00     0.000 C 
BRANCH   6   7
ATOM      7  C   UNL     1       3.241   5.938 -20.369  1.00  0.00     0.006 C 
BRANCH   7   8
ATOM      8  C   UNL     1       1.967   5.103 -20.586  1.00  0.00     0.053 C 
BRANCH   8   9
ATOM      9  C   UNL     1       1.866   3.945 -19.639  1.00  0.00     0.041 C 
ATOM     10  O   UNL     1       2.818   3.128 -19.528  1.00  0.00    -0.550 OA
ATOM     11  O   UNL     1       0.731   3.789 -18.852  1.00  0.00    -0.550 OA
ENDBRANCH   8   9
ENDBRANCH   7   8
ENDBRANCH   6   7
ENDBRANCH   5   6
ENDBRANCH   4   5
ENDBRANCH   3   4
ENDBRANCH   2   3
ENDBRANCH   1   2
BRANCH   1  12
ATOM     12  C   UNL     1       0.939  10.654 -16.628  1.00  0.00     0.000 C 
BRANCH  12  13
ATOM     13  C   UNL     1       1.517   9.899 -15.422  1.00  0.00    -0.000 C 
BRANCH  13  14
ATOM     14  C   UNL     1       0.922   8.489 -15.321  1.00  0.00    -0.000 C 
BRANCH  14  15
ATOM     15  C   UNL     1       1.903   7.436 -15.853  1.00  0.00    -0.000 C 
BRANCH  15  16
ATOM     16  C   UNL     1       1.405   6.745 -17.133  1.00  0.00    -0.000 C 
BRANCH  16  17
ATOM     17  C   UNL     1      -0.061   7.076 -17.485  1.00  0.00    -0.000 C 
BRANCH  17  18
ATOM     18  C   UNL     1      -0.199   7.697 -18.882  1.00  0.00    -0.000 C 
BRANCH  18  19
ATOM     19  C   UNL     1      -1.535   8.433 -19.028  1.00  0.00    -0.003 C 
ATOM     20  C   UNL     1      -2.101   8.826 -17.667  1.00  0.00     0.004 C 
ENDBRANCH  18  19
ENDBRANCH  17  18
ENDBRANCH  16  17
ENDBRANCH  15  16
ENDBRANCH  14  15
ENDBRANCH  13  14
ENDBRANCH  12  13
ENDBRANCH   1  12
TORSDOF 16
ENDMDL
MODEL 5
REMARK VINA RESULT:    -4.236      3.074      6.466
REMARK INTER + INTRA:         -10.101
REMARK INTER:                  -8.431
REMARK INTRA:                  -1.670
REMARK UNBOUND:                -1.903
REMARK SMILES CCCCCCCCCCCCCCCCCC(=O)[O-]
REMARK SMILES IDX 10 1 11 2 12 3 13 4 14 5 15 6 16 7 17 8 18 9 19 10 20 11
REMARK SMILES IDX 9 12 8 13 7 14 6 15 5 16 4 17 3 18 2 19 1 20
REMARK H PARENT
REMARK Flexibility Score: inf
ROOT
ATOM      1  C   UNL     1     -14.804  -5.579 -30.488  1.00  0.00     0.000 C 
ENDROOT
BRANCH   1   2
ATOM      2  C   UNL     1     -15.400  -6.959 -30.817  1.00  0.00     0.000 C 
BRANCH   2   3
ATOM      3  C   UNL     1     -14.510  -8.119 -30.339  1.00  0.00     0.000 C 
BRANCH   3   4
ATOM      4  C   UNL     1     -13.274  -7.697 -29.522  1.00  0.00     0.000 C 
BRANCH   4   5
ATOM      5  C   UNL     1     -12.755  -8.794 -28.568  1.00  0.00     0.000 C 
BRANCH   5   6
ATOM      6  C   UNL     1     -11.299  -8.547 -28.135  1.00  0.00     0.000 C 
BRANCH   6   7
ATOM      7  C   UNL     1     -10.589  -7.479 -28.984  1.00  0.00     0.006 C 
BRANCH   7   8
ATOM      8  C   UNL     1      -9.216  -7.919 -29.521  1.00  0.00     0.053 C 
BRANCH   8   9
ATOM      9  C   UNL     1      -8.557  -6.865 -30.359  1.00  0.00     0.041 C 
ATOM     10  O   UNL     1      -9.246  -6.129 -31.114  1.00  0.00    -0.550 OA
ATOM     11  O   UNL     1      -7.184  -6.671 -30.278  1.00  0.00    -0.550 OA
ENDBRANCH   8   9
ENDBRANCH   7   8
ENDBRANCH   6   7
ENDBRANCH   5   6
ENDBRANCH   4   5
ENDBRANCH   3   4
ENDBRANCH   2   3
ENDBRANCH   1   2
BRANCH   1  12
ATOM     12  C   UNL     1     -15.748  -4.425 -30.860  1.00  0.00     0.000 C 
BRANCH  12  13
ATOM     13  C   UNL     1     -15.882  -4.231 -32.377  1.00  0.00    -0.000 C 
BRANCH  13  14
ATOM     14  C   UNL     1     -14.509  -4.021 -33.027  1.00  0.00    -0.000 C 
BRANCH  14  15
ATOM     15  C   UNL     1     -14.529  -2.819 -33.981  1.00  0.00    -0.000 C 
BRANCH  15  16
ATOM     16  C   UNL     1     -15.672  -1.835 -33.683  1.00  0.00    -0.000 C 
BRANCH  16  17
ATOM     17  C   UNL     1     -15.208  -0.538 -32.989  1.00  0.00    -0.000 C 
BRANCH  17  18
ATOM     18  C   UNL     1     -15.110  -0.696 -31.464  1.00  0.00    -0.000 C 
BRANCH  18  19
ATOM     19  C   UNL     1     -13.673  -0.479 -30.979  1.00  0.00    -0.003 C 
ATOM     20  C   UNL     1     -13.029  -1.796 -30.555  1.00  0.00     0.004 C 
ENDBRANCH  18  19
ENDBRANCH  17  18
ENDBRANCH  16  17
ENDBRANCH  15  16
ENDBRANCH  14  15
ENDBRANCH  13  14
ENDBRANCH  12  13
ENDBRANCH   1  12
TORSDOF 16
ENDMDL
MODEL 6
REMARK VINA RESULT:    -4.211     20.551     23.572
REMARK INTER + INTRA:         -10.054
REMARK INTER:                  -7.785
REMARK INTRA:                  -2.269
REMARK UNBOUND:                -1.903
REMARK SMILES CCCCCCCCCCCCCCCCCC(=O)[O-]
REMARK SMILES IDX 10 1 11 2 12 3 13 4 14 5 15 6 16 7 17 8 18 9 19 10 20 11
REMARK SMILES IDX 9 12 8 13 7 14 6 15 5 16 4 17 3 18 2 19 1 20
REMARK H PARENT
REMARK Flexibility Score: inf
ROOT
ATOM      1  C   UNL     1       3.775   9.278 -19.047  1.00  0.00     0.000 C 
ENDROOT
BRANCH   1   2
ATOM      2  C   UNL     1       2.820   9.216 -20.253  1.00  0.00     0.000 C 
BRANCH   2   3
ATOM      3  C   UNL     1       3.069   7.987 -21.144  1.00  0.00     0.000 C 
BRANCH   3   4
ATOM      4  C   UNL     1       2.850   6.627 -20.453  1.00  0.00     0.000 C 
BRANCH   4   5
ATOM      5  C   UNL     1       3.608   5.461 -21.122  1.00  0.00     0.000 C 
BRANCH   5   6
ATOM      6  C   UNL     1       3.761   4.252 -20.183  1.00  0.00     0.000 C 
BRANCH   6   7
ATOM      7  C   UNL     1       2.416   3.717 -19.662  1.00  0.00     0.006 C 
BRANCH   7   8
ATOM      8  C   UNL     1       1.952   2.419 -20.347  1.00  0.00     0.053 C 
BRANCH   8   9
ATOM      9  C   UNL     1       3.026   1.374 -20.392  1.00  0.00     0.041 C 
ATOM     10  O   UNL     1       3.371   0.770 -19.343  1.00  0.00    -0.550 OA
ATOM     11  O   UNL     1       3.621   1.041 -21.603  1.00  0.00    -0.550 OA
ENDBRANCH   8   9
ENDBRANCH   7   8
ENDBRANCH   6   7
ENDBRANCH   5   6
ENDBRANCH   4   5
ENDBRANCH   3   4
ENDBRANCH   2   3
ENDBRANCH   1   2
BRANCH   1  12
ATOM     12  C   UNL     1       3.246  10.181 -17.923  1.00  0.00     0.000 C 
BRANCH  12  13
ATOM     13  C   UNL     1       1.760  10.533 -18.091  1.00  0.00    -0.000 C 
BRANCH  13  14
ATOM     14  C   UNL     1       1.111  10.838 -16.735  1.00  0.00    -0.000 C 
BRANCH  14  15
ATOM     15  C   UNL     1       1.808  10.068 -15.605  1.00  0.00    -0.000 C 
BRANCH  15  16
ATOM     16  C   UNL     1       1.062   8.784 -15.205  1.00  0.00    -0.000 C 
BRANCH  16  17
ATOM     17  C   UNL     1       1.863   7.493 -15.473  1.00  0.00    -0.000 C 
BRANCH  17  18
ATOM     18  C   UNL     1       1.739   7.023 -16.930  1.00  0.00    -0.000 C 
BRANCH  18  19
ATOM     19  C   UNL     1       0.297   7.154 -17.430  1.00  0.00    -0.003 C 
ATOM     20  C   UNL     1      -0.151   5.890 -18.158  1.00  0.00     0.004 C 
ENDBRANCH  18  19
ENDBRANCH  17  18
ENDBRANCH  16  17
ENDBRANCH  15  16
ENDBRANCH  14  15
ENDBRANCH  13  14
ENDBRANCH  12  13
ENDBRANCH   1  12
TORSDOF 16
ENDMDL
MODEL 7
REMARK VINA RESULT:    -4.211      1.531      2.547
REMARK INTER + INTRA:         -10.053
REMARK INTER:                  -7.739
REMARK INTRA:                  -2.314
REMARK UNBOUND:                -1.903
REMARK SMILES CCCCCCCCCCCCCCCCCC(=O)[O-]
REMARK SMILES IDX 10 1 11 2 12 3 13 4 14 5 15 6 16 7 17 8 18 9 19 10 20 11
REMARK SMILES IDX 9 12 8 13 7 14 6 15 5 16 4 17 3 18 2 19 1 20
REMARK H PARENT
REMARK Flexibility Score: inf
ROOT
ATOM      1  C   UNL     1     -14.160  -6.238 -30.391  1.00  0.00     0.000 C 
ENDROOT
BRANCH   1   2
ATOM      2  C   UNL     1     -15.423  -6.214 -31.270  1.00  0.00     0.000 C 
BRANCH   2   3
ATOM      3  C   UNL     1     -15.941  -4.788 -31.526  1.00  0.00     0.000 C 
BRANCH   3   4
ATOM      4  C   UNL     1     -15.742  -4.273 -32.965  1.00  0.00     0.000 C 
BRANCH   4   5
ATOM      5  C   UNL     1     -14.782  -3.068 -33.067  1.00  0.00     0.000 C 
BRANCH   5   6
ATOM      6  C   UNL     1     -15.352  -1.943 -33.948  1.00  0.00     0.000 C 
BRANCH   6   7
ATOM      7  C   UNL     1     -15.173  -0.544 -33.333  1.00  0.00     0.006 C 
BRANCH   7   8
ATOM      8  C   UNL     1     -15.242  -0.524 -31.796  1.00  0.00     0.053 C 
BRANCH   8   9
ATOM      9  C   UNL     1     -14.730   0.758 -31.211  1.00  0.00     0.041 C 
ATOM     10  O   UNL     1     -15.533   1.636 -30.801  1.00  0.00    -0.550 OA
ATOM     11  O   UNL     1     -13.361   0.967 -31.087  1.00  0.00    -0.550 OA
ENDBRANCH   8   9
ENDBRANCH   7   8
ENDBRANCH   6   7
ENDBRANCH   5   6
ENDBRANCH   4   5
ENDBRANCH   3   4
ENDBRANCH   2   3
ENDBRANCH   1   2
BRANCH   1  12
ATOM     12  C   UNL     1     -13.743  -7.663 -29.998  1.00  0.00     0.000 C 
BRANCH  12  13
ATOM     13  C   UNL     1     -12.562  -7.688 -29.016  1.00  0.00    -0.000 C 
BRANCH  13  14
ATOM     14  C   UNL     1     -12.092  -6.266 -28.687  1.00  0.00    -0.000 C 
BRANCH  14  15
ATOM     15  C   UNL     1     -10.644  -6.044 -29.143  1.00  0.00    -0.000 C 
BRANCH  15  16
ATOM     16  C   UNL     1     -10.541  -5.570 -30.602  1.00  0.00    -0.000 C 
BRANCH  16  17
ATOM     17  C   UNL     1     -10.520  -4.034 -30.755  1.00  0.00    -0.000 C 
BRANCH  17  18
ATOM     18  C   UNL     1     -11.899  -3.466 -31.120  1.00  0.00    -0.000 C 
BRANCH  18  19
ATOM     19  C   UNL     1     -12.329  -2.382 -30.126  1.00  0.00    -0.003 C 
ATOM     20  C   UNL     1     -13.601  -2.785 -29.386  1.00  0.00     0.004 C 
ENDBRANCH  18  19
ENDBRANCH  17  18
ENDBRANCH  16  17
ENDBRANCH  15  16
ENDBRANCH  14  15
ENDBRANCH  13  14
ENDBRANCH  12  13
ENDBRANCH   1  12
TORSDOF 16
ENDMDL
MODEL 8
REMARK VINA RESULT:    -4.210      1.383      2.742
REMARK INTER + INTRA:         -10.051
REMARK INTER:                  -7.702
REMARK INTRA:                  -2.348
REMARK UNBOUND:                -1.903
REMARK SMILES CCCCCCCCCCCCCCCCCC(=O)[O-]
REMARK SMILES IDX 10 1 11 2 12 3 13 4 14 5 15 6 16 7 17 8 18 9 19 10 20 11
REMARK SMILES IDX 9 12 8 13 7 14 6 15 5 16 4 17 3 18 2 19 1 20
REMARK H PARENT
REMARK Flexibility Score: inf
ROOT
ATOM      1  C   UNL     1     -12.171  -7.445 -29.089  1.00  0.00     0.000 C 
ENDROOT
BRANCH   1   2
ATOM      2  C   UNL     1     -13.182  -8.601 -29.194  1.00  0.00     0.000 C 
BRANCH   2   3
ATOM      3  C   UNL     1     -14.311  -8.312 -30.199  1.00  0.00     0.000 C 
BRANCH   3   4
ATOM      4  C   UNL     1     -14.360  -6.863 -30.723  1.00  0.00     0.000 C 
BRANCH   4   5
ATOM      5  C   UNL     1     -15.790  -6.347 -30.988  1.00  0.00     0.000 C 
BRANCH   5   6
ATOM      6  C   UNL     1     -15.798  -5.061 -31.832  1.00  0.00     0.000 C 
BRANCH   6   7
ATOM      7  C   UNL     1     -14.387  -4.582 -32.216  1.00  0.00     0.006 C 
BRANCH   7   8
ATOM      8  C   UNL     1     -14.345  -3.714 -33.486  1.00  0.00     0.053 C 
BRANCH   8   9
ATOM      9  C   UNL     1     -14.894  -2.337 -33.263  1.00  0.00     0.041 C 
ATOM     10  O   UNL     1     -14.575  -1.684 -32.235  1.00  0.00    -0.550 OA
ATOM     11  O   UNL     1     -15.730  -1.760 -34.211  1.00  0.00    -0.550 OA
ENDBRANCH   8   9
ENDBRANCH   7   8
ENDBRANCH   6   7
ENDBRANCH   5   6
ENDBRANCH   4   5
ENDBRANCH   3   4
ENDBRANCH   2   3
ENDBRANCH   1   2
BRANCH   1  12
ATOM     12  C   UNL     1     -12.007  -6.935 -27.649  1.00  0.00     0.000 C 
BRANCH  12  13
ATOM     13  C   UNL     1     -12.074  -5.404 -27.548  1.00  0.00    -0.000 C 
BRANCH  13  14
ATOM     14  C   UNL     1     -12.635  -4.794 -28.839  1.00  0.00    -0.000 C 
BRANCH  14  15
ATOM     15  C   UNL     1     -12.112  -3.366 -29.046  1.00  0.00    -0.000 C 
BRANCH  15  16
ATOM     16  C   UNL     1     -11.142  -3.250 -30.234  1.00  0.00    -0.000 C 
BRANCH  16  17
ATOM     17  C   UNL     1     -10.920  -4.580 -30.985  1.00  0.00    -0.000 C 
BRANCH  17  18
ATOM     18  C   UNL     1      -9.435  -4.963 -31.062  1.00  0.00    -0.000 C 
BRANCH  18  19
ATOM     19  C   UNL     1      -9.011  -5.778 -29.836  1.00  0.00    -0.003 C 
ATOM     20  C   UNL     1      -8.593  -7.192 -30.231  1.00  0.00     0.004 C 
ENDBRANCH  18  19
ENDBRANCH  17  18
ENDBRANCH  16  17
ENDBRANCH  15  16
ENDBRANCH  14  15
ENDBRANCH  13  14
ENDBRANCH  12  13
ENDBRANCH   1  12
TORSDOF 16
ENDMDL
MODEL 9
REMARK VINA RESULT:    -4.192      2.597      6.116
REMARK INTER + INTRA:         -10.017
REMARK INTER:                  -7.353
REMARK INTRA:                  -2.664
REMARK UNBOUND:                -1.903
REMARK SMILES CCCCCCCCCCCCCCCCCC(=O)[O-]
REMARK SMILES IDX 10 1 11 2 12 3 13 4 14 5 15 6 16 7 17 8 18 9 19 10 20 11
REMARK SMILES IDX 9 12 8 13 7 14 6 15 5 16 4 17 3 18 2 19 1 20
REMARK H PARENT
REMARK Flexibility Score: inf
ROOT
ATOM      1  C   UNL     1     -15.588  -2.694 -33.574  1.00  0.00     0.000 C 
ENDROOT
BRANCH   1   2
ATOM      2  C   UNL     1     -14.336  -3.587 -33.528  1.00  0.00     0.000 C 
BRANCH   2   3
ATOM      3  C   UNL     1     -14.435  -4.692 -32.461  1.00  0.00     0.000 C 
BRANCH   3   4
ATOM      4  C   UNL     1     -15.541  -4.483 -31.408  1.00  0.00     0.000 C 
BRANCH   4   5
ATOM      5  C   UNL     1     -15.633  -5.621 -30.369  1.00  0.00     0.000 C 
BRANCH   5   6
ATOM      6  C   UNL     1     -14.905  -6.894 -30.835  1.00  0.00     0.000 C 
BRANCH   6   7
ATOM      7  C   UNL     1     -13.848  -7.387 -29.831  1.00  0.00     0.006 C 
BRANCH   7   8
ATOM      8  C   UNL     1     -12.568  -6.533 -29.802  1.00  0.00     0.053 C 
BRANCH   8   9
ATOM      9  C   UNL     1     -12.273  -5.980 -28.440  1.00  0.00     0.041 C 
ATOM     10  O   UNL     1     -12.898  -4.974 -28.012  1.00  0.00    -0.550 OA
ATOM     11  O   UNL     1     -11.330  -6.599 -27.628  1.00  0.00    -0.550 OA
ENDBRANCH   8   9
ENDBRANCH   7   8
ENDBRANCH   6   7
ENDBRANCH   5   6
ENDBRANCH   4   5
ENDBRANCH   3   4
ENDBRANCH   2   3
ENDBRANCH   1   2
BRANCH   1  12
ATOM     12  C   UNL     1     -15.277  -1.269 -34.056  1.00  0.00     0.000 C 
BRANCH  12  13
ATOM     13  C   UNL     1     -14.937  -0.311 -32.904  1.00  0.00    -0.000 C 
BRANCH  13  14
ATOM     14  C   UNL     1     -15.644  -0.736 -31.611  1.00  0.00    -0.000 C 
BRANCH  14  15
ATOM     15  C   UNL     1     -14.646  -0.858 -30.452  1.00  0.00    -0.000 C 
BRANCH  15  16
ATOM     16  C   UNL     1     -13.204  -1.105 -30.925  1.00  0.00    -0.000 C 
BRANCH  16  17
ATOM     17  C   UNL     1     -12.464  -2.190 -30.116  1.00  0.00    -0.000 C 
BRANCH  17  18
ATOM     18  C   UNL     1     -11.579  -3.077 -31.004  1.00  0.00    -0.000 C 
BRANCH  18  19
ATOM     19  C   UNL     1     -10.200  -3.289 -30.372  1.00  0.00    -0.003 C 
ATOM     20  C   UNL     1      -9.130  -2.473 -31.093  1.00  0.00     0.004 C 
ENDBRANCH  18  19
ENDBRANCH  17  18
ENDBRANCH  16  17
ENDBRANCH  15  16
ENDBRANCH  14  15
ENDBRANCH  13  14
ENDBRANCH  12  13
ENDBRANCH   1  12
TORSDOF 16
ENDMDL
