MODEL 1
REMARK VINA RESULT:    -3.299      0.000      0.000
REMARK INTER + INTRA:         -13.656
REMARK INTER:                  -8.314
REMARK INTRA:                  -5.341
REMARK UNBOUND:                -5.341
REMARK SMILES CCCCCCCCCCCCCCCCCCCCCCCCCCCC(=O)[O-]
REMARK SMILES IDX 15 1 16 2 17 3 18 4 19 5 20 6 21 7 22 8 23 9 24 10 25 11
REMARK SMILES IDX 26 12 27 13 28 14 29 15 30 16 14 17 13 18 12 19 11 20 10 21
REMARK SMILES IDX 9 22 8 23 7 24 6 25 5 26 4 27 3 28 2 29 1 30
REMARK H PARENT
REMARK Flexibility Score: inf
ROOT
ATOM      1  C   UNL     1     191.386 176.571 176.406  1.00  0.00     0.000 C 
ENDROOT
BRANCH   1   2
ATOM      2  C   UNL     1     190.485 176.464 177.645  1.00  0.00     0.000 C 
BRANCH   2   3
ATOM      3  C   UNL     1     190.200 175.007 178.048  1.00  0.00     0.000 C 
BRANCH   3   4
ATOM      4  C   UNL     1     189.037 174.822 179.043  1.00  0.00     0.000 C 
BRANCH   4   5
ATOM      5  C   UNL     1     187.952 173.818 178.601  1.00  0.00     0.000 C 
BRANCH   5   6
ATOM      6  C   UNL     1     186.506 174.295 178.821  1.00  0.00     0.000 C 
BRANCH   6   7
ATOM      7  C   UNL     1     186.095 174.273 180.304  1.00  0.00     0.000 C 
BRANCH   7   8
ATOM      8  C   UNL     1     185.438 175.589 180.747  1.00  0.00     0.000 C 
BRANCH   8   9
ATOM      9  C   UNL     1     185.309 176.596 179.589  1.00  0.00     0.000 C 
BRANCH   9  10
ATOM     10  C   UNL     1     186.088 177.896 179.846  1.00  0.00     0.000 C 
BRANCH  10  11
ATOM     11  C   UNL     1     187.550 177.693 180.289  1.00  0.00     0.000 C 
BRANCH  11  12
ATOM     12  C   UNL     1     187.895 178.374 181.633  1.00  0.00     0.006 C 
BRANCH  12  13
ATOM     13  C   UNL     1     189.362 178.826 181.732  1.00  0.00     0.053 C 
BRANCH  13  14
ATOM     14  C   UNL     1     190.315 177.684 181.546  1.00  0.00     0.041 C 
ATOM     15  O   UNL     1     190.092 176.577 182.106  1.00  0.00    -0.550 OA
ATOM     16  O   UNL     1     191.430 177.831 180.730  1.00  0.00    -0.550 OA
ENDBRANCH  13  14
ENDBRANCH  12  13
ENDBRANCH  11  12
ENDBRANCH  10  11
ENDBRANCH   9  10
ENDBRANCH   8   9
ENDBRANCH   7   8
ENDBRANCH   6   7
ENDBRANCH   5   6
ENDBRANCH   4   5
ENDBRANCH   3   4
ENDBRANCH   2   3
ENDBRANCH   1   2
BRANCH   1  17
ATOM     17  C   UNL     1     191.432 178.011 175.877  1.00  0.00     0.000 C 
BRANCH  17  18
ATOM     18  C   UNL     1     190.146 178.354 175.111  1.00  0.00     0.000 C 
BRANCH  18  19
ATOM     19  C   UNL     1     190.258 178.092 173.599  1.00  0.00     0.000 C 
BRANCH  19  20
ATOM     20  C   UNL     1     188.939 178.232 172.809  1.00  0.00     0.000 C 
BRANCH  20  21
ATOM     21  C   UNL     1     188.744 177.212 171.673  1.00  0.00     0.000 C 
BRANCH  21  22
ATOM     22  C   UNL     1     190.018 176.443 171.277  1.00  0.00    -0.000 C 
BRANCH  22  23
ATOM     23  C   UNL     1     189.887 174.910 171.425  1.00  0.00    -0.000 C 
BRANCH  23  24
ATOM     24  C   UNL     1     190.977 174.274 172.306  1.00  0.00    -0.000 C 
BRANCH  24  25
ATOM     25  C   UNL     1     190.628 174.343 173.804  1.00  0.00    -0.000 C 
BRANCH  25  26
ATOM     26  C   UNL     1     189.663 173.226 174.245  1.00  0.00    -0.000 C 
BRANCH  26  27
ATOM     27  C   UNL     1     188.335 173.717 174.850  1.00  0.00    -0.000 C 
BRANCH  27  28
ATOM     28  C   UNL     1     188.224 175.251 174.882  1.00  0.00    -0.000 C 
BRANCH  28  29
ATOM     29  C   UNL     1     186.874 175.732 175.436  1.00  0.00    -0.003 C 
ATOM     30  C   UNL     1     187.000 177.002 176.278  1.00  0.00     0.004 C 
ENDBRANCH  28  29
ENDBRANCH  27  28
ENDBRANCH  26  27
ENDBRANCH  25  26
ENDBRANCH  24  25
ENDBRANCH  23  24
ENDBRANCH  22  23
ENDBRANCH  21  22
ENDBRANCH  20  21
ENDBRANCH  19  20
ENDBRANCH  18  19
ENDBRANCH  17  18
ENDBRANCH   1  17
TORSDOF 26
ENDMDL
MODEL 2
REMARK VINA RESULT:    -3.269      1.786      4.175
REMARK INTER + INTRA:         -13.580
REMARK INTER:                  -8.298
REMARK INTRA:                  -5.282
REMARK UNBOUND:                -5.341
REMARK SMILES CCCCCCCCCCCCCCCCCCCCCCCCCCCC(=O)[O-]
REMARK SMILES IDX 15 1 16 2 17 3 18 4 19 5 20 6 21 7 22 8 23 9 24 10 25 11
REMARK SMILES IDX 26 12 27 13 28 14 29 15 30 16 14 17 13 18 12 19 11 20 10 21
REMARK SMILES IDX 9 22 8 23 7 24 6 25 5 26 4 27 3 28 2 29 1 30
REMARK H PARENT
REMARK Flexibility Score: inf
ROOT
ATOM      1  C   UNL     1     187.759 176.555 173.935  1.00  0.00     0.000 C 
ENDROOT
BRANCH   1   2
ATOM      2  C   UNL     1     186.476 175.815 173.525  1.00  0.00     0.000 C 
BRANCH   2   3
ATOM      3  C   UNL     1     186.740 174.681 172.519  1.00  0.00     0.000 C 
BRANCH   3   4
ATOM      4  C   UNL     1     186.733 173.262 173.122  1.00  0.00     0.000 C 
BRANCH   4   5
ATOM      5  C   UNL     1     185.774 173.063 174.313  1.00  0.00     0.000 C 
BRANCH   5   6
ATOM      6  C   UNL     1     186.454 172.626 175.622  1.00  0.00     0.000 C 
BRANCH   6   7
ATOM      7  C   UNL     1     186.200 173.609 176.779  1.00  0.00     0.000 C 
BRANCH   7   8
ATOM      8  C   UNL     1     187.404 174.527 177.041  1.00  0.00     0.000 C 
BRANCH   8   9
ATOM      9  C   UNL     1     188.172 174.131 178.315  1.00  0.00     0.000 C 
BRANCH   9  10
ATOM     10  C   UNL     1     188.006 175.156 179.448  1.00  0.00     0.000 C 
BRANCH  10  11
ATOM     11  C   UNL     1     189.325 175.769 179.959  1.00  0.00     0.000 C 
BRANCH  11  12
ATOM     12  C   UNL     1     189.576 177.211 179.463  1.00  0.00     0.006 C 
BRANCH  12  13
ATOM     13  C   UNL     1     191.006 177.710 179.727  1.00  0.00     0.053 C 
BRANCH  13  14
ATOM     14  C   UNL     1     191.129 178.383 181.061  1.00  0.00     0.041 C 
ATOM     15  O   UNL     1     190.586 179.503 181.255  1.00  0.00    -0.550 OA
ATOM     16  O   UNL     1     191.814 177.760 182.097  1.00  0.00    -0.550 OA
ENDBRANCH  13  14
ENDBRANCH  12  13
ENDBRANCH  11  12
ENDBRANCH  10  11
ENDBRANCH   9  10
ENDBRANCH   8   9
ENDBRANCH   7   8
ENDBRANCH   6   7
ENDBRANCH   5   6
ENDBRANCH   4   5
ENDBRANCH   3   4
ENDBRANCH   2   3
ENDBRANCH   1   2
BRANCH   1  17
ATOM     17  C   UNL     1     188.238 177.492 172.818  1.00  0.00     0.000 C 
BRANCH  17  18
ATOM     18  C   UNL     1     189.672 177.148 172.392  1.00  0.00     0.000 C 
BRANCH  18  19
ATOM     19  C   UNL     1     189.734 176.346 171.080  1.00  0.00     0.000 C 
BRANCH  19  20
ATOM     20  C   UNL     1     190.175 174.874 171.231  1.00  0.00     0.000 C 
BRANCH  20  21
ATOM     21  C   UNL     1     191.001 174.565 172.493  1.00  0.00     0.000 C 
BRANCH  21  22
ATOM     22  C   UNL     1     190.445 173.419 173.358  1.00  0.00    -0.000 C 
BRANCH  22  23
ATOM     23  C   UNL     1     189.951 173.876 174.749  1.00  0.00    -0.000 C 
BRANCH  23  24
ATOM     24  C   UNL     1     191.037 173.839 175.839  1.00  0.00    -0.000 C 
BRANCH  24  25
ATOM     25  C   UNL     1     191.190 175.194 176.555  1.00  0.00    -0.000 C 
BRANCH  25  26
ATOM     26  C   UNL     1     190.994 176.394 175.611  1.00  0.00    -0.000 C 
BRANCH  26  27
ATOM     27  C   UNL     1     191.535 177.734 176.143  1.00  0.00    -0.000 C 
BRANCH  27  28
ATOM     28  C   UNL     1     190.656 178.932 175.747  1.00  0.00    -0.000 C 
BRANCH  28  29
ATOM     29  C   UNL     1     191.474 180.098 175.170  1.00  0.00    -0.003 C 
ATOM     30  C   UNL     1     191.424 180.156 173.643  1.00  0.00     0.004 C 
ENDBRANCH  28  29
ENDBRANCH  27  28
ENDBRANCH  26  27
ENDBRANCH  25  26
ENDBRANCH  24  25
ENDBRANCH  23  24
ENDBRANCH  22  23
ENDBRANCH  21  22
ENDBRANCH  20  21
ENDBRANCH  19  20
ENDBRANCH  18  19
ENDBRANCH  17  18
ENDBRANCH   1  17
TORSDOF 26
ENDMDL
MODEL 3
REMARK VINA RESULT:    -3.255      1.036      2.668
REMARK INTER + INTRA:         -13.544
REMARK INTER:                  -7.959
REMARK INTRA:                  -5.585
REMARK UNBOUND:                -5.341
REMARK SMILES CCCCCCCCCCCCCCCCCCCCCCCCCCCC(=O)[O-]
REMARK SMILES IDX 15 1 16 2 17 3 18 4 19 5 20 6 21 7 22 8 23 9 24 10 25 11
REMARK SMILES IDX 26 12 27 13 28 14 29 15 30 16 14 17 13 18 12 19 11 20 10 21
REMARK SMILES IDX 9 22 8 23 7 24 6 25 5 26 4 27 3 28 2 29 1 30
REMARK H PARENT
REMARK Flexibility Score: inf
ROOT
ATOM      1  C   UNL     1     191.335 175.841 176.539  1.00  0.00     0.000 C 
ENDROOT
BRANCH   1   2
ATOM      2  C   UNL     1     190.607 174.842 177.452  1.00  0.00     0.000 C 
BRANCH   2   3
ATOM      3  C   UNL     1     189.912 175.524 178.644  1.00  0.00     0.000 C 
BRANCH   3   4
ATOM      4  C   UNL     1     189.062 174.587 179.524  1.00  0.00     0.000 C 
BRANCH   4   5
ATOM      5  C   UNL     1     188.016 173.746 178.764  1.00  0.00     0.000 C 
BRANCH   5   6
ATOM      6  C   UNL     1     186.564 174.231 178.919  1.00  0.00     0.000 C 
BRANCH   6   7
ATOM      7  C   UNL     1     186.205 174.570 180.376  1.00  0.00     0.000 C 
BRANCH   7   8
ATOM      8  C   UNL     1     185.771 176.034 180.545  1.00  0.00     0.000 C 
BRANCH   8   9
ATOM      9  C   UNL     1     186.485 176.972 179.556  1.00  0.00     0.000 C 
BRANCH   9  10
ATOM     10  C   UNL     1     186.982 178.266 180.222  1.00  0.00     0.000 C 
BRANCH  10  11
ATOM     11  C   UNL     1     188.176 178.935 179.515  1.00  0.00     0.000 C 
BRANCH  11  12
ATOM     12  C   UNL     1     189.311 179.361 180.474  1.00  0.00     0.006 C 
BRANCH  12  13
ATOM     13  C   UNL     1     190.564 178.475 180.374  1.00  0.00     0.053 C 
BRANCH  13  14
ATOM     14  C   UNL     1     190.794 177.684 181.626  1.00  0.00     0.041 C 
ATOM     15  O   UNL     1     191.880 177.800 182.255  1.00  0.00    -0.550 OA
ATOM     16  O   UNL     1     189.800 176.845 182.115  1.00  0.00    -0.550 OA
ENDBRANCH  13  14
ENDBRANCH  12  13
ENDBRANCH  11  12
ENDBRANCH  10  11
ENDBRANCH   9  10
ENDBRANCH   8   9
ENDBRANCH   7   8
ENDBRANCH   6   7
ENDBRANCH   5   6
ENDBRANCH   4   5
ENDBRANCH   3   4
ENDBRANCH   2   3
ENDBRANCH   1   2
BRANCH   1  17
ATOM     17  C   UNL     1     191.170 175.462 175.061  1.00  0.00     0.000 C 
BRANCH  17  18
ATOM     18  C   UNL     1     190.538 174.070 174.920  1.00  0.00     0.000 C 
BRANCH  18  19
ATOM     19  C   UNL     1     190.121 173.742 173.475  1.00  0.00     0.000 C 
BRANCH  19  20
ATOM     20  C   UNL     1     190.888 174.514 172.380  1.00  0.00     0.000 C 
BRANCH  20  21
ATOM     21  C   UNL     1     190.009 175.350 171.431  1.00  0.00     0.000 C 
BRANCH  21  22
ATOM     22  C   UNL     1     189.097 176.371 172.136  1.00  0.00    -0.000 C 
BRANCH  22  23
ATOM     23  C   UNL     1     189.795 177.715 172.446  1.00  0.00    -0.000 C 
BRANCH  23  24
ATOM     24  C   UNL     1     189.016 178.609 173.426  1.00  0.00    -0.000 C 
BRANCH  24  25
ATOM     25  C   UNL     1     189.735 178.754 174.780  1.00  0.00    -0.000 C 
BRANCH  25  26
ATOM     26  C   UNL     1     188.814 178.466 175.980  1.00  0.00    -0.000 C 
BRANCH  26  27
ATOM     27  C   UNL     1     187.517 177.710 175.636  1.00  0.00    -0.000 C 
BRANCH  27  28
ATOM     28  C   UNL     1     187.602 176.206 175.948  1.00  0.00    -0.000 C 
BRANCH  28  29
ATOM     29  C   UNL     1     186.977 175.339 174.845  1.00  0.00    -0.003 C 
ATOM     30  C   UNL     1     186.828 173.875 175.259  1.00  0.00     0.004 C 
ENDBRANCH  28  29
ENDBRANCH  27  28
ENDBRANCH  26  27
ENDBRANCH  25  26
ENDBRANCH  24  25
ENDBRANCH  23  24
ENDBRANCH  22  23
ENDBRANCH  21  22
ENDBRANCH  20  21
ENDBRANCH  19  20
ENDBRANCH  18  19
ENDBRANCH  17  18
ENDBRANCH   1  17
TORSDOF 26
ENDMDL
MODEL 4
REMARK VINA RESULT:    -3.255      1.268      4.153
REMARK INTER + INTRA:         -13.544
REMARK INTER:                  -7.126
REMARK INTRA:                  -6.417
REMARK UNBOUND:                -5.341
REMARK SMILES CCCCCCCCCCCCCCCCCCCCCCCCCCCC(=O)[O-]
REMARK SMILES IDX 15 1 16 2 17 3 18 4 19 5 20 6 21 7 22 8 23 9 24 10 25 11
REMARK SMILES IDX 26 12 27 13 28 14 29 15 30 16 14 17 13 18 12 19 11 20 10 21
REMARK SMILES IDX 9 22 8 23 7 24 6 25 5 26 4 27 3 28 2 29 1 30
REMARK H PARENT
REMARK Flexibility Score: inf
ROOT
ATOM      1  C   UNL     1     189.701 174.898 171.300  1.00  0.00     0.000 C 
ENDROOT
BRANCH   1   2
ATOM      2  C   UNL     1     190.701 174.751 172.458  1.00  0.00     0.000 C 
BRANCH   2   3
ATOM      3  C   UNL     1     190.230 173.749 173.526  1.00  0.00     0.000 C 
BRANCH   3   4
ATOM      4  C   UNL     1     188.720 173.789 173.834  1.00  0.00     0.000 C 
BRANCH   4   5
ATOM      5  C   UNL     1     188.257 174.991 174.682  1.00  0.00     0.000 C 
BRANCH   5   6
ATOM      6  C   UNL     1     187.095 175.797 174.077  1.00  0.00     0.000 C 
BRANCH   6   7
ATOM      7  C   UNL     1     186.657 176.969 174.973  1.00  0.00     0.000 C 
BRANCH   7   8
ATOM      8  C   UNL     1     187.225 176.859 176.396  1.00  0.00     0.000 C 
BRANCH   8   9
ATOM      9  C   UNL     1     186.715 177.984 177.316  1.00  0.00     0.000 C 
BRANCH   9  10
ATOM     10  C   UNL     1     187.511 179.288 177.152  1.00  0.00     0.000 C 
BRANCH  10  11
ATOM     11  C   UNL     1     188.751 179.404 178.060  1.00  0.00     0.000 C 
BRANCH  11  12
ATOM     12  C   UNL     1     188.481 179.032 179.535  1.00  0.00     0.006 C 
BRANCH  12  13
ATOM     13  C   UNL     1     189.637 179.395 180.481  1.00  0.00     0.053 C 
BRANCH  13  14
ATOM     14  C   UNL     1     190.301 178.178 181.050  1.00  0.00     0.041 C 
ATOM     15  O   UNL     1     191.460 177.856 180.673  1.00  0.00    -0.550 OA
ATOM     16  O   UNL     1     189.656 177.418 182.018  1.00  0.00    -0.550 OA
ENDBRANCH  13  14
ENDBRANCH  12  13
ENDBRANCH  11  12
ENDBRANCH  10  11
ENDBRANCH   9  10
ENDBRANCH   8   9
ENDBRANCH   7   8
ENDBRANCH   6   7
ENDBRANCH   5   6
ENDBRANCH   4   5
ENDBRANCH   3   4
ENDBRANCH   2   3
ENDBRANCH   1   2
BRANCH   1  17
ATOM     17  C   UNL     1     189.326 176.369 171.075  1.00  0.00     0.000 C 
BRANCH  17  18
ATOM     18  C   UNL     1     190.172 177.292 171.964  1.00  0.00     0.000 C 
BRANCH  18  19
ATOM     19  C   UNL     1     189.348 178.408 172.630  1.00  0.00     0.000 C 
BRANCH  19  20
ATOM     20  C   UNL     1     189.633 178.628 174.131  1.00  0.00     0.000 C 
BRANCH  20  21
ATOM     21  C   UNL     1     190.969 178.050 174.635  1.00  0.00     0.000 C 
BRANCH  21  22
ATOM     22  C   UNL     1     190.892 177.366 176.012  1.00  0.00    -0.000 C 
BRANCH  22  23
ATOM     23  C   UNL     1     191.499 175.944 176.033  1.00  0.00    -0.000 C 
BRANCH  23  24
ATOM     24  C   UNL     1     190.958 175.053 177.164  1.00  0.00    -0.000 C 
BRANCH  24  25
ATOM     25  C   UNL     1     190.053 175.831 178.136  1.00  0.00    -0.000 C 
BRANCH  25  26
ATOM     26  C   UNL     1     189.422 174.932 179.215  1.00  0.00    -0.000 C 
BRANCH  26  27
ATOM     27  C   UNL     1     188.004 175.341 179.655  1.00  0.00    -0.000 C 
BRANCH  27  28
ATOM     28  C   UNL     1     186.960 174.240 179.405  1.00  0.00    -0.000 C 
BRANCH  28  29
ATOM     29  C   UNL     1     187.091 173.609 178.010  1.00  0.00    -0.003 C 
ATOM     30  C   UNL     1     185.770 173.602 177.239  1.00  0.00     0.004 C 
ENDBRANCH  28  29
ENDBRANCH  27  28
ENDBRANCH  26  27
ENDBRANCH  25  26
ENDBRANCH  24  25
ENDBRANCH  23  24
ENDBRANCH  22  23
ENDBRANCH  21  22
ENDBRANCH  20  21
ENDBRANCH  19  20
ENDBRANCH  18  19
ENDBRANCH  17  18
ENDBRANCH   1  17
TORSDOF 26
ENDMDL
MODEL 5
REMARK VINA RESULT:    -3.246      2.111      4.938
REMARK INTER + INTRA:         -13.521
REMARK INTER:                  -7.623
REMARK INTRA:                  -5.898
REMARK UNBOUND:                -5.341
REMARK SMILES CCCCCCCCCCCCCCCCCCCCCCCCCCCC(=O)[O-]
REMARK SMILES IDX 15 1 16 2 17 3 18 4 19 5 20 6 21 7 22 8 23 9 24 10 25 11
REMARK SMILES IDX 26 12 27 13 28 14 29 15 30 16 14 17 13 18 12 19 11 20 10 21
REMARK SMILES IDX 9 22 8 23 7 24 6 25 5 26 4 27 3 28 2 29 1 30
REMARK H PARENT
REMARK Flexibility Score: inf
ROOT
ATOM      1  C   UNL     1     186.106 175.714 179.255  1.00  0.00     0.000 C 
ENDROOT
BRANCH   1   2
ATOM      2  C   UNL     1     186.169 177.126 178.652  1.00  0.00     0.000 C 
BRANCH   2   3
ATOM      3  C   UNL     1     186.760 177.139 177.232  1.00  0.00     0.000 C 
BRANCH   3   4
ATOM      4  C   UNL     1     187.976 178.068 177.042  1.00  0.00     0.000 C 
BRANCH   4   5
ATOM      5  C   UNL     1     188.774 178.372 178.326  1.00  0.00     0.000 C 
BRANCH   5   6
ATOM      6  C   UNL     1     189.954 179.340 178.137  1.00  0.00     0.000 C 
BRANCH   6   7
ATOM      7  C   UNL     1     190.961 179.281 179.299  1.00  0.00     0.000 C 
BRANCH   7   8
ATOM      8  C   UNL     1     191.059 177.877 179.915  1.00  0.00     0.000 C 
BRANCH   8   9
ATOM      9  C   UNL     1     191.019 177.911 181.454  1.00  0.00     0.000 C 
BRANCH   9  10
ATOM     10  C   UNL     1     190.130 176.806 182.047  1.00  0.00     0.000 C 
BRANCH  10  11
ATOM     11  C   UNL     1     188.629 176.949 181.730  1.00  0.00     0.000 C 
BRANCH  11  12
ATOM     12  C   UNL     1     188.079 178.377 181.945  1.00  0.00     0.006 C 
BRANCH  12  13
ATOM     13  C   UNL     1     187.163 178.504 183.174  1.00  0.00     0.053 C 
BRANCH  13  14
ATOM     14  C   UNL     1     185.724 178.663 182.787  1.00  0.00     0.041 C 
ATOM     15  O   UNL     1     185.164 177.795 182.064  1.00  0.00    -0.550 OA
ATOM     16  O   UNL     1     184.992 179.750 183.250  1.00  0.00    -0.550 OA
ENDBRANCH  13  14
ENDBRANCH  12  13
ENDBRANCH  11  12
ENDBRANCH  10  11
ENDBRANCH   9  10
ENDBRANCH   8   9
ENDBRANCH   7   8
ENDBRANCH   6   7
ENDBRANCH   5   6
ENDBRANCH   4   5
ENDBRANCH   3   4
ENDBRANCH   2   3
ENDBRANCH   1   2
BRANCH   1  17
ATOM     17  C   UNL     1     186.032 174.645 178.157  1.00  0.00     0.000 C 
BRANCH  17  18
ATOM     18  C   UNL     1     187.268 173.736 178.193  1.00  0.00     0.000 C 
BRANCH  18  19
ATOM     19  C   UNL     1     188.262 174.115 179.304  1.00  0.00     0.000 C 
BRANCH  19  20
ATOM     20  C   UNL     1     189.547 174.821 178.821  1.00  0.00     0.000 C 
BRANCH  20  21
ATOM     21  C   UNL     1     189.756 174.829 177.296  1.00  0.00     0.000 C 
BRANCH  21  22
ATOM     22  C   UNL     1     191.188 175.177 176.847  1.00  0.00    -0.000 C 
BRANCH  22  23
ATOM     23  C   UNL     1     191.319 176.591 176.236  1.00  0.00    -0.000 C 
BRANCH  23  24
ATOM     24  C   UNL     1     190.741 176.713 174.816  1.00  0.00    -0.000 C 
BRANCH  24  25
ATOM     25  C   UNL     1     191.273 175.615 173.875  1.00  0.00    -0.000 C 
BRANCH  25  26
ATOM     26  C   UNL     1     190.147 174.804 173.207  1.00  0.00    -0.000 C 
BRANCH  26  27
ATOM     27  C   UNL     1     189.799 173.478 173.909  1.00  0.00    -0.000 C 
BRANCH  27  28
ATOM     28  C   UNL     1     188.296 173.336 174.205  1.00  0.00    -0.000 C 
BRANCH  28  29
ATOM     29  C   UNL     1     187.608 174.692 174.426  1.00  0.00    -0.003 C 
ATOM     30  C   UNL     1     186.086 174.574 174.510  1.00  0.00     0.004 C 
ENDBRANCH  28  29
ENDBRANCH  27  28
ENDBRANCH  26  27
ENDBRANCH  25  26
ENDBRANCH  24  25
ENDBRANCH  23  24
ENDBRANCH  22  23
ENDBRANCH  21  22
ENDBRANCH  20  21
ENDBRANCH  19  20
ENDBRANCH  18  19
ENDBRANCH  17  18
ENDBRANCH   1  17
TORSDOF 26
ENDMDL
MODEL 6
REMARK VINA RESULT:    -3.204      1.325      2.645
REMARK INTER + INTRA:         -13.416
REMARK INTER:                  -8.272
REMARK INTRA:                  -5.144
REMARK UNBOUND:                -5.341
REMARK SMILES CCCCCCCCCCCCCCCCCCCCCCCCCCCC(=O)[O-]
REMARK SMILES IDX 15 1 16 2 17 3 18 4 19 5 20 6 21 7 22 8 23 9 24 10 25 11
REMARK SMILES IDX 26 12 27 13 28 14 29 15 30 16 14 17 13 18 12 19 11 20 10 21
REMARK SMILES IDX 9 22 8 23 7 24 6 25 5 26 4 27 3 28 2 29 1 30
REMARK H PARENT
REMARK Flexibility Score: inf
ROOT
ATOM      1  C   UNL     1     189.184 175.975 178.419  1.00  0.00     0.000 C 
ENDROOT
BRANCH   1   2
ATOM      2  C   UNL     1     189.322 174.610 179.110  1.00  0.00     0.000 C 
BRANCH   2   3
ATOM      3  C   UNL     1     188.061 173.741 178.967  1.00  0.00     0.000 C 
BRANCH   3   4
ATOM      4  C   UNL     1     187.354 173.841 177.601  1.00  0.00     0.000 C 
BRANCH   4   5
ATOM      5  C   UNL     1     185.813 173.819 177.659  1.00  0.00     0.000 C 
BRANCH   5   6
ATOM      6  C   UNL     1     185.224 173.665 179.071  1.00  0.00     0.000 C 
BRANCH   6   7
ATOM      7  C   UNL     1     184.565 174.958 179.582  1.00  0.00     0.000 C 
BRANCH   7   8
ATOM      8  C   UNL     1     185.399 175.648 180.672  1.00  0.00     0.000 C 
BRANCH   8   9
ATOM      9  C   UNL     1     185.425 177.178 180.507  1.00  0.00     0.000 C 
BRANCH   9  10
ATOM     10  C   UNL     1     186.831 177.770 180.694  1.00  0.00     0.000 C 
BRANCH  10  11
ATOM     11  C   UNL     1     187.778 176.917 181.560  1.00  0.00     0.000 C 
BRANCH  11  12
ATOM     12  C   UNL     1     188.939 177.718 182.191  1.00  0.00     0.006 C 
BRANCH  12  13
ATOM     13  C   UNL     1     190.327 177.285 181.690  1.00  0.00     0.053 C 
BRANCH  13  14
ATOM     14  C   UNL     1     190.934 178.302 180.771  1.00  0.00     0.041 C 
ATOM     15  O   UNL     1     192.077 178.103 180.277  1.00  0.00    -0.550 OA
ATOM     16  O   UNL     1     190.227 179.449 180.434  1.00  0.00    -0.550 OA
ENDBRANCH  13  14
ENDBRANCH  12  13
ENDBRANCH  11  12
ENDBRANCH  10  11
ENDBRANCH   9  10
ENDBRANCH   8   9
ENDBRANCH   7   8
ENDBRANCH   6   7
ENDBRANCH   5   6
ENDBRANCH   4   5
ENDBRANCH   3   4
ENDBRANCH   2   3
ENDBRANCH   1   2
BRANCH   1  17
ATOM     17  C   UNL     1     190.425 176.297 177.576  1.00  0.00     0.000 C 
BRANCH  17  18
ATOM     18  C   UNL     1     191.010 175.022 176.953  1.00  0.00     0.000 C 
BRANCH  18  19
ATOM     19  C   UNL     1     190.982 175.036 175.415  1.00  0.00     0.000 C 
BRANCH  19  20
ATOM     20  C   UNL     1     190.002 174.034 174.768  1.00  0.00     0.000 C 
BRANCH  20  21
ATOM     21  C   UNL     1     190.524 173.332 173.501  1.00  0.00     0.000 C 
BRANCH  21  22
ATOM     22  C   UNL     1     191.075 174.283 172.423  1.00  0.00    -0.000 C 
BRANCH  22  23
ATOM     23  C   UNL     1     189.976 174.969 171.581  1.00  0.00    -0.000 C 
BRANCH  23  24
ATOM     24  C   UNL     1     190.300 176.425 171.201  1.00  0.00    -0.000 C 
BRANCH  24  25
ATOM     25  C   UNL     1     189.223 177.409 171.695  1.00  0.00    -0.000 C 
BRANCH  25  26
ATOM     26  C   UNL     1     188.865 177.208 173.180  1.00  0.00    -0.000 C 
BRANCH  26  27
ATOM     27  C   UNL     1     187.439 176.687 173.439  1.00  0.00    -0.000 C 
BRANCH  27  28
ATOM     28  C   UNL     1     187.203 176.301 174.909  1.00  0.00    -0.000 C 
BRANCH  28  29
ATOM     29  C   UNL     1     187.259 177.512 175.853  1.00  0.00    -0.003 C 
ATOM     30  C   UNL     1     186.143 177.498 176.898  1.00  0.00     0.004 C 
ENDBRANCH  28  29
ENDBRANCH  27  28
ENDBRANCH  26  27
ENDBRANCH  25  26
ENDBRANCH  24  25
ENDBRANCH  23  24
ENDBRANCH  22  23
ENDBRANCH  21  22
ENDBRANCH  20  21
ENDBRANCH  19  20
ENDBRANCH  18  19
ENDBRANCH  17  18
ENDBRANCH   1  17
TORSDOF 26
ENDMDL
MODEL 7
REMARK VINA RESULT:    -3.199      2.132      6.767
REMARK INTER + INTRA:         -13.403
REMARK INTER:                  -7.419
REMARK INTRA:                  -5.984
REMARK UNBOUND:                -5.341
REMARK SMILES CCCCCCCCCCCCCCCCCCCCCCCCCCCC(=O)[O-]
REMARK SMILES IDX 15 1 16 2 17 3 18 4 19 5 20 6 21 7 22 8 23 9 24 10 25 11
REMARK SMILES IDX 26 12 27 13 28 14 29 15 30 16 14 17 13 18 12 19 11 20 10 21
REMARK SMILES IDX 9 22 8 23 7 24 6 25 5 26 4 27 3 28 2 29 1 30
REMARK H PARENT
REMARK Flexibility Score: inf
ROOT
ATOM      1  C   UNL     1     190.901 177.148 176.412  1.00  0.00     0.000 C 
ENDROOT
BRANCH   1   2
ATOM      2  C   UNL     1     190.676 177.781 175.030  1.00  0.00     0.000 C 
BRANCH   2   3
ATOM      3  C   UNL     1     190.954 176.801 173.876  1.00  0.00     0.000 C 
BRANCH   3   4
ATOM      4  C   UNL     1     189.757 176.540 172.942  1.00  0.00     0.000 C 
BRANCH   4   5
ATOM      5  C   UNL     1     189.692 175.119 172.345  1.00  0.00     0.000 C 
BRANCH   5   6
ATOM      6  C   UNL     1     190.683 174.116 172.959  1.00  0.00     0.000 C 
BRANCH   6   7
ATOM      7  C   UNL     1     190.026 173.200 174.007  1.00  0.00     0.000 C 
BRANCH   7   8
ATOM      8  C   UNL     1     188.495 173.330 174.018  1.00  0.00     0.000 C 
BRANCH   8   9
ATOM      9  C   UNL     1     187.955 173.740 175.400  1.00  0.00     0.000 C 
BRANCH   9  10
ATOM     10  C   UNL     1     186.839 174.793 175.311  1.00  0.00     0.000 C 
BRANCH  10  11
ATOM     11  C   UNL     1     187.316 176.250 175.468  1.00  0.00     0.000 C 
BRANCH  11  12
ATOM     12  C   UNL     1     186.606 177.020 176.604  1.00  0.00     0.006 C 
BRANCH  12  13
ATOM     13  C   UNL     1     187.402 178.234 177.113  1.00  0.00     0.053 C 
BRANCH  13  14
ATOM     14  C   UNL     1     187.079 179.479 176.344  1.00  0.00     0.041 C 
ATOM     15  O   UNL     1     187.908 179.942 175.514  1.00  0.00    -0.550 OA
ATOM     16  O   UNL     1     185.853 180.110 176.519  1.00  0.00    -0.550 OA
ENDBRANCH  13  14
ENDBRANCH  12  13
ENDBRANCH  11  12
ENDBRANCH  10  11
ENDBRANCH   9  10
ENDBRANCH   8   9
ENDBRANCH   7   8
ENDBRANCH   6   7
ENDBRANCH   5   6
ENDBRANCH   4   5
ENDBRANCH   3   4
ENDBRANCH   2   3
ENDBRANCH   1   2
BRANCH   1  17
ATOM     17  C   UNL     1     191.374 175.694 176.285  1.00  0.00     0.000 C 
BRANCH  17  18
ATOM     18  C   UNL     1     190.829 174.838 177.437  1.00  0.00     0.000 C 
BRANCH  18  19
ATOM     19  C   UNL     1     189.657 175.504 178.179  1.00  0.00     0.000 C 
BRANCH  19  20
ATOM     20  C   UNL     1     189.060 174.677 179.338  1.00  0.00     0.000 C 
BRANCH  20  21
ATOM     21  C   UNL     1     187.911 173.731 178.944  1.00  0.00     0.000 C 
BRANCH  21  22
ATOM     22  C   UNL     1     186.505 174.350 179.058  1.00  0.00    -0.000 C 
BRANCH  22  23
ATOM     23  C   UNL     1     186.016 174.514 180.515  1.00  0.00    -0.000 C 
BRANCH  23  24
ATOM     24  C   UNL     1     185.472 175.917 180.835  1.00  0.00    -0.000 C 
BRANCH  24  25
ATOM     25  C   UNL     1     186.530 177.015 180.620  1.00  0.00    -0.000 C 
BRANCH  25  26
ATOM     26  C   UNL     1     187.623 177.012 181.704  1.00  0.00    -0.000 C 
BRANCH  26  27
ATOM     27  C   UNL     1     188.503 178.275 181.742  1.00  0.00    -0.000 C 
BRANCH  27  28
ATOM     28  C   UNL     1     189.008 178.693 180.351  1.00  0.00    -0.000 C 
BRANCH  28  29
ATOM     29  C   UNL     1     190.486 179.112 180.361  1.00  0.00    -0.003 C 
ATOM     30  C   UNL     1     191.437 177.925 180.208  1.00  0.00     0.004 C 
ENDBRANCH  28  29
ENDBRANCH  27  28
ENDBRANCH  26  27
ENDBRANCH  25  26
ENDBRANCH  24  25
ENDBRANCH  23  24
ENDBRANCH  22  23
ENDBRANCH  21  22
ENDBRANCH  20  21
ENDBRANCH  19  20
ENDBRANCH  18  19
ENDBRANCH  17  18
ENDBRANCH   1  17
TORSDOF 26
ENDMDL
MODEL 8
REMARK VINA RESULT:    -3.191      3.278      7.901
REMARK INTER + INTRA:         -13.382
REMARK INTER:                  -7.901
REMARK INTRA:                  -5.480
REMARK UNBOUND:                -5.341
REMARK SMILES CCCCCCCCCCCCCCCCCCCCCCCCCCCC(=O)[O-]
REMARK SMILES IDX 15 1 16 2 17 3 18 4 19 5 20 6 21 7 22 8 23 9 24 10 25 11
REMARK SMILES IDX 26 12 27 13 28 14 29 15 30 16 14 17 13 18 12 19 11 20 10 21
REMARK SMILES IDX 9 22 8 23 7 24 6 25 5 26 4 27 3 28 2 29 1 30
REMARK H PARENT
REMARK Flexibility Score: inf
ROOT
ATOM      1  C   UNL     1     187.007 174.444 177.313  1.00  0.00     0.000 C 
ENDROOT
BRANCH   1   2
ATOM      2  C   UNL     1     186.890 173.598 176.035  1.00  0.00     0.000 C 
BRANCH   2   3
ATOM      3  C   UNL     1     187.825 174.083 174.914  1.00  0.00     0.000 C 
BRANCH   3   4
ATOM      4  C   UNL     1     188.673 172.980 174.250  1.00  0.00     0.000 C 
BRANCH   4   5
ATOM      5  C   UNL     1     190.195 173.223 174.272  1.00  0.00     0.000 C 
BRANCH   5   6
ATOM      6  C   UNL     1     190.652 174.364 175.197  1.00  0.00     0.000 C 
BRANCH   6   7
ATOM      7  C   UNL     1     191.205 175.572 174.419  1.00  0.00     0.000 C 
BRANCH   7   8
ATOM      8  C   UNL     1     190.212 176.743 174.376  1.00  0.00     0.000 C 
BRANCH   8   9
ATOM      9  C   UNL     1     189.648 176.977 172.963  1.00  0.00     0.000 C 
BRANCH   9  10
ATOM     10  C   UNL     1     190.311 176.081 171.905  1.00  0.00     0.000 C 
BRANCH  10  11
ATOM     11  C   UNL     1     189.338 175.164 171.138  1.00  0.00     0.000 C 
BRANCH  11  12
ATOM     12  C   UNL     1     187.849 175.534 171.330  1.00  0.00     0.006 C 
BRANCH  12  13
ATOM     13  C   UNL     1     186.905 174.321 171.280  1.00  0.00     0.053 C 
BRANCH  13  14
ATOM     14  C   UNL     1     185.536 174.654 171.792  1.00  0.00     0.041 C 
ATOM     15  O   UNL     1     184.520 174.115 171.276  1.00  0.00    -0.550 OA
ATOM     16  O   UNL     1     185.384 175.532 172.858  1.00  0.00    -0.550 OA
ENDBRANCH  13  14
ENDBRANCH  12  13
ENDBRANCH  11  12
ENDBRANCH  10  11
ENDBRANCH   9  10
ENDBRANCH   8   9
ENDBRANCH   7   8
ENDBRANCH   6   7
ENDBRANCH   5   6
ENDBRANCH   4   5
ENDBRANCH   3   4
ENDBRANCH   2   3
ENDBRANCH   1   2
BRANCH   1  17
ATOM     17  C   UNL     1     187.889 173.748 178.358  1.00  0.00     0.000 C 
BRANCH  17  18
ATOM     18  C   UNL     1     189.106 174.614 178.713  1.00  0.00     0.000 C 
BRANCH  18  19
ATOM     19  C   UNL     1     189.150 175.939 177.932  1.00  0.00     0.000 C 
BRANCH  19  20
ATOM     20  C   UNL     1     190.462 176.740 178.073  1.00  0.00     0.000 C 
BRANCH  20  21
ATOM     21  C   UNL     1     190.295 178.269 178.116  1.00  0.00     0.000 C 
BRANCH  21  22
ATOM     22  C   UNL     1     190.668 178.918 179.461  1.00  0.00    -0.000 C 
BRANCH  22  23
ATOM     23  C   UNL     1     191.357 177.947 180.447  1.00  0.00    -0.000 C 
BRANCH  23  24
ATOM     24  C   UNL     1     190.585 177.745 181.763  1.00  0.00    -0.000 C 
BRANCH  24  25
ATOM     25  C   UNL     1     189.505 176.654 181.642  1.00  0.00    -0.000 C 
BRANCH  25  26
ATOM     26  C   UNL     1     188.090 177.178 181.949  1.00  0.00    -0.000 C 
BRANCH  26  27
ATOM     27  C   UNL     1     187.335 177.757 180.738  1.00  0.00    -0.000 C 
BRANCH  27  28
ATOM     28  C   UNL     1     186.366 176.748 180.100  1.00  0.00    -0.000 C 
BRANCH  28  29
ATOM     29  C   UNL     1     186.135 175.513 180.984  1.00  0.00    -0.003 C 
ATOM     30  C   UNL     1     184.928 174.686 180.539  1.00  0.00     0.004 C 
ENDBRANCH  28  29
ENDBRANCH  27  28
ENDBRANCH  26  27
ENDBRANCH  25  26
ENDBRANCH  24  25
ENDBRANCH  23  24
ENDBRANCH  22  23
ENDBRANCH  21  22
ENDBRANCH  20  21
ENDBRANCH  19  20
ENDBRANCH  18  19
ENDBRANCH  17  18
ENDBRANCH   1  17
TORSDOF 26
ENDMDL
MODEL 9
REMARK VINA RESULT:    -3.165      1.361      2.061
REMARK INTER + INTRA:         -13.316
REMARK INTER:                  -7.158
REMARK INTRA:                  -6.158
REMARK UNBOUND:                -5.341
REMARK SMILES CCCCCCCCCCCCCCCCCCCCCCCCCCCC(=O)[O-]
REMARK SMILES IDX 15 1 16 2 17 3 18 4 19 5 20 6 21 7 22 8 23 9 24 10 25 11
REMARK SMILES IDX 26 12 27 13 28 14 29 15 30 16 14 17 13 18 12 19 11 20 10 21
REMARK SMILES IDX 9 22 8 23 7 24 6 25 5 26 4 27 3 28 2 29 1 30
REMARK H PARENT
REMARK Flexibility Score: inf
ROOT
ATOM      1  C   UNL     1     191.344 176.056 176.528  1.00  0.00     0.000 C 
ENDROOT
BRANCH   1   2
ATOM      2  C   UNL     1     189.957 175.943 177.179  1.00  0.00     0.000 C 
BRANCH   2   3
ATOM      3  C   UNL     1     189.997 175.227 178.540  1.00  0.00     0.000 C 
BRANCH   3   4
ATOM      4  C   UNL     1     188.617 174.890 179.139  1.00  0.00     0.000 C 
BRANCH   4   5
ATOM      5  C   UNL     1     187.904 173.681 178.500  1.00  0.00     0.000 C 
BRANCH   5   6
ATOM      6  C   UNL     1     186.637 174.030 177.699  1.00  0.00     0.000 C 
BRANCH   6   7
ATOM      7  C   UNL     1     186.152 175.468 177.954  1.00  0.00     0.000 C 
BRANCH   7   8
ATOM      8  C   UNL     1     185.742 176.184 176.659  1.00  0.00     0.000 C 
BRANCH   8   9
ATOM      9  C   UNL     1     186.620 177.415 176.369  1.00  0.00     0.000 C 
BRANCH   9  10
ATOM     10  C   UNL     1     186.706 178.375 177.565  1.00  0.00     0.000 C 
BRANCH  10  11
ATOM     11  C   UNL     1     188.115 178.938 177.838  1.00  0.00     0.000 C 
BRANCH  11  12
ATOM     12  C   UNL     1     188.573 178.789 179.307  1.00  0.00     0.006 C 
BRANCH  12  13
ATOM     13  C   UNL     1     187.523 178.122 180.212  1.00  0.00     0.053 C 
BRANCH  13  14
ATOM     14  C   UNL     1     188.068 177.821 181.575  1.00  0.00     0.041 C 
ATOM     15  O   UNL     1     188.431 178.761 182.332  1.00  0.00    -0.550 OA
ATOM     16  O   UNL     1     188.144 176.507 182.023  1.00  0.00    -0.550 OA
ENDBRANCH  13  14
ENDBRANCH  12  13
ENDBRANCH  11  12
ENDBRANCH  10  11
ENDBRANCH   9  10
ENDBRANCH   8   9
ENDBRANCH   7   8
ENDBRANCH   6   7
ENDBRANCH   5   6
ENDBRANCH   4   5
ENDBRANCH   3   4
ENDBRANCH   2   3
ENDBRANCH   1   2
BRANCH   1  17
ATOM     17  C   UNL     1     191.462 177.340 175.695  1.00  0.00     0.000 C 
BRANCH  17  18
ATOM     18  C   UNL     1     190.102 177.734 175.102  1.00  0.00     0.000 C 
BRANCH  18  19
ATOM     19  C   UNL     1     190.171 178.054 173.598  1.00  0.00     0.000 C 
BRANCH  19  20
ATOM     20  C   UNL     1     188.816 178.019 172.858  1.00  0.00     0.000 C 
BRANCH  20  21
ATOM     21  C   UNL     1     188.816 177.242 171.529  1.00  0.00     0.000 C 
BRANCH  21  22
ATOM     22  C   UNL     1     190.139 176.521 171.208  1.00  0.00    -0.000 C 
BRANCH  22  23
ATOM     23  C   UNL     1     190.003 174.984 171.127  1.00  0.00    -0.000 C 
BRANCH  23  24
ATOM     24  C   UNL     1     191.046 174.222 171.963  1.00  0.00    -0.000 C 
BRANCH  24  25
ATOM     25  C   UNL     1     190.788 174.353 173.476  1.00  0.00    -0.000 C 
BRANCH  25  26
ATOM     26  C   UNL     1     190.099 173.113 174.075  1.00  0.00    -0.000 C 
BRANCH  26  27
ATOM     27  C   UNL     1     188.728 173.381 174.722  1.00  0.00    -0.000 C 
BRANCH  27  28
ATOM     28  C   UNL     1     188.073 174.678 174.219  1.00  0.00    -0.000 C 
BRANCH  28  29
ATOM     29  C   UNL     1     186.809 174.416 173.386  1.00  0.00    -0.003 C 
ATOM     30  C   UNL     1     186.517 172.925 173.211  1.00  0.00     0.004 C 
ENDBRANCH  28  29
ENDBRANCH  27  28
ENDBRANCH  26  27
ENDBRANCH  25  26
ENDBRANCH  24  25
ENDBRANCH  23  24
ENDBRANCH  22  23
ENDBRANCH  21  22
ENDBRANCH  20  21
ENDBRANCH  19  20
ENDBRANCH  18  19
ENDBRANCH  17  18
ENDBRANCH   1  17
TORSDOF 26
ENDMDL
