MODEL 1
REMARK VINA RESULT:    -7.372      0.000      0.000
REMARK INTER + INTRA:          -8.929
REMARK INTER:                  -8.665
REMARK INTRA:                  -0.265
REMARK UNBOUND:                -0.265
REMARK SMILES O=c1cc(-c2ccc(O)c(O)c2)oc2cc(O)cc(O)c12
REMARK SMILES IDX 4 1 3 2 2 3 1 4 21 5 19 6 18 7 16 8 15 9 14 10 13 11 5 12
REMARK SMILES IDX 6 13 7 14 8 15 12 16 10 17 9 18 11 20 20 22 17 24
REMARK H PARENT 9 19 11 21 20 23 17 25
REMARK Flexibility Score: inf
ROOT
ATOM      1  C   UNL     1      -4.804  15.297   6.853  1.00  0.00     0.138 A 
ATOM      2  C   UNL     1      -5.159  14.270   5.968  1.00  0.00     0.100 A 
ATOM      3  C   UNL     1      -6.488  14.133   5.564  1.00  0.00     0.197 A 
ATOM      4  O   UNL     1      -6.764  13.241   4.721  1.00  0.00    -0.289 OA
ATOM      5  C   UNL     1      -7.471  15.013   6.077  1.00  0.00     0.107 A 
ATOM      6  C   UNL     1      -8.863  14.943   5.768  1.00  0.00     0.134 A 
ATOM      7  C   UNL     1      -9.726  15.938   6.243  1.00  0.00     0.093 A 
ATOM      8  C   UNL     1      -9.257  16.967   7.064  1.00  0.00     0.123 A 
ATOM      9  C   UNL     1      -7.910  17.013   7.415  1.00  0.00     0.094 A 
ATOM     10  C   UNL     1      -7.018  16.054   6.929  1.00  0.00     0.146 A 
ATOM     11  O   UNL     1      -5.739  16.143   7.276  1.00  0.00    -0.456 OA
ENDROOT
BRANCH   1  12
ATOM     12  C   UNL     1      -3.406  15.486   7.314  1.00  0.00     0.021 A 
ATOM     13  C   UNL     1      -2.944  14.768   8.431  1.00  0.00     0.016 A 
ATOM     14  C   UNL     1      -1.631  14.922   8.882  1.00  0.00     0.051 A 
ATOM     15  C   UNL     1      -0.754  15.787   8.222  1.00  0.00     0.157 A 
ATOM     16  C   UNL     1      -2.514  16.345   6.644  1.00  0.00     0.062 A 
ATOM     17  C   UNL     1      -1.195  16.499   7.095  1.00  0.00     0.158 A 
BRANCH  15  18
ATOM     18  O   UNL     1       0.551  15.921   8.695  1.00  0.00    -0.504 OA
ATOM     19  H   UNL     1       1.132  16.715   8.453  1.00  0.00     0.293 HD
ENDBRANCH  15  18
BRANCH  17  20
ATOM     20  O   UNL     1      -0.321  17.354   6.425  1.00  0.00    -0.504 OA
ATOM     21  H   UNL     1      -0.426  17.554   5.437  1.00  0.00     0.293 HD
ENDBRANCH  17  20
ENDBRANCH   1  12
BRANCH   6  22
ATOM     22  O   UNL     1      -9.449  13.912   5.027  1.00  0.00    -0.507 OA
ATOM     23  H   UNL     1      -8.955  13.109   4.665  1.00  0.00     0.293 HD
ENDBRANCH   6  22
BRANCH   8  24
ATOM     24  O   UNL     1     -10.125  17.945   7.544  1.00  0.00    -0.508 OA
ATOM     25  H   UNL     1     -10.893  18.294   6.982  1.00  0.00     0.293 HD
ENDBRANCH   8  24
TORSDOF 5
ENDMDL
MODEL 2
REMARK VINA RESULT:    -6.951      1.633      3.393
REMARK INTER + INTRA:          -8.435
REMARK INTER:                  -8.171
REMARK INTRA:                  -0.264
REMARK UNBOUND:                -0.265
REMARK SMILES O=c1cc(-c2ccc(O)c(O)c2)oc2cc(O)cc(O)c12
REMARK SMILES IDX 4 1 3 2 2 3 1 4 21 5 19 6 18 7 16 8 15 9 14 10 13 11 5 12
REMARK SMILES IDX 6 13 7 14 8 15 12 16 10 17 9 18 11 20 20 22 17 24
REMARK H PARENT 9 19 11 21 20 23 17 25
REMARK Flexibility Score: inf
ROOT
ATOM      1  C   UNL     1      -3.526  15.572   8.011  1.00  0.00     0.138 A 
ATOM      2  C   UNL     1      -4.418  16.176   8.908  1.00  0.00     0.100 A 
ATOM      3  C   UNL     1      -5.793  16.074   8.690  1.00  0.00     0.197 A 
ATOM      4  O   UNL     1      -6.568  16.572   9.546  1.00  0.00    -0.289 OA
ATOM      5  C   UNL     1      -6.273  15.390   7.548  1.00  0.00     0.107 A 
ATOM      6  C   UNL     1      -7.651  15.258   7.201  1.00  0.00     0.134 A 
ATOM      7  C   UNL     1      -8.014  14.460   6.109  1.00  0.00     0.093 A 
ATOM      8  C   UNL     1      -7.046  13.837   5.317  1.00  0.00     0.123 A 
ATOM      9  C   UNL     1      -5.696  14.005   5.615  1.00  0.00     0.094 A 
ATOM     10  C   UNL     1      -5.304  14.767   6.718  1.00  0.00     0.146 A 
ATOM     11  O   UNL     1      -4.006  14.889   6.977  1.00  0.00    -0.456 OA
ENDROOT
BRANCH   1  12
ATOM     12  C   UNL     1      -2.055  15.651   8.196  1.00  0.00     0.021 A 
ATOM     13  C   UNL     1      -1.275  16.331   7.245  1.00  0.00     0.016 A 
ATOM     14  C   UNL     1       0.111  16.426   7.399  1.00  0.00     0.051 A 
ATOM     15  C   UNL     1       0.740  15.853   8.507  1.00  0.00     0.157 A 
ATOM     16  C   UNL     1      -1.417  15.088   9.319  1.00  0.00     0.062 A 
ATOM     17  C   UNL     1      -0.027  15.184   9.474  1.00  0.00     0.158 A 
BRANCH  15  18
ATOM     18  O   UNL     1       2.125  15.963   8.633  1.00  0.00    -0.504 OA
ATOM     19  H   UNL     1       2.615  16.829   8.445  1.00  0.00     0.293 HD
ENDBRANCH  15  18
BRANCH  17  20
ATOM     20  O   UNL     1       0.593  14.621  10.589  1.00  0.00    -0.504 OA
ATOM     21  H   UNL     1       1.580  14.757  10.773  1.00  0.00     0.293 HD
ENDBRANCH  17  20
ENDBRANCH   1  12
BRANCH   6  22
ATOM     22  O   UNL     1      -8.692  15.905   7.874  1.00  0.00    -0.507 OA
ATOM     23  H   UNL     1      -8.629  16.822   8.288  1.00  0.00     0.293 HD
ENDBRANCH   6  22
BRANCH   8  24
ATOM     24  O   UNL     1      -7.416  13.057   4.225  1.00  0.00    -0.508 OA
ATOM     25  H   UNL     1      -7.636  12.073   4.326  1.00  0.00     0.293 HD
ENDBRANCH   8  24
TORSDOF 5
ENDMDL
MODEL 3
REMARK VINA RESULT:    -6.634      5.208      6.709
REMARK INTER + INTRA:          -8.063
REMARK INTER:                  -7.750
REMARK INTRA:                  -0.312
REMARK UNBOUND:                -0.265
REMARK SMILES O=c1cc(-c2ccc(O)c(O)c2)oc2cc(O)cc(O)c12
REMARK SMILES IDX 4 1 3 2 2 3 1 4 21 5 19 6 18 7 16 8 15 9 14 10 13 11 5 12
REMARK SMILES IDX 6 13 7 14 8 15 12 16 10 17 9 18 11 20 20 22 17 24
REMARK H PARENT 9 19 11 21 20 23 17 25
REMARK Flexibility Score: inf
ROOT
ATOM      1  C   UNL     1      -7.349  14.162  11.241  1.00  0.00     0.138 A 
ATOM      2  C   UNL     1      -8.384  15.101  11.135  1.00  0.00     0.100 A 
ATOM      3  C   UNL     1      -8.565  15.800   9.941  1.00  0.00     0.197 A 
ATOM      4  O   UNL     1      -9.540  16.590   9.856  1.00  0.00    -0.289 OA
ATOM      5  C   UNL     1      -7.681  15.578   8.858  1.00  0.00     0.107 A 
ATOM      6  C   UNL     1      -7.744  16.262   7.606  1.00  0.00     0.134 A 
ATOM      7  C   UNL     1      -6.889  15.876   6.566  1.00  0.00     0.093 A 
ATOM      8  C   UNL     1      -5.935  14.872   6.751  1.00  0.00     0.123 A 
ATOM      9  C   UNL     1      -5.830  14.236   7.986  1.00  0.00     0.094 A 
ATOM     10  C   UNL     1      -6.692  14.575   9.032  1.00  0.00     0.146 A 
ATOM     11  O   UNL     1      -6.568  13.934  10.190  1.00  0.00    -0.456 OA
ENDROOT
BRANCH   1  12
ATOM     12  C   UNL     1      -7.113  13.393  12.489  1.00  0.00     0.021 A 
ATOM     13  C   UNL     1      -7.633  13.871  13.704  1.00  0.00     0.016 A 
ATOM     14  C   UNL     1      -7.431  13.162  14.891  1.00  0.00     0.051 A 
ATOM     15  C   UNL     1      -6.715  11.961  14.885  1.00  0.00     0.157 A 
ATOM     16  C   UNL     1      -6.405  12.175  12.486  1.00  0.00     0.062 A 
ATOM     17  C   UNL     1      -6.203  11.463  13.677  1.00  0.00     0.158 A 
BRANCH  15  18
ATOM     18  O   UNL     1      -6.528  11.277  16.085  1.00  0.00    -0.504 OA
ATOM     19  H   UNL     1      -6.301  10.291  16.112  1.00  0.00     0.293 HD
ENDBRANCH  15  18
BRANCH  17  20
ATOM     20  O   UNL     1      -5.499  10.260  13.662  1.00  0.00    -0.504 OA
ATOM     21  H   UNL     1      -4.503  10.224  13.847  1.00  0.00     0.293 HD
ENDBRANCH  17  20
ENDBRANCH   1  12
BRANCH   6  22
ATOM     22  O   UNL     1      -8.601  17.335   7.343  1.00  0.00    -0.507 OA
ATOM     23  H   UNL     1      -9.460  17.521   7.838  1.00  0.00     0.293 HD
ENDBRANCH   6  22
BRANCH   8  24
ATOM     24  O   UNL     1      -5.079  14.505   5.716  1.00  0.00    -0.508 OA
ATOM     25  H   UNL     1      -4.731  15.185   5.049  1.00  0.00     0.293 HD
ENDBRANCH   8  24
TORSDOF 5
ENDMDL
MODEL 4
REMARK VINA RESULT:    -6.587      4.795      6.618
REMARK INTER + INTRA:          -8.007
REMARK INTER:                  -7.731
REMARK INTRA:                  -0.276
REMARK UNBOUND:                -0.265
REMARK SMILES O=c1cc(-c2ccc(O)c(O)c2)oc2cc(O)cc(O)c12
REMARK SMILES IDX 4 1 3 2 2 3 1 4 21 5 19 6 18 7 16 8 15 9 14 10 13 11 5 12
REMARK SMILES IDX 6 13 7 14 8 15 12 16 10 17 9 18 11 20 20 22 17 24
REMARK H PARENT 9 19 11 21 20 23 17 25
REMARK Flexibility Score: inf
ROOT
ATOM      1  C   UNL     1      -6.152  14.178  10.546  1.00  0.00     0.138 A 
ATOM      2  C   UNL     1      -5.436  15.383  10.553  1.00  0.00     0.100 A 
ATOM      3  C   UNL     1      -5.083  15.985   9.345  1.00  0.00     0.197 A 
ATOM      4  O   UNL     1      -4.495  17.097   9.385  1.00  0.00    -0.289 OA
ATOM      5  C   UNL     1      -5.423  15.358   8.123  1.00  0.00     0.107 A 
ATOM      6  C   UNL     1      -5.080  15.859   6.831  1.00  0.00     0.134 A 
ATOM      7  C   UNL     1      -5.571  15.214   5.688  1.00  0.00     0.093 A 
ATOM      8  C   UNL     1      -6.343  14.054   5.790  1.00  0.00     0.123 A 
ATOM      9  C   UNL     1      -6.637  13.527   7.046  1.00  0.00     0.094 A 
ATOM     10  C   UNL     1      -6.191  14.167   8.205  1.00  0.00     0.146 A 
ATOM     11  O   UNL     1      -6.507  13.640   9.383  1.00  0.00    -0.456 OA
ENDROOT
BRANCH   1  12
ATOM     12  C   UNL     1      -6.552  13.495  11.802  1.00  0.00     0.021 A 
ATOM     13  C   UNL     1      -7.402  14.155  12.706  1.00  0.00     0.016 A 
ATOM     14  C   UNL     1      -7.799  13.531  13.892  1.00  0.00     0.051 A 
ATOM     15  C   UNL     1      -7.362  12.238  14.191  1.00  0.00     0.157 A 
ATOM     16  C   UNL     1      -6.126  12.187  12.102  1.00  0.00     0.062 A 
ATOM     17  C   UNL     1      -6.525  11.560  13.291  1.00  0.00     0.158 A 
BRANCH  15  18
ATOM     18  O   UNL     1      -7.774  11.642  15.383  1.00  0.00    -0.504 OA
ATOM     19  H   UNL     1      -8.341  10.804  15.397  1.00  0.00     0.293 HD
ENDBRANCH  15  18
BRANCH  17  20
ATOM     20  O   UNL     1      -6.096  10.265  13.578  1.00  0.00    -0.504 OA
ATOM     21  H   UNL     1      -6.683   9.609  14.080  1.00  0.00     0.293 HD
ENDBRANCH  17  20
ENDBRANCH   1  12
BRANCH   6  22
ATOM     22  O   UNL     1      -4.246  16.961   6.615  1.00  0.00    -0.507 OA
ATOM     23  H   UNL     1      -3.282  17.020   6.907  1.00  0.00     0.293 HD
ENDBRANCH   6  22
BRANCH   8  24
ATOM     24  O   UNL     1      -6.814  13.412   4.649  1.00  0.00    -0.508 OA
ATOM     25  H   UNL     1      -7.370  13.901   3.956  1.00  0.00     0.293 HD
ENDBRANCH   8  24
TORSDOF 5
ENDMDL
MODEL 5
REMARK VINA RESULT:    -6.575      1.730      7.700
REMARK INTER + INTRA:          -7.993
REMARK INTER:                  -7.727
REMARK INTRA:                  -0.266
REMARK UNBOUND:                -0.265
REMARK SMILES O=c1cc(-c2ccc(O)c(O)c2)oc2cc(O)cc(O)c12
REMARK SMILES IDX 4 1 3 2 2 3 1 4 21 5 19 6 18 7 16 8 15 9 14 10 13 11 5 12
REMARK SMILES IDX 6 13 7 14 8 15 12 16 10 17 9 18 11 20 20 22 17 24
REMARK H PARENT 9 19 11 21 20 23 17 25
REMARK Flexibility Score: inf
ROOT
ATOM      1  C   UNL     1      -2.786  15.707   7.248  1.00  0.00     0.138 A 
ATOM      2  C   UNL     1      -2.249  15.255   8.461  1.00  0.00     0.100 A 
ATOM      3  C   UNL     1      -0.905  15.491   8.752  1.00  0.00     0.197 A 
ATOM      4  O   UNL     1      -0.468  15.127   9.875  1.00  0.00    -0.289 OA
ATOM      5  C   UNL     1      -0.088  16.155   7.807  1.00  0.00     0.107 A 
ATOM      6  C   UNL     1       1.306  16.414   7.978  1.00  0.00     0.134 A 
ATOM      7  C   UNL     1       1.986  17.182   7.025  1.00  0.00     0.093 A 
ATOM      8  C   UNL     1       1.338  17.651   5.880  1.00  0.00     0.123 A 
ATOM      9  C   UNL     1      -0.008  17.358   5.678  1.00  0.00     0.094 A 
ATOM     10  C   UNL     1      -0.723  16.622   6.626  1.00  0.00     0.146 A 
ATOM     11  O   UNL     1      -2.010  16.377   6.402  1.00  0.00    -0.456 OA
ENDROOT
BRANCH   1  12
ATOM     12  C   UNL     1      -4.209  15.483   6.889  1.00  0.00     0.021 A 
ATOM     13  C   UNL     1      -5.192  16.359   7.380  1.00  0.00     0.016 A 
ATOM     14  C   UNL     1      -6.538  16.174   7.050  1.00  0.00     0.051 A 
ATOM     15  C   UNL     1      -6.923  15.119   6.219  1.00  0.00     0.157 A 
ATOM     16  C   UNL     1      -4.602  14.429   6.040  1.00  0.00     0.062 A 
ATOM     17  C   UNL     1      -5.951  14.244   5.708  1.00  0.00     0.158 A 
BRANCH  15  18
ATOM     18  O   UNL     1      -8.274  14.958   5.908  1.00  0.00    -0.504 OA
ATOM     19  H   UNL     1      -8.936  14.573   6.571  1.00  0.00     0.293 HD
ENDBRANCH  15  18
BRANCH  17  20
ATOM     20  O   UNL     1      -6.328  13.197   4.868  1.00  0.00    -0.504 OA
ATOM     21  H   UNL     1      -5.858  12.299   4.894  1.00  0.00     0.293 HD
ENDBRANCH  17  20
ENDBRANCH   1  12
BRANCH   6  22
ATOM     22  O   UNL     1       2.068  15.921   9.042  1.00  0.00    -0.507 OA
ATOM     23  H   UNL     1       1.834  16.030  10.017  1.00  0.00     0.293 HD
ENDBRANCH   6  22
BRANCH   8  24
ATOM     24  O   UNL     1       2.027  18.402   4.931  1.00  0.00    -0.508 OA
ATOM     25  H   UNL     1       2.995  18.670   5.067  1.00  0.00     0.293 HD
ENDBRANCH   8  24
TORSDOF 5
ENDMDL
MODEL 6
REMARK VINA RESULT:    -6.470      2.224      7.144
REMARK INTER + INTRA:          -7.870
REMARK INTER:                  -7.555
REMARK INTRA:                  -0.315
REMARK UNBOUND:                -0.265
REMARK SMILES O=c1cc(-c2ccc(O)c(O)c2)oc2cc(O)cc(O)c12
REMARK SMILES IDX 4 1 3 2 2 3 1 4 21 5 19 6 18 7 16 8 15 9 14 10 13 11 5 12
REMARK SMILES IDX 6 13 7 14 8 15 12 16 10 17 9 18 11 20 20 22 17 24
REMARK H PARENT 9 19 11 21 20 23 17 25
REMARK Flexibility Score: inf
ROOT
ATOM      1  C   UNL     1      -7.002  16.093   7.391  1.00  0.00     0.138 A 
ATOM      2  C   UNL     1      -6.028  15.637   6.492  1.00  0.00     0.100 A 
ATOM      3  C   UNL     1      -4.701  15.523   6.910  1.00  0.00     0.197 A 
ATOM      4  O   UNL     1      -3.862  15.052   6.100  1.00  0.00    -0.289 OA
ATOM      5  C   UNL     1      -4.346  15.899   8.227  1.00  0.00     0.107 A 
ATOM      6  C   UNL     1      -3.018  15.865   8.751  1.00  0.00     0.134 A 
ATOM      7  C   UNL     1      -2.803  16.150  10.105  1.00  0.00     0.093 A 
ATOM      8  C   UNL     1      -3.858  16.526  10.939  1.00  0.00     0.123 A 
ATOM      9  C   UNL     1      -5.150  16.616  10.424  1.00  0.00     0.094 A 
ATOM     10  C   UNL     1      -5.401  16.304   9.085  1.00  0.00     0.146 A 
ATOM     11  O   UNL     1      -6.650  16.388   8.638  1.00  0.00    -0.456 OA
ENDROOT
BRANCH   1  12
ATOM     12  C   UNL     1      -8.427  16.234   6.997  1.00  0.00     0.021 A 
ATOM     13  C   UNL     1      -8.879  15.630   5.811  1.00  0.00     0.016 A 
ATOM     14  C   UNL     1     -10.217  15.741   5.423  1.00  0.00     0.051 A 
ATOM     15  C   UNL     1     -11.127  16.448   6.214  1.00  0.00     0.157 A 
ATOM     16  C   UNL     1      -9.351  16.933   7.798  1.00  0.00     0.062 A 
ATOM     17  C   UNL     1     -10.694  17.044   7.409  1.00  0.00     0.158 A 
BRANCH  15  18
ATOM     18  O   UNL     1     -12.455  16.543   5.799  1.00  0.00    -0.504 OA
ATOM     19  H   UNL     1     -13.174  16.947   6.387  1.00  0.00     0.293 HD
ENDBRANCH  15  18
BRANCH  17  20
ATOM     20  O   UNL     1     -11.599  17.740   8.208  1.00  0.00    -0.504 OA
ATOM     21  H   UNL     1     -11.707  17.531   9.194  1.00  0.00     0.293 HD
ENDBRANCH  17  20
ENDBRANCH   1  12
BRANCH   6  22
ATOM     22  O   UNL     1      -1.883  15.584   7.984  1.00  0.00    -0.507 OA
ATOM     23  H   UNL     1      -1.701  14.705   7.523  1.00  0.00     0.293 HD
ENDBRANCH   6  22
BRANCH   8  24
ATOM     24  O   UNL     1      -3.633  16.822  12.281  1.00  0.00    -0.508 OA
ATOM     25  H   UNL     1      -2.702  16.791  12.682  1.00  0.00     0.293 HD
ENDBRANCH   8  24
TORSDOF 5
ENDMDL
MODEL 7
REMARK VINA RESULT:    -6.457      2.201      3.203
REMARK INTER + INTRA:          -7.854
REMARK INTER:                  -7.543
REMARK INTRA:                  -0.310
REMARK UNBOUND:                -0.265
REMARK SMILES O=c1cc(-c2ccc(O)c(O)c2)oc2cc(O)cc(O)c12
REMARK SMILES IDX 4 1 3 2 2 3 1 4 21 5 19 6 18 7 16 8 15 9 14 10 13 11 5 12
REMARK SMILES IDX 6 13 7 14 8 15 12 16 10 17 9 18 11 20 20 22 17 24
REMARK H PARENT 9 19 11 21 20 23 17 25
REMARK Flexibility Score: inf
ROOT
ATOM      1  C   UNL     1      -7.221  15.706   7.693  1.00  0.00     0.138 A 
ATOM      2  C   UNL     1      -7.751  15.525   6.408  1.00  0.00     0.100 A 
ATOM      3  C   UNL     1      -9.074  15.886   6.150  1.00  0.00     0.197 A 
ATOM      4  O   UNL     1      -9.502  15.770   4.972  1.00  0.00    -0.289 OA
ATOM      5  C   UNL     1      -9.879  16.401   7.194  1.00  0.00     0.107 A 
ATOM      6  C   UNL     1     -11.252  16.764   7.058  1.00  0.00     0.134 A 
ATOM      7  C   UNL     1     -11.915  17.371   8.131  1.00  0.00     0.093 A 
ATOM      8  C   UNL     1     -11.272  17.575   9.354  1.00  0.00     0.123 A 
ATOM      9  C   UNL     1      -9.947  17.174   9.514  1.00  0.00     0.094 A 
ATOM     10  C   UNL     1      -9.249  16.597   8.451  1.00  0.00     0.146 A 
ATOM     11  O   UNL     1      -7.982  16.243   8.642  1.00  0.00    -0.456 OA
ENDROOT
BRANCH   1  12
ATOM     12  C   UNL     1      -5.820  15.339   8.022  1.00  0.00     0.021 A 
ATOM     13  C   UNL     1      -5.149  14.393   7.227  1.00  0.00     0.016 A 
ATOM     14  C   UNL     1      -3.829  14.035   7.510  1.00  0.00     0.051 A 
ATOM     15  C   UNL     1      -3.153  14.620   8.585  1.00  0.00     0.157 A 
ATOM     16  C   UNL     1      -5.130  15.935   9.095  1.00  0.00     0.062 A 
ATOM     17  C   UNL     1      -3.804  15.577   9.380  1.00  0.00     0.158 A 
BRANCH  15  18
ATOM     18  O   UNL     1      -1.836  14.241   8.845  1.00  0.00    -0.504 OA
ATOM     19  H   UNL     1      -1.335  13.595   8.248  1.00  0.00     0.293 HD
ENDBRANCH  15  18
BRANCH  17  20
ATOM     20  O   UNL     1      -3.132  16.173  10.445  1.00  0.00    -0.504 OA
ATOM     21  H   UNL     1      -2.247  16.649  10.316  1.00  0.00     0.293 HD
ENDBRANCH  17  20
ENDBRANCH   1  12
BRANCH   6  22
ATOM     22  O   UNL     1     -12.013  16.527   5.908  1.00  0.00    -0.507 OA
ATOM     23  H   UNL     1     -12.113  17.174   5.140  1.00  0.00     0.293 HD
ENDBRANCH   6  22
BRANCH   8  24
ATOM     24  O   UNL     1     -11.943  18.167  10.421  1.00  0.00    -0.508 OA
ATOM     25  H   UNL     1     -12.746  17.724  10.854  1.00  0.00     0.293 HD
ENDBRANCH   8  24
TORSDOF 5
ENDMDL
MODEL 8
REMARK VINA RESULT:    -6.353      1.726      2.450
REMARK INTER + INTRA:          -7.732
REMARK INTER:                  -7.448
REMARK INTRA:                  -0.285
REMARK UNBOUND:                -0.265
REMARK SMILES O=c1cc(-c2ccc(O)c(O)c2)oc2cc(O)cc(O)c12
REMARK SMILES IDX 4 1 3 2 2 3 1 4 21 5 19 6 18 7 16 8 15 9 14 10 13 11 5 12
REMARK SMILES IDX 6 13 7 14 8 15 12 16 10 17 9 18 11 20 20 22 17 24
REMARK H PARENT 9 19 11 21 20 23 17 25
REMARK Flexibility Score: inf
ROOT
ATOM      1  C   UNL     1      -3.731  15.743   7.719  1.00  0.00     0.138 A 
ATOM      2  C   UNL     1      -4.300  15.387   6.488  1.00  0.00     0.100 A 
ATOM      3  C   UNL     1      -5.688  15.386   6.343  1.00  0.00     0.197 A 
ATOM      4  O   UNL     1      -6.167  15.122   5.210  1.00  0.00    -0.289 OA
ATOM      5  C   UNL     1      -6.510  15.712   7.448  1.00  0.00     0.107 A 
ATOM      6  C   UNL     1      -7.937  15.704   7.429  1.00  0.00     0.134 A 
ATOM      7  C   UNL     1      -8.645  16.158   8.549  1.00  0.00     0.093 A 
ATOM      8  C   UNL     1      -7.978  16.563   9.708  1.00  0.00     0.123 A 
ATOM      9  C   UNL     1      -6.586  16.523   9.755  1.00  0.00     0.094 A 
ATOM     10  C   UNL     1      -5.851  16.108   8.642  1.00  0.00     0.146 A 
ATOM     11  O   UNL     1      -4.525  16.099   8.724  1.00  0.00    -0.456 OA
ENDROOT
BRANCH   1  12
ATOM     12  C   UNL     1      -2.262  15.760   7.928  1.00  0.00     0.021 A 
ATOM     13  C   UNL     1      -1.446  16.481   7.038  1.00  0.00     0.016 A 
ATOM     14  C   UNL     1      -0.060  16.519   7.216  1.00  0.00     0.051 A 
ATOM     15  C   UNL     1       0.533  15.848   8.289  1.00  0.00     0.157 A 
ATOM     16  C   UNL     1      -1.660  15.097   9.015  1.00  0.00     0.062 A 
ATOM     17  C   UNL     1      -0.269  15.136   9.195  1.00  0.00     0.158 A 
BRANCH  15  18
ATOM     18  O   UNL     1       1.918  15.902   8.440  1.00  0.00    -0.504 OA
ATOM     19  H   UNL     1       2.532  15.208   8.032  1.00  0.00     0.293 HD
ENDBRANCH  15  18
BRANCH  17  20
ATOM     20  O   UNL     1       0.315  14.475  10.274  1.00  0.00    -0.504 OA
ATOM     21  H   UNL     1       0.649  13.521  10.195  1.00  0.00     0.293 HD
ENDBRANCH  17  20
ENDBRANCH   1  12
BRANCH   6  22
ATOM     22  O   UNL     1      -8.702  15.240   6.354  1.00  0.00    -0.507 OA
ATOM     23  H   UNL     1      -9.661  15.498   6.174  1.00  0.00     0.293 HD
ENDBRANCH   6  22
BRANCH   8  24
ATOM     24  O   UNL     1      -8.690  16.999  10.822  1.00  0.00    -0.508 OA
ATOM     25  H   UNL     1      -8.253  17.079  11.733  1.00  0.00     0.293 HD
ENDBRANCH   8  24
TORSDOF 5
ENDMDL
MODEL 9
REMARK VINA RESULT:    -6.232      3.060      7.000
REMARK INTER + INTRA:          -7.590
REMARK INTER:                  -7.277
REMARK INTRA:                  -0.312
REMARK UNBOUND:                -0.265
REMARK SMILES O=c1cc(-c2ccc(O)c(O)c2)oc2cc(O)cc(O)c12
REMARK SMILES IDX 4 1 3 2 2 3 1 4 21 5 19 6 18 7 16 8 15 9 14 10 13 11 5 12
REMARK SMILES IDX 6 13 7 14 8 15 12 16 10 17 9 18 11 20 20 22 17 24
REMARK H PARENT 9 19 11 21 20 23 17 25
REMARK Flexibility Score: inf
ROOT
ATOM      1  C   UNL     1      -9.011  16.510   8.576  1.00  0.00     0.138 A 
ATOM      2  C   UNL     1      -9.596  16.327   7.316  1.00  0.00     0.100 A 
ATOM      3  C   UNL     1      -8.895  15.643   6.321  1.00  0.00     0.197 A 
ATOM      4  O   UNL     1      -9.470  15.440   5.221  1.00  0.00    -0.289 OA
ATOM      5  C   UNL     1      -7.586  15.171   6.583  1.00  0.00     0.107 A 
ATOM      6  C   UNL     1      -6.761  14.498   5.633  1.00  0.00     0.134 A 
ATOM      7  C   UNL     1      -5.528  13.972   6.039  1.00  0.00     0.093 A 
ATOM      8  C   UNL     1      -5.066  14.147   7.346  1.00  0.00     0.123 A 
ATOM      9  C   UNL     1      -5.840  14.850   8.266  1.00  0.00     0.094 A 
ATOM     10  C   UNL     1      -7.089  15.357   7.900  1.00  0.00     0.146 A 
ATOM     11  O   UNL     1      -7.803  16.008   8.812  1.00  0.00    -0.456 OA
ENDROOT
BRANCH   1  12
ATOM     12  C   UNL     1      -9.712  17.230   9.669  1.00  0.00     0.021 A 
ATOM     13  C   UNL     1     -11.111  17.363   9.622  1.00  0.00     0.016 A 
ATOM     14  C   UNL     1     -11.796  18.029  10.641  1.00  0.00     0.051 A 
ATOM     15  C   UNL     1     -11.100  18.566  11.728  1.00  0.00     0.157 A 
ATOM     16  C   UNL     1      -9.017  17.761  10.773  1.00  0.00     0.062 A 
ATOM     17  C   UNL     1      -9.704  18.428  11.797  1.00  0.00     0.158 A 
BRANCH  15  18
ATOM     18  O   UNL     1     -11.811  19.227  12.729  1.00  0.00    -0.504 OA
ATOM     19  H   UNL     1     -11.815  20.236  12.808  1.00  0.00     0.293 HD
ENDBRANCH  15  18
BRANCH  17  20
ATOM     20  O   UNL     1      -9.005  18.951  12.884  1.00  0.00    -0.504 OA
ATOM     21  H   UNL     1      -8.295  18.413  13.367  1.00  0.00     0.293 HD
ENDBRANCH  17  20
ENDBRANCH   1  12
BRANCH   6  22
ATOM     22  O   UNL     1      -7.091  14.342   4.283  1.00  0.00    -0.507 OA
ATOM     23  H   UNL     1      -7.130  15.092   3.608  1.00  0.00     0.293 HD
ENDBRANCH   6  22
BRANCH   8  24
ATOM     24  O   UNL     1      -3.832  13.634   7.737  1.00  0.00    -0.508 OA
ATOM     25  H   UNL     1      -3.543  13.630   8.709  1.00  0.00     0.293 HD
ENDBRANCH   8  24
TORSDOF 5
ENDMDL
