MODEL 1
REMARK VINA RESULT:    -3.573      0.000      0.000
REMARK INTER + INTRA:         -10.561
REMARK INTER:                  -9.005
REMARK INTRA:                  -1.557
REMARK UNBOUND:                -1.557
REMARK SMILES CCCCCCCCCCCCCCCCCCCCCCCCCCCC(=O)[O-]
REMARK SMILES IDX 15 1 16 2 17 3 18 4 19 5 20 6 21 7 22 8 23 9 24 10 25 11
REMARK SMILES IDX 26 12 27 13 28 14 29 15 30 16 14 17 13 18 12 19 11 20 10 21
REMARK SMILES IDX 9 22 8 23 7 24 6 25 5 26 4 27 3 28 2 29 1 30
REMARK H PARENT
REMARK Flexibility Score: inf
ROOT
ATOM      1  C   UNL     1      -1.249  13.008 -36.760  1.00  0.00     0.000 C 
ENDROOT
BRANCH   1   2
ATOM      2  C   UNL     1      -2.120  12.004 -35.968  1.00  0.00     0.000 C 
BRANCH   2   3
ATOM      3  C   UNL     1      -2.462  10.733 -36.775  1.00  0.00     0.000 C 
BRANCH   3   4
ATOM      4  C   UNL     1      -1.616  10.580 -38.054  1.00  0.00     0.000 C 
BRANCH   4   5
ATOM      5  C   UNL     1      -1.143   9.145 -38.345  1.00  0.00     0.000 C 
BRANCH   5   6
ATOM      6  C   UNL     1      -2.111   8.309 -39.200  1.00  0.00     0.000 C 
BRANCH   6   7
ATOM      7  C   UNL     1      -2.971   9.118 -40.187  1.00  0.00     0.000 C 
BRANCH   7   8
ATOM      8  C   UNL     1      -4.402   9.431 -39.709  1.00  0.00     0.000 C 
BRANCH   8   9
ATOM      9  C   UNL     1      -4.850   8.672 -38.447  1.00  0.00     0.000 C 
BRANCH   9  10
ATOM     10  C   UNL     1      -6.299   8.161 -38.542  1.00  0.00     0.000 C 
BRANCH  10  11
ATOM     11  C   UNL     1      -7.019   8.658 -39.806  1.00  0.00     0.000 C 
BRANCH  11  12
ATOM     12  C   UNL     1      -7.397   7.508 -40.751  1.00  0.00     0.006 C 
BRANCH  12  13
ATOM     13  C   UNL     1      -7.645   6.192 -39.997  1.00  0.00     0.053 C 
BRANCH  13  14
ATOM     14  C   UNL     1      -8.104   5.099 -40.914  1.00  0.00     0.041 C 
ATOM     15  O   UNL     1      -7.917   5.191 -42.155  1.00  0.00    -0.550 OA
ATOM     16  O   UNL     1      -8.741   3.975 -40.398  1.00  0.00    -0.550 OA
ENDBRANCH  13  14
ENDBRANCH  12  13
ENDBRANCH  11  12
ENDBRANCH  10  11
ENDBRANCH   9  10
ENDBRANCH   8   9
ENDBRANCH   7   8
ENDBRANCH   6   7
ENDBRANCH   5   6
ENDBRANCH   4   5
ENDBRANCH   3   4
ENDBRANCH   2   3
ENDBRANCH   1   2
BRANCH   1  17
ATOM     17  C   UNL     1       0.115  12.426 -37.159  1.00  0.00     0.000 C 
BRANCH  17  18
ATOM     18  C   UNL     1       0.821  13.253 -38.250  1.00  0.00     0.000 C 
BRANCH  18  19
ATOM     19  C   UNL     1       1.470  12.353 -39.319  1.00  0.00     0.000 C 
BRANCH  19  20
ATOM     20  C   UNL     1       1.985  13.118 -40.559  1.00  0.00     0.000 C 
BRANCH  20  21
ATOM     21  C   UNL     1       3.154  12.448 -41.315  1.00  0.00     0.000 C 
BRANCH  21  22
ATOM     22  C   UNL     1       2.992  10.941 -41.573  1.00  0.00    -0.000 C 
BRANCH  22  23
ATOM     23  C   UNL     1       1.926  10.633 -42.633  1.00  0.00    -0.000 C 
BRANCH  23  24
ATOM     24  C   UNL     1       1.535   9.145 -42.683  1.00  0.00    -0.000 C 
BRANCH  24  25
ATOM     25  C   UNL     1       0.806   8.610 -41.435  1.00  0.00    -0.000 C 
BRANCH  25  26
ATOM     26  C   UNL     1      -0.001   7.316 -41.654  1.00  0.00    -0.000 C 
BRANCH  26  27
ATOM     27  C   UNL     1       0.741   6.197 -42.412  1.00  0.00    -0.000 C 
BRANCH  27  28
ATOM     28  C   UNL     1       1.665   5.320 -41.547  1.00  0.00    -0.000 C 
BRANCH  28  29
ATOM     29  C   UNL     1       3.120   5.317 -42.040  1.00  0.00    -0.003 C 
ATOM     30  C   UNL     1       4.098   5.240 -40.871  1.00  0.00     0.004 C 
ENDBRANCH  28  29
ENDBRANCH  27  28
ENDBRANCH  26  27
ENDBRANCH  25  26
ENDBRANCH  24  25
ENDBRANCH  23  24
ENDBRANCH  22  23
ENDBRANCH  21  22
ENDBRANCH  20  21
ENDBRANCH  19  20
ENDBRANCH  18  19
ENDBRANCH  17  18
ENDBRANCH   1  17
TORSDOF 26
ENDMDL
MODEL 2
REMARK VINA RESULT:    -3.406      1.001      2.615
REMARK INTER + INTRA:         -10.140
REMARK INTER:                  -7.964
REMARK INTRA:                  -2.175
REMARK UNBOUND:                -1.557
REMARK SMILES CCCCCCCCCCCCCCCCCCCCCCCCCCCC(=O)[O-]
REMARK SMILES IDX 15 1 16 2 17 3 18 4 19 5 20 6 21 7 22 8 23 9 24 10 25 11
REMARK SMILES IDX 26 12 27 13 28 14 29 15 30 16 14 17 13 18 12 19 11 20 10 21
REMARK SMILES IDX 9 22 8 23 7 24 6 25 5 26 4 27 3 28 2 29 1 30
REMARK H PARENT
REMARK Flexibility Score: inf
ROOT
ATOM      1  C   UNL     1      -0.618   8.842 -38.248  1.00  0.00     0.000 C 
ENDROOT
BRANCH   1   2
ATOM      2  C   UNL     1      -1.504   8.093 -39.271  1.00  0.00     0.000 C 
BRANCH   2   3
ATOM      3  C   UNL     1      -2.495   9.020 -40.007  1.00  0.00     0.000 C 
BRANCH   3   4
ATOM      4  C   UNL     1      -3.780   9.295 -39.203  1.00  0.00     0.000 C 
BRANCH   4   5
ATOM      5  C   UNL     1      -3.630   9.145 -37.679  1.00  0.00     0.000 C 
BRANCH   5   6
ATOM      6  C   UNL     1      -4.909   9.435 -36.873  1.00  0.00     0.000 C 
BRANCH   6   7
ATOM      7  C   UNL     1      -6.084   8.482 -37.156  1.00  0.00     0.000 C 
BRANCH   7   8
ATOM      8  C   UNL     1      -7.484   9.123 -37.077  1.00  0.00     0.000 C 
BRANCH   8   9
ATOM      9  C   UNL     1      -8.223   9.243 -38.422  1.00  0.00     0.000 C 
BRANCH   9  10
ATOM     10  C   UNL     1      -7.266   9.271 -39.628  1.00  0.00     0.000 C 
BRANCH  10  11
ATOM     11  C   UNL     1      -6.993   7.869 -40.197  1.00  0.00     0.000 C 
BRANCH  11  12
ATOM     12  C   UNL     1      -7.994   6.826 -39.679  1.00  0.00     0.006 C 
BRANCH  12  13
ATOM     13  C   UNL     1      -7.524   5.387 -39.942  1.00  0.00     0.053 C 
BRANCH  13  14
ATOM     14  C   UNL     1      -8.104   4.832 -41.208  1.00  0.00     0.041 C 
ATOM     15  O   UNL     1      -8.935   3.888 -41.167  1.00  0.00    -0.550 OA
ATOM     16  O   UNL     1      -7.724   5.358 -42.440  1.00  0.00    -0.550 OA
ENDBRANCH  13  14
ENDBRANCH  12  13
ENDBRANCH  11  12
ENDBRANCH  10  11
ENDBRANCH   9  10
ENDBRANCH   8   9
ENDBRANCH   7   8
ENDBRANCH   6   7
ENDBRANCH   5   6
ENDBRANCH   4   5
ENDBRANCH   3   4
ENDBRANCH   2   3
ENDBRANCH   1   2
BRANCH   1  17
ATOM     17  C   UNL     1      -0.230  10.252 -38.718  1.00  0.00     0.000 C 
BRANCH  17  18
ATOM     18  C   UNL     1      -0.762  11.359 -37.788  1.00  0.00     0.000 C 
BRANCH  18  19
ATOM     19  C   UNL     1       0.103  12.631 -37.862  1.00  0.00     0.000 C 
BRANCH  19  20
ATOM     20  C   UNL     1       1.454  12.435 -38.586  1.00  0.00     0.000 C 
BRANCH  20  21
ATOM     21  C   UNL     1       1.668  13.307 -39.843  1.00  0.00     0.000 C 
BRANCH  21  22
ATOM     22  C   UNL     1       2.654  12.739 -40.877  1.00  0.00    -0.000 C 
BRANCH  22  23
ATOM     23  C   UNL     1       2.471  11.232 -41.106  1.00  0.00    -0.000 C 
BRANCH  23  24
ATOM     24  C   UNL     1       2.372  10.855 -42.594  1.00  0.00    -0.000 C 
BRANCH  24  25
ATOM     25  C   UNL     1       1.416   9.690 -42.920  1.00  0.00    -0.000 C 
BRANCH  25  26
ATOM     26  C   UNL     1       1.137   8.727 -41.749  1.00  0.00    -0.000 C 
BRANCH  26  27
ATOM     27  C   UNL     1       0.463   7.395 -42.139  1.00  0.00    -0.000 C 
BRANCH  27  28
ATOM     28  C   UNL     1       1.423   6.288 -42.609  1.00  0.00    -0.000 C 
BRANCH  28  29
ATOM     29  C   UNL     1       1.972   5.441 -41.452  1.00  0.00    -0.003 C 
ATOM     30  C   UNL     1       3.475   5.217 -41.598  1.00  0.00     0.004 C 
ENDBRANCH  28  29
ENDBRANCH  27  28
ENDBRANCH  26  27
ENDBRANCH  25  26
ENDBRANCH  24  25
ENDBRANCH  23  24
ENDBRANCH  22  23
ENDBRANCH  21  22
ENDBRANCH  20  21
ENDBRANCH  19  20
ENDBRANCH  18  19
ENDBRANCH  17  18
ENDBRANCH   1  17
TORSDOF 26
ENDMDL
MODEL 3
REMARK VINA RESULT:    -3.363      3.481      8.420
REMARK INTER + INTRA:         -10.032
REMARK INTER:                  -8.374
REMARK INTRA:                  -1.658
REMARK UNBOUND:                -1.557
REMARK SMILES CCCCCCCCCCCCCCCCCCCCCCCCCCCC(=O)[O-]
REMARK SMILES IDX 15 1 16 2 17 3 18 4 19 5 20 6 21 7 22 8 23 9 24 10 25 11
REMARK SMILES IDX 26 12 27 13 28 14 29 15 30 16 14 17 13 18 12 19 11 20 10 21
REMARK SMILES IDX 9 22 8 23 7 24 6 25 5 26 4 27 3 28 2 29 1 30
REMARK H PARENT
REMARK Flexibility Score: inf
ROOT
ATOM      1  C   UNL     1      -0.905  11.346 -37.879  1.00  0.00     0.000 C 
ENDROOT
BRANCH   1   2
ATOM      2  C   UNL     1       0.181  12.359 -37.442  1.00  0.00     0.000 C 
BRANCH   2   3
ATOM      3  C   UNL     1       0.883  13.045 -38.633  1.00  0.00     0.000 C 
BRANCH   3   4
ATOM      4  C   UNL     1       1.847  12.110 -39.390  1.00  0.00     0.000 C 
BRANCH   4   5
ATOM      5  C   UNL     1       2.405  12.687 -40.703  1.00  0.00     0.000 C 
BRANCH   5   6
ATOM      6  C   UNL     1       3.051  11.652 -41.639  1.00  0.00     0.000 C 
BRANCH   6   7
ATOM      7  C   UNL     1       2.060  10.725 -42.366  1.00  0.00     0.000 C 
BRANCH   7   8
ATOM      8  C   UNL     1       1.815   9.362 -41.690  1.00  0.00     0.000 C 
BRANCH   8   9
ATOM      9  C   UNL     1       0.633   8.556 -42.255  1.00  0.00     0.000 C 
BRANCH   9  10
ATOM     10  C   UNL     1       0.485   7.172 -41.594  1.00  0.00     0.000 C 
BRANCH  10  11
ATOM     11  C   UNL     1       0.657   6.018 -42.596  1.00  0.00     0.000 C 
BRANCH  11  12
ATOM     12  C   UNL     1       2.121   5.576 -42.729  1.00  0.00     0.006 C 
BRANCH  12  13
ATOM     13  C   UNL     1       2.832   5.501 -41.368  1.00  0.00     0.053 C 
BRANCH  13  14
ATOM     14  C   UNL     1       4.246   5.021 -41.502  1.00  0.00     0.041 C 
ATOM     15  O   UNL     1       4.612   3.958 -40.936  1.00  0.00    -0.550 OA
ATOM     16  O   UNL     1       5.163   5.749 -42.253  1.00  0.00    -0.550 OA
ENDBRANCH  13  14
ENDBRANCH  12  13
ENDBRANCH  11  12
ENDBRANCH  10  11
ENDBRANCH   9  10
ENDBRANCH   8   9
ENDBRANCH   7   8
ENDBRANCH   6   7
ENDBRANCH   5   6
ENDBRANCH   4   5
ENDBRANCH   3   4
ENDBRANCH   2   3
ENDBRANCH   1   2
BRANCH   1  17
ATOM     17  C   UNL     1      -0.333  10.179 -38.697  1.00  0.00     0.000 C 
BRANCH  17  18
ATOM     18  C   UNL     1      -0.779   8.803 -38.167  1.00  0.00     0.000 C 
BRANCH  18  19
ATOM     19  C   UNL     1      -1.774   8.118 -39.123  1.00  0.00     0.000 C 
BRANCH  19  20
ATOM     20  C   UNL     1      -2.541   9.095 -40.041  1.00  0.00     0.000 C 
BRANCH  20  21
ATOM     21  C   UNL     1      -3.962   9.476 -39.569  1.00  0.00     0.000 C 
BRANCH  21  22
ATOM     22  C   UNL     1      -4.586   8.525 -38.533  1.00  0.00    -0.000 C 
BRANCH  22  23
ATOM     23  C   UNL     1      -5.811   9.131 -37.836  1.00  0.00    -0.000 C 
BRANCH  23  24
ATOM     24  C   UNL     1      -7.110   8.966 -38.644  1.00  0.00    -0.000 C 
BRANCH  24  25
ATOM     25  C   UNL     1      -6.945   8.334 -40.040  1.00  0.00    -0.000 C 
BRANCH  25  26
ATOM     26  C   UNL     1      -7.516   6.910 -40.185  1.00  0.00    -0.000 C 
BRANCH  26  27
ATOM     27  C   UNL     1      -7.657   6.402 -41.634  1.00  0.00    -0.000 C 
BRANCH  27  28
ATOM     28  C   UNL     1      -8.081   4.929 -41.774  1.00  0.00    -0.000 C 
BRANCH  28  29
ATOM     29  C   UNL     1      -8.747   4.375 -40.507  1.00  0.00    -0.003 C 
ATOM     30  C   UNL     1      -9.658   3.194 -40.833  1.00  0.00     0.004 C 
ENDBRANCH  28  29
ENDBRANCH  27  28
ENDBRANCH  26  27
ENDBRANCH  25  26
ENDBRANCH  24  25
ENDBRANCH  23  24
ENDBRANCH  22  23
ENDBRANCH  21  22
ENDBRANCH  20  21
ENDBRANCH  19  20
ENDBRANCH  18  19
ENDBRANCH  17  18
ENDBRANCH   1  17
TORSDOF 26
ENDMDL
MODEL 4
REMARK VINA RESULT:    -3.303      1.176      2.670
REMARK INTER + INTRA:          -9.881
REMARK INTER:                  -8.453
REMARK INTRA:                  -1.427
REMARK UNBOUND:                -1.557
REMARK SMILES CCCCCCCCCCCCCCCCCCCCCCCCCCCC(=O)[O-]
REMARK SMILES IDX 15 1 16 2 17 3 18 4 19 5 20 6 21 7 22 8 23 9 24 10 25 11
REMARK SMILES IDX 26 12 27 13 28 14 29 15 30 16 14 17 13 18 12 19 11 20 10 21
REMARK SMILES IDX 9 22 8 23 7 24 6 25 5 26 4 27 3 28 2 29 1 30
REMARK H PARENT
REMARK Flexibility Score: inf
ROOT
ATOM      1  C   UNL     1      -1.869  10.872 -37.762  1.00  0.00     0.000 C 
ENDROOT
BRANCH   1   2
ATOM      2  C   UNL     1      -1.357   9.428 -37.544  1.00  0.00     0.000 C 
BRANCH   2   3
ATOM      3  C   UNL     1      -0.881   8.751 -38.846  1.00  0.00     0.000 C 
BRANCH   3   4
ATOM      4  C   UNL     1      -2.041   8.317 -39.764  1.00  0.00     0.000 C 
BRANCH   4   5
ATOM      5  C   UNL     1      -3.121   9.390 -39.986  1.00  0.00     0.000 C 
BRANCH   5   6
ATOM      6  C   UNL     1      -4.560   8.926 -39.701  1.00  0.00     0.000 C 
BRANCH   6   7
ATOM      7  C   UNL     1      -4.990   9.012 -38.225  1.00  0.00     0.000 C 
BRANCH   7   8
ATOM      8  C   UNL     1      -6.512   9.015 -37.982  1.00  0.00     0.000 C 
BRANCH   8   9
ATOM      9  C   UNL     1      -7.373   8.768 -39.234  1.00  0.00     0.000 C 
BRANCH   9  10
ATOM     10  C   UNL     1      -7.426   7.282 -39.637  1.00  0.00     0.000 C 
BRANCH  10  11
ATOM     11  C   UNL     1      -7.455   7.085 -41.161  1.00  0.00     0.000 C 
BRANCH  11  12
ATOM     12  C   UNL     1      -7.883   5.664 -41.556  1.00  0.00     0.006 C 
BRANCH  12  13
ATOM     13  C   UNL     1      -8.108   4.762 -40.333  1.00  0.00     0.053 C 
BRANCH  13  14
ATOM     14  C   UNL     1      -9.227   3.789 -40.553  1.00  0.00     0.041 C 
ATOM     15  O   UNL     1      -9.224   3.035 -41.561  1.00  0.00    -0.550 OA
ATOM     16  O   UNL     1     -10.278   3.715 -39.644  1.00  0.00    -0.550 OA
ENDBRANCH  13  14
ENDBRANCH  12  13
ENDBRANCH  11  12
ENDBRANCH  10  11
ENDBRANCH   9  10
ENDBRANCH   8   9
ENDBRANCH   7   8
ENDBRANCH   6   7
ENDBRANCH   5   6
ENDBRANCH   4   5
ENDBRANCH   3   4
ENDBRANCH   2   3
ENDBRANCH   1   2
BRANCH   1  17
ATOM     17  C   UNL     1      -2.126  11.617 -36.444  1.00  0.00     0.000 C 
BRANCH  17  18
ATOM     18  C   UNL     1      -1.295  12.908 -36.315  1.00  0.00     0.000 C 
BRANCH  18  19
ATOM     19  C   UNL     1      -0.390  13.130 -37.542  1.00  0.00     0.000 C 
BRANCH  19  20
ATOM     20  C   UNL     1       0.811  12.161 -37.623  1.00  0.00     0.000 C 
BRANCH  20  21
ATOM     21  C   UNL     1       1.303  11.830 -39.049  1.00  0.00     0.000 C 
BRANCH  21  22
ATOM     22  C   UNL     1       1.699  13.045 -39.905  1.00  0.00    -0.000 C 
BRANCH  22  23
ATOM     23  C   UNL     1       2.720  12.693 -40.996  1.00  0.00    -0.000 C 
BRANCH  23  24
ATOM     24  C   UNL     1       2.782  11.187 -41.303  1.00  0.00    -0.000 C 
BRANCH  24  25
ATOM     25  C   UNL     1       2.265  10.774 -42.695  1.00  0.00    -0.000 C 
BRANCH  25  26
ATOM     26  C   UNL     1       1.115   9.748 -42.688  1.00  0.00    -0.000 C 
BRANCH  26  27
ATOM     27  C   UNL     1       1.531   8.295 -42.381  1.00  0.00    -0.000 C 
BRANCH  27  28
ATOM     28  C   UNL     1       0.367   7.319 -42.127  1.00  0.00    -0.000 C 
BRANCH  28  29
ATOM     29  C   UNL     1       0.841   5.899 -41.788  1.00  0.00    -0.003 C 
ATOM     30  C   UNL     1      -0.066   5.249 -40.746  1.00  0.00     0.004 C 
ENDBRANCH  28  29
ENDBRANCH  27  28
ENDBRANCH  26  27
ENDBRANCH  25  26
ENDBRANCH  24  25
ENDBRANCH  23  24
ENDBRANCH  22  23
ENDBRANCH  21  22
ENDBRANCH  20  21
ENDBRANCH  19  20
ENDBRANCH  18  19
ENDBRANCH  17  18
ENDBRANCH   1  17
TORSDOF 26
ENDMDL
MODEL 5
REMARK VINA RESULT:    -3.073      2.550      7.854
REMARK INTER + INTRA:          -9.301
REMARK INTER:                  -7.803
REMARK INTRA:                  -1.498
REMARK UNBOUND:                -1.557
REMARK SMILES CCCCCCCCCCCCCCCCCCCCCCCCCCCC(=O)[O-]
REMARK SMILES IDX 15 1 16 2 17 3 18 4 19 5 20 6 21 7 22 8 23 9 24 10 25 11
REMARK SMILES IDX 26 12 27 13 28 14 29 15 30 16 14 17 13 18 12 19 11 20 10 21
REMARK SMILES IDX 9 22 8 23 7 24 6 25 5 26 4 27 3 28 2 29 1 30
REMARK H PARENT
REMARK Flexibility Score: inf
ROOT
ATOM      1  C   UNL     1      -2.341  10.640 -36.766  1.00  0.00     0.000 C 
ENDROOT
BRANCH   1   2
ATOM      2  C   UNL     1      -2.168  12.030 -36.108  1.00  0.00     0.000 C 
BRANCH   2   3
ATOM      3  C   UNL     1      -0.816  12.694 -36.444  1.00  0.00     0.000 C 
BRANCH   3   4
ATOM      4  C   UNL     1      -0.792  13.351 -37.839  1.00  0.00     0.000 C 
BRANCH   4   5
ATOM      5  C   UNL     1       0.611  13.526 -38.444  1.00  0.00     0.000 C 
BRANCH   5   6
ATOM      6  C   UNL     1       1.181  12.270 -39.126  1.00  0.00     0.000 C 
BRANCH   6   7
ATOM      7  C   UNL     1       1.952  12.533 -40.432  1.00  0.00     0.000 C 
BRANCH   7   8
ATOM      8  C   UNL     1       2.679  11.310 -41.025  1.00  0.00     0.000 C 
BRANCH   8   9
ATOM      9  C   UNL     1       2.531  11.137 -42.547  1.00  0.00     0.000 C 
BRANCH   9  10
ATOM     10  C   UNL     1       1.623   9.951 -42.926  1.00  0.00     0.000 C 
BRANCH  10  11
ATOM     11  C   UNL     1       1.551   8.886 -41.819  1.00  0.00     0.000 C 
BRANCH  11  12
ATOM     12  C   UNL     1       0.358   7.937 -42.002  1.00  0.00     0.006 C 
BRANCH  12  13
ATOM     13  C   UNL     1       0.765   6.613 -42.668  1.00  0.00     0.053 C 
BRANCH  13  14
ATOM     14  C   UNL     1       1.210   5.595 -41.662  1.00  0.00     0.041 C 
ATOM     15  O   UNL     1       2.436   5.371 -41.485  1.00  0.00    -0.550 OA
ATOM     16  O   UNL     1       0.269   4.889 -40.919  1.00  0.00    -0.550 OA
ENDBRANCH  13  14
ENDBRANCH  12  13
ENDBRANCH  11  12
ENDBRANCH  10  11
ENDBRANCH   9  10
ENDBRANCH   8   9
ENDBRANCH   7   8
ENDBRANCH   6   7
ENDBRANCH   5   6
ENDBRANCH   4   5
ENDBRANCH   3   4
ENDBRANCH   2   3
ENDBRANCH   1   2
BRANCH   1  17
ATOM     17  C   UNL     1      -1.401  10.427 -37.962  1.00  0.00     0.000 C 
BRANCH  17  18
ATOM     18  C   UNL     1      -1.027   8.947 -38.171  1.00  0.00     0.000 C 
BRANCH  18  19
ATOM     19  C   UNL     1      -1.831   8.311 -39.320  1.00  0.00     0.000 C 
BRANCH  19  20
ATOM     20  C   UNL     1      -2.670   9.320 -40.137  1.00  0.00     0.000 C 
BRANCH  20  21
ATOM     21  C   UNL     1      -4.187   9.310 -39.848  1.00  0.00     0.000 C 
BRANCH  21  22
ATOM     22  C   UNL     1      -4.631   8.390 -38.699  1.00  0.00    -0.000 C 
BRANCH  22  23
ATOM     23  C   UNL     1      -5.656   9.055 -37.770  1.00  0.00    -0.000 C 
BRANCH  23  24
ATOM     24  C   UNL     1      -7.091   9.009 -38.321  1.00  0.00    -0.000 C 
BRANCH  24  25
ATOM     25  C   UNL     1      -7.225   8.531 -39.780  1.00  0.00    -0.000 C 
BRANCH  25  26
ATOM     26  C   UNL     1      -7.493   7.023 -39.952  1.00  0.00    -0.000 C 
BRANCH  26  27
ATOM     27  C   UNL     1      -7.654   6.545 -41.409  1.00  0.00    -0.000 C 
BRANCH  27  28
ATOM     28  C   UNL     1      -7.870   5.031 -41.583  1.00  0.00    -0.000 C 
BRANCH  28  29
ATOM     29  C   UNL     1      -8.643   4.399 -40.416  1.00  0.00    -0.003 C 
ATOM     30  C   UNL     1      -9.628   3.344 -40.914  1.00  0.00     0.004 C 
ENDBRANCH  28  29
ENDBRANCH  27  28
ENDBRANCH  26  27
ENDBRANCH  25  26
ENDBRANCH  24  25
ENDBRANCH  23  24
ENDBRANCH  22  23
ENDBRANCH  21  22
ENDBRANCH  20  21
ENDBRANCH  19  20
ENDBRANCH  18  19
ENDBRANCH  17  18
ENDBRANCH   1  17
TORSDOF 26
ENDMDL
MODEL 6
REMARK VINA RESULT:    -3.057      3.250      8.792
REMARK INTER + INTRA:          -9.259
REMARK INTER:                  -6.952
REMARK INTRA:                  -2.307
REMARK UNBOUND:                -1.557
REMARK SMILES CCCCCCCCCCCCCCCCCCCCCCCCCCCC(=O)[O-]
REMARK SMILES IDX 15 1 16 2 17 3 18 4 19 5 20 6 21 7 22 8 23 9 24 10 25 11
REMARK SMILES IDX 26 12 27 13 28 14 29 15 30 16 14 17 13 18 12 19 11 20 10 21
REMARK SMILES IDX 9 22 8 23 7 24 6 25 5 26 4 27 3 28 2 29 1 30
REMARK H PARENT
REMARK Flexibility Score: inf
ROOT
ATOM      1  C   UNL     1      -0.559   5.796 -40.056  1.00  0.00     0.000 C 
ENDROOT
BRANCH   1   2
ATOM      2  C   UNL     1       0.310   5.314 -41.242  1.00  0.00     0.000 C 
BRANCH   2   3
ATOM      3  C   UNL     1       0.360   6.326 -42.406  1.00  0.00     0.000 C 
BRANCH   3   4
ATOM      4  C   UNL     1       1.565   7.285 -42.325  1.00  0.00     0.000 C 
BRANCH   4   5
ATOM      5  C   UNL     1       1.254   8.743 -42.703  1.00  0.00     0.000 C 
BRANCH   5   6
ATOM      6  C   UNL     1       1.619   9.781 -41.628  1.00  0.00     0.000 C 
BRANCH   6   7
ATOM      7  C   UNL     1       2.424  10.989 -42.138  1.00  0.00     0.000 C 
BRANCH   7   8
ATOM      8  C   UNL     1       3.036  11.883 -41.042  1.00  0.00     0.000 C 
BRANCH   8   9
ATOM      9  C   UNL     1       2.252  13.172 -40.737  1.00  0.00     0.000 C 
BRANCH   9  10
ATOM     10  C   UNL     1       1.598  13.155 -39.343  1.00  0.00     0.000 C 
BRANCH  10  11
ATOM     11  C   UNL     1       1.266  11.733 -38.864  1.00  0.00     0.000 C 
BRANCH  11  12
ATOM     12  C   UNL     1       0.477  11.732 -37.547  1.00  0.00     0.006 C 
BRANCH  12  13
ATOM     13  C   UNL     1      -0.803  12.577 -37.634  1.00  0.00     0.053 C 
BRANCH  13  14
ATOM     14  C   UNL     1      -1.437  12.773 -36.290  1.00  0.00     0.041 C 
ATOM     15  O   UNL     1      -2.323  11.977 -35.883  1.00  0.00    -0.550 OA
ATOM     16  O   UNL     1      -1.050  13.839 -35.484  1.00  0.00    -0.550 OA
ENDBRANCH  13  14
ENDBRANCH  12  13
ENDBRANCH  11  12
ENDBRANCH  10  11
ENDBRANCH   9  10
ENDBRANCH   8   9
ENDBRANCH   7   8
ENDBRANCH   6   7
ENDBRANCH   5   6
ENDBRANCH   4   5
ENDBRANCH   3   4
ENDBRANCH   2   3
ENDBRANCH   1   2
BRANCH   1  17
ATOM     17  C   UNL     1      -1.077   7.230 -40.243  1.00  0.00     0.000 C 
BRANCH  17  18
ATOM     18  C   UNL     1      -0.974   8.075 -38.960  1.00  0.00     0.000 C 
BRANCH  18  19
ATOM     19  C   UNL     1      -1.866   9.329 -39.028  1.00  0.00     0.000 C 
BRANCH  19  20
ATOM     20  C   UNL     1      -3.048   9.209 -40.016  1.00  0.00     0.000 C 
BRANCH  20  21
ATOM     21  C   UNL     1      -4.454   9.316 -39.387  1.00  0.00     0.000 C 
BRANCH  21  22
ATOM     22  C   UNL     1      -4.558   8.848 -37.926  1.00  0.00    -0.000 C 
BRANCH  22  23
ATOM     23  C   UNL     1      -6.010   8.672 -37.461  1.00  0.00    -0.000 C 
BRANCH  23  24
ATOM     24  C   UNL     1      -7.027   9.373 -38.378  1.00  0.00    -0.000 C 
BRANCH  24  25
ATOM     25  C   UNL     1      -7.878   8.437 -39.259  1.00  0.00    -0.000 C 
BRANCH  25  26
ATOM     26  C   UNL     1      -7.162   7.158 -39.736  1.00  0.00    -0.000 C 
BRANCH  26  27
ATOM     27  C   UNL     1      -7.380   6.796 -41.219  1.00  0.00    -0.000 C 
BRANCH  27  28
ATOM     28  C   UNL     1      -7.946   5.387 -41.474  1.00  0.00    -0.000 C 
BRANCH  28  29
ATOM     29  C   UNL     1      -8.688   4.812 -40.258  1.00  0.00    -0.003 C 
ATOM     30  C   UNL     1      -9.391   3.503 -40.610  1.00  0.00     0.004 C 
ENDBRANCH  28  29
ENDBRANCH  27  28
ENDBRANCH  26  27
ENDBRANCH  25  26
ENDBRANCH  24  25
ENDBRANCH  23  24
ENDBRANCH  22  23
ENDBRANCH  21  22
ENDBRANCH  20  21
ENDBRANCH  19  20
ENDBRANCH  18  19
ENDBRANCH  17  18
ENDBRANCH   1  17
TORSDOF 26
ENDMDL
MODEL 7
REMARK VINA RESULT:    -2.908      3.666      8.412
REMARK INTER + INTRA:          -8.884
REMARK INTER:                  -7.252
REMARK INTRA:                  -1.632
REMARK UNBOUND:                -1.557
REMARK SMILES CCCCCCCCCCCCCCCCCCCCCCCCCCCC(=O)[O-]
REMARK SMILES IDX 15 1 16 2 17 3 18 4 19 5 20 6 21 7 22 8 23 9 24 10 25 11
REMARK SMILES IDX 26 12 27 13 28 14 29 15 30 16 14 17 13 18 12 19 11 20 10 21
REMARK SMILES IDX 9 22 8 23 7 24 6 25 5 26 4 27 3 28 2 29 1 30
REMARK H PARENT
REMARK Flexibility Score: inf
ROOT
ATOM      1  C   UNL     1      -0.908  13.181 -36.359  1.00  0.00     0.000 C 
ENDROOT
BRANCH   1   2
ATOM      2  C   UNL     1      -0.641  13.090 -37.881  1.00  0.00     0.000 C 
BRANCH   2   3
ATOM      3  C   UNL     1       0.834  12.793 -38.221  1.00  0.00     0.000 C 
BRANCH   3   4
ATOM      4  C   UNL     1       1.079  11.327 -38.630  1.00  0.00     0.000 C 
BRANCH   4   5
ATOM      5  C   UNL     1       0.063  10.321 -38.061  1.00  0.00     0.000 C 
BRANCH   5   6
ATOM      6  C   UNL     1      -0.954   9.783 -39.082  1.00  0.00     0.000 C 
BRANCH   6   7
ATOM      7  C   UNL     1      -1.320   8.298 -38.914  1.00  0.00     0.000 C 
BRANCH   7   8
ATOM      8  C   UNL     1      -0.895   7.379 -40.076  1.00  0.00     0.000 C 
BRANCH   8   9
ATOM      9  C   UNL     1      -0.425   8.109 -41.346  1.00  0.00     0.000 C 
BRANCH   9  10
ATOM     10  C   UNL     1       0.507   7.246 -42.218  1.00  0.00     0.000 C 
BRANCH  10  11
ATOM     11  C   UNL     1       0.484   5.762 -41.817  1.00  0.00     0.000 C 
BRANCH  11  12
ATOM     12  C   UNL     1       1.832   5.291 -41.252  1.00  0.00     0.006 C 
BRANCH  12  13
ATOM     13  C   UNL     1       2.990   5.530 -42.234  1.00  0.00     0.053 C 
BRANCH  13  14
ATOM     14  C   UNL     1       4.304   5.087 -41.667  1.00  0.00     0.041 C 
ATOM     15  O   UNL     1       4.353   4.517 -40.546  1.00  0.00    -0.550 OA
ATOM     16  O   UNL     1       5.481   5.303 -42.378  1.00  0.00    -0.550 OA
ENDBRANCH  13  14
ENDBRANCH  12  13
ENDBRANCH  11  12
ENDBRANCH  10  11
ENDBRANCH   9  10
ENDBRANCH   8   9
ENDBRANCH   7   8
ENDBRANCH   6   7
ENDBRANCH   5   6
ENDBRANCH   4   5
ENDBRANCH   3   4
ENDBRANCH   2   3
ENDBRANCH   1   2
BRANCH   1  17
ATOM     17  C   UNL     1      -2.352  12.815 -35.986  1.00  0.00     0.000 C 
BRANCH  17  18
ATOM     18  C   UNL     1      -2.529  11.314 -35.687  1.00  0.00     0.000 C 
BRANCH  18  19
ATOM     19  C   UNL     1      -3.104  10.555 -36.898  1.00  0.00     0.000 C 
BRANCH  19  20
ATOM     20  C   UNL     1      -4.067   9.405 -36.522  1.00  0.00     0.000 C 
BRANCH  20  21
ATOM     21  C   UNL     1      -5.038   8.960 -37.637  1.00  0.00     0.000 C 
BRANCH  21  22
ATOM     22  C   UNL     1      -6.513   8.849 -37.218  1.00  0.00    -0.000 C 
BRANCH  22  23
ATOM     23  C   UNL     1      -7.474   9.411 -38.275  1.00  0.00    -0.000 C 
BRANCH  23  24
ATOM     24  C   UNL     1      -6.895   9.372 -39.700  1.00  0.00    -0.000 C 
BRANCH  24  25
ATOM     25  C   UNL     1      -7.105   8.050 -40.463  1.00  0.00    -0.000 C 
BRANCH  25  26
ATOM     26  C   UNL     1      -7.846   6.951 -39.677  1.00  0.00    -0.000 C 
BRANCH  26  27
ATOM     27  C   UNL     1      -7.339   5.514 -39.916  1.00  0.00    -0.000 C 
BRANCH  27  28
ATOM     28  C   UNL     1      -8.122   4.708 -40.968  1.00  0.00    -0.000 C 
BRANCH  28  29
ATOM     29  C   UNL     1      -9.269   3.888 -40.360  1.00  0.00    -0.003 C 
ATOM     30  C   UNL     1      -9.923   2.993 -41.410  1.00  0.00     0.004 C 
ENDBRANCH  28  29
ENDBRANCH  27  28
ENDBRANCH  26  27
ENDBRANCH  25  26
ENDBRANCH  24  25
ENDBRANCH  23  24
ENDBRANCH  22  23
ENDBRANCH  21  22
ENDBRANCH  20  21
ENDBRANCH  19  20
ENDBRANCH  18  19
ENDBRANCH  17  18
ENDBRANCH   1  17
TORSDOF 26
ENDMDL
MODEL 8
REMARK VINA RESULT:    -2.900      1.230      3.362
REMARK INTER + INTRA:          -8.865
REMARK INTER:                  -6.954
REMARK INTRA:                  -1.911
REMARK UNBOUND:                -1.557
REMARK SMILES CCCCCCCCCCCCCCCCCCCCCCCCCCCC(=O)[O-]
REMARK SMILES IDX 15 1 16 2 17 3 18 4 19 5 20 6 21 7 22 8 23 9 24 10 25 11
REMARK SMILES IDX 26 12 27 13 28 14 29 15 30 16 14 17 13 18 12 19 11 20 10 21
REMARK SMILES IDX 9 22 8 23 7 24 6 25 5 26 4 27 3 28 2 29 1 30
REMARK H PARENT
REMARK Flexibility Score: inf
ROOT
ATOM      1  C   UNL     1      -0.843  13.012 -37.580  1.00  0.00     0.000 C 
ENDROOT
BRANCH   1   2
ATOM      2  C   UNL     1      -1.295  13.503 -36.184  1.00  0.00     0.000 C 
BRANCH   2   3
ATOM      3  C   UNL     1      -2.564  12.788 -35.673  1.00  0.00     0.000 C 
BRANCH   3   4
ATOM      4  C   UNL     1      -2.430  11.252 -35.656  1.00  0.00     0.000 C 
BRANCH   4   5
ATOM      5  C   UNL     1      -3.000  10.543 -36.896  1.00  0.00     0.000 C 
BRANCH   5   6
ATOM      6  C   UNL     1      -3.911   9.342 -36.590  1.00  0.00     0.000 C 
BRANCH   6   7
ATOM      7  C   UNL     1      -4.716   8.814 -37.792  1.00  0.00     0.000 C 
BRANCH   7   8
ATOM      8  C   UNL     1      -4.175   9.222 -39.176  1.00  0.00     0.000 C 
BRANCH   8   9
ATOM      9  C   UNL     1      -5.238   9.342 -40.283  1.00  0.00     0.000 C 
BRANCH   9  10
ATOM     10  C   UNL     1      -6.651   9.599 -39.726  1.00  0.00     0.000 C 
BRANCH  10  11
ATOM     11  C   UNL     1      -7.369   8.302 -39.319  1.00  0.00     0.000 C 
BRANCH  11  12
ATOM     12  C   UNL     1      -7.565   7.347 -40.506  1.00  0.00     0.006 C 
BRANCH  12  13
ATOM     13  C   UNL     1      -7.763   5.892 -40.055  1.00  0.00     0.053 C 
BRANCH  13  14
ATOM     14  C   UNL     1      -8.078   4.987 -41.209  1.00  0.00     0.041 C 
ATOM     15  O   UNL     1      -7.736   5.306 -42.378  1.00  0.00    -0.550 OA
ATOM     16  O   UNL     1      -8.751   3.789 -40.993  1.00  0.00    -0.550 OA
ENDBRANCH  13  14
ENDBRANCH  12  13
ENDBRANCH  11  12
ENDBRANCH  10  11
ENDBRANCH   9  10
ENDBRANCH   8   9
ENDBRANCH   7   8
ENDBRANCH   6   7
ENDBRANCH   5   6
ENDBRANCH   4   5
ENDBRANCH   3   4
ENDBRANCH   2   3
ENDBRANCH   1   2
BRANCH   1  17
ATOM     17  C   UNL     1       0.621  12.549 -37.601  1.00  0.00     0.000 C 
BRANCH  17  18
ATOM     18  C   UNL     1       0.881  11.435 -38.633  1.00  0.00     0.000 C 
BRANCH  18  19
ATOM     19  C   UNL     1       0.329  10.077 -38.159  1.00  0.00     0.000 C 
BRANCH  19  20
ATOM     20  C   UNL     1      -0.877   9.566 -38.979  1.00  0.00     0.000 C 
BRANCH  20  21
ATOM     21  C   UNL     1      -1.063   8.032 -39.001  1.00  0.00     0.000 C 
BRANCH  21  22
ATOM     22  C   UNL     1      -0.995   7.382 -40.393  1.00  0.00    -0.000 C 
BRANCH  22  23
ATOM     23  C   UNL     1      -0.419   5.960 -40.356  1.00  0.00    -0.000 C 
BRANCH  23  24
ATOM     24  C   UNL     1       0.556   5.671 -41.511  1.00  0.00    -0.000 C 
BRANCH  24  25
ATOM     25  C   UNL     1       0.645   6.768 -42.590  1.00  0.00    -0.000 C 
BRANCH  25  26
ATOM     26  C   UNL     1       1.757   7.812 -42.371  1.00  0.00    -0.000 C 
BRANCH  26  27
ATOM     27  C   UNL     1       1.385   9.260 -42.750  1.00  0.00    -0.000 C 
BRANCH  27  28
ATOM     28  C   UNL     1       1.733  10.325 -41.695  1.00  0.00    -0.000 C 
BRANCH  28  29
ATOM     29  C   UNL     1       2.713  11.385 -42.216  1.00  0.00    -0.003 C 
ATOM     30  C   UNL     1       3.162  12.320 -41.096  1.00  0.00     0.004 C 
ENDBRANCH  28  29
ENDBRANCH  27  28
ENDBRANCH  26  27
ENDBRANCH  25  26
ENDBRANCH  24  25
ENDBRANCH  23  24
ENDBRANCH  22  23
ENDBRANCH  21  22
ENDBRANCH  20  21
ENDBRANCH  19  20
ENDBRANCH  18  19
ENDBRANCH  17  18
ENDBRANCH   1  17
TORSDOF 26
ENDMDL
MODEL 9
REMARK VINA RESULT:    -2.892      1.785      2.759
REMARK INTER + INTRA:          -8.844
REMARK INTER:                  -7.013
REMARK INTRA:                  -1.831
REMARK UNBOUND:                -1.557
REMARK SMILES CCCCCCCCCCCCCCCCCCCCCCCCCCCC(=O)[O-]
REMARK SMILES IDX 15 1 16 2 17 3 18 4 19 5 20 6 21 7 22 8 23 9 24 10 25 11
REMARK SMILES IDX 26 12 27 13 28 14 29 15 30 16 14 17 13 18 12 19 11 20 10 21
REMARK SMILES IDX 9 22 8 23 7 24 6 25 5 26 4 27 3 28 2 29 1 30
REMARK H PARENT
REMARK Flexibility Score: inf
ROOT
ATOM      1  C   UNL     1      -1.203  13.146 -37.764  1.00  0.00     0.000 C 
ENDROOT
BRANCH   1   2
ATOM      2  C   UNL     1      -1.494  13.484 -36.283  1.00  0.00     0.000 C 
BRANCH   2   3
ATOM      3  C   UNL     1      -2.515  12.527 -35.632  1.00  0.00     0.000 C 
BRANCH   3   4
ATOM      4  C   UNL     1      -2.283  11.049 -36.003  1.00  0.00     0.000 C 
BRANCH   4   5
ATOM      5  C   UNL     1      -3.245  10.494 -37.068  1.00  0.00     0.000 C 
BRANCH   5   6
ATOM      6  C   UNL     1      -4.048   9.257 -36.630  1.00  0.00     0.000 C 
BRANCH   6   7
ATOM      7  C   UNL     1      -5.287   8.949 -37.490  1.00  0.00     0.000 C 
BRANCH   7   8
ATOM      8  C   UNL     1      -5.056   8.986 -39.013  1.00  0.00     0.000 C 
BRANCH   8   9
ATOM      9  C   UNL     1      -6.236   9.531 -39.838  1.00  0.00     0.000 C 
BRANCH   9  10
ATOM     10  C   UNL     1      -7.410   8.537 -39.928  1.00  0.00     0.000 C 
BRANCH  10  11
ATOM     11  C   UNL     1      -6.948   7.072 -39.871  1.00  0.00     0.000 C 
BRANCH  11  12
ATOM     12  C   UNL     1      -8.124   6.096 -39.726  1.00  0.00     0.006 C 
BRANCH  12  13
ATOM     13  C   UNL     1      -8.121   5.013 -40.816  1.00  0.00     0.053 C 
BRANCH  13  14
ATOM     14  C   UNL     1      -9.174   3.974 -40.575  1.00  0.00     0.041 C 
ATOM     15  O   UNL     1      -9.299   3.001 -41.364  1.00  0.00    -0.550 OA
ATOM     16  O   UNL     1     -10.023   4.080 -39.478  1.00  0.00    -0.550 OA
ENDBRANCH  13  14
ENDBRANCH  12  13
ENDBRANCH  11  12
ENDBRANCH  10  11
ENDBRANCH   9  10
ENDBRANCH   8   9
ENDBRANCH   7   8
ENDBRANCH   6   7
ENDBRANCH   5   6
ENDBRANCH   4   5
ENDBRANCH   3   4
ENDBRANCH   2   3
ENDBRANCH   1   2
BRANCH   1  17
ATOM     17  C   UNL     1       0.164  13.665 -38.235  1.00  0.00     0.000 C 
BRANCH  17  18
ATOM     18  C   UNL     1       1.172  12.533 -38.506  1.00  0.00     0.000 C 
BRANCH  18  19
ATOM     19  C   UNL     1       0.760  11.222 -37.809  1.00  0.00     0.000 C 
BRANCH  19  20
ATOM     20  C   UNL     1       0.502  10.047 -38.779  1.00  0.00     0.000 C 
BRANCH  20  21
ATOM     21  C   UNL     1      -0.601   9.057 -38.344  1.00  0.00     0.000 C 
BRANCH  21  22
ATOM     22  C   UNL     1      -1.558   8.607 -39.461  1.00  0.00    -0.000 C 
BRANCH  22  23
ATOM     23  C   UNL     1      -0.859   7.760 -40.534  1.00  0.00    -0.000 C 
BRANCH  23  24
ATOM     24  C   UNL     1      -0.663   6.293 -40.114  1.00  0.00    -0.000 C 
BRANCH  24  25
ATOM     25  C   UNL     1       0.116   5.417 -41.114  1.00  0.00    -0.000 C 
BRANCH  25  26
ATOM     26  C   UNL     1       0.987   6.192 -42.122  1.00  0.00    -0.000 C 
BRANCH  26  27
ATOM     27  C   UNL     1       2.382   5.590 -42.386  1.00  0.00    -0.000 C 
BRANCH  27  28
ATOM     28  C   UNL     1       3.233   5.333 -41.129  1.00  0.00    -0.000 C 
BRANCH  28  29
ATOM     29  C   UNL     1       4.646   4.828 -41.457  1.00  0.00    -0.003 C 
ATOM     30  C   UNL     1       5.248   5.596 -42.631  1.00  0.00     0.004 C 
ENDBRANCH  28  29
ENDBRANCH  27  28
ENDBRANCH  26  27
ENDBRANCH  25  26
ENDBRANCH  24  25
ENDBRANCH  23  24
ENDBRANCH  22  23
ENDBRANCH  21  22
ENDBRANCH  20  21
ENDBRANCH  19  20
ENDBRANCH  18  19
ENDBRANCH  17  18
ENDBRANCH   1  17
TORSDOF 26
ENDMDL
