MODEL 1
REMARK VINA RESULT:    -7.502      0.000      0.000
REMARK INTER + INTRA:         -21.237
REMARK INTER:                 -18.906
REMARK INTRA:                  -2.332
REMARK UNBOUND:                -2.332
REMARK SMILES CCCCCCCCCCCCCCCCCCCCCCCCCCCC(=O)[O-]
REMARK SMILES IDX 15 1 16 2 17 3 18 4 19 5 20 6 21 7 22 8 23 9 24 10 25 11
REMARK SMILES IDX 26 12 27 13 28 14 29 15 30 16 14 17 13 18 12 19 11 20 10 21
REMARK SMILES IDX 9 22 8 23 7 24 6 25 5 26 4 27 3 28 2 29 1 30
REMARK H PARENT
REMARK Flexibility Score: inf
ROOT
ATOM      1  C   UNL     1      -3.416  -1.840   5.611  1.00  0.00     0.000 C 
ENDROOT
BRANCH   1   2
ATOM      2  C   UNL     1      -4.749  -2.558   5.324  1.00  0.00     0.000 C 
BRANCH   2   3
ATOM      3  C   UNL     1      -5.969  -1.631   5.167  1.00  0.00     0.000 C 
BRANCH   3   4
ATOM      4  C   UNL     1      -6.435  -1.498   3.708  1.00  0.00     0.000 C 
BRANCH   4   5
ATOM      5  C   UNL     1      -6.394  -0.034   3.219  1.00  0.00     0.000 C 
BRANCH   5   6
ATOM      6  C   UNL     1      -5.018   0.631   3.383  1.00  0.00     0.000 C 
BRANCH   6   7
ATOM      7  C   UNL     1      -4.126   0.465   2.142  1.00  0.00     0.000 C 
BRANCH   7   8
ATOM      8  C   UNL     1      -4.937   0.388   0.839  1.00  0.00     0.000 C 
BRANCH   8   9
ATOM      9  C   UNL     1      -4.102  -0.130  -0.342  1.00  0.00     0.000 C 
BRANCH   9  10
ATOM     10  C   UNL     1      -4.766   0.220  -1.683  1.00  0.00     0.000 C 
BRANCH  10  11
ATOM     11  C   UNL     1      -3.737   0.458  -2.800  1.00  0.00     0.000 C 
BRANCH  11  12
ATOM     12  C   UNL     1      -3.626  -0.735  -3.760  1.00  0.00     0.006 C 
BRANCH  12  13
ATOM     13  C   UNL     1      -2.164  -1.013  -4.122  1.00  0.00     0.053 C 
BRANCH  13  14
ATOM     14  C   UNL     1      -1.755  -2.378  -3.665  1.00  0.00     0.041 C 
ATOM     15  O   UNL     1      -1.239  -3.191  -4.477  1.00  0.00    -0.550 OA
ATOM     16  O   UNL     1      -1.955  -2.759  -2.343  1.00  0.00    -0.550 OA
ENDBRANCH  13  14
ENDBRANCH  12  13
ENDBRANCH  11  12
ENDBRANCH  10  11
ENDBRANCH   9  10
ENDBRANCH   8   9
ENDBRANCH   7   8
ENDBRANCH   6   7
ENDBRANCH   5   6
ENDBRANCH   4   5
ENDBRANCH   3   4
ENDBRANCH   2   3
ENDBRANCH   1   2
BRANCH   1  17
ATOM     17  C   UNL     1      -3.287  -1.241   7.025  1.00  0.00     0.000 C 
BRANCH  17  18
ATOM     18  C   UNL     1      -1.845  -1.137   7.557  1.00  0.00     0.000 C 
BRANCH  18  19
ATOM     19  C   UNL     1      -1.651  -0.141   8.716  1.00  0.00     0.000 C 
BRANCH  19  20
ATOM     20  C   UNL     1      -1.569   1.340   8.296  1.00  0.00     0.000 C 
BRANCH  20  21
ATOM     21  C   UNL     1      -2.786   2.197   8.701  1.00  0.00     0.000 C 
BRANCH  21  22
ATOM     22  C   UNL     1      -3.330   3.123   7.595  1.00  0.00    -0.000 C 
BRANCH  22  23
ATOM     23  C   UNL     1      -3.005   2.685   6.153  1.00  0.00    -0.000 C 
BRANCH  23  24
ATOM     24  C   UNL     1      -3.553   3.610   5.052  1.00  0.00    -0.000 C 
BRANCH  24  25
ATOM     25  C   UNL     1      -4.330   4.814   5.613  1.00  0.00    -0.000 C 
BRANCH  25  26
ATOM     26  C   UNL     1      -4.657   5.857   4.522  1.00  0.00    -0.000 C 
BRANCH  26  27
ATOM     27  C   UNL     1      -6.161   6.014   4.242  1.00  0.00    -0.000 C 
BRANCH  27  28
ATOM     28  C   UNL     1      -6.604   5.308   2.955  1.00  0.00    -0.000 C 
BRANCH  28  29
ATOM     29  C   UNL     1      -7.069   6.320   1.903  1.00  0.00    -0.003 C 
ATOM     30  C   UNL     1      -5.881   7.042   1.273  1.00  0.00     0.004 C 
ENDBRANCH  28  29
ENDBRANCH  27  28
ENDBRANCH  26  27
ENDBRANCH  25  26
ENDBRANCH  24  25
ENDBRANCH  23  24
ENDBRANCH  22  23
ENDBRANCH  21  22
ENDBRANCH  20  21
ENDBRANCH  19  20
ENDBRANCH  18  19
ENDBRANCH  17  18
ENDBRANCH   1  17
TORSDOF 26
ENDMDL
MODEL 2
REMARK VINA RESULT:    -7.169      1.080      1.341
REMARK INTER + INTRA:         -20.398
REMARK INTER:                 -18.682
REMARK INTRA:                  -1.716
REMARK UNBOUND:                -2.332
REMARK SMILES CCCCCCCCCCCCCCCCCCCCCCCCCCCC(=O)[O-]
REMARK SMILES IDX 15 1 16 2 17 3 18 4 19 5 20 6 21 7 22 8 23 9 24 10 25 11
REMARK SMILES IDX 26 12 27 13 28 14 29 15 30 16 14 17 13 18 12 19 11 20 10 21
REMARK SMILES IDX 9 22 8 23 7 24 6 25 5 26 4 27 3 28 2 29 1 30
REMARK H PARENT
REMARK Flexibility Score: inf
ROOT
ATOM      1  C   UNL     1      -2.644  -2.451   6.593  1.00  0.00     0.000 C 
ENDROOT
BRANCH   1   2
ATOM      2  C   UNL     1      -3.839  -1.588   6.144  1.00  0.00     0.000 C 
BRANCH   2   3
ATOM      3  C   UNL     1      -4.671  -2.176   4.989  1.00  0.00     0.000 C 
BRANCH   3   4
ATOM      4  C   UNL     1      -6.046  -1.507   4.840  1.00  0.00     0.000 C 
BRANCH   4   5
ATOM      5  C   UNL     1      -6.103  -0.565   3.618  1.00  0.00     0.000 C 
BRANCH   5   6
ATOM      6  C   UNL     1      -4.731  -0.317   2.969  1.00  0.00     0.000 C 
BRANCH   6   7
ATOM      7  C   UNL     1      -4.792   0.703   1.821  1.00  0.00     0.000 C 
BRANCH   7   8
ATOM      8  C   UNL     1      -4.300   0.118   0.487  1.00  0.00     0.000 C 
BRANCH   8   9
ATOM      9  C   UNL     1      -5.163   0.564  -0.702  1.00  0.00     0.000 C 
BRANCH   9  10
ATOM     10  C   UNL     1      -4.977  -0.378  -1.903  1.00  0.00     0.000 C 
BRANCH  10  11
ATOM     11  C   UNL     1      -3.558  -0.298  -2.493  1.00  0.00     0.000 C 
BRANCH  11  12
ATOM     12  C   UNL     1      -3.405  -1.138  -3.768  1.00  0.00     0.006 C 
BRANCH  12  13
ATOM     13  C   UNL     1      -4.462  -2.245  -3.826  1.00  0.00     0.053 C 
BRANCH  13  14
ATOM     14  C   UNL     1      -3.986  -3.472  -3.114  1.00  0.00     0.041 C 
ATOM     15  O   UNL     1      -4.803  -4.374  -2.790  1.00  0.00    -0.550 OA
ATOM     16  O   UNL     1      -2.640  -3.615  -2.797  1.00  0.00    -0.550 OA
ENDBRANCH  13  14
ENDBRANCH  12  13
ENDBRANCH  11  12
ENDBRANCH  10  11
ENDBRANCH   9  10
ENDBRANCH   8   9
ENDBRANCH   7   8
ENDBRANCH   6   7
ENDBRANCH   5   6
ENDBRANCH   4   5
ENDBRANCH   3   4
ENDBRANCH   2   3
ENDBRANCH   1   2
BRANCH   1  17
ATOM     17  C   UNL     1      -1.655  -1.753   7.546  1.00  0.00     0.000 C 
BRANCH  17  18
ATOM     18  C   UNL     1      -2.120  -0.384   8.076  1.00  0.00     0.000 C 
BRANCH  18  19
ATOM     19  C   UNL     1      -1.044   0.418   8.834  1.00  0.00     0.000 C 
BRANCH  19  20
ATOM     20  C   UNL     1      -1.364   1.913   9.031  1.00  0.00     0.000 C 
BRANCH  20  21
ATOM     21  C   UNL     1      -2.862   2.270   8.963  1.00  0.00     0.000 C 
BRANCH  21  22
ATOM     22  C   UNL     1      -3.263   3.188   7.791  1.00  0.00    -0.000 C 
BRANCH  22  23
ATOM     23  C   UNL     1      -2.971   2.624   6.387  1.00  0.00    -0.000 C 
BRANCH  23  24
ATOM     24  C   UNL     1      -3.509   3.472   5.220  1.00  0.00    -0.000 C 
BRANCH  24  25
ATOM     25  C   UNL     1      -4.365   4.662   5.688  1.00  0.00    -0.000 C 
BRANCH  25  26
ATOM     26  C   UNL     1      -4.776   5.582   4.518  1.00  0.00    -0.000 C 
BRANCH  26  27
ATOM     27  C   UNL     1      -5.829   4.963   3.582  1.00  0.00    -0.000 C 
BRANCH  27  28
ATOM     28  C   UNL     1      -7.015   5.898   3.319  1.00  0.00    -0.000 C 
BRANCH  28  29
ATOM     29  C   UNL     1      -7.128   6.240   1.830  1.00  0.00    -0.003 C 
ATOM     30  C   UNL     1      -5.943   7.084   1.369  1.00  0.00     0.004 C 
ENDBRANCH  28  29
ENDBRANCH  27  28
ENDBRANCH  26  27
ENDBRANCH  25  26
ENDBRANCH  24  25
ENDBRANCH  23  24
ENDBRANCH  22  23
ENDBRANCH  21  22
ENDBRANCH  20  21
ENDBRANCH  19  20
ENDBRANCH  18  19
ENDBRANCH  17  18
ENDBRANCH   1  17
TORSDOF 26
ENDMDL
MODEL 3
REMARK VINA RESULT:    -7.125      3.623      7.973
REMARK INTER + INTRA:         -20.286
REMARK INTER:                 -18.485
REMARK INTRA:                  -1.802
REMARK UNBOUND:                -2.332
REMARK SMILES CCCCCCCCCCCCCCCCCCCCCCCCCCCC(=O)[O-]
REMARK SMILES IDX 15 1 16 2 17 3 18 4 19 5 20 6 21 7 22 8 23 9 24 10 25 11
REMARK SMILES IDX 26 12 27 13 28 14 29 15 30 16 14 17 13 18 12 19 11 20 10 21
REMARK SMILES IDX 9 22 8 23 7 24 6 25 5 26 4 27 3 28 2 29 1 30
REMARK H PARENT
REMARK Flexibility Score: inf
ROOT
ATOM      1  C   UNL     1      -2.015   0.176   8.535  1.00  0.00     0.000 C 
ENDROOT
BRANCH   1   2
ATOM      2  C   UNL     1      -1.685   1.675   8.392  1.00  0.00     0.000 C 
BRANCH   2   3
ATOM      3  C   UNL     1      -2.834   2.633   8.761  1.00  0.00     0.000 C 
BRANCH   3   4
ATOM      4  C   UNL     1      -3.501   3.269   7.532  1.00  0.00     0.000 C 
BRANCH   4   5
ATOM      5  C   UNL     1      -2.750   2.931   6.227  1.00  0.00     0.000 C 
BRANCH   5   6
ATOM      6  C   UNL     1      -3.454   3.447   4.960  1.00  0.00     0.000 C 
BRANCH   6   7
ATOM      7  C   UNL     1      -4.468   4.563   5.256  1.00  0.00     0.000 C 
BRANCH   7   8
ATOM      8  C   UNL     1      -4.182   5.845   4.457  1.00  0.00     0.000 C 
BRANCH   8   9
ATOM      9  C   UNL     1      -5.468   6.573   4.036  1.00  0.00     0.000 C 
BRANCH   9  10
ATOM     10  C   UNL     1      -6.388   5.644   3.229  1.00  0.00     0.000 C 
BRANCH  10  11
ATOM     11  C   UNL     1      -6.831   6.273   1.897  1.00  0.00     0.000 C 
BRANCH  11  12
ATOM     12  C   UNL     1      -8.317   6.033   1.599  1.00  0.00     0.006 C 
BRANCH  12  13
ATOM     13  C   UNL     1      -9.105   5.804   2.892  1.00  0.00     0.053 C 
BRANCH  13  14
ATOM     14  C   UNL     1     -10.417   5.143   2.605  1.00  0.00     0.041 C 
ATOM     15  O   UNL     1     -11.056   5.430   1.559  1.00  0.00    -0.550 OA
ATOM     16  O   UNL     1     -10.942   4.218   3.501  1.00  0.00    -0.550 OA
ENDBRANCH  13  14
ENDBRANCH  12  13
ENDBRANCH  11  12
ENDBRANCH  10  11
ENDBRANCH   9  10
ENDBRANCH   8   9
ENDBRANCH   7   8
ENDBRANCH   6   7
ENDBRANCH   5   6
ENDBRANCH   4   5
ENDBRANCH   3   4
ENDBRANCH   2   3
ENDBRANCH   1   2
BRANCH   1  17
ATOM     17  C   UNL     1      -2.855  -0.420   7.389  1.00  0.00     0.000 C 
BRANCH  17  18
ATOM     18  C   UNL     1      -2.739  -1.947   7.225  1.00  0.00     0.000 C 
BRANCH  18  19
ATOM     19  C   UNL     1      -3.363  -2.511   5.934  1.00  0.00     0.000 C 
BRANCH  19  20
ATOM     20  C   UNL     1      -4.552  -1.701   5.378  1.00  0.00     0.000 C 
BRANCH  20  21
ATOM     21  C   UNL     1      -4.264  -0.950   4.062  1.00  0.00     0.000 C 
BRANCH  21  22
ATOM     22  C   UNL     1      -5.457  -0.162   3.485  1.00  0.00    -0.000 C 
BRANCH  22  23
ATOM     23  C   UNL     1      -5.097   0.871   2.399  1.00  0.00    -0.000 C 
BRANCH  23  24
ATOM     24  C   UNL     1      -4.324   0.308   1.194  1.00  0.00    -0.000 C 
BRANCH  24  25
ATOM     25  C   UNL     1      -5.145   0.329  -0.108  1.00  0.00    -0.000 C 
BRANCH  25  26
ATOM     26  C   UNL     1      -4.258   0.156  -1.360  1.00  0.00    -0.000 C 
BRANCH  26  27
ATOM     27  C   UNL     1      -4.850  -0.796  -2.414  1.00  0.00    -0.000 C 
BRANCH  27  28
ATOM     28  C   UNL     1      -3.782  -1.646  -3.114  1.00  0.00    -0.000 C 
BRANCH  28  29
ATOM     29  C   UNL     1      -3.156  -0.887  -4.288  1.00  0.00    -0.003 C 
ATOM     30  C   UNL     1      -1.636  -1.026  -4.282  1.00  0.00     0.004 C 
ENDBRANCH  28  29
ENDBRANCH  27  28
ENDBRANCH  26  27
ENDBRANCH  25  26
ENDBRANCH  24  25
ENDBRANCH  23  24
ENDBRANCH  22  23
ENDBRANCH  21  22
ENDBRANCH  20  21
ENDBRANCH  19  20
ENDBRANCH  18  19
ENDBRANCH  17  18
ENDBRANCH   1  17
TORSDOF 26
ENDMDL
MODEL 4
REMARK VINA RESULT:    -7.070      1.137      2.202
REMARK INTER + INTRA:         -20.148
REMARK INTER:                 -17.903
REMARK INTRA:                  -2.246
REMARK UNBOUND:                -2.332
REMARK SMILES CCCCCCCCCCCCCCCCCCCCCCCCCCCC(=O)[O-]
REMARK SMILES IDX 15 1 16 2 17 3 18 4 19 5 20 6 21 7 22 8 23 9 24 10 25 11
REMARK SMILES IDX 26 12 27 13 28 14 29 15 30 16 14 17 13 18 12 19 11 20 10 21
REMARK SMILES IDX 9 22 8 23 7 24 6 25 5 26 4 27 3 28 2 29 1 30
REMARK H PARENT
REMARK Flexibility Score: inf
ROOT
ATOM      1  C   UNL     1      -2.073  -1.104   7.367  1.00  0.00     0.000 C 
ENDROOT
BRANCH   1   2
ATOM      2  C   UNL     1      -3.284  -1.813   6.729  1.00  0.00     0.000 C 
BRANCH   2   3
ATOM      3  C   UNL     1      -3.969  -1.035   5.590  1.00  0.00     0.000 C 
BRANCH   3   4
ATOM      4  C   UNL     1      -5.103  -1.828   4.921  1.00  0.00     0.000 C 
BRANCH   4   5
ATOM      5  C   UNL     1      -5.771  -1.032   3.780  1.00  0.00     0.000 C 
BRANCH   5   6
ATOM      6  C   UNL     1      -5.166   0.366   3.570  1.00  0.00     0.000 C 
BRANCH   6   7
ATOM      7  C   UNL     1      -4.183   0.419   2.390  1.00  0.00     0.000 C 
BRANCH   7   8
ATOM      8  C   UNL     1      -4.897   0.412   1.028  1.00  0.00     0.000 C 
BRANCH   8   9
ATOM      9  C   UNL     1      -3.957   0.030  -0.125  1.00  0.00     0.000 C 
BRANCH   9  10
ATOM     10  C   UNL     1      -4.710   0.002  -1.465  1.00  0.00     0.000 C 
BRANCH  10  11
ATOM     11  C   UNL     1      -3.803   0.367  -2.653  1.00  0.00     0.000 C 
BRANCH  11  12
ATOM     12  C   UNL     1      -3.674  -0.779  -3.665  1.00  0.00     0.006 C 
BRANCH  12  13
ATOM     13  C   UNL     1      -2.540  -1.731  -3.273  1.00  0.00     0.053 C 
BRANCH  13  14
ATOM     14  C   UNL     1      -3.069  -3.104  -3.000  1.00  0.00     0.041 C 
ATOM     15  O   UNL     1      -4.280  -3.372  -3.216  1.00  0.00    -0.550 OA
ATOM     16  O   UNL     1      -2.226  -4.087  -2.492  1.00  0.00    -0.550 OA
ENDBRANCH  13  14
ENDBRANCH  12  13
ENDBRANCH  11  12
ENDBRANCH  10  11
ENDBRANCH   9  10
ENDBRANCH   8   9
ENDBRANCH   7   8
ENDBRANCH   6   7
ENDBRANCH   5   6
ENDBRANCH   4   5
ENDBRANCH   3   4
ENDBRANCH   2   3
ENDBRANCH   1   2
BRANCH   1  17
ATOM     17  C   UNL     1      -2.423  -0.018   8.402  1.00  0.00     0.000 C 
BRANCH  17  18
ATOM     18  C   UNL     1      -1.895   1.391   8.068  1.00  0.00     0.000 C 
BRANCH  18  19
ATOM     19  C   UNL     1      -2.874   2.540   8.376  1.00  0.00     0.000 C 
BRANCH  19  20
ATOM     20  C   UNL     1      -3.314   3.367   7.151  1.00  0.00     0.000 C 
BRANCH  20  21
ATOM     21  C   UNL     1      -3.049   2.696   5.788  1.00  0.00     0.000 C 
BRANCH  21  22
ATOM     22  C   UNL     1      -3.601   3.459   4.567  1.00  0.00    -0.000 C 
BRANCH  22  23
ATOM     23  C   UNL     1      -4.751   4.438   4.870  1.00  0.00    -0.000 C 
BRANCH  23  24
ATOM     24  C   UNL     1      -4.448   5.916   4.561  1.00  0.00    -0.000 C 
BRANCH  24  25
ATOM     25  C   UNL     1      -5.627   6.642   3.890  1.00  0.00    -0.000 C 
BRANCH  25  26
ATOM     26  C   UNL     1      -5.697   6.361   2.373  1.00  0.00    -0.000 C 
BRANCH  26  27
ATOM     27  C   UNL     1      -7.130   6.205   1.836  1.00  0.00    -0.000 C 
BRANCH  27  28
ATOM     28  C   UNL     1      -8.187   6.210   2.948  1.00  0.00    -0.000 C 
BRANCH  28  29
ATOM     29  C   UNL     1      -9.455   5.473   2.507  1.00  0.00    -0.003 C 
ATOM     30  C   UNL     1      -9.893   5.920   1.115  1.00  0.00     0.004 C 
ENDBRANCH  28  29
ENDBRANCH  27  28
ENDBRANCH  26  27
ENDBRANCH  25  26
ENDBRANCH  24  25
ENDBRANCH  23  24
ENDBRANCH  22  23
ENDBRANCH  21  22
ENDBRANCH  20  21
ENDBRANCH  19  20
ENDBRANCH  18  19
ENDBRANCH  17  18
ENDBRANCH   1  17
TORSDOF 26
ENDMDL
MODEL 5
REMARK VINA RESULT:    -7.021      3.322      8.093
REMARK INTER + INTRA:         -20.024
REMARK INTER:                 -17.765
REMARK INTRA:                  -2.259
REMARK UNBOUND:                -2.332
REMARK SMILES CCCCCCCCCCCCCCCCCCCCCCCCCCCC(=O)[O-]
REMARK SMILES IDX 15 1 16 2 17 3 18 4 19 5 20 6 21 7 22 8 23 9 24 10 25 11
REMARK SMILES IDX 26 12 27 13 28 14 29 15 30 16 14 17 13 18 12 19 11 20 10 21
REMARK SMILES IDX 9 22 8 23 7 24 6 25 5 26 4 27 3 28 2 29 1 30
REMARK H PARENT
REMARK Flexibility Score: inf
ROOT
ATOM      1  C   UNL     1      -2.107  -1.784   7.143  1.00  0.00     0.000 C 
ENDROOT
BRANCH   1   2
ATOM      2  C   UNL     1      -1.305  -0.782   7.997  1.00  0.00     0.000 C 
BRANCH   2   3
ATOM      3  C   UNL     1      -2.157   0.204   8.818  1.00  0.00     0.000 C 
BRANCH   3   4
ATOM      4  C   UNL     1      -1.747   1.670   8.605  1.00  0.00     0.000 C 
BRANCH   4   5
ATOM      5  C   UNL     1      -2.948   2.631   8.738  1.00  0.00     0.000 C 
BRANCH   5   6
ATOM      6  C   UNL     1      -3.278   3.387   7.440  1.00  0.00     0.000 C 
BRANCH   6   7
ATOM      7  C   UNL     1      -3.141   2.508   6.187  1.00  0.00     0.000 C 
BRANCH   7   8
ATOM      8  C   UNL     1      -3.242   3.318   4.885  1.00  0.00     0.000 C 
BRANCH   8   9
ATOM      9  C   UNL     1      -4.525   4.160   4.816  1.00  0.00     0.000 C 
BRANCH   9  10
ATOM     10  C   UNL     1      -4.197   5.660   4.744  1.00  0.00     0.000 C 
BRANCH  10  11
ATOM     11  C   UNL     1      -5.035   6.392   3.682  1.00  0.00     0.000 C 
BRANCH  11  12
ATOM     12  C   UNL     1      -6.454   5.820   3.559  1.00  0.00     0.006 C 
BRANCH  12  13
ATOM     13  C   UNL     1      -7.053   6.132   2.184  1.00  0.00     0.053 C 
BRANCH  13  14
ATOM     14  C   UNL     1      -8.494   5.729   2.129  1.00  0.00     0.041 C 
ATOM     15  O   UNL     1      -9.155   5.883   1.068  1.00  0.00    -0.550 OA
ATOM     16  O   UNL     1      -9.111   5.195   3.254  1.00  0.00    -0.550 OA
ENDBRANCH  13  14
ENDBRANCH  12  13
ENDBRANCH  11  12
ENDBRANCH  10  11
ENDBRANCH   9  10
ENDBRANCH   8   9
ENDBRANCH   7   8
ENDBRANCH   6   7
ENDBRANCH   5   6
ENDBRANCH   4   5
ENDBRANCH   3   4
ENDBRANCH   2   3
ENDBRANCH   1   2
BRANCH   1  17
ATOM     17  C   UNL     1      -3.502  -1.299   6.706  1.00  0.00     0.000 C 
BRANCH  17  18
ATOM     18  C   UNL     1      -4.141  -2.107   5.560  1.00  0.00     0.000 C 
BRANCH  18  19
ATOM     19  C   UNL     1      -5.559  -1.656   5.160  1.00  0.00     0.000 C 
BRANCH  19  20
ATOM     20  C   UNL     1      -5.648  -0.893   3.824  1.00  0.00     0.000 C 
BRANCH  20  21
ATOM     21  C   UNL     1      -4.318  -0.280   3.339  1.00  0.00     0.000 C 
BRANCH  21  22
ATOM     22  C   UNL     1      -4.457   0.808   2.256  1.00  0.00    -0.000 C 
BRANCH  22  23
ATOM     23  C   UNL     1      -5.129   0.350   0.947  1.00  0.00    -0.000 C 
BRANCH  23  24
ATOM     24  C   UNL     1      -4.160   0.009  -0.199  1.00  0.00    -0.000 C 
BRANCH  24  25
ATOM     25  C   UNL     1      -4.747   0.309  -1.590  1.00  0.00    -0.000 C 
BRANCH  25  26
ATOM     26  C   UNL     1      -3.649   0.500  -2.658  1.00  0.00    -0.000 C 
BRANCH  26  27
ATOM     27  C   UNL     1      -3.616  -0.611  -3.721  1.00  0.00    -0.000 C 
BRANCH  27  28
ATOM     28  C   UNL     1      -4.596  -1.752  -3.420  1.00  0.00    -0.000 C 
BRANCH  28  29
ATOM     29  C   UNL     1      -3.849  -3.057  -3.126  1.00  0.00    -0.003 C 
ATOM     30  C   UNL     1      -2.359  -2.800  -2.914  1.00  0.00     0.004 C 
ENDBRANCH  28  29
ENDBRANCH  27  28
ENDBRANCH  26  27
ENDBRANCH  25  26
ENDBRANCH  24  25
ENDBRANCH  23  24
ENDBRANCH  22  23
ENDBRANCH  21  22
ENDBRANCH  20  21
ENDBRANCH  19  20
ENDBRANCH  18  19
ENDBRANCH  17  18
ENDBRANCH   1  17
TORSDOF 26
ENDMDL
MODEL 6
REMARK VINA RESULT:    -6.986      3.985      7.818
REMARK INTER + INTRA:         -19.935
REMARK INTER:                 -18.510
REMARK INTRA:                  -1.425
REMARK UNBOUND:                -2.332
REMARK SMILES CCCCCCCCCCCCCCCCCCCCCCCCCCCC(=O)[O-]
REMARK SMILES IDX 15 1 16 2 17 3 18 4 19 5 20 6 21 7 22 8 23 9 24 10 25 11
REMARK SMILES IDX 26 12 27 13 28 14 29 15 30 16 14 17 13 18 12 19 11 20 10 21
REMARK SMILES IDX 9 22 8 23 7 24 6 25 5 26 4 27 3 28 2 29 1 30
REMARK H PARENT
REMARK Flexibility Score: inf
ROOT
ATOM      1  C   UNL     1      -4.556  -1.050  -2.876  1.00  0.00     0.000 C 
ENDROOT
BRANCH   1   2
ATOM      2  C   UNL     1      -3.438  -1.890  -3.522  1.00  0.00     0.000 C 
BRANCH   2   3
ATOM      3  C   UNL     1      -2.090  -1.164  -3.689  1.00  0.00     0.000 C 
BRANCH   3   4
ATOM      4  C   UNL     1      -1.232  -1.746  -4.824  1.00  0.00     0.000 C 
BRANCH   4   5
ATOM      5  C   UNL     1      -0.989  -3.260  -4.647  1.00  0.00     0.000 C 
BRANCH   5   6
ATOM      6  C   UNL     1       0.101  -3.821  -5.575  1.00  0.00     0.000 C 
BRANCH   6   7
ATOM      7  C   UNL     1      -0.343  -3.882  -7.045  1.00  0.00     0.000 C 
BRANCH   7   8
ATOM      8  C   UNL     1       0.748  -3.388  -8.011  1.00  0.00     0.000 C 
BRANCH   8   9
ATOM      9  C   UNL     1       2.118  -4.015  -7.717  1.00  0.00     0.000 C 
BRANCH   9  10
ATOM     10  C   UNL     1       3.246  -2.987  -7.898  1.00  0.00     0.000 C 
BRANCH  10  11
ATOM     11  C   UNL     1       4.641  -3.623  -7.787  1.00  0.00     0.000 C 
BRANCH  11  12
ATOM     12  C   UNL     1       5.514  -2.943  -6.724  1.00  0.00     0.006 C 
BRANCH  12  13
ATOM     13  C   UNL     1       4.744  -1.825  -6.016  1.00  0.00     0.053 C 
BRANCH  13  14
ATOM     14  C   UNL     1       5.403  -1.462  -4.722  1.00  0.00     0.041 C 
ATOM     15  O   UNL     1       6.418  -0.716  -4.714  1.00  0.00    -0.550 OA
ATOM     16  O   UNL     1       4.904  -1.960  -3.523  1.00  0.00    -0.550 OA
ENDBRANCH  13  14
ENDBRANCH  12  13
ENDBRANCH  11  12
ENDBRANCH  10  11
ENDBRANCH   9  10
ENDBRANCH   8   9
ENDBRANCH   7   8
ENDBRANCH   6   7
ENDBRANCH   5   6
ENDBRANCH   4   5
ENDBRANCH   3   4
ENDBRANCH   2   3
ENDBRANCH   1   2
BRANCH   1  17
ATOM     17  C   UNL     1      -4.073   0.055  -1.918  1.00  0.00     0.000 C 
BRANCH  17  18
ATOM     18  C   UNL     1      -5.050   0.400  -0.778  1.00  0.00     0.000 C 
BRANCH  18  19
ATOM     19  C   UNL     1      -4.427   0.408   0.631  1.00  0.00     0.000 C 
BRANCH  19  20
ATOM     20  C   UNL     1      -5.425   0.192   1.786  1.00  0.00     0.000 C 
BRANCH  20  21
ATOM     21  C   UNL     1      -4.793   0.172   3.193  1.00  0.00     0.000 C 
BRANCH  21  22
ATOM     22  C   UNL     1      -3.734   1.263   3.449  1.00  0.00    -0.000 C 
BRANCH  22  23
ATOM     23  C   UNL     1      -4.280   2.587   4.020  1.00  0.00    -0.000 C 
BRANCH  23  24
ATOM     24  C   UNL     1      -3.301   3.361   4.920  1.00  0.00    -0.000 C 
BRANCH  24  25
ATOM     25  C   UNL     1      -3.421   4.887   4.761  1.00  0.00    -0.000 C 
BRANCH  25  26
ATOM     26  C   UNL     1      -4.848   5.395   5.064  1.00  0.00    -0.000 C 
BRANCH  26  27
ATOM     27  C   UNL     1      -5.373   6.418   4.042  1.00  0.00    -0.000 C 
BRANCH  27  28
ATOM     28  C   UNL     1      -6.779   6.083   3.531  1.00  0.00    -0.000 C 
BRANCH  28  29
ATOM     29  C   UNL     1      -6.848   6.177   2.004  1.00  0.00    -0.003 C 
ATOM     30  C   UNL     1      -5.804   7.152   1.467  1.00  0.00     0.004 C 
ENDBRANCH  28  29
ENDBRANCH  27  28
ENDBRANCH  26  27
ENDBRANCH  25  26
ENDBRANCH  24  25
ENDBRANCH  23  24
ENDBRANCH  22  23
ENDBRANCH  21  22
ENDBRANCH  20  21
ENDBRANCH  19  20
ENDBRANCH  18  19
ENDBRANCH  17  18
ENDBRANCH   1  17
TORSDOF 26
ENDMDL
MODEL 7
REMARK VINA RESULT:    -6.880      4.790     12.190
REMARK INTER + INTRA:         -19.668
REMARK INTER:                 -18.844
REMARK INTRA:                  -0.825
REMARK UNBOUND:                -2.332
REMARK SMILES CCCCCCCCCCCCCCCCCCCCCCCCCCCC(=O)[O-]
REMARK SMILES IDX 15 1 16 2 17 3 18 4 19 5 20 6 21 7 22 8 23 9 24 10 25 11
REMARK SMILES IDX 26 12 27 13 28 14 29 15 30 16 14 17 13 18 12 19 11 20 10 21
REMARK SMILES IDX 9 22 8 23 7 24 6 25 5 26 4 27 3 28 2 29 1 30
REMARK H PARENT
REMARK Flexibility Score: inf
ROOT
ATOM      1  C   UNL     1      -4.707  -1.214  -2.697  1.00  0.00     0.000 C 
ENDROOT
BRANCH   1   2
ATOM      2  C   UNL     1      -4.450   0.139  -2.005  1.00  0.00     0.000 C 
BRANCH   2   3
ATOM      3  C   UNL     1      -5.192   0.340  -0.670  1.00  0.00     0.000 C 
BRANCH   3   4
ATOM      4  C   UNL     1      -4.253   0.307   0.547  1.00  0.00     0.000 C 
BRANCH   4   5
ATOM      5  C   UNL     1      -5.021   0.489   1.874  1.00  0.00     0.000 C 
BRANCH   5   6
ATOM      6  C   UNL     1      -4.106   0.719   3.088  1.00  0.00     0.000 C 
BRANCH   6   7
ATOM      7  C   UNL     1      -4.450   2.003   3.858  1.00  0.00     0.000 C 
BRANCH   7   8
ATOM      8  C   UNL     1      -3.198   2.749   4.349  1.00  0.00     0.000 C 
BRANCH   8   9
ATOM      9  C   UNL     1      -3.517   3.761   5.459  1.00  0.00     0.000 C 
BRANCH   9  10
ATOM     10  C   UNL     1      -3.960   5.109   4.867  1.00  0.00     0.000 C 
BRANCH  10  11
ATOM     11  C   UNL     1      -5.462   5.137   4.537  1.00  0.00     0.000 C 
BRANCH  11  12
ATOM     12  C   UNL     1      -5.861   6.374   3.721  1.00  0.00     0.006 C 
BRANCH  12  13
ATOM     13  C   UNL     1      -6.594   5.971   2.439  1.00  0.00     0.053 C 
BRANCH  13  14
ATOM     14  C   UNL     1      -8.076   5.973   2.651  1.00  0.00     0.041 C 
ATOM     15  O   UNL     1      -8.550   5.975   3.817  1.00  0.00    -0.550 OA
ATOM     16  O   UNL     1      -8.936   5.959   1.558  1.00  0.00    -0.550 OA
ENDBRANCH  13  14
ENDBRANCH  12  13
ENDBRANCH  11  12
ENDBRANCH  10  11
ENDBRANCH   9  10
ENDBRANCH   8   9
ENDBRANCH   7   8
ENDBRANCH   6   7
ENDBRANCH   5   6
ENDBRANCH   4   5
ENDBRANCH   3   4
ENDBRANCH   2   3
ENDBRANCH   1   2
BRANCH   1  17
ATOM     17  C   UNL     1      -3.698  -1.585  -3.801  1.00  0.00     0.000 C 
BRANCH  17  18
ATOM     18  C   UNL     1      -2.468  -0.662  -3.894  1.00  0.00     0.000 C 
BRANCH  18  19
ATOM     19  C   UNL     1      -1.341  -1.174  -4.811  1.00  0.00     0.000 C 
BRANCH  19  20
ATOM     20  C   UNL     1      -1.062  -2.688  -4.719  1.00  0.00     0.000 C 
BRANCH  20  21
ATOM     21  C   UNL     1       0.095  -3.189  -5.606  1.00  0.00     0.000 C 
BRANCH  21  22
ATOM     22  C   UNL     1      -0.272  -4.328  -6.578  1.00  0.00    -0.000 C 
BRANCH  22  23
ATOM     23  C   UNL     1      -0.138  -3.983  -8.074  1.00  0.00    -0.000 C 
BRANCH  23  24
ATOM     24  C   UNL     1       1.156  -3.242  -8.459  1.00  0.00    -0.000 C 
BRANCH  24  25
ATOM     25  C   UNL     1       2.408  -3.838  -7.790  1.00  0.00    -0.000 C 
BRANCH  25  26
ATOM     26  C   UNL     1       3.693  -3.070  -8.171  1.00  0.00    -0.000 C 
BRANCH  26  27
ATOM     27  C   UNL     1       4.721  -2.976  -7.031  1.00  0.00    -0.000 C 
BRANCH  27  28
ATOM     28  C   UNL     1       4.557  -1.708  -6.184  1.00  0.00    -0.000 C 
BRANCH  28  29
ATOM     29  C   UNL     1       5.670  -1.596  -5.137  1.00  0.00    -0.003 C 
ATOM     30  C   UNL     1       5.103  -1.688  -3.723  1.00  0.00     0.004 C 
ENDBRANCH  28  29
ENDBRANCH  27  28
ENDBRANCH  26  27
ENDBRANCH  25  26
ENDBRANCH  24  25
ENDBRANCH  23  24
ENDBRANCH  22  23
ENDBRANCH  21  22
ENDBRANCH  20  21
ENDBRANCH  19  20
ENDBRANCH  18  19
ENDBRANCH  17  18
ENDBRANCH   1  17
TORSDOF 26
ENDMDL
MODEL 8
REMARK VINA RESULT:    -6.847      1.086      2.444
REMARK INTER + INTRA:         -19.586
REMARK INTER:                 -17.716
REMARK INTRA:                  -1.870
REMARK UNBOUND:                -2.332
REMARK SMILES CCCCCCCCCCCCCCCCCCCCCCCCCCCC(=O)[O-]
REMARK SMILES IDX 15 1 16 2 17 3 18 4 19 5 20 6 21 7 22 8 23 9 24 10 25 11
REMARK SMILES IDX 26 12 27 13 28 14 29 15 30 16 14 17 13 18 12 19 11 20 10 21
REMARK SMILES IDX 9 22 8 23 7 24 6 25 5 26 4 27 3 28 2 29 1 30
REMARK H PARENT
REMARK Flexibility Score: inf
ROOT
ATOM      1  C   UNL     1      -5.779  -1.495   5.195  1.00  0.00     0.000 C 
ENDROOT
BRANCH   1   2
ATOM      2  C   UNL     1      -6.821  -1.481   4.060  1.00  0.00     0.000 C 
BRANCH   2   3
ATOM      3  C   UNL     1      -6.556  -0.454   2.944  1.00  0.00     0.000 C 
BRANCH   3   4
ATOM      4  C   UNL     1      -5.330   0.429   3.221  1.00  0.00     0.000 C 
BRANCH   4   5
ATOM      5  C   UNL     1      -4.342   0.437   2.035  1.00  0.00     0.000 C 
BRANCH   5   6
ATOM      6  C   UNL     1      -5.030   0.399   0.661  1.00  0.00     0.000 C 
BRANCH   6   7
ATOM      7  C   UNL     1      -4.072   0.005  -0.474  1.00  0.00     0.000 C 
BRANCH   7   8
ATOM      8  C   UNL     1      -4.815  -0.439  -1.745  1.00  0.00     0.000 C 
BRANCH   8   9
ATOM      9  C   UNL     1      -4.119  -1.612  -2.452  1.00  0.00     0.000 C 
BRANCH   9  10
ATOM     10  C   UNL     1      -3.897  -1.305  -3.941  1.00  0.00     0.000 C 
BRANCH  10  11
ATOM     11  C   UNL     1      -2.712  -0.352  -4.171  1.00  0.00     0.000 C 
BRANCH  11  12
ATOM     12  C   UNL     1      -1.417  -1.098  -4.521  1.00  0.00     0.006 C 
BRANCH  12  13
ATOM     13  C   UNL     1      -1.653  -2.610  -4.573  1.00  0.00     0.053 C 
BRANCH  13  14
ATOM     14  C   UNL     1      -0.587  -3.286  -5.377  1.00  0.00     0.041 C 
ATOM     15  O   UNL     1      -0.130  -2.737  -6.414  1.00  0.00    -0.550 OA
ATOM     16  O   UNL     1      -0.107  -4.532  -4.989  1.00  0.00    -0.550 OA
ENDBRANCH  13  14
ENDBRANCH  12  13
ENDBRANCH  11  12
ENDBRANCH  10  11
ENDBRANCH   9  10
ENDBRANCH   8   9
ENDBRANCH   7   8
ENDBRANCH   6   7
ENDBRANCH   5   6
ENDBRANCH   4   5
ENDBRANCH   3   4
ENDBRANCH   2   3
ENDBRANCH   1   2
BRANCH   1  17
ATOM     17  C   UNL     1      -4.744  -2.633   5.118  1.00  0.00     0.000 C 
BRANCH  17  18
ATOM     18  C   UNL     1      -3.296  -2.217   5.441  1.00  0.00     0.000 C 
BRANCH  18  19
ATOM     19  C   UNL     1      -3.055  -1.787   6.901  1.00  0.00     0.000 C 
BRANCH  19  20
ATOM     20  C   UNL     1      -3.053  -0.264   7.140  1.00  0.00     0.000 C 
BRANCH  20  21
ATOM     21  C   UNL     1      -2.095   0.216   8.249  1.00  0.00     0.000 C 
BRANCH  21  22
ATOM     22  C   UNL     1      -1.806   1.730   8.252  1.00  0.00    -0.000 C 
BRANCH  22  23
ATOM     23  C   UNL     1      -2.989   2.623   8.674  1.00  0.00    -0.000 C 
BRANCH  23  24
ATOM     24  C   UNL     1      -3.658   3.403   7.527  1.00  0.00    -0.000 C 
BRANCH  24  25
ATOM     25  C   UNL     1      -2.955   3.199   6.174  1.00  0.00    -0.000 C 
BRANCH  25  26
ATOM     26  C   UNL     1      -3.793   3.737   4.994  1.00  0.00    -0.000 C 
BRANCH  26  27
ATOM     27  C   UNL     1      -4.796   4.833   5.394  1.00  0.00    -0.000 C 
BRANCH  27  28
ATOM     28  C   UNL     1      -5.727   5.237   4.244  1.00  0.00    -0.000 C 
BRANCH  28  29
ATOM     29  C   UNL     1      -5.183   6.458   3.497  1.00  0.00    -0.003 C 
ATOM     30  C   UNL     1      -5.957   6.701   2.204  1.00  0.00     0.004 C 
ENDBRANCH  28  29
ENDBRANCH  27  28
ENDBRANCH  26  27
ENDBRANCH  25  26
ENDBRANCH  24  25
ENDBRANCH  23  24
ENDBRANCH  22  23
ENDBRANCH  21  22
ENDBRANCH  20  21
ENDBRANCH  19  20
ENDBRANCH  18  19
ENDBRANCH  17  18
ENDBRANCH   1  17
TORSDOF 26
ENDMDL
MODEL 9
REMARK VINA RESULT:    -6.777      3.380      8.756
REMARK INTER + INTRA:         -19.410
REMARK INTER:                 -17.277
REMARK INTRA:                  -2.133
REMARK UNBOUND:                -2.332
REMARK SMILES CCCCCCCCCCCCCCCCCCCCCCCCCCCC(=O)[O-]
REMARK SMILES IDX 15 1 16 2 17 3 18 4 19 5 20 6 21 7 22 8 23 9 24 10 25 11
REMARK SMILES IDX 26 12 27 13 28 14 29 15 30 16 14 17 13 18 12 19 11 20 10 21
REMARK SMILES IDX 9 22 8 23 7 24 6 25 5 26 4 27 3 28 2 29 1 30
REMARK H PARENT
REMARK Flexibility Score: inf
ROOT
ATOM      1  C   UNL     1      -4.406  -2.108   4.698  1.00  0.00     0.000 C 
ENDROOT
BRANCH   1   2
ATOM      2  C   UNL     1      -3.846  -2.883   5.907  1.00  0.00     0.000 C 
BRANCH   2   3
ATOM      3  C   UNL     1      -2.366  -2.606   6.230  1.00  0.00     0.000 C 
BRANCH   3   4
ATOM      4  C   UNL     1      -2.175  -1.821   7.538  1.00  0.00     0.000 C 
BRANCH   4   5
ATOM      5  C   UNL     1      -2.654  -0.360   7.410  1.00  0.00     0.000 C 
BRANCH   5   6
ATOM      6  C   UNL     1      -2.283   0.517   8.617  1.00  0.00     0.000 C 
BRANCH   6   7
ATOM      7  C   UNL     1      -1.861   1.939   8.213  1.00  0.00     0.000 C 
BRANCH   7   8
ATOM      8  C   UNL     1      -2.951   2.983   8.507  1.00  0.00     0.000 C 
BRANCH   8   9
ATOM      9  C   UNL     1      -3.739   3.378   7.250  1.00  0.00     0.000 C 
BRANCH   9  10
ATOM     10  C   UNL     1      -2.934   3.075   5.976  1.00  0.00     0.000 C 
BRANCH  10  11
ATOM     11  C   UNL     1      -3.091   4.173   4.911  1.00  0.00     0.000 C 
BRANCH  11  12
ATOM     12  C   UNL     1      -4.346   5.028   5.129  1.00  0.00     0.006 C 
BRANCH  12  13
ATOM     13  C   UNL     1      -5.494   4.556   4.233  1.00  0.00     0.053 C 
BRANCH  13  14
ATOM     14  C   UNL     1      -6.218   5.723   3.637  1.00  0.00     0.041 C 
ATOM     15  O   UNL     1      -5.586   6.765   3.317  1.00  0.00    -0.550 OA
ATOM     16  O   UNL     1      -7.594   5.666   3.445  1.00  0.00    -0.550 OA
ENDBRANCH  13  14
ENDBRANCH  12  13
ENDBRANCH  11  12
ENDBRANCH  10  11
ENDBRANCH   9  10
ENDBRANCH   8   9
ENDBRANCH   7   8
ENDBRANCH   6   7
ENDBRANCH   5   6
ENDBRANCH   4   5
ENDBRANCH   3   4
ENDBRANCH   2   3
ENDBRANCH   1   2
BRANCH   1  17
ATOM     17  C   UNL     1      -5.808  -1.502   4.903  1.00  0.00     0.000 C 
BRANCH  17  18
ATOM     18  C   UNL     1      -6.587  -1.216   3.605  1.00  0.00     0.000 C 
BRANCH  18  19
ATOM     19  C   UNL     1      -6.580   0.258   3.156  1.00  0.00     0.000 C 
BRANCH  19  20
ATOM     20  C   UNL     1      -5.182   0.896   3.036  1.00  0.00     0.000 C 
BRANCH  20  21
ATOM     21  C   UNL     1      -4.342   0.395   1.844  1.00  0.00     0.000 C 
BRANCH  21  22
ATOM     22  C   UNL     1      -5.134   0.147   0.545  1.00  0.00    -0.000 C 
BRANCH  22  23
ATOM     23  C   UNL     1      -4.321   0.293  -0.757  1.00  0.00    -0.000 C 
BRANCH  23  24
ATOM     24  C   UNL     1      -5.087  -0.058  -2.045  1.00  0.00    -0.000 C 
BRANCH  24  25
ATOM     25  C   UNL     1      -4.710  -1.441  -2.607  1.00  0.00    -0.000 C 
BRANCH  25  26
ATOM     26  C   UNL     1      -3.188  -1.588  -2.823  1.00  0.00    -0.000 C 
BRANCH  26  27
ATOM     27  C   UNL     1      -2.582  -0.503  -3.730  1.00  0.00    -0.000 C 
BRANCH  27  28
ATOM     28  C   UNL     1      -1.502  -1.049  -4.672  1.00  0.00    -0.000 C 
BRANCH  28  29
ATOM     29  C   UNL     1      -1.336  -2.562  -4.503  1.00  0.00    -0.003 C 
ATOM     30  C   UNL     1      -0.412  -3.137  -5.573  1.00  0.00     0.004 C 
ENDBRANCH  28  29
ENDBRANCH  27  28
ENDBRANCH  26  27
ENDBRANCH  25  26
ENDBRANCH  24  25
ENDBRANCH  23  24
ENDBRANCH  22  23
ENDBRANCH  21  22
ENDBRANCH  20  21
ENDBRANCH  19  20
ENDBRANCH  18  19
ENDBRANCH  17  18
ENDBRANCH   1  17
TORSDOF 26
ENDMDL
