MODEL 1
REMARK VINA RESULT:    -5.140      0.000      0.000
REMARK INTER + INTRA:         -11.912
REMARK INTER:                  -9.949
REMARK INTRA:                  -1.964
REMARK UNBOUND:                -1.964
REMARK SMILES CCCCCCCCCCCCCCCCCC(=O)[O-]
REMARK SMILES IDX 10 1 11 2 12 3 13 4 14 5 15 6 16 7 17 8 18 9 19 10 20 11
REMARK SMILES IDX 9 12 8 13 7 14 6 15 5 16 4 17 3 18 2 19 1 20
REMARK H PARENT
REMARK Flexibility Score: inf
ROOT
ATOM      1  C   UNL     1      61.657  29.623  13.977  1.00  0.00     0.000 C 
ENDROOT
BRANCH   1   2
ATOM      2  C   UNL     1      62.773  30.651  13.716  1.00  0.00     0.000 C 
BRANCH   2   3
ATOM      3  C   UNL     1      62.265  31.896  12.971  1.00  0.00     0.000 C 
BRANCH   3   4
ATOM      4  C   UNL     1      60.741  32.072  13.089  1.00  0.00     0.000 C 
BRANCH   4   5
ATOM      5  C   UNL     1      60.341  33.123  14.139  1.00  0.00     0.000 C 
BRANCH   5   6
ATOM      6  C   UNL     1      61.450  33.505  15.141  1.00  0.00     0.000 C 
BRANCH   6   7
ATOM      7  C   UNL     1      61.158  33.145  16.612  1.00  0.00     0.006 C 
BRANCH   7   8
ATOM      8  C   UNL     1      61.270  34.326  17.588  1.00  0.00     0.053 C 
BRANCH   8   9
ATOM      9  C   UNL     1      61.446  33.867  19.003  1.00  0.00     0.041 C 
ATOM     10  O   UNL     1      60.450  33.487  19.674  1.00  0.00    -0.550 OA
ATOM     11  O   UNL     1      62.704  33.888  19.592  1.00  0.00    -0.550 OA
ENDBRANCH   8   9
ENDBRANCH   7   8
ENDBRANCH   6   7
ENDBRANCH   5   6
ENDBRANCH   4   5
ENDBRANCH   3   4
ENDBRANCH   2   3
ENDBRANCH   1   2
BRANCH   1  12
ATOM     12  C   UNL     1      61.579  28.544  12.886  1.00  0.00     0.000 C 
BRANCH  12  13
ATOM     13  C   UNL     1      60.274  27.731  12.948  1.00  0.00    -0.000 C 
BRANCH  13  14
ATOM     14  C   UNL     1      59.127  28.395  12.169  1.00  0.00    -0.000 C 
BRANCH  14  15
ATOM     15  C   UNL     1      59.623  29.188  10.946  1.00  0.00    -0.000 C 
BRANCH  15  16
ATOM     16  C   UNL     1      59.525  28.380   9.643  1.00  0.00    -0.000 C 
BRANCH  16  17
ATOM     17  C   UNL     1      60.901  28.115   9.007  1.00  0.00    -0.000 C 
BRANCH  17  18
ATOM     18  C   UNL     1      61.842  29.329   9.094  1.00  0.00    -0.000 C 
BRANCH  18  19
ATOM     19  C   UNL     1      63.291  28.994   9.488  1.00  0.00    -0.003 C 
ATOM     20  C   UNL     1      63.998  30.145  10.202  1.00  0.00     0.004 C 
ENDBRANCH  18  19
ENDBRANCH  17  18
ENDBRANCH  16  17
ENDBRANCH  15  16
ENDBRANCH  14  15
ENDBRANCH  13  14
ENDBRANCH  12  13
ENDBRANCH   1  12
TORSDOF 16
ENDMDL
MODEL 2
REMARK VINA RESULT:    -4.961      9.522     14.034
REMARK INTER + INTRA:         -11.566
REMARK INTER:                  -9.474
REMARK INTRA:                  -2.091
REMARK UNBOUND:                -1.964
REMARK SMILES CCCCCCCCCCCCCCCCCC(=O)[O-]
REMARK SMILES IDX 10 1 11 2 12 3 13 4 14 5 15 6 16 7 17 8 18 9 19 10 20 11
REMARK SMILES IDX 9 12 8 13 7 14 6 15 5 16 4 17 3 18 2 19 1 20
REMARK H PARENT
REMARK Flexibility Score: inf
ROOT
ATOM      1  C   UNL     1      61.012  27.685  25.876  1.00  0.00     0.000 C 
ENDROOT
BRANCH   1   2
ATOM      2  C   UNL     1      62.261  27.207  25.114  1.00  0.00     0.000 C 
BRANCH   2   3
ATOM      3  C   UNL     1      63.235  26.426  26.011  1.00  0.00     0.000 C 
BRANCH   3   4
ATOM      4  C   UNL     1      64.581  26.150  25.319  1.00  0.00     0.000 C 
BRANCH   4   5
ATOM      5  C   UNL     1      64.425  25.786  23.832  1.00  0.00     0.000 C 
BRANCH   5   6
ATOM      6  C   UNL     1      65.736  25.768  23.019  1.00  0.00     0.000 C 
BRANCH   6   7
ATOM      7  C   UNL     1      65.665  26.463  21.644  1.00  0.00     0.006 C 
BRANCH   7   8
ATOM      8  C   UNL     1      66.450  25.750  20.532  1.00  0.00     0.053 C 
BRANCH   8   9
ATOM      9  C   UNL     1      66.045  26.223  19.170  1.00  0.00     0.041 C 
ATOM     10  O   UNL     1      65.208  25.567  18.495  1.00  0.00    -0.550 OA
ATOM     11  O   UNL     1      66.614  27.371  18.633  1.00  0.00    -0.550 OA
ENDBRANCH   8   9
ENDBRANCH   7   8
ENDBRANCH   6   7
ENDBRANCH   5   6
ENDBRANCH   4   5
ENDBRANCH   3   4
ENDBRANCH   2   3
ENDBRANCH   1   2
BRANCH   1  12
ATOM     12  C   UNL     1      61.095  27.403  27.385  1.00  0.00     0.000 C 
BRANCH  12  13
ATOM     13  C   UNL     1      61.043  28.687  28.232  1.00  0.00    -0.000 C 
BRANCH  13  14
ATOM     14  C   UNL     1      62.408  29.051  28.836  1.00  0.00    -0.000 C 
BRANCH  14  15
ATOM     15  C   UNL     1      62.718  30.556  28.738  1.00  0.00    -0.000 C 
BRANCH  15  16
ATOM     16  C   UNL     1      64.128  30.830  28.189  1.00  0.00    -0.000 C 
BRANCH  16  17
ATOM     17  C   UNL     1      64.274  30.432  26.710  1.00  0.00    -0.000 C 
BRANCH  17  18
ATOM     18  C   UNL     1      65.413  29.425  26.473  1.00  0.00    -0.000 C 
BRANCH  18  19
ATOM     19  C   UNL     1      66.092  29.533  25.096  1.00  0.00    -0.003 C 
ATOM     20  C   UNL     1      65.097  29.518  23.936  1.00  0.00     0.004 C 
ENDBRANCH  18  19
ENDBRANCH  17  18
ENDBRANCH  16  17
ENDBRANCH  15  16
ENDBRANCH  14  15
ENDBRANCH  13  14
ENDBRANCH  12  13
ENDBRANCH   1  12
TORSDOF 16
ENDMDL
MODEL 3
REMARK VINA RESULT:    -4.908      1.114      2.238
REMARK INTER + INTRA:         -11.462
REMARK INTER:                  -9.368
REMARK INTRA:                  -2.094
REMARK UNBOUND:                -1.964
REMARK SMILES CCCCCCCCCCCCCCCCCC(=O)[O-]
REMARK SMILES IDX 10 1 11 2 12 3 13 4 14 5 15 6 16 7 17 8 18 9 19 10 20 11
REMARK SMILES IDX 9 12 8 13 7 14 6 15 5 16 4 17 3 18 2 19 1 20
REMARK H PARENT
REMARK Flexibility Score: inf
ROOT
ATOM      1  C   UNL     1      60.777  28.609  13.462  1.00  0.00     0.000 C 
ENDROOT
BRANCH   1   2
ATOM      2  C   UNL     1      62.239  28.716  12.994  1.00  0.00     0.000 C 
BRANCH   2   3
ATOM      3  C   UNL     1      62.932  29.987  13.510  1.00  0.00     0.000 C 
BRANCH   3   4
ATOM      4  C   UNL     1      62.903  31.133  12.484  1.00  0.00     0.000 C 
BRANCH   4   5
ATOM      5  C   UNL     1      62.238  32.408  13.031  1.00  0.00     0.000 C 
BRANCH   5   6
ATOM      6  C   UNL     1      61.482  32.234  14.364  1.00  0.00     0.000 C 
BRANCH   6   7
ATOM      7  C   UNL     1      62.076  33.004  15.560  1.00  0.00     0.006 C 
BRANCH   7   8
ATOM      8  C   UNL     1      61.055  33.839  16.349  1.00  0.00     0.053 C 
BRANCH   8   9
ATOM      9  C   UNL     1      61.614  34.325  17.650  1.00  0.00     0.041 C 
ATOM     10  O   UNL     1      62.702  34.958  17.675  1.00  0.00    -0.550 OA
ATOM     11  O   UNL     1      60.951  34.051  18.840  1.00  0.00    -0.550 OA
ENDBRANCH   8   9
ENDBRANCH   7   8
ENDBRANCH   6   7
ENDBRANCH   5   6
ENDBRANCH   4   5
ENDBRANCH   3   4
ENDBRANCH   2   3
ENDBRANCH   1   2
BRANCH   1  12
ATOM     12  C   UNL     1      59.801  28.354  12.301  1.00  0.00     0.000 C 
BRANCH  12  13
ATOM     13  C   UNL     1      59.821  29.480  11.252  1.00  0.00    -0.000 C 
BRANCH  13  14
ATOM     14  C   UNL     1      59.626  28.955   9.821  1.00  0.00    -0.000 C 
BRANCH  14  15
ATOM     15  C   UNL     1      60.908  28.334   9.236  1.00  0.00    -0.000 C 
BRANCH  15  16
ATOM     16  C   UNL     1      62.037  29.363   9.075  1.00  0.00    -0.000 C 
BRANCH  16  17
ATOM     17  C   UNL     1      63.431  28.750   9.297  1.00  0.00    -0.000 C 
BRANCH  17  18
ATOM     18  C   UNL     1      64.573  29.729   8.969  1.00  0.00    -0.000 C 
BRANCH  18  19
ATOM     19  C   UNL     1      64.189  31.217   9.054  1.00  0.00    -0.003 C 
ATOM     20  C   UNL     1      65.299  32.088   9.643  1.00  0.00     0.004 C 
ENDBRANCH  18  19
ENDBRANCH  17  18
ENDBRANCH  16  17
ENDBRANCH  15  16
ENDBRANCH  14  15
ENDBRANCH  13  14
ENDBRANCH  12  13
ENDBRANCH   1  12
TORSDOF 16
ENDMDL
MODEL 4
REMARK VINA RESULT:    -4.889      1.543      3.829
REMARK INTER + INTRA:         -11.425
REMARK INTER:                  -9.047
REMARK INTRA:                  -2.379
REMARK UNBOUND:                -1.964
REMARK SMILES CCCCCCCCCCCCCCCCCC(=O)[O-]
REMARK SMILES IDX 10 1 11 2 12 3 13 4 14 5 15 6 16 7 17 8 18 9 19 10 20 11
REMARK SMILES IDX 9 12 8 13 7 14 6 15 5 16 4 17 3 18 2 19 1 20
REMARK H PARENT
REMARK Flexibility Score: inf
ROOT
ATOM      1  C   UNL     1      62.879  29.002   9.982  1.00  0.00     0.000 C 
ENDROOT
BRANCH   1   2
ATOM      2  C   UNL     1      63.983  29.824   9.294  1.00  0.00     0.000 C 
BRANCH   2   3
ATOM      3  C   UNL     1      64.279  31.143  10.028  1.00  0.00     0.000 C 
BRANCH   3   4
ATOM      4  C   UNL     1      63.585  31.223  11.399  1.00  0.00     0.000 C 
BRANCH   4   5
ATOM      5  C   UNL     1      64.061  32.420  12.240  1.00  0.00     0.000 C 
BRANCH   5   6
ATOM      6  C   UNL     1      63.897  32.257  13.766  1.00  0.00     0.000 C 
BRANCH   6   7
ATOM      7  C   UNL     1      63.509  33.541  14.525  1.00  0.00     0.006 C 
BRANCH   7   8
ATOM      8  C   UNL     1      63.550  33.410  16.056  1.00  0.00     0.053 C 
BRANCH   8   9
ATOM      9  C   UNL     1      62.330  33.994  16.700  1.00  0.00     0.041 C 
ATOM     10  O   UNL     1      61.190  33.768  16.217  1.00  0.00    -0.550 OA
ATOM     11  O   UNL     1      62.455  34.813  17.815  1.00  0.00    -0.550 OA
ENDBRANCH   8   9
ENDBRANCH   7   8
ENDBRANCH   6   7
ENDBRANCH   5   6
ENDBRANCH   4   5
ENDBRANCH   3   4
ENDBRANCH   2   3
ENDBRANCH   1   2
BRANCH   1  12
ATOM     12  C   UNL     1      61.580  28.953   9.161  1.00  0.00     0.000 C 
BRANCH  12  13
ATOM     13  C   UNL     1      60.431  28.254   9.910  1.00  0.00    -0.000 C 
BRANCH  13  14
ATOM     14  C   UNL     1      59.836  29.128  11.025  1.00  0.00    -0.000 C 
BRANCH  14  15
ATOM     15  C   UNL     1      59.371  28.306  12.240  1.00  0.00    -0.000 C 
BRANCH  15  16
ATOM     16  C   UNL     1      60.431  28.251  13.351  1.00  0.00    -0.000 C 
BRANCH  16  17
ATOM     17  C   UNL     1      61.274  29.537  13.428  1.00  0.00    -0.000 C 
BRANCH  17  18
ATOM     18  C   UNL     1      60.730  30.546  14.455  1.00  0.00    -0.000 C 
BRANCH  18  19
ATOM     19  C   UNL     1      59.728  31.567  13.886  1.00  0.00    -0.003 C 
ATOM     20  C   UNL     1      60.324  32.433  12.776  1.00  0.00     0.004 C 
ENDBRANCH  18  19
ENDBRANCH  17  18
ENDBRANCH  16  17
ENDBRANCH  15  16
ENDBRANCH  14  15
ENDBRANCH  13  14
ENDBRANCH  12  13
ENDBRANCH   1  12
TORSDOF 16
ENDMDL
MODEL 5
REMARK VINA RESULT:    -4.877      1.528      2.759
REMARK INTER + INTRA:         -11.402
REMARK INTER:                  -9.020
REMARK INTRA:                  -2.382
REMARK UNBOUND:                -1.964
REMARK SMILES CCCCCCCCCCCCCCCCCC(=O)[O-]
REMARK SMILES IDX 10 1 11 2 12 3 13 4 14 5 15 6 16 7 17 8 18 9 19 10 20 11
REMARK SMILES IDX 9 12 8 13 7 14 6 15 5 16 4 17 3 18 2 19 1 20
REMARK H PARENT
REMARK Flexibility Score: inf
ROOT
ATOM      1  C   UNL     1      59.995  31.113  12.826  1.00  0.00     0.000 C 
ENDROOT
BRANCH   1   2
ATOM      2  C   UNL     1      59.534  31.929  14.048  1.00  0.00     0.000 C 
BRANCH   2   3
ATOM      3  C   UNL     1      60.629  32.873  14.572  1.00  0.00     0.000 C 
BRANCH   3   4
ATOM      4  C   UNL     1      61.934  32.768  13.764  1.00  0.00     0.000 C 
BRANCH   4   5
ATOM      5  C   UNL     1      63.151  33.333  14.518  1.00  0.00     0.000 C 
BRANCH   5   6
ATOM      6  C   UNL     1      63.759  32.393  15.580  1.00  0.00     0.000 C 
BRANCH   6   7
ATOM      7  C   UNL     1      64.114  33.064  16.923  1.00  0.00     0.006 C 
BRANCH   7   8
ATOM      8  C   UNL     1      63.391  34.395  17.178  1.00  0.00     0.053 C 
BRANCH   8   9
ATOM      9  C   UNL     1      62.197  34.223  18.066  1.00  0.00     0.041 C 
ATOM     10  O   UNL     1      61.038  34.406  17.610  1.00  0.00    -0.550 OA
ATOM     11  O   UNL     1      62.367  33.893  19.405  1.00  0.00    -0.550 OA
ENDBRANCH   8   9
ENDBRANCH   7   8
ENDBRANCH   6   7
ENDBRANCH   5   6
ENDBRANCH   4   5
ENDBRANCH   3   4
ENDBRANCH   2   3
ENDBRANCH   1   2
BRANCH   1  12
ATOM     12  C   UNL     1      60.034  29.602  13.105  1.00  0.00     0.000 C 
BRANCH  12  13
ATOM     13  C   UNL     1      61.318  29.168  13.835  1.00  0.00    -0.000 C 
BRANCH  13  14
ATOM     14  C   UNL     1      62.380  28.607  12.876  1.00  0.00    -0.000 C 
BRANCH  14  15
ATOM     15  C   UNL     1      63.384  29.678  12.411  1.00  0.00    -0.000 C 
BRANCH  15  16
ATOM     16  C   UNL     1      63.135  30.125  10.962  1.00  0.00    -0.000 C 
BRANCH  16  17
ATOM     17  C   UNL     1      62.939  28.938  10.002  1.00  0.00    -0.000 C 
BRANCH  17  18
ATOM     18  C   UNL     1      61.882  29.216   8.918  1.00  0.00    -0.000 C 
BRANCH  18  19
ATOM     19  C   UNL     1      60.503  29.635   9.456  1.00  0.00    -0.003 C 
ATOM     20  C   UNL     1      59.579  28.448   9.724  1.00  0.00     0.004 C 
ENDBRANCH  18  19
ENDBRANCH  17  18
ENDBRANCH  16  17
ENDBRANCH  15  16
ENDBRANCH  14  15
ENDBRANCH  13  14
ENDBRANCH  12  13
ENDBRANCH   1  12
TORSDOF 16
ENDMDL
MODEL 6
REMARK VINA RESULT:    -4.874      1.065      3.124
REMARK INTER + INTRA:         -11.397
REMARK INTER:                  -8.907
REMARK INTRA:                  -2.489
REMARK UNBOUND:                -1.964
REMARK SMILES CCCCCCCCCCCCCCCCCC(=O)[O-]
REMARK SMILES IDX 10 1 11 2 12 3 13 4 14 5 15 6 16 7 17 8 18 9 19 10 20 11
REMARK SMILES IDX 9 12 8 13 7 14 6 15 5 16 4 17 3 18 2 19 1 20
REMARK H PARENT
REMARK Flexibility Score: inf
ROOT
ATOM      1  C   UNL     1      59.961  29.580  11.146  1.00  0.00     0.000 C 
ENDROOT
BRANCH   1   2
ATOM      2  C   UNL     1      59.728  29.452  12.662  1.00  0.00     0.000 C 
BRANCH   2   3
ATOM      3  C   UNL     1      59.601  30.818  13.355  1.00  0.00     0.000 C 
BRANCH   3   4
ATOM      4  C   UNL     1      60.339  31.935  12.596  1.00  0.00     0.000 C 
BRANCH   4   5
ATOM      5  C   UNL     1      61.225  32.796  13.513  1.00  0.00     0.000 C 
BRANCH   5   6
ATOM      6  C   UNL     1      60.902  32.698  15.019  1.00  0.00     0.000 C 
BRANCH   6   7
ATOM      7  C   UNL     1      61.747  33.610  15.931  1.00  0.00     0.006 C 
BRANCH   7   8
ATOM      8  C   UNL     1      60.953  34.291  17.058  1.00  0.00     0.053 C 
BRANCH   8   9
ATOM      9  C   UNL     1      61.507  33.962  18.410  1.00  0.00     0.041 C 
ATOM     10  O   UNL     1      60.731  33.678  19.359  1.00  0.00    -0.550 OA
ATOM     11  O   UNL     1      62.879  34.001  18.629  1.00  0.00    -0.550 OA
ENDBRANCH   8   9
ENDBRANCH   7   8
ENDBRANCH   6   7
ENDBRANCH   5   6
ENDBRANCH   4   5
ENDBRANCH   3   4
ENDBRANCH   2   3
ENDBRANCH   1   2
BRANCH   1  12
ATOM     12  C   UNL     1      60.507  28.286  10.519  1.00  0.00     0.000 C 
BRANCH  12  13
ATOM     13  C   UNL     1      61.049  28.500   9.095  1.00  0.00    -0.000 C 
BRANCH  13  14
ATOM     14  C   UNL     1      61.992  29.710   8.999  1.00  0.00    -0.000 C 
BRANCH  14  15
ATOM     15  C   UNL     1      63.433  29.375   9.424  1.00  0.00    -0.000 C 
BRANCH  15  16
ATOM     16  C   UNL     1      64.111  30.536  10.168  1.00  0.00    -0.000 C 
BRANCH  16  17
ATOM     17  C   UNL     1      63.611  30.681  11.617  1.00  0.00    -0.000 C 
BRANCH  17  18
ATOM     18  C   UNL     1      63.505  29.332  12.349  1.00  0.00    -0.000 C 
BRANCH  18  19
ATOM     19  C   UNL     1      63.036  29.427  13.811  1.00  0.00    -0.003 C 
ATOM     20  C   UNL     1      63.816  30.462  14.622  1.00  0.00     0.004 C 
ENDBRANCH  18  19
ENDBRANCH  17  18
ENDBRANCH  16  17
ENDBRANCH  15  16
ENDBRANCH  14  15
ENDBRANCH  13  14
ENDBRANCH  12  13
ENDBRANCH   1  12
TORSDOF 16
ENDMDL
MODEL 7
REMARK VINA RESULT:    -4.825      9.485     12.564
REMARK INTER + INTRA:         -11.301
REMARK INTER:                  -8.897
REMARK INTRA:                  -2.404
REMARK UNBOUND:                -1.964
REMARK SMILES CCCCCCCCCCCCCCCCCC(=O)[O-]
REMARK SMILES IDX 10 1 11 2 12 3 13 4 14 5 15 6 16 7 17 8 18 9 19 10 20 11
REMARK SMILES IDX 9 12 8 13 7 14 6 15 5 16 4 17 3 18 2 19 1 20
REMARK H PARENT
REMARK Flexibility Score: inf
ROOT
ATOM      1  C   UNL     1      63.156  29.448  23.854  1.00  0.00     0.000 C 
ENDROOT
BRANCH   1   2
ATOM      2  C   UNL     1      64.137  30.374  24.594  1.00  0.00     0.000 C 
BRANCH   2   3
ATOM      3  C   UNL     1      65.605  29.972  24.377  1.00  0.00     0.000 C 
BRANCH   3   4
ATOM      4  C   UNL     1      66.392  29.878  25.696  1.00  0.00     0.000 C 
BRANCH   4   5
ATOM      5  C   UNL     1      65.511  29.465  26.888  1.00  0.00     0.000 C 
BRANCH   5   6
ATOM      6  C   UNL     1      65.279  30.565  27.945  1.00  0.00     0.000 C 
BRANCH   6   7
ATOM      7  C   UNL     1      64.082  30.326  28.888  1.00  0.00     0.006 C 
BRANCH   7   8
ATOM      8  C   UNL     1      62.720  30.264  28.180  1.00  0.00     0.053 C 
BRANCH   8   9
ATOM      9  C   UNL     1      61.946  29.040  28.561  1.00  0.00     0.041 C 
ATOM     10  O   UNL     1      62.542  27.945  28.742  1.00  0.00    -0.550 OA
ATOM     11  O   UNL     1      60.564  29.100  28.686  1.00  0.00    -0.550 OA
ENDBRANCH   8   9
ENDBRANCH   7   8
ENDBRANCH   6   7
ENDBRANCH   5   6
ENDBRANCH   4   5
ENDBRANCH   3   4
ENDBRANCH   2   3
ENDBRANCH   1   2
BRANCH   1  12
ATOM     12  C   UNL     1      62.311  28.593  24.813  1.00  0.00     0.000 C 
BRANCH  12  13
ATOM     13  C   UNL     1      62.601  27.088  24.677  1.00  0.00    -0.000 C 
BRANCH  13  14
ATOM     14  C   UNL     1      63.720  26.616  25.619  1.00  0.00    -0.000 C 
BRANCH  14  15
ATOM     15  C   UNL     1      64.938  26.058  24.860  1.00  0.00    -0.000 C 
BRANCH  15  16
ATOM     16  C   UNL     1      64.774  26.155  23.335  1.00  0.00    -0.000 C 
BRANCH  16  17
ATOM     17  C   UNL     1      66.020  26.735  22.643  1.00  0.00    -0.000 C 
BRANCH  17  18
ATOM     18  C   UNL     1      66.448  25.923  21.407  1.00  0.00    -0.000 C 
BRANCH  18  19
ATOM     19  C   UNL     1      66.474  26.719  20.091  1.00  0.00    -0.003 C 
ATOM     20  C   UNL     1      65.777  25.994  18.940  1.00  0.00     0.004 C 
ENDBRANCH  18  19
ENDBRANCH  17  18
ENDBRANCH  16  17
ENDBRANCH  15  16
ENDBRANCH  14  15
ENDBRANCH  13  14
ENDBRANCH  12  13
ENDBRANCH   1  12
TORSDOF 16
ENDMDL
MODEL 8
REMARK VINA RESULT:    -4.824      1.198      3.036
REMARK INTER + INTRA:         -11.299
REMARK INTER:                  -8.770
REMARK INTRA:                  -2.529
REMARK UNBOUND:                -1.964
REMARK SMILES CCCCCCCCCCCCCCCCCC(=O)[O-]
REMARK SMILES IDX 10 1 11 2 12 3 13 4 14 5 15 6 16 7 17 8 18 9 19 10 20 11
REMARK SMILES IDX 9 12 8 13 7 14 6 15 5 16 4 17 3 18 2 19 1 20
REMARK H PARENT
REMARK Flexibility Score: inf
ROOT
ATOM      1  C   UNL     1      63.137  30.673  13.219  1.00  0.00     0.000 C 
ENDROOT
BRANCH   1   2
ATOM      2  C   UNL     1      62.825  32.119  12.793  1.00  0.00     0.000 C 
BRANCH   2   3
ATOM      3  C   UNL     1      61.320  32.365  12.604  1.00  0.00     0.000 C 
BRANCH   3   4
ATOM      4  C   UNL     1      60.459  31.517  13.557  1.00  0.00     0.000 C 
BRANCH   4   5
ATOM      5  C   UNL     1      59.610  32.372  14.514  1.00  0.00     0.000 C 
BRANCH   5   6
ATOM      6  C   UNL     1      60.382  33.470  15.273  1.00  0.00     0.000 C 
BRANCH   6   7
ATOM      7  C   UNL     1      61.467  32.959  16.243  1.00  0.00     0.006 C 
BRANCH   7   8
ATOM      8  C   UNL     1      62.755  33.798  16.252  1.00  0.00     0.053 C 
BRANCH   8   9
ATOM      9  C   UNL     1      62.872  34.629  17.493  1.00  0.00     0.041 C 
ATOM     10  O   UNL     1      63.868  35.381  17.659  1.00  0.00    -0.550 OA
ATOM     11  O   UNL     1      61.897  34.550  18.479  1.00  0.00    -0.550 OA
ENDBRANCH   8   9
ENDBRANCH   7   8
ENDBRANCH   6   7
ENDBRANCH   5   6
ENDBRANCH   4   5
ENDBRANCH   3   4
ENDBRANCH   2   3
ENDBRANCH   1   2
BRANCH   1  12
ATOM     12  C   UNL     1      63.743  29.838  12.079  1.00  0.00     0.000 C 
BRANCH  12  13
ATOM     13  C   UNL     1      64.104  30.689  10.848  1.00  0.00    -0.000 C 
BRANCH  13  14
ATOM     14  C   UNL     1      63.492  30.138   9.551  1.00  0.00    -0.000 C 
BRANCH  14  15
ATOM     15  C   UNL     1      62.729  28.818   9.768  1.00  0.00    -0.000 C 
BRANCH  15  16
ATOM     16  C   UNL     1      61.252  28.920   9.353  1.00  0.00    -0.000 C 
BRANCH  16  17
ATOM     17  C   UNL     1      60.374  29.553  10.447  1.00  0.00    -0.000 C 
BRANCH  17  18
ATOM     18  C   UNL     1      59.230  28.630  10.902  1.00  0.00    -0.000 C 
BRANCH  18  19
ATOM     19  C   UNL     1      59.243  28.278  12.400  1.00  0.00    -0.003 C 
ATOM     20  C   UNL     1      60.644  27.978  12.931  1.00  0.00     0.004 C 
ENDBRANCH  18  19
ENDBRANCH  17  18
ENDBRANCH  16  17
ENDBRANCH  15  16
ENDBRANCH  14  15
ENDBRANCH  13  14
ENDBRANCH  12  13
ENDBRANCH   1  12
TORSDOF 16
ENDMDL
MODEL 9
REMARK VINA RESULT:    -4.814      9.711     13.892
REMARK INTER + INTRA:         -11.281
REMARK INTER:                  -9.316
REMARK INTRA:                  -1.965
REMARK UNBOUND:                -1.964
REMARK SMILES CCCCCCCCCCCCCCCCCC(=O)[O-]
REMARK SMILES IDX 10 1 11 2 12 3 13 4 14 5 15 6 16 7 17 8 18 9 19 10 20 11
REMARK SMILES IDX 9 12 8 13 7 14 6 15 5 16 4 17 3 18 2 19 1 20
REMARK H PARENT
REMARK Flexibility Score: inf
ROOT
ATOM      1  C   UNL     1      65.659  30.112  27.080  1.00  0.00     0.000 C 
ENDROOT
BRANCH   1   2
ATOM      2  C   UNL     1      66.676  29.719  25.993  1.00  0.00     0.000 C 
BRANCH   2   3
ATOM      3  C   UNL     1      66.037  29.621  24.598  1.00  0.00     0.000 C 
BRANCH   3   4
ATOM      4  C   UNL     1      66.396  28.312  23.876  1.00  0.00     0.000 C 
BRANCH   4   5
ATOM      5  C   UNL     1      65.568  27.112  24.368  1.00  0.00     0.000 C 
BRANCH   5   6
ATOM      6  C   UNL     1      65.361  25.988  23.332  1.00  0.00     0.000 C 
BRANCH   6   7
ATOM      7  C   UNL     1      65.223  26.460  21.870  1.00  0.00     0.006 C 
BRANCH   7   8
ATOM      8  C   UNL     1      66.364  26.008  20.947  1.00  0.00     0.053 C 
BRANCH   8   9
ATOM      9  C   UNL     1      66.126  26.410  19.524  1.00  0.00     0.041 C 
ATOM     10  O   UNL     1      65.276  25.797  18.827  1.00  0.00    -0.550 OA
ATOM     11  O   UNL     1      66.865  27.442  18.958  1.00  0.00    -0.550 OA
ENDBRANCH   8   9
ENDBRANCH   7   8
ENDBRANCH   6   7
ENDBRANCH   5   6
ENDBRANCH   4   5
ENDBRANCH   3   4
ENDBRANCH   2   3
ENDBRANCH   1   2
BRANCH   1  12
ATOM     12  C   UNL     1      64.262  29.525  26.825  1.00  0.00     0.000 C 
BRANCH  12  13
ATOM     13  C   UNL     1      63.136  30.406  27.394  1.00  0.00    -0.000 C 
BRANCH  13  14
ATOM     14  C   UNL     1      62.604  29.887  28.740  1.00  0.00    -0.000 C 
BRANCH  14  15
ATOM     15  C   UNL     1      61.356  29.000  28.583  1.00  0.00    -0.000 C 
BRANCH  15  16
ATOM     16  C   UNL     1      61.710  27.520  28.375  1.00  0.00    -0.000 C 
BRANCH  16  17
ATOM     17  C   UNL     1      60.753  26.814  27.398  1.00  0.00    -0.000 C 
BRANCH  17  18
ATOM     18  C   UNL     1      60.710  27.487  26.014  1.00  0.00    -0.000 C 
BRANCH  18  19
ATOM     19  C   UNL     1      61.971  27.278  25.157  1.00  0.00    -0.003 C 
ATOM     20  C   UNL     1      62.117  28.316  24.045  1.00  0.00     0.004 C 
ENDBRANCH  18  19
ENDBRANCH  17  18
ENDBRANCH  16  17
ENDBRANCH  15  16
ENDBRANCH  14  15
ENDBRANCH  13  14
ENDBRANCH  12  13
ENDBRANCH   1  12
TORSDOF 16
ENDMDL
