MODEL 1
REMARK VINA RESULT:    -6.319      0.000      0.000
REMARK INTER + INTRA:         -11.120
REMARK INTER:                  -9.274
REMARK INTRA:                  -1.846
REMARK UNBOUND:                -1.846
REMARK SMILES O=c1c(O[C@@H]2O[C@@H](CO)[C@@H](O)[C@@H](O)[C@@H]2O)c(-c2ccc(O)c(O)c2)oc2cc(O)cc(O)c12
REMARK SMILES IDX 4 1 3 2 16 3 25 4 2 5 26 6 1 7 33 8 27 9 31 10 28 11 30 12
REMARK SMILES IDX 17 13 18 14 19 15 20 16 24 17 22 18 21 19 23 21 32 23 29 25
REMARK SMILES IDX 5 27 14 28 6 29 12 30 7 31 10 32 15 33 13 35 8 37 9 38 11 40
REMARK H PARENT 21 20 23 22 32 24 29 26 15 34 13 36 9 39 11 41
REMARK Flexibility Score: inf
ROOT
ATOM      1  O   UNL     1       7.202  10.545 -18.558  1.00  0.00    -0.454 OA
ENDROOT
BRANCH   1   2
ATOM      2  C   UNL     1       7.319   9.301 -17.902  1.00  0.00     0.214 A 
ATOM      3  C   UNL     1       7.887   9.286 -16.614  1.00  0.00     0.180 A 
ATOM      4  O   UNL     1       7.958   8.154 -15.928  1.00  0.00    -0.452 OA
ATOM      5  C   UNL     1       6.864   8.077 -18.446  1.00  0.00     0.239 A 
ATOM      6  C   UNL     1       7.561   6.983 -16.406  1.00  0.00     0.146 A 
ATOM      7  O   UNL     1       6.263   8.069 -19.551  1.00  0.00    -0.285 OA
ATOM      8  C   UNL     1       7.037   6.875 -17.718  1.00  0.00     0.111 A 
ATOM      9  C   UNL     1       7.663   5.857 -15.585  1.00  0.00     0.094 A 
ATOM     10  C   UNL     1       6.679   5.580 -18.201  1.00  0.00     0.134 A 
ATOM     11  C   UNL     1       7.248   4.609 -16.042  1.00  0.00     0.123 A 
ATOM     12  C   UNL     1       6.755   4.476 -17.342  1.00  0.00     0.093 A 
BRANCH   3  13
ATOM     13  C   UNL     1       8.385  10.521 -15.968  1.00  0.00     0.025 A 
ATOM     14  C   UNL     1       7.581  11.254 -15.080  1.00  0.00     0.016 A 
ATOM     15  C   UNL     1       8.066  12.420 -14.484  1.00  0.00     0.051 A 
ATOM     16  C   UNL     1       9.353  12.882 -14.781  1.00  0.00     0.157 A 
ATOM     17  C   UNL     1       9.667  10.999 -16.282  1.00  0.00     0.062 A 
ATOM     18  C   UNL     1      10.157  12.171 -15.687  1.00  0.00     0.158 A 
BRANCH  16  19
ATOM     19  O   UNL     1       9.812  14.048 -14.170  1.00  0.00    -0.504 OA
ATOM     20  H   UNL     1      10.355  14.740 -14.671  1.00  0.00     0.293 HD
ENDBRANCH  16  19
BRANCH  18  21
ATOM     21  O   UNL     1      11.437  12.629 -15.994  1.00  0.00    -0.504 OA
ATOM     22  H   UNL     1      12.266  12.114 -15.721  1.00  0.00     0.293 HD
ENDBRANCH  18  21
ENDBRANCH   3  13
BRANCH  10  23
ATOM     23  O   UNL     1       6.276   5.323 -19.514  1.00  0.00    -0.507 OA
ATOM     24  H   UNL     1       5.891   6.016 -20.140  1.00  0.00     0.293 HD
ENDBRANCH  10  23
BRANCH  11  25
ATOM     25  O   UNL     1       7.338   3.504 -15.199  1.00  0.00    -0.508 OA
ATOM     26  H   UNL     1       7.147   3.578 -14.206  1.00  0.00     0.293 HD
ENDBRANCH  11  25
ENDBRANCH   1   2
BRANCH   1  27
ATOM     27  C   UNL     1       8.109  11.126 -19.503  1.00  0.00     0.339 C 
ATOM     28  C   UNL     1       7.372  11.478 -20.813  1.00  0.00     0.214 C 
ATOM     29  O   UNL     1       8.761  12.269 -18.964  1.00  0.00    -0.332 OA
ATOM     30  C   UNL     1       6.397  12.654 -20.597  1.00  0.00     0.180 C 
ATOM     31  C   UNL     1       7.836  13.293 -18.636  1.00  0.00     0.179 C 
ATOM     32  C   UNL     1       7.125  13.818 -19.907  1.00  0.00     0.177 C 
BRANCH  28  33
ATOM     33  O   UNL     1       6.713  10.352 -21.338  1.00  0.00    -0.384 OA
ATOM     34  H   UNL     1       7.375   9.615 -21.411  1.00  0.00     0.211 HD
ENDBRANCH  28  33
BRANCH  30  35
ATOM     35  O   UNL     1       5.878  13.089 -21.827  1.00  0.00    -0.387 OA
ATOM     36  H   UNL     1       5.181  13.765 -21.621  1.00  0.00     0.211 HD
ENDBRANCH  30  35
BRANCH  31  37
ATOM     37  C   UNL     1       8.591  14.410 -17.898  1.00  0.00     0.191 C 
BRANCH  37  38
ATOM     38  O   UNL     1       9.948  14.422 -18.254  1.00  0.00    -0.394 OA
ATOM     39  H   UNL     1      10.460  14.218 -17.428  1.00  0.00     0.210 HD
ENDBRANCH  37  38
ENDBRANCH  31  37
BRANCH  32  40
ATOM     40  O   UNL     1       8.060  14.379 -20.796  1.00  0.00    -0.387 OA
ATOM     41  H   UNL     1       7.680  15.240 -21.116  1.00  0.00     0.211 HD
ENDBRANCH  32  40
ENDBRANCH   1  27
TORSDOF 12
ENDMDL
MODEL 2
REMARK VINA RESULT:    -5.850      1.569      4.678
REMARK INTER + INTRA:         -10.431
REMARK INTER:                  -8.718
REMARK INTRA:                  -1.713
REMARK UNBOUND:                -1.846
REMARK SMILES O=c1c(O[C@@H]2O[C@@H](CO)[C@@H](O)[C@@H](O)[C@@H]2O)c(-c2ccc(O)c(O)c2)oc2cc(O)cc(O)c12
REMARK SMILES IDX 4 1 3 2 16 3 25 4 2 5 26 6 1 7 33 8 27 9 31 10 28 11 30 12
REMARK SMILES IDX 17 13 18 14 19 15 20 16 24 17 22 18 21 19 23 21 32 23 29 25
REMARK SMILES IDX 5 27 14 28 6 29 12 30 7 31 10 32 15 33 13 35 8 37 9 38 11 40
REMARK H PARENT 21 20 23 22 32 24 29 26 15 34 13 36 9 39 11 41
REMARK Flexibility Score: inf
ROOT
ATOM      1  O   UNL     1       8.201  11.167 -16.263  1.00  0.00    -0.454 OA
ENDROOT
BRANCH   1   2
ATOM      2  C   UNL     1       7.740   9.905 -16.694  1.00  0.00     0.214 A 
ATOM      3  C   UNL     1       7.565   9.705 -18.076  1.00  0.00     0.180 A 
ATOM      4  O   UNL     1       7.199   8.516 -18.538  1.00  0.00    -0.452 OA
ATOM      5  C   UNL     1       7.481   8.821 -15.822  1.00  0.00     0.239 A 
ATOM      6  C   UNL     1       6.929   7.480 -17.757  1.00  0.00     0.146 A 
ATOM      7  O   UNL     1       7.721   8.936 -14.594  1.00  0.00    -0.285 OA
ATOM      8  C   UNL     1       7.007   7.594 -16.347  1.00  0.00     0.111 A 
ATOM      9  C   UNL     1       6.572   6.269 -18.355  1.00  0.00     0.094 A 
ATOM     10  C   UNL     1       6.649   6.462 -15.554  1.00  0.00     0.134 A 
ATOM     11  C   UNL     1       6.291   5.151 -17.574  1.00  0.00     0.123 A 
ATOM     12  C   UNL     1       6.334   5.250 -16.182  1.00  0.00     0.093 A 
BRANCH   3  13
ATOM     13  C   UNL     1       7.817  10.783 -19.058  1.00  0.00     0.025 A 
ATOM     14  C   UNL     1       9.111  11.283 -19.274  1.00  0.00     0.016 A 
ATOM     15  C   UNL     1       9.329  12.305 -20.201  1.00  0.00     0.051 A 
ATOM     16  C   UNL     1       8.256  12.855 -20.911  1.00  0.00     0.157 A 
ATOM     17  C   UNL     1       6.740  11.351 -19.755  1.00  0.00     0.062 A 
ATOM     18  C   UNL     1       6.954  12.379 -20.685  1.00  0.00     0.158 A 
BRANCH  16  19
ATOM     19  O   UNL     1       8.503  13.873 -21.831  1.00  0.00    -0.504 OA
ATOM     20  H   UNL     1       9.324  14.463 -21.772  1.00  0.00     0.293 HD
ENDBRANCH  16  19
BRANCH  18  21
ATOM     21  O   UNL     1       5.878  12.927 -21.383  1.00  0.00    -0.504 OA
ATOM     22  H   UNL     1       5.141  12.346 -21.764  1.00  0.00     0.293 HD
ENDBRANCH  18  21
ENDBRANCH   3  13
BRANCH  10  23
ATOM     23  O   UNL     1       6.558   6.485 -14.160  1.00  0.00    -0.507 OA
ATOM     24  H   UNL     1       5.924   5.915 -13.619  1.00  0.00     0.293 HD
ENDBRANCH  10  23
BRANCH  11  25
ATOM     25  O   UNL     1       5.959   3.947 -18.192  1.00  0.00    -0.508 OA
ATOM     26  H   UNL     1       5.584   3.167 -17.664  1.00  0.00     0.293 HD
ENDBRANCH  11  25
ENDBRANCH   1   2
BRANCH   1  27
ATOM     27  C   UNL     1       7.479  12.159 -15.524  1.00  0.00     0.339 C 
ATOM     28  C   UNL     1       8.372  12.771 -14.424  1.00  0.00     0.214 C 
ATOM     29  O   UNL     1       6.959  13.171 -16.377  1.00  0.00    -0.332 OA
ATOM     30  C   UNL     1       9.490  13.638 -15.042  1.00  0.00     0.180 C 
ATOM     31  C   UNL     1       7.995  13.869 -17.051  1.00  0.00     0.179 C 
ATOM     32  C   UNL     1       8.886  14.635 -16.043  1.00  0.00     0.177 C 
BRANCH  28  33
ATOM     33  O   UNL     1       8.900  11.770 -13.589  1.00  0.00    -0.384 OA
ATOM     34  H   UNL     1       9.886  11.886 -13.556  1.00  0.00     0.211 HD
ENDBRANCH  28  33
BRANCH  30  35
ATOM     35  O   UNL     1      10.175  14.340 -14.037  1.00  0.00    -0.387 OA
ATOM     36  H   UNL     1       9.533  14.993 -13.655  1.00  0.00     0.211 HD
ENDBRANCH  30  35
BRANCH  31  37
ATOM     37  C   UNL     1       7.353  14.811 -18.081  1.00  0.00     0.191 C 
BRANCH  37  38
ATOM     38  O   UNL     1       8.186  15.908 -18.349  1.00  0.00    -0.394 OA
ATOM     39  H   UNL     1       8.082  16.114 -19.315  1.00  0.00     0.210 HD
ENDBRANCH  37  38
ENDBRANCH  31  37
BRANCH  32  40
ATOM     40  O   UNL     1       8.127  15.595 -15.349  1.00  0.00    -0.387 OA
ATOM     41  H   UNL     1       7.778  15.155 -14.529  1.00  0.00     0.211 HD
ENDBRANCH  32  40
ENDBRANCH   1  27
TORSDOF 12
ENDMDL
MODEL 3
REMARK VINA RESULT:    -5.738      2.556      3.744
REMARK INTER + INTRA:         -10.267
REMARK INTER:                  -9.256
REMARK INTRA:                  -1.011
REMARK UNBOUND:                -1.846
REMARK SMILES O=c1c(O[C@@H]2O[C@@H](CO)[C@@H](O)[C@@H](O)[C@@H]2O)c(-c2ccc(O)c(O)c2)oc2cc(O)cc(O)c12
REMARK SMILES IDX 4 1 3 2 16 3 25 4 2 5 26 6 1 7 33 8 27 9 31 10 28 11 30 12
REMARK SMILES IDX 17 13 18 14 19 15 20 16 24 17 22 18 21 19 23 21 32 23 29 25
REMARK SMILES IDX 5 27 14 28 6 29 12 30 7 31 10 32 15 33 13 35 8 37 9 38 11 40
REMARK H PARENT 21 20 23 22 32 24 29 26 15 34 13 36 9 39 11 41
REMARK Flexibility Score: inf
ROOT
ATOM      1  O   UNL     1       6.407  10.559 -17.419  1.00  0.00    -0.454 OA
ENDROOT
BRANCH   1   2
ATOM      2  C   UNL     1       6.559  10.190 -16.066  1.00  0.00     0.214 A 
ATOM      3  C   UNL     1       6.846  11.207 -15.134  1.00  0.00     0.180 A 
ATOM      4  O   UNL     1       6.930  10.924 -13.842  1.00  0.00    -0.452 OA
ATOM      5  C   UNL     1       6.402   8.869 -15.586  1.00  0.00     0.239 A 
ATOM      6  C   UNL     1       6.809   9.699 -13.352  1.00  0.00     0.146 A 
ATOM      7  O   UNL     1       6.050   7.956 -16.374  1.00  0.00    -0.285 OA
ATOM      8  C   UNL     1       6.588   8.593 -14.209  1.00  0.00     0.111 A 
ATOM      9  C   UNL     1       6.896   9.521 -11.968  1.00  0.00     0.094 A 
ATOM     10  C   UNL     1       6.522   7.289 -13.631  1.00  0.00     0.134 A 
ATOM     11  C   UNL     1       6.763   8.253 -11.409  1.00  0.00     0.123 A 
ATOM     12  C   UNL     1       6.573   7.146 -12.239  1.00  0.00     0.093 A 
BRANCH   3  13
ATOM     13  C   UNL     1       7.021  12.616 -15.549  1.00  0.00     0.025 A 
ATOM     14  C   UNL     1       5.916  13.446 -15.800  1.00  0.00     0.016 A 
ATOM     15  C   UNL     1       6.102  14.772 -16.196  1.00  0.00     0.051 A 
ATOM     16  C   UNL     1       7.392  15.284 -16.366  1.00  0.00     0.157 A 
ATOM     17  C   UNL     1       8.314  13.126 -15.743  1.00  0.00     0.062 A 
ATOM     18  C   UNL     1       8.505  14.457 -16.143  1.00  0.00     0.158 A 
BRANCH  16  19
ATOM     19  O   UNL     1       7.547  16.612 -16.761  1.00  0.00    -0.504 OA
ATOM     20  H   UNL     1       8.437  17.092 -16.696  1.00  0.00     0.293 HD
ENDBRANCH  16  19
BRANCH  18  21
ATOM     21  O   UNL     1       9.795  14.957 -16.318  1.00  0.00    -0.504 OA
ATOM     22  H   UNL     1      10.335  14.755 -17.151  1.00  0.00     0.293 HD
ENDBRANCH  18  21
ENDBRANCH   3  13
BRANCH  10  23
ATOM     23  O   UNL     1       6.440   6.110 -14.378  1.00  0.00    -0.507 OA
ATOM     24  H   UNL     1       7.132   5.374 -14.362  1.00  0.00     0.293 HD
ENDBRANCH  10  23
BRANCH  11  25
ATOM     25  O   UNL     1       6.830   8.101 -10.026  1.00  0.00    -0.508 OA
ATOM     26  H   UNL     1       7.711   7.932  -9.554  1.00  0.00     0.293 HD
ENDBRANCH  11  25
ENDBRANCH   1   2
BRANCH   1  27
ATOM     27  C   UNL     1       7.064   9.995 -18.560  1.00  0.00     0.339 C 
ATOM     28  C   UNL     1       7.149  11.030 -19.702  1.00  0.00     0.214 C 
ATOM     29  O   UNL     1       8.354   9.498 -18.228  1.00  0.00    -0.332 OA
ATOM     30  C   UNL     1       8.132  12.164 -19.344  1.00  0.00     0.180 C 
ATOM     31  C   UNL     1       9.208  10.531 -17.762  1.00  0.00     0.179 C 
ATOM     32  C   UNL     1       9.471  11.570 -18.880  1.00  0.00     0.177 C 
BRANCH  28  33
ATOM     33  O   UNL     1       5.875  11.533 -20.021  1.00  0.00    -0.384 OA
ATOM     34  H   UNL     1       5.677  12.282 -19.399  1.00  0.00     0.211 HD
ENDBRANCH  28  33
BRANCH  30  35
ATOM     35  O   UNL     1       8.347  12.993 -20.457  1.00  0.00    -0.387 OA
ATOM     36  H   UNL     1       8.454  13.916 -20.111  1.00  0.00     0.211 HD
ENDBRANCH  30  35
BRANCH  31  37
ATOM     37  C   UNL     1      10.510   9.893 -17.255  1.00  0.00     0.191 C 
BRANCH  37  38
ATOM     38  O   UNL     1      11.526  10.852 -17.127  1.00  0.00    -0.394 OA
ATOM     39  H   UNL     1      11.399  11.283 -16.241  1.00  0.00     0.210 HD
ENDBRANCH  37  38
ENDBRANCH  31  37
BRANCH  32  40
ATOM     40  O   UNL     1      10.118  10.963 -19.972  1.00  0.00    -0.387 OA
ATOM     41  H   UNL     1      10.922  10.502 -19.615  1.00  0.00     0.211 HD
ENDBRANCH  32  40
ENDBRANCH   1  27
TORSDOF 12
ENDMDL
MODEL 4
REMARK VINA RESULT:    -5.735      1.933      5.078
REMARK INTER + INTRA:         -10.262
REMARK INTER:                  -8.715
REMARK INTRA:                  -1.547
REMARK UNBOUND:                -1.846
REMARK SMILES O=c1c(O[C@@H]2O[C@@H](CO)[C@@H](O)[C@@H](O)[C@@H]2O)c(-c2ccc(O)c(O)c2)oc2cc(O)cc(O)c12
REMARK SMILES IDX 4 1 3 2 16 3 25 4 2 5 26 6 1 7 33 8 27 9 31 10 28 11 30 12
REMARK SMILES IDX 17 13 18 14 19 15 20 16 24 17 22 18 21 19 23 21 32 23 29 25
REMARK SMILES IDX 5 27 14 28 6 29 12 30 7 31 10 32 15 33 13 35 8 37 9 38 11 40
REMARK H PARENT 21 20 23 22 32 24 29 26 15 34 13 36 9 39 11 41
REMARK Flexibility Score: inf
ROOT
ATOM      1  O   UNL     1       7.600   8.710 -15.688  1.00  0.00    -0.454 OA
ENDROOT
BRANCH   1   2
ATOM      2  C   UNL     1       7.386   7.588 -16.516  1.00  0.00     0.214 A 
ATOM      3  C   UNL     1       7.149   7.817 -17.885  1.00  0.00     0.180 A 
ATOM      4  O   UNL     1       7.009   6.794 -18.718  1.00  0.00    -0.452 OA
ATOM      5  C   UNL     1       7.432   6.250 -16.059  1.00  0.00     0.239 A 
ATOM      6  C   UNL     1       7.028   5.527 -18.331  1.00  0.00     0.146 A 
ATOM      7  O   UNL     1       7.737   6.008 -14.865  1.00  0.00    -0.285 OA
ATOM      8  C   UNL     1       7.190   5.188 -16.965  1.00  0.00     0.111 A 
ATOM      9  C   UNL     1       6.890   4.530 -19.301  1.00  0.00     0.094 A 
ATOM     10  C   UNL     1       7.144   3.809 -16.598  1.00  0.00     0.134 A 
ATOM     11  C   UNL     1       6.915   3.186 -18.940  1.00  0.00     0.123 A 
ATOM     12  C   UNL     1       7.046   2.831 -17.596  1.00  0.00     0.093 A 
BRANCH   3  13
ATOM     13  C   UNL     1       7.089   9.184 -18.448  1.00  0.00     0.025 A 
ATOM     14  C   UNL     1       5.911   9.680 -19.031  1.00  0.00     0.016 A 
ATOM     15  C   UNL     1       5.875  10.971 -19.563  1.00  0.00     0.051 A 
ATOM     16  C   UNL     1       7.018  11.778 -19.537  1.00  0.00     0.157 A 
ATOM     17  C   UNL     1       8.240   9.986 -18.444  1.00  0.00     0.062 A 
ATOM     18  C   UNL     1       8.208  11.283 -18.978  1.00  0.00     0.158 A 
BRANCH  16  19
ATOM     19  O   UNL     1       6.951  13.064 -20.073  1.00  0.00    -0.504 OA
ATOM     20  H   UNL     1       7.596  13.794 -19.798  1.00  0.00     0.293 HD
ENDBRANCH  16  19
BRANCH  18  21
ATOM     21  O   UNL     1       9.353  12.078 -18.956  1.00  0.00    -0.504 OA
ATOM     22  H   UNL     1      10.124  11.916 -19.593  1.00  0.00     0.293 HD
ENDBRANCH  18  21
ENDBRANCH   3  13
BRANCH  10  23
ATOM     23  O   UNL     1       7.160   3.354 -15.277  1.00  0.00    -0.507 OA
ATOM     24  H   UNL     1       7.548   2.470 -14.981  1.00  0.00     0.293 HD
ENDBRANCH  10  23
BRANCH  11  25
ATOM     25  O   UNL     1       6.800   2.208 -19.926  1.00  0.00    -0.508 OA
ATOM     26  H   UNL     1       6.068   1.507 -19.893  1.00  0.00     0.293 HD
ENDBRANCH  11  25
ENDBRANCH   1   2
BRANCH   1  27
ATOM     27  C   UNL     1       6.619   9.609 -15.158  1.00  0.00     0.339 C 
ATOM     28  C   UNL     1       6.466   9.407 -13.635  1.00  0.00     0.214 C 
ATOM     29  O   UNL     1       6.933  10.962 -15.462  1.00  0.00    -0.332 OA
ATOM     30  C   UNL     1       7.726   9.892 -12.887  1.00  0.00     0.180 C 
ATOM     31  C   UNL     1       8.168  11.354 -14.885  1.00  0.00     0.179 C 
ATOM     32  C   UNL     1       8.088  11.315 -13.339  1.00  0.00     0.177 C 
BRANCH  28  33
ATOM     33  O   UNL     1       6.171   8.065 -13.332  1.00  0.00    -0.384 OA
ATOM     34  H   UNL     1       6.327   7.930 -12.361  1.00  0.00     0.211 HD
ENDBRANCH  28  33
BRANCH  30  35
ATOM     35  O   UNL     1       7.503   9.882 -11.500  1.00  0.00    -0.387 OA
ATOM     36  H   UNL     1       7.011   9.045 -11.295  1.00  0.00     0.211 HD
ENDBRANCH  30  35
BRANCH  31  37
ATOM     37  C   UNL     1       8.523  12.756 -15.405  1.00  0.00     0.191 C 
BRANCH  37  38
ATOM     38  O   UNL     1       9.252  13.479 -14.449  1.00  0.00    -0.394 OA
ATOM     39  H   UNL     1       9.572  12.820 -13.778  1.00  0.00     0.210 HD
ENDBRANCH  37  38
ENDBRANCH  31  37
BRANCH  32  40
ATOM     40  O   UNL     1       7.112  12.217 -12.875  1.00  0.00    -0.387 OA
ATOM     41  H   UNL     1       7.592  12.951 -12.407  1.00  0.00     0.211 HD
ENDBRANCH  32  40
ENDBRANCH   1  27
TORSDOF 12
ENDMDL
MODEL 5
REMARK VINA RESULT:    -5.675      1.859      6.737
REMARK INTER + INTRA:         -10.176
REMARK INTER:                  -8.314
REMARK INTRA:                  -1.862
REMARK UNBOUND:                -1.846
REMARK SMILES O=c1c(O[C@@H]2O[C@@H](CO)[C@@H](O)[C@@H](O)[C@@H]2O)c(-c2ccc(O)c(O)c2)oc2cc(O)cc(O)c12
REMARK SMILES IDX 4 1 3 2 16 3 25 4 2 5 26 6 1 7 33 8 27 9 31 10 28 11 30 12
REMARK SMILES IDX 17 13 18 14 19 15 20 16 24 17 22 18 21 19 23 21 32 23 29 25
REMARK SMILES IDX 5 27 14 28 6 29 12 30 7 31 10 32 15 33 13 35 8 37 9 38 11 40
REMARK H PARENT 21 20 23 22 32 24 29 26 15 34 13 36 9 39 11 41
REMARK Flexibility Score: inf
ROOT
ATOM      1  O   UNL     1       7.280   9.202 -18.240  1.00  0.00    -0.454 OA
ENDROOT
BRANCH   1   2
ATOM      2  C   UNL     1       7.385  10.599 -18.078  1.00  0.00     0.214 A 
ATOM      3  C   UNL     1       7.566  11.099 -16.774  1.00  0.00     0.180 A 
ATOM      4  O   UNL     1       7.737  12.399 -16.575  1.00  0.00    -0.452 OA
ATOM      5  C   UNL     1       7.356  11.522 -19.150  1.00  0.00     0.239 A 
ATOM      6  C   UNL     1       7.699  13.299 -17.547  1.00  0.00     0.146 A 
ATOM      7  O   UNL     1       7.294  11.103 -20.333  1.00  0.00    -0.285 OA
ATOM      8  C   UNL     1       7.454  12.910 -18.887  1.00  0.00     0.111 A 
ATOM      9  C   UNL     1       7.913  14.642 -17.223  1.00  0.00     0.094 A 
ATOM     10  C   UNL     1       7.367  13.928 -19.884  1.00  0.00     0.134 A 
ATOM     11  C   UNL     1       7.894  15.619 -18.214  1.00  0.00     0.123 A 
ATOM     12  C   UNL     1       7.625  15.260 -19.537  1.00  0.00     0.093 A 
BRANCH   3  13
ATOM     13  C   UNL     1       7.612  10.205 -15.596  1.00  0.00     0.025 A 
ATOM     14  C   UNL     1       6.535  10.125 -14.699  1.00  0.00     0.016 A 
ATOM     15  C   UNL     1       6.599   9.280 -13.589  1.00  0.00     0.051 A 
ATOM     16  C   UNL     1       7.746   8.517 -13.348  1.00  0.00     0.157 A 
ATOM     17  C   UNL     1       8.771   9.456 -15.340  1.00  0.00     0.062 A 
ATOM     18  C   UNL     1       8.840   8.607 -14.225  1.00  0.00     0.158 A 
BRANCH  16  19
ATOM     19  O   UNL     1       7.782   7.680 -12.234  1.00  0.00    -0.504 OA
ATOM     20  H   UNL     1       8.641   7.487 -11.733  1.00  0.00     0.293 HD
ENDBRANCH  16  19
BRANCH  18  21
ATOM     21  O   UNL     1       9.991   7.857 -13.987  1.00  0.00    -0.504 OA
ATOM     22  H   UNL     1      10.114   6.933 -14.384  1.00  0.00     0.293 HD
ENDBRANCH  18  21
ENDBRANCH   3  13
BRANCH  10  23
ATOM     23  O   UNL     1       7.002  13.689 -21.212  1.00  0.00    -0.507 OA
ATOM     24  H   UNL     1       6.094  13.901 -21.602  1.00  0.00     0.293 HD
ENDBRANCH  10  23
BRANCH  11  25
ATOM     25  O   UNL     1       8.133  16.949 -17.873  1.00  0.00    -0.508 OA
ATOM     26  H   UNL     1       8.039  17.275 -16.918  1.00  0.00     0.293 HD
ENDBRANCH  11  25
ENDBRANCH   1   2
BRANCH   1  27
ATOM     27  C   UNL     1       6.096   8.398 -18.184  1.00  0.00     0.339 C 
ATOM     28  C   UNL     1       5.939   7.575 -19.480  1.00  0.00     0.214 C 
ATOM     29  O   UNL     1       6.093   7.552 -17.041  1.00  0.00    -0.332 OA
ATOM     30  C   UNL     1       7.020   6.477 -19.569  1.00  0.00     0.180 C 
ATOM     31  C   UNL     1       7.179   6.639 -17.064  1.00  0.00     0.179 C 
ATOM     32  C   UNL     1       7.053   5.668 -18.263  1.00  0.00     0.177 C 
BRANCH  28  33
ATOM     33  O   UNL     1       5.958   8.410 -20.612  1.00  0.00    -0.384 OA
ATOM     34  H   UNL     1       6.483   9.221 -20.385  1.00  0.00     0.211 HD
ENDBRANCH  28  33
BRANCH  30  35
ATOM     35  O   UNL     1       6.754   5.618 -20.647  1.00  0.00    -0.387 OA
ATOM     36  H   UNL     1       7.572   5.074 -20.789  1.00  0.00     0.211 HD
ENDBRANCH  30  35
BRANCH  31  37
ATOM     37  C   UNL     1       7.211   5.891 -15.722  1.00  0.00     0.191 C 
BRANCH  37  38
ATOM     38  O   UNL     1       5.918   5.531 -15.313  1.00  0.00    -0.394 OA
ATOM     39  H   UNL     1       5.466   5.146 -16.110  1.00  0.00     0.210 HD
ENDBRANCH  37  38
ENDBRANCH  31  37
BRANCH  32  40
ATOM     40  O   UNL     1       5.875   4.904 -18.155  1.00  0.00    -0.387 OA
ATOM     41  H   UNL     1       5.206   5.311 -18.766  1.00  0.00     0.211 HD
ENDBRANCH  32  40
ENDBRANCH   1  27
TORSDOF 12
ENDMDL
MODEL 6
REMARK VINA RESULT:    -5.482      2.376      5.308
REMARK INTER + INTRA:          -9.892
REMARK INTER:                  -9.465
REMARK INTRA:                  -0.427
REMARK UNBOUND:                -1.846
REMARK SMILES O=c1c(O[C@@H]2O[C@@H](CO)[C@@H](O)[C@@H](O)[C@@H]2O)c(-c2ccc(O)c(O)c2)oc2cc(O)cc(O)c12
REMARK SMILES IDX 4 1 3 2 16 3 25 4 2 5 26 6 1 7 33 8 27 9 31 10 28 11 30 12
REMARK SMILES IDX 17 13 18 14 19 15 20 16 24 17 22 18 21 19 23 21 32 23 29 25
REMARK SMILES IDX 5 27 14 28 6 29 12 30 7 31 10 32 15 33 13 35 8 37 9 38 11 40
REMARK H PARENT 21 20 23 22 32 24 29 26 15 34 13 36 9 39 11 41
REMARK Flexibility Score: inf
ROOT
ATOM      1  O   UNL     1       8.038  10.308 -17.606  1.00  0.00    -0.454 OA
ENDROOT
BRANCH   1   2
ATOM      2  C   UNL     1       7.576   9.635 -16.455  1.00  0.00     0.214 A 
ATOM      3  C   UNL     1       6.926   8.398 -16.632  1.00  0.00     0.180 A 
ATOM      4  O   UNL     1       6.533   7.694 -15.580  1.00  0.00    -0.452 OA
ATOM      5  C   UNL     1       7.760  10.111 -15.136  1.00  0.00     0.239 A 
ATOM      6  C   UNL     1       6.669   8.110 -14.329  1.00  0.00     0.146 A 
ATOM      7  O   UNL     1       8.421  11.161 -14.937  1.00  0.00    -0.285 OA
ATOM      8  C   UNL     1       7.247   9.371 -14.042  1.00  0.00     0.111 A 
ATOM      9  C   UNL     1       6.236   7.273 -13.296  1.00  0.00     0.094 A 
ATOM     10  C   UNL     1       7.316   9.792 -12.680  1.00  0.00     0.134 A 
ATOM     11  C   UNL     1       6.371   7.665 -11.967  1.00  0.00     0.123 A 
ATOM     12  C   UNL     1       6.912   8.916 -11.664  1.00  0.00     0.093 A 
BRANCH   3  13
ATOM     13  C   UNL     1       6.695   7.825 -17.977  1.00  0.00     0.025 A 
ATOM     14  C   UNL     1       6.090   8.578 -18.996  1.00  0.00     0.016 A 
ATOM     15  C   UNL     1       5.875   8.018 -20.257  1.00  0.00     0.051 A 
ATOM     16  C   UNL     1       6.243   6.693 -20.513  1.00  0.00     0.157 A 
ATOM     17  C   UNL     1       7.043   6.489 -18.229  1.00  0.00     0.062 A 
ATOM     18  C   UNL     1       6.826   5.922 -19.494  1.00  0.00     0.158 A 
BRANCH  16  19
ATOM     19  O   UNL     1       6.018   6.161 -21.782  1.00  0.00    -0.504 OA
ATOM     20  H   UNL     1       5.994   5.162 -21.950  1.00  0.00     0.293 HD
ENDBRANCH  16  19
BRANCH  18  21
ATOM     21  O   UNL     1       7.189   4.598 -19.739  1.00  0.00    -0.504 OA
ATOM     22  H   UNL     1       7.260   3.920 -18.990  1.00  0.00     0.293 HD
ENDBRANCH  18  21
ENDBRANCH   3  13
BRANCH  10  23
ATOM     23  O   UNL     1       7.741  11.061 -12.278  1.00  0.00    -0.507 OA
ATOM     24  H   UNL     1       8.669  11.273 -11.940  1.00  0.00     0.293 HD
ENDBRANCH  10  23
BRANCH  11  25
ATOM     25  O   UNL     1       5.953   6.806 -10.952  1.00  0.00    -0.508 OA
ATOM     26  H   UNL     1       6.108   7.026  -9.976  1.00  0.00     0.293 HD
ENDBRANCH  11  25
ENDBRANCH   1   2
BRANCH   1  27
ATOM     27  C   UNL     1       8.994  11.372 -17.674  1.00  0.00     0.339 C 
ATOM     28  C   UNL     1       9.857  11.243 -18.947  1.00  0.00     0.214 C 
ATOM     29  O   UNL     1       8.364  12.645 -17.615  1.00  0.00    -0.332 OA
ATOM     30  C   UNL     1       9.020  11.534 -20.211  1.00  0.00     0.180 C 
ATOM     31  C   UNL     1       7.485  12.845 -18.711  1.00  0.00     0.179 C 
ATOM     32  C   UNL     1       8.268  12.864 -20.046  1.00  0.00     0.177 C 
BRANCH  28  33
ATOM     33  O   UNL     1      10.468   9.978 -19.015  1.00  0.00    -0.384 OA
ATOM     34  H   UNL     1       9.816   9.304 -18.689  1.00  0.00     0.211 HD
ENDBRANCH  28  33
BRANCH  30  35
ATOM     35  O   UNL     1       9.851  11.602 -21.341  1.00  0.00    -0.387 OA
ATOM     36  H   UNL     1      10.583  12.235 -21.121  1.00  0.00     0.211 HD
ENDBRANCH  30  35
BRANCH  31  37
ATOM     37  C   UNL     1       6.712  14.153 -18.480  1.00  0.00     0.191 C 
BRANCH  37  38
ATOM     38  O   UNL     1       6.422  14.788 -19.697  1.00  0.00    -0.394 OA
ATOM     39  H   UNL     1       7.268  15.205 -20.009  1.00  0.00     0.210 HD
ENDBRANCH  37  38
ENDBRANCH  31  37
BRANCH  32  40
ATOM     40  O   UNL     1       9.189  13.928 -20.059  1.00  0.00    -0.387 OA
ATOM     41  H   UNL     1      10.015  13.595 -20.500  1.00  0.00     0.211 HD
ENDBRANCH  32  40
ENDBRANCH   1  27
TORSDOF 12
ENDMDL
MODEL 7
REMARK VINA RESULT:    -5.437      2.677      7.457
REMARK INTER + INTRA:          -9.826
REMARK INTER:                  -8.925
REMARK INTRA:                  -0.901
REMARK UNBOUND:                -1.846
REMARK SMILES O=c1c(O[C@@H]2O[C@@H](CO)[C@@H](O)[C@@H](O)[C@@H]2O)c(-c2ccc(O)c(O)c2)oc2cc(O)cc(O)c12
REMARK SMILES IDX 4 1 3 2 16 3 25 4 2 5 26 6 1 7 33 8 27 9 31 10 28 11 30 12
REMARK SMILES IDX 17 13 18 14 19 15 20 16 24 17 22 18 21 19 23 21 32 23 29 25
REMARK SMILES IDX 5 27 14 28 6 29 12 30 7 31 10 32 15 33 13 35 8 37 9 38 11 40
REMARK H PARENT 21 20 23 22 32 24 29 26 15 34 13 36 9 39 11 41
REMARK Flexibility Score: inf
ROOT
ATOM      1  O   UNL     1       9.463  12.480 -17.459  1.00  0.00    -0.454 OA
ENDROOT
BRANCH   1   2
ATOM      2  C   UNL     1       8.747  13.692 -17.552  1.00  0.00     0.214 A 
ATOM      3  C   UNL     1       7.700  13.910 -16.636  1.00  0.00     0.180 A 
ATOM      4  O   UNL     1       7.040  15.060 -16.638  1.00  0.00    -0.452 OA
ATOM      5  C   UNL     1       9.044  14.713 -18.485  1.00  0.00     0.239 A 
ATOM      6  C   UNL     1       7.273  16.035 -17.504  1.00  0.00     0.146 A 
ATOM      7  O   UNL     1      10.034  14.592 -19.250  1.00  0.00    -0.285 OA
ATOM      8  C   UNL     1       8.258  15.892 -18.512  1.00  0.00     0.111 A 
ATOM      9  C   UNL     1       6.529  17.214 -17.399  1.00  0.00     0.094 A 
ATOM     10  C   UNL     1       8.427  16.952 -19.453  1.00  0.00     0.134 A 
ATOM     11  C   UNL     1       6.749  18.269 -18.281  1.00  0.00     0.123 A 
ATOM     12  C   UNL     1       7.696  18.137 -19.298  1.00  0.00     0.093 A 
BRANCH   3  13
ATOM     13  C   UNL     1       7.325  12.897 -15.625  1.00  0.00     0.025 A 
ATOM     14  C   UNL     1       6.225  12.046 -15.819  1.00  0.00     0.016 A 
ATOM     15  C   UNL     1       5.883  11.099 -14.851  1.00  0.00     0.051 A 
ATOM     16  C   UNL     1       6.622  11.001 -13.667  1.00  0.00     0.157 A 
ATOM     17  C   UNL     1       8.051  12.812 -14.427  1.00  0.00     0.062 A 
ATOM     18  C   UNL     1       7.709  11.864 -13.451  1.00  0.00     0.158 A 
BRANCH  16  19
ATOM     19  O   UNL     1       6.259  10.046 -12.719  1.00  0.00    -0.504 OA
ATOM     20  H   UNL     1       6.565  10.101 -11.755  1.00  0.00     0.293 HD
ENDBRANCH  16  19
BRANCH  18  21
ATOM     21  O   UNL     1       8.446  11.778 -12.271  1.00  0.00    -0.504 OA
ATOM     22  H   UNL     1       9.094  11.017 -12.103  1.00  0.00     0.293 HD
ENDBRANCH  18  21
ENDBRANCH   3  13
BRANCH  10  23
ATOM     23  O   UNL     1       9.268  16.878 -20.566  1.00  0.00    -0.507 OA
ATOM     24  H   UNL     1      10.215  17.230 -20.592  1.00  0.00     0.293 HD
ENDBRANCH  10  23
BRANCH  11  25
ATOM     25  O   UNL     1       6.012  19.444 -18.143  1.00  0.00    -0.508 OA
ATOM     26  H   UNL     1       5.098  19.548 -18.567  1.00  0.00     0.293 HD
ENDBRANCH  11  25
ENDBRANCH   1   2
BRANCH   1  27
ATOM     27  C   UNL     1       9.663  11.498 -18.483  1.00  0.00     0.339 C 
ATOM     28  C   UNL     1      10.341  10.240 -17.901  1.00  0.00     0.214 C 
ATOM     29  O   UNL     1       8.442  11.163 -19.130  1.00  0.00    -0.332 OA
ATOM     30  C   UNL     1       9.378   9.479 -16.965  1.00  0.00     0.180 C 
ATOM     31  C   UNL     1       7.509  10.594 -18.225  1.00  0.00     0.179 C 
ATOM     32  C   UNL     1       8.034   9.246 -17.673  1.00  0.00     0.177 C 
BRANCH  28  33
ATOM     33  O   UNL     1      11.541  10.571 -17.246  1.00  0.00    -0.384 OA
ATOM     34  H   UNL     1      11.316  11.147 -16.469  1.00  0.00     0.211 HD
ENDBRANCH  28  33
BRANCH  30  35
ATOM     35  O   UNL     1       9.933   8.243 -16.595  1.00  0.00    -0.387 OA
ATOM     36  H   UNL     1      10.683   8.439 -15.976  1.00  0.00     0.211 HD
ENDBRANCH  30  35
BRANCH  31  37
ATOM     37  C   UNL     1       6.165  10.430 -18.953  1.00  0.00     0.191 C 
BRANCH  37  38
ATOM     38  O   UNL     1       6.351   9.923 -20.248  1.00  0.00    -0.394 OA
ATOM     39  H   UNL     1       5.562  10.207 -20.780  1.00  0.00     0.210 HD
ENDBRANCH  37  38
ENDBRANCH  31  37
BRANCH  32  40
ATOM     40  O   UNL     1       8.209   8.321 -18.719  1.00  0.00    -0.387 OA
ATOM     41  H   UNL     1       9.054   7.831 -18.538  1.00  0.00     0.211 HD
ENDBRANCH  32  40
ENDBRANCH   1  27
TORSDOF 12
ENDMDL
MODEL 8
REMARK VINA RESULT:    -5.172      1.735      4.712
REMARK INTER + INTRA:          -9.437
REMARK INTER:                  -8.518
REMARK INTRA:                  -0.919
REMARK UNBOUND:                -1.846
REMARK SMILES O=c1c(O[C@@H]2O[C@@H](CO)[C@@H](O)[C@@H](O)[C@@H]2O)c(-c2ccc(O)c(O)c2)oc2cc(O)cc(O)c12
REMARK SMILES IDX 4 1 3 2 16 3 25 4 2 5 26 6 1 7 33 8 27 9 31 10 28 11 30 12
REMARK SMILES IDX 17 13 18 14 19 15 20 16 24 17 22 18 21 19 23 21 32 23 29 25
REMARK SMILES IDX 5 27 14 28 6 29 12 30 7 31 10 32 15 33 13 35 8 37 9 38 11 40
REMARK H PARENT 21 20 23 22 32 24 29 26 15 34 13 36 9 39 11 41
REMARK Flexibility Score: inf
ROOT
ATOM      1  O   UNL     1       9.927  11.599 -16.694  1.00  0.00    -0.454 OA
ENDROOT
BRANCH   1   2
ATOM      2  C   UNL     1       9.180  10.408 -16.814  1.00  0.00     0.214 A 
ATOM      3  C   UNL     1       8.382  10.245 -17.963  1.00  0.00     0.180 A 
ATOM      4  O   UNL     1       7.713   9.117 -18.157  1.00  0.00    -0.452 OA
ATOM      5  C   UNL     1       9.214   9.356 -15.869  1.00  0.00     0.239 A 
ATOM      6  C   UNL     1       7.703   8.115 -17.290  1.00  0.00     0.146 A 
ATOM      7  O   UNL     1       9.990   9.428 -14.883  1.00  0.00    -0.285 OA
ATOM      8  C   UNL     1       8.416   8.203 -16.070  1.00  0.00     0.111 A 
ATOM      9  C   UNL     1       6.978   6.963 -17.609  1.00  0.00     0.094 A 
ATOM     10  C   UNL     1       8.323   7.116 -15.148  1.00  0.00     0.134 A 
ATOM     11  C   UNL     1       6.949   5.881 -16.733  1.00  0.00     0.123 A 
ATOM     12  C   UNL     1       7.622   5.960 -15.512  1.00  0.00     0.093 A 
BRANCH   3  13
ATOM     13  C   UNL     1       8.291  11.293 -19.004  1.00  0.00     0.025 A 
ATOM     14  C   UNL     1       9.358  11.542 -19.883  1.00  0.00     0.016 A 
ATOM     15  C   UNL     1       9.255  12.540 -20.854  1.00  0.00     0.051 A 
ATOM     16  C   UNL     1       8.095  13.315 -20.951  1.00  0.00     0.157 A 
ATOM     17  C   UNL     1       7.137  12.088 -19.088  1.00  0.00     0.062 A 
ATOM     18  C   UNL     1       7.031  13.092 -20.061  1.00  0.00     0.158 A 
BRANCH  16  19
ATOM     19  O   UNL     1       8.020  14.303 -21.933  1.00  0.00    -0.504 OA
ATOM     20  H   UNL     1       7.400  14.223 -22.730  1.00  0.00     0.293 HD
ENDBRANCH  16  19
BRANCH  18  21
ATOM     21  O   UNL     1       5.875  13.866 -20.146  1.00  0.00    -0.504 OA
ATOM     22  H   UNL     1       5.858  14.742 -20.654  1.00  0.00     0.293 HD
ENDBRANCH  18  21
ENDBRANCH   3  13
BRANCH  10  23
ATOM     23  O   UNL     1       8.870   7.137 -13.862  1.00  0.00    -0.507 OA
ATOM     24  H   UNL     1       9.849   6.999 -13.655  1.00  0.00     0.293 HD
ENDBRANCH  10  23
BRANCH  11  25
ATOM     25  O   UNL     1       6.239   4.734 -17.081  1.00  0.00    -0.508 OA
ATOM     26  H   UNL     1       5.229   4.742 -17.163  1.00  0.00     0.293 HD
ENDBRANCH  11  25
ENDBRANCH   1   2
BRANCH   1  27
ATOM     27  C   UNL     1       9.875  12.564 -15.637  1.00  0.00     0.339 C 
ATOM     28  C   UNL     1      10.173  13.978 -16.181  1.00  0.00     0.214 C 
ATOM     29  O   UNL     1       8.623  12.533 -14.963  1.00  0.00    -0.332 OA
ATOM     30  C   UNL     1       9.019  14.477 -17.077  1.00  0.00     0.180 C 
ATOM     31  C   UNL     1       7.551  12.855 -15.835  1.00  0.00     0.179 C 
ATOM     32  C   UNL     1       7.679  14.312 -16.344  1.00  0.00     0.177 C 
BRANCH  28  33
ATOM     33  O   UNL     1      11.403  14.007 -16.861  1.00  0.00    -0.384 OA
ATOM     34  H   UNL     1      12.100  14.308 -16.222  1.00  0.00     0.211 HD
ENDBRANCH  28  33
BRANCH  30  35
ATOM     35  O   UNL     1       9.209  15.828 -17.408  1.00  0.00    -0.387 OA
ATOM     36  H   UNL     1       8.896  16.361 -16.631  1.00  0.00     0.211 HD
ENDBRANCH  30  35
BRANCH  31  37
ATOM     37  C   UNL     1       6.230  12.623 -15.086  1.00  0.00     0.191 C 
BRANCH  37  38
ATOM     38  O   UNL     1       6.343  12.991 -13.737  1.00  0.00    -0.394 OA
ATOM     39  H   UNL     1       7.232  12.672 -13.430  1.00  0.00     0.210 HD
ENDBRANCH  37  38
ENDBRANCH  31  37
BRANCH  32  40
ATOM     40  O   UNL     1       7.618  15.215 -15.267  1.00  0.00    -0.387 OA
ATOM     41  H   UNL     1       6.657  15.371 -15.070  1.00  0.00     0.211 HD
ENDBRANCH  32  40
ENDBRANCH   1  27
TORSDOF 12
ENDMDL
