MODEL 1
REMARK VINA RESULT:    -6.045      0.000      0.000
REMARK INTER + INTRA:         -13.800
REMARK INTER:                 -11.699
REMARK INTRA:                  -2.101
REMARK UNBOUND:                -2.101
REMARK SMILES CCCCCCCCCCCCCCCCCC(=O)[O-]
REMARK SMILES IDX 10 1 11 2 12 3 13 4 14 5 15 6 16 7 17 8 18 9 19 10 20 11
REMARK SMILES IDX 9 12 8 13 7 14 6 15 5 16 4 17 3 18 2 19 1 20
REMARK H PARENT
REMARK Flexibility Score: inf
ROOT
ATOM      1  C   UNL     1      92.556  -2.487   7.624  1.00  0.00     0.000 C 
ENDROOT
BRANCH   1   2
ATOM      2  C   UNL     1      93.169  -1.620   6.514  1.00  0.00     0.000 C 
BRANCH   2   3
ATOM      3  C   UNL     1      92.297  -0.391   6.229  1.00  0.00     0.000 C 
BRANCH   3   4
ATOM      4  C   UNL     1      91.255  -0.698   5.143  1.00  0.00     0.000 C 
BRANCH   4   5
ATOM      5  C   UNL     1      89.817  -0.412   5.606  1.00  0.00     0.000 C 
BRANCH   5   6
ATOM      6  C   UNL     1      88.915  -1.656   5.525  1.00  0.00     0.000 C 
BRANCH   6   7
ATOM      7  C   UNL     1      89.718  -2.961   5.404  1.00  0.00     0.006 C 
BRANCH   7   8
ATOM      8  C   UNL     1      89.142  -4.093   6.264  1.00  0.00     0.053 C 
BRANCH   8   9
ATOM      9  C   UNL     1      90.149  -5.187   6.433  1.00  0.00     0.041 C 
ATOM     10  O   UNL     1      90.295  -5.746   7.551  1.00  0.00    -0.550 OA
ATOM     11  O   UNL     1      90.952  -5.564   5.364  1.00  0.00    -0.550 OA
ENDBRANCH   8   9
ENDBRANCH   7   8
ENDBRANCH   6   7
ENDBRANCH   5   6
ENDBRANCH   4   5
ENDBRANCH   3   4
ENDBRANCH   2   3
ENDBRANCH   1   2
BRANCH   1  12
ATOM     12  C   UNL     1      93.356  -3.774   7.895  1.00  0.00     0.000 C 
BRANCH  12  13
ATOM     13  C   UNL     1      93.208  -4.353   9.315  1.00  0.00    -0.000 C 
BRANCH  13  14
ATOM     14  C   UNL     1      94.187  -3.729  10.323  1.00  0.00    -0.000 C 
BRANCH  14  15
ATOM     15  C   UNL     1      95.268  -4.720  10.787  1.00  0.00    -0.000 C 
BRANCH  15  16
ATOM     16  C   UNL     1      96.672  -4.093  10.827  1.00  0.00    -0.000 C 
BRANCH  16  17
ATOM     17  C   UNL     1      96.725  -2.734  10.097  1.00  0.00    -0.000 C 
BRANCH  17  18
ATOM     18  C   UNL     1      97.539  -2.768   8.793  1.00  0.00    -0.000 C 
BRANCH  18  19
ATOM     19  C   UNL     1      96.687  -3.119   7.565  1.00  0.00    -0.003 C 
ATOM     20  C   UNL     1      96.873  -4.581   7.169  1.00  0.00     0.004 C 
ENDBRANCH  18  19
ENDBRANCH  17  18
ENDBRANCH  16  17
ENDBRANCH  15  16
ENDBRANCH  14  15
ENDBRANCH  13  14
ENDBRANCH  12  13
ENDBRANCH   1  12
TORSDOF 16
ENDMDL
MODEL 2
REMARK VINA RESULT:    -6.002      6.607     10.048
REMARK INTER + INTRA:         -13.717
REMARK INTER:                 -11.714
REMARK INTRA:                  -2.003
REMARK UNBOUND:                -2.101
REMARK SMILES CCCCCCCCCCCCCCCCCC(=O)[O-]
REMARK SMILES IDX 10 1 11 2 12 3 13 4 14 5 15 6 16 7 17 8 18 9 19 10 20 11
REMARK SMILES IDX 9 12 8 13 7 14 6 15 5 16 4 17 3 18 2 19 1 20
REMARK H PARENT
REMARK Flexibility Score: inf
ROOT
ATOM      1  C   UNL     1      84.979  -2.400   2.738  1.00  0.00     0.000 C 
ENDROOT
BRANCH   1   2
ATOM      2  C   UNL     1      83.948  -3.524   2.555  1.00  0.00     0.000 C 
BRANCH   2   3
ATOM      3  C   UNL     1      82.830  -3.424   3.600  1.00  0.00     0.000 C 
BRANCH   3   4
ATOM      4  C   UNL     1      81.449  -3.529   2.936  1.00  0.00     0.000 C 
BRANCH   4   5
ATOM      5  C   UNL     1      81.534  -3.931   1.455  1.00  0.00     0.000 C 
BRANCH   5   6
ATOM      6  C   UNL     1      80.906  -2.878   0.524  1.00  0.00     0.000 C 
BRANCH   6   7
ATOM      7  C   UNL     1      81.922  -1.826   0.051  1.00  0.00     0.006 C 
BRANCH   7   8
ATOM      8  C   UNL     1      81.821  -0.511   0.835  1.00  0.00     0.053 C 
BRANCH   8   9
ATOM      9  C   UNL     1      82.896   0.436   0.408  1.00  0.00     0.041 C 
ATOM     10  O   UNL     1      82.633   1.654   0.229  1.00  0.00    -0.550 OA
ATOM     11  O   UNL     1      84.183  -0.031   0.172  1.00  0.00    -0.550 OA
ENDBRANCH   8   9
ENDBRANCH   7   8
ENDBRANCH   6   7
ENDBRANCH   5   6
ENDBRANCH   4   5
ENDBRANCH   3   4
ENDBRANCH   2   3
ENDBRANCH   1   2
BRANCH   1  12
ATOM     12  C   UNL     1      86.433  -2.904   2.704  1.00  0.00     0.000 C 
BRANCH  12  13
ATOM     13  C   UNL     1      87.419  -2.013   1.924  1.00  0.00    -0.000 C 
BRANCH  13  14
ATOM     14  C   UNL     1      88.878  -2.483   2.046  1.00  0.00    -0.000 C 
BRANCH  14  15
ATOM     15  C   UNL     1      89.474  -2.199   3.435  1.00  0.00    -0.000 C 
BRANCH  15  16
ATOM     16  C   UNL     1      89.510  -3.446   4.335  1.00  0.00    -0.000 C 
BRANCH  16  17
ATOM     17  C   UNL     1      88.794  -3.212   5.683  1.00  0.00    -0.000 C 
BRANCH  17  18
ATOM     18  C   UNL     1      88.278  -1.775   5.863  1.00  0.00    -0.000 C 
BRANCH  18  19
ATOM     19  C   UNL     1      86.765  -1.710   6.114  1.00  0.00    -0.003 C 
ATOM     20  C   UNL     1      86.209  -3.085   6.469  1.00  0.00     0.004 C 
ENDBRANCH  18  19
ENDBRANCH  17  18
ENDBRANCH  16  17
ENDBRANCH  15  16
ENDBRANCH  14  15
ENDBRANCH  13  14
ENDBRANCH  12  13
ENDBRANCH   1  12
TORSDOF 16
ENDMDL
MODEL 3
REMARK VINA RESULT:    -5.991      2.796      7.343
REMARK INTER + INTRA:         -13.696
REMARK INTER:                 -11.677
REMARK INTRA:                  -2.019
REMARK UNBOUND:                -2.101
REMARK SMILES CCCCCCCCCCCCCCCCCC(=O)[O-]
REMARK SMILES IDX 10 1 11 2 12 3 13 4 14 5 15 6 16 7 17 8 18 9 19 10 20 11
REMARK SMILES IDX 9 12 8 13 7 14 6 15 5 16 4 17 3 18 2 19 1 20
REMARK H PARENT
REMARK Flexibility Score: inf
ROOT
ATOM      1  C   UNL     1      92.621  -2.637   7.489  1.00  0.00     0.000 C 
ENDROOT
BRANCH   1   2
ATOM      2  C   UNL     1      93.339  -3.869   8.060  1.00  0.00     0.000 C 
BRANCH   2   3
ATOM      3  C   UNL     1      93.395  -3.815   9.592  1.00  0.00     0.000 C 
BRANCH   3   4
ATOM      4  C   UNL     1      94.454  -4.786  10.136  1.00  0.00     0.000 C 
BRANCH   4   5
ATOM      5  C   UNL     1      95.537  -4.075  10.963  1.00  0.00     0.000 C 
BRANCH   5   6
ATOM      6  C   UNL     1      96.880  -3.981  10.216  1.00  0.00     0.000 C 
BRANCH   6   7
ATOM      7  C   UNL     1      96.847  -2.959   9.069  1.00  0.00     0.006 C 
BRANCH   7   8
ATOM      8  C   UNL     1      97.023  -3.610   7.691  1.00  0.00     0.053 C 
BRANCH   8   9
ATOM      9  C   UNL     1      98.232  -3.060   7.003  1.00  0.00     0.041 C 
ATOM     10  O   UNL     1      98.699  -3.635   5.985  1.00  0.00    -0.550 OA
ATOM     11  O   UNL     1      98.867  -1.931   7.507  1.00  0.00    -0.550 OA
ENDBRANCH   8   9
ENDBRANCH   7   8
ENDBRANCH   6   7
ENDBRANCH   5   6
ENDBRANCH   4   5
ENDBRANCH   3   4
ENDBRANCH   2   3
ENDBRANCH   1   2
BRANCH   1  12
ATOM     12  C   UNL     1      93.571  -1.671   6.757  1.00  0.00     0.000 C 
BRANCH  12  13
ATOM     13  C   UNL     1      92.924  -0.840   5.633  1.00  0.00    -0.000 C 
BRANCH  13  14
ATOM     14  C   UNL     1      91.499  -0.373   5.975  1.00  0.00    -0.000 C 
BRANCH  14  15
ATOM     15  C   UNL     1      90.464  -0.827   4.933  1.00  0.00    -0.000 C 
BRANCH  15  16
ATOM     16  C   UNL     1      89.171  -1.363   5.571  1.00  0.00    -0.000 C 
BRANCH  16  17
ATOM     17  C   UNL     1      89.288  -2.854   5.956  1.00  0.00    -0.000 C 
BRANCH  17  18
ATOM     18  C   UNL     1      89.906  -3.727   4.852  1.00  0.00    -0.000 C 
BRANCH  18  19
ATOM     19  C   UNL     1      90.618  -4.971   5.403  1.00  0.00    -0.003 C 
ATOM     20  C   UNL     1      90.066  -5.358   6.771  1.00  0.00     0.004 C 
ENDBRANCH  18  19
ENDBRANCH  17  18
ENDBRANCH  16  17
ENDBRANCH  15  16
ENDBRANCH  14  15
ENDBRANCH  13  14
ENDBRANCH  12  13
ENDBRANCH   1  12
TORSDOF 16
ENDMDL
MODEL 4
REMARK VINA RESULT:    -5.963     10.060     13.502
REMARK INTER + INTRA:         -13.641
REMARK INTER:                 -11.636
REMARK INTRA:                  -2.005
REMARK UNBOUND:                -2.101
REMARK SMILES CCCCCCCCCCCCCCCCCC(=O)[O-]
REMARK SMILES IDX 10 1 11 2 12 3 13 4 14 5 15 6 16 7 17 8 18 9 19 10 20 11
REMARK SMILES IDX 9 12 8 13 7 14 6 15 5 16 4 17 3 18 2 19 1 20
REMARK H PARENT
REMARK Flexibility Score: inf
ROOT
ATOM      1  C   UNL     1      83.269   0.788  -0.039  1.00  0.00     0.000 C 
ENDROOT
BRANCH   1   2
ATOM      2  C   UNL     1      82.002   1.200  -0.803  1.00  0.00     0.000 C 
BRANCH   2   3
ATOM      3  C   UNL     1      81.465   2.545  -0.298  1.00  0.00     0.000 C 
BRANCH   3   4
ATOM      4  C   UNL     1      80.076   2.375   0.338  1.00  0.00     0.000 C 
BRANCH   4   5
ATOM      5  C   UNL     1      80.078   2.668   1.847  1.00  0.00     0.000 C 
BRANCH   5   6
ATOM      6  C   UNL     1      81.484   2.991   2.382  1.00  0.00     0.000 C 
BRANCH   6   7
ATOM      7  C   UNL     1      81.782   2.294   3.720  1.00  0.00     0.006 C 
BRANCH   7   8
ATOM      8  C   UNL     1      80.797   2.692   4.827  1.00  0.00     0.053 C 
BRANCH   8   9
ATOM      9  C   UNL     1      81.419   3.697   5.744  1.00  0.00     0.041 C 
ATOM     10  O   UNL     1      80.855   4.001   6.828  1.00  0.00    -0.550 OA
ATOM     11  O   UNL     1      82.606   4.325   5.386  1.00  0.00    -0.550 OA
ENDBRANCH   8   9
ENDBRANCH   7   8
ENDBRANCH   6   7
ENDBRANCH   5   6
ENDBRANCH   4   5
ENDBRANCH   3   4
ENDBRANCH   2   3
ENDBRANCH   1   2
BRANCH   1  12
ATOM     12  C   UNL     1      83.125  -0.565   0.682  1.00  0.00     0.000 C 
BRANCH  12  13
ATOM     13  C   UNL     1      81.715  -1.185   0.639  1.00  0.00    -0.000 C 
BRANCH  13  14
ATOM     14  C   UNL     1      81.673  -2.529  -0.108  1.00  0.00    -0.000 C 
BRANCH  14  15
ATOM     15  C   UNL     1      81.695  -3.735   0.846  1.00  0.00    -0.000 C 
BRANCH  15  16
ATOM     16  C   UNL     1      81.085  -3.416   2.222  1.00  0.00    -0.000 C 
BRANCH  16  17
ATOM     17  C   UNL     1      82.142  -3.443   3.347  1.00  0.00    -0.000 C 
BRANCH  17  18
ATOM     18  C   UNL     1      83.576  -3.662   2.838  1.00  0.00    -0.000 C 
BRANCH  18  19
ATOM     19  C   UNL     1      84.572  -2.636   3.396  1.00  0.00    -0.003 C 
ATOM     20  C   UNL     1      85.842  -2.589   2.553  1.00  0.00     0.004 C 
ENDBRANCH  18  19
ENDBRANCH  17  18
ENDBRANCH  16  17
ENDBRANCH  15  16
ENDBRANCH  14  15
ENDBRANCH  13  14
ENDBRANCH  12  13
ENDBRANCH   1  12
TORSDOF 16
ENDMDL
MODEL 5
REMARK VINA RESULT:    -5.921      6.033     11.255
REMARK INTER + INTRA:         -13.560
REMARK INTER:                 -11.714
REMARK INTRA:                  -1.846
REMARK UNBOUND:                -2.101
REMARK SMILES CCCCCCCCCCCCCCCCCC(=O)[O-]
REMARK SMILES IDX 10 1 11 2 12 3 13 4 14 5 15 6 16 7 17 8 18 9 19 10 20 11
REMARK SMILES IDX 9 12 8 13 7 14 6 15 5 16 4 17 3 18 2 19 1 20
REMARK H PARENT
REMARK Flexibility Score: inf
ROOT
ATOM      1  C   UNL     1      85.200  -2.353   2.151  1.00  0.00     0.000 C 
ENDROOT
BRANCH   1   2
ATOM      2  C   UNL     1      86.631  -2.695   2.593  1.00  0.00     0.000 C 
BRANCH   2   3
ATOM      3  C   UNL     1      87.665  -2.054   1.659  1.00  0.00     0.000 C 
BRANCH   3   4
ATOM      4  C   UNL     1      89.088  -2.498   2.031  1.00  0.00     0.000 C 
BRANCH   4   5
ATOM      5  C   UNL     1      89.172  -3.090   3.447  1.00  0.00     0.000 C 
BRANCH   5   6
ATOM      6  C   UNL     1      89.810  -2.117   4.454  1.00  0.00     0.000 C 
BRANCH   6   7
ATOM      7  C   UNL     1      88.953  -1.926   5.715  1.00  0.00     0.006 C 
BRANCH   7   8
ATOM      8  C   UNL     1      87.949  -3.067   5.928  1.00  0.00     0.053 C 
BRANCH   8   9
ATOM      9  C   UNL     1      86.614  -2.523   6.327  1.00  0.00     0.041 C 
ATOM     10  O   UNL     1      85.683  -3.304   6.652  1.00  0.00    -0.550 OA
ATOM     11  O   UNL     1      86.387  -1.153   6.304  1.00  0.00    -0.550 OA
ENDBRANCH   8   9
ENDBRANCH   7   8
ENDBRANCH   6   7
ENDBRANCH   5   6
ENDBRANCH   4   5
ENDBRANCH   3   4
ENDBRANCH   2   3
ENDBRANCH   1   2
BRANCH   1  12
ATOM     12  C   UNL     1      84.211  -2.262   3.328  1.00  0.00     0.000 C 
BRANCH  12  13
ATOM     13  C   UNL     1      83.279  -3.477   3.498  1.00  0.00    -0.000 C 
BRANCH  13  14
ATOM     14  C   UNL     1      82.545  -3.857   2.201  1.00  0.00    -0.000 C 
BRANCH  14  15
ATOM     15  C   UNL     1      81.061  -3.456   2.225  1.00  0.00    -0.000 C 
BRANCH  15  16
ATOM     16  C   UNL     1      80.651  -2.611   1.006  1.00  0.00    -0.000 C 
BRANCH  16  17
ATOM     17  C   UNL     1      81.869  -1.965   0.310  1.00  0.00    -0.000 C 
BRANCH  17  18
ATOM     18  C   UNL     1      81.903  -0.432   0.427  1.00  0.00    -0.000 C 
BRANCH  18  19
ATOM     19  C   UNL     1      83.329   0.136   0.428  1.00  0.00    -0.003 C 
ATOM     20  C   UNL     1      83.645   0.827  -0.894  1.00  0.00     0.004 C 
ENDBRANCH  18  19
ENDBRANCH  17  18
ENDBRANCH  16  17
ENDBRANCH  15  16
ENDBRANCH  14  15
ENDBRANCH  13  14
ENDBRANCH  12  13
ENDBRANCH   1  12
TORSDOF 16
ENDMDL
MODEL 6
REMARK VINA RESULT:    -5.871     12.338     14.896
REMARK INTER + INTRA:         -13.463
REMARK INTER:                 -12.041
REMARK INTRA:                  -1.422
REMARK UNBOUND:                -2.101
REMARK SMILES CCCCCCCCCCCCCCCCCC(=O)[O-]
REMARK SMILES IDX 10 1 11 2 12 3 13 4 14 5 15 6 16 7 17 8 18 9 19 10 20 11
REMARK SMILES IDX 9 12 8 13 7 14 6 15 5 16 4 17 3 18 2 19 1 20
REMARK H PARENT
REMARK Flexibility Score: inf
ROOT
ATOM      1  C   UNL     1      94.226  -7.887  -3.394  1.00  0.00     0.000 C 
ENDROOT
BRANCH   1   2
ATOM      2  C   UNL     1      94.133  -8.163  -4.903  1.00  0.00     0.000 C 
BRANCH   2   3
ATOM      3  C   UNL     1      95.447  -8.742  -5.441  1.00  0.00     0.000 C 
BRANCH   3   4
ATOM      4  C   UNL     1      95.700  -8.278  -6.884  1.00  0.00     0.000 C 
BRANCH   4   5
ATOM      5  C   UNL     1      95.261  -6.824  -7.123  1.00  0.00     0.000 C 
BRANCH   5   6
ATOM      6  C   UNL     1      96.410  -5.822  -6.913  1.00  0.00     0.000 C 
BRANCH   6   7
ATOM      7  C   UNL     1      96.363  -5.150  -5.531  1.00  0.00     0.006 C 
BRANCH   7   8
ATOM      8  C   UNL     1      97.429  -4.058  -5.367  1.00  0.00     0.053 C 
BRANCH   8   9
ATOM      9  C   UNL     1      96.863  -2.718  -5.714  1.00  0.00     0.041 C 
ATOM     10  O   UNL     1      97.389  -1.670  -5.256  1.00  0.00    -0.550 OA
ATOM     11  O   UNL     1      95.730  -2.626  -6.513  1.00  0.00    -0.550 OA
ENDBRANCH   8   9
ENDBRANCH   7   8
ENDBRANCH   6   7
ENDBRANCH   5   6
ENDBRANCH   4   5
ENDBRANCH   3   4
ENDBRANCH   2   3
ENDBRANCH   1   2
BRANCH   1  12
ATOM     12  C   UNL     1      93.143  -8.617  -2.580  1.00  0.00     0.000 C 
BRANCH  12  13
ATOM     13  C   UNL     1      91.961  -9.166  -3.401  1.00  0.00    -0.000 C 
BRANCH  13  14
ATOM     14  C   UNL     1      90.602  -8.610  -2.942  1.00  0.00    -0.000 C 
BRANCH  14  15
ATOM     15  C   UNL     1      89.548  -8.635  -4.061  1.00  0.00    -0.000 C 
BRANCH  15  16
ATOM     16  C   UNL     1      90.166  -8.526  -5.465  1.00  0.00    -0.000 C 
BRANCH  16  17
ATOM     17  C   UNL     1      90.146  -7.078  -5.999  1.00  0.00    -0.000 C 
BRANCH  17  18
ATOM     18  C   UNL     1      88.738  -6.572  -6.352  1.00  0.00    -0.000 C 
BRANCH  18  19
ATOM     19  C   UNL     1      88.531  -5.090  -6.008  1.00  0.00    -0.003 C 
ATOM     20  C   UNL     1      88.226  -4.910  -4.524  1.00  0.00     0.004 C 
ENDBRANCH  18  19
ENDBRANCH  17  18
ENDBRANCH  16  17
ENDBRANCH  15  16
ENDBRANCH  14  15
ENDBRANCH  13  14
ENDBRANCH  12  13
ENDBRANCH   1  12
TORSDOF 16
ENDMDL
MODEL 7
REMARK VINA RESULT:    -5.821     11.463     13.998
REMARK INTER + INTRA:         -13.366
REMARK INTER:                 -11.633
REMARK INTRA:                  -1.733
REMARK UNBOUND:                -2.101
REMARK SMILES CCCCCCCCCCCCCCCCCC(=O)[O-]
REMARK SMILES IDX 10 1 11 2 12 3 13 4 14 5 15 6 16 7 17 8 18 9 19 10 20 11
REMARK SMILES IDX 9 12 8 13 7 14 6 15 5 16 4 17 3 18 2 19 1 20
REMARK H PARENT
REMARK Flexibility Score: inf
ROOT
ATOM      1  C   UNL     1      82.052   2.260  -0.327  1.00  0.00     0.000 C 
ENDROOT
BRANCH   1   2
ATOM      2  C   UNL     1      80.682   1.878   0.253  1.00  0.00     0.000 C 
BRANCH   2   3
ATOM      3  C   UNL     1      80.396   2.647   1.548  1.00  0.00     0.000 C 
BRANCH   3   4
ATOM      4  C   UNL     1      81.696   2.918   2.323  1.00  0.00     0.000 C 
BRANCH   4   5
ATOM      5  C   UNL     1      81.627   2.431   3.780  1.00  0.00     0.000 C 
BRANCH   5   6
ATOM      6  C   UNL     1      80.416   3.006   4.536  1.00  0.00     0.000 C 
BRANCH   6   7
ATOM      7  C   UNL     1      80.596   2.959   6.062  1.00  0.00     0.006 C 
BRANCH   7   8
ATOM      8  C   UNL     1      80.545   4.351   6.707  1.00  0.00     0.053 C 
BRANCH   8   9
ATOM      9  C   UNL     1      81.806   5.104   6.426  1.00  0.00     0.041 C 
ATOM     10  O   UNL     1      81.763   6.333   6.157  1.00  0.00    -0.550 OA
ATOM     11  O   UNL     1      83.027   4.442   6.425  1.00  0.00    -0.550 OA
ENDBRANCH   8   9
ENDBRANCH   7   8
ENDBRANCH   6   7
ENDBRANCH   5   6
ENDBRANCH   4   5
ENDBRANCH   3   4
ENDBRANCH   2   3
ENDBRANCH   1   2
BRANCH   1  12
ATOM     12  C   UNL     1      82.950   1.041  -0.608  1.00  0.00     0.000 C 
BRANCH  12  13
ATOM     13  C   UNL     1      82.531  -0.261   0.102  1.00  0.00    -0.000 C 
BRANCH  13  14
ATOM     14  C   UNL     1      83.223  -0.453   1.461  1.00  0.00    -0.000 C 
BRANCH  14  15
ATOM     15  C   UNL     1      84.012  -1.770   1.539  1.00  0.00    -0.000 C 
BRANCH  15  16
ATOM     16  C   UNL     1      83.676  -2.593   2.796  1.00  0.00    -0.000 C 
BRANCH  16  17
ATOM     17  C   UNL     1      82.797  -3.819   2.469  1.00  0.00    -0.000 C 
BRANCH  17  18
ATOM     18  C   UNL     1      81.291  -3.560   2.642  1.00  0.00    -0.000 C 
BRANCH  18  19
ATOM     19  C   UNL     1      80.611  -3.105   1.343  1.00  0.00    -0.003 C 
ATOM     20  C   UNL     1      81.254  -3.763   0.127  1.00  0.00     0.004 C 
ENDBRANCH  18  19
ENDBRANCH  17  18
ENDBRANCH  16  17
ENDBRANCH  15  16
ENDBRANCH  14  15
ENDBRANCH  13  14
ENDBRANCH  12  13
ENDBRANCH   1  12
TORSDOF 16
ENDMDL
MODEL 8
REMARK VINA RESULT:    -5.792      7.901     13.322
REMARK INTER + INTRA:         -13.309
REMARK INTER:                 -11.567
REMARK INTRA:                  -1.742
REMARK UNBOUND:                -2.101
REMARK SMILES CCCCCCCCCCCCCCCCCC(=O)[O-]
REMARK SMILES IDX 10 1 11 2 12 3 13 4 14 5 15 6 16 7 17 8 18 9 19 10 20 11
REMARK SMILES IDX 9 12 8 13 7 14 6 15 5 16 4 17 3 18 2 19 1 20
REMARK H PARENT
REMARK Flexibility Score: inf
ROOT
ATOM      1  C   UNL     1      81.792  -2.944  -0.247  1.00  0.00     0.000 C 
ENDROOT
BRANCH   1   2
ATOM      2  C   UNL     1      81.699  -3.956   0.905  1.00  0.00     0.000 C 
BRANCH   2   3
ATOM      3  C   UNL     1      81.132  -3.302   2.171  1.00  0.00     0.000 C 
BRANCH   3   4
ATOM      4  C   UNL     1      82.124  -3.416   3.338  1.00  0.00     0.000 C 
BRANCH   4   5
ATOM      5  C   UNL     1      83.556  -3.722   2.869  1.00  0.00     0.000 C 
BRANCH   5   6
ATOM      6  C   UNL     1      84.578  -2.695   3.389  1.00  0.00     0.000 C 
BRANCH   6   7
ATOM      7  C   UNL     1      85.811  -2.576   2.479  1.00  0.00     0.006 C 
BRANCH   7   8
ATOM      8  C   UNL     1      87.131  -2.665   3.256  1.00  0.00     0.053 C 
BRANCH   8   9
ATOM      9  C   UNL     1      88.274  -2.223   2.397  1.00  0.00     0.041 C 
ATOM     10  O   UNL     1      89.451  -2.560   2.688  1.00  0.00    -0.550 OA
ATOM     11  O   UNL     1      88.043  -1.408   1.296  1.00  0.00    -0.550 OA
ENDBRANCH   8   9
ENDBRANCH   7   8
ENDBRANCH   6   7
ENDBRANCH   5   6
ENDBRANCH   4   5
ENDBRANCH   3   4
ENDBRANCH   2   3
ENDBRANCH   1   2
BRANCH   1  12
ATOM     12  C   UNL     1      81.785  -1.482   0.234  1.00  0.00     0.000 C 
BRANCH  12  13
ATOM     13  C   UNL     1      83.176  -0.850   0.435  1.00  0.00    -0.000 C 
BRANCH  13  14
ATOM     14  C   UNL     1      83.181   0.672   0.212  1.00  0.00    -0.000 C 
BRANCH  14  15
ATOM     15  C   UNL     1      82.026   1.139  -0.690  1.00  0.00    -0.000 C 
BRANCH  15  16
ATOM     16  C   UNL     1      81.353   2.425  -0.180  1.00  0.00    -0.000 C 
BRANCH  16  17
ATOM     17  C   UNL     1      80.112   2.126   0.687  1.00  0.00    -0.000 C 
BRANCH  17  18
ATOM     18  C   UNL     1      80.118   2.854   2.042  1.00  0.00    -0.000 C 
BRANCH  18  19
ATOM     19  C   UNL     1      81.491   2.826   2.728  1.00  0.00    -0.003 C 
ATOM     20  C   UNL     1      81.347   2.666   4.238  1.00  0.00     0.004 C 
ENDBRANCH  18  19
ENDBRANCH  17  18
ENDBRANCH  16  17
ENDBRANCH  15  16
ENDBRANCH  14  15
ENDBRANCH  13  14
ENDBRANCH  12  13
ENDBRANCH   1  12
TORSDOF 16
ENDMDL
MODEL 9
REMARK VINA RESULT:    -5.762      2.085      3.073
REMARK INTER + INTRA:         -13.251
REMARK INTER:                 -11.605
REMARK INTRA:                  -1.646
REMARK UNBOUND:                -2.101
REMARK SMILES CCCCCCCCCCCCCCCCCC(=O)[O-]
REMARK SMILES IDX 10 1 11 2 12 3 13 4 14 5 15 6 16 7 17 8 18 9 19 10 20 11
REMARK SMILES IDX 9 12 8 13 7 14 6 15 5 16 4 17 3 18 2 19 1 20
REMARK H PARENT
REMARK Flexibility Score: inf
ROOT
ATOM      1  C   UNL     1      93.375  -4.004   8.612  1.00  0.00     0.000 C 
ENDROOT
BRANCH   1   2
ATOM      2  C   UNL     1      93.072  -2.694   7.869  1.00  0.00     0.000 C 
BRANCH   2   3
ATOM      3  C   UNL     1      91.892  -2.867   6.904  1.00  0.00     0.000 C 
BRANCH   3   4
ATOM      4  C   UNL     1      91.508  -4.348   6.768  1.00  0.00     0.000 C 
BRANCH   4   5
ATOM      5  C   UNL     1      90.071  -4.542   6.257  1.00  0.00     0.000 C 
BRANCH   5   6
ATOM      6  C   UNL     1      89.925  -4.191   4.766  1.00  0.00     0.000 C 
BRANCH   6   7
ATOM      7  C   UNL     1      88.816  -3.159   4.508  1.00  0.00     0.006 C 
BRANCH   7   8
ATOM      8  C   UNL     1      88.276  -2.533   5.801  1.00  0.00     0.053 C 
BRANCH   8   9
ATOM      9  C   UNL     1      86.800  -2.748   5.910  1.00  0.00     0.041 C 
ATOM     10  O   UNL     1      86.336  -3.530   6.780  1.00  0.00    -0.550 OA
ATOM     11  O   UNL     1      85.937  -2.112   5.026  1.00  0.00    -0.550 OA
ENDBRANCH   8   9
ENDBRANCH   7   8
ENDBRANCH   6   7
ENDBRANCH   5   6
ENDBRANCH   4   5
ENDBRANCH   3   4
ENDBRANCH   2   3
ENDBRANCH   1   2
BRANCH   1  12
ATOM     12  C   UNL     1      93.922  -3.778  10.033  1.00  0.00     0.000 C 
BRANCH  12  13
ATOM     13  C   UNL     1      95.006  -4.775  10.486  1.00  0.00    -0.000 C 
BRANCH  13  14
ATOM     14  C   UNL     1      96.331  -4.091  10.861  1.00  0.00    -0.000 C 
BRANCH  14  15
ATOM     15  C   UNL     1      96.485  -2.707  10.208  1.00  0.00    -0.000 C 
BRANCH  15  16
ATOM     16  C   UNL     1      97.481  -2.709   9.035  1.00  0.00    -0.000 C 
BRANCH  16  17
ATOM     17  C   UNL     1      96.793  -3.019   7.688  1.00  0.00    -0.000 C 
BRANCH  17  18
ATOM     18  C   UNL     1      97.242  -4.350   7.061  1.00  0.00    -0.000 C 
BRANCH  18  19
ATOM     19  C   UNL     1      98.766  -4.529   7.067  1.00  0.00    -0.003 C 
ATOM     20  C   UNL     1      99.319  -4.576   5.646  1.00  0.00     0.004 C 
ENDBRANCH  18  19
ENDBRANCH  17  18
ENDBRANCH  16  17
ENDBRANCH  15  16
ENDBRANCH  14  15
ENDBRANCH  13  14
ENDBRANCH  12  13
ENDBRANCH   1  12
TORSDOF 16
ENDMDL
