MODEL 1
REMARK VINA RESULT:    -3.090      0.000      0.000
REMARK INTER + INTRA:         -13.553
REMARK INTER:                  -8.148
REMARK INTRA:                  -5.405
REMARK UNBOUND:                -5.405
REMARK SMILES CCCCCCCCCCCCCCCCCCCCCCCCCCCCCC(=O)[O-]
REMARK SMILES IDX 16 1 17 2 18 3 19 4 20 5 21 6 22 7 23 8 24 9 25 10 26 11
REMARK SMILES IDX 27 12 28 13 29 14 30 15 31 16 32 17 15 18 14 19 13 20 12 21
REMARK SMILES IDX 11 22 10 23 9 24 8 25 7 26 6 27 5 28 4 29 3 30 2 31 1 32
REMARK H PARENT
REMARK Flexibility Score: inf
ROOT
ATOM      1  C   UNL     1      58.087   3.795  95.634  1.00  0.00     0.000 C 
ENDROOT
BRANCH   1   2
ATOM      2  C   UNL     1      57.411   3.191  96.874  1.00  0.00     0.000 C 
BRANCH   2   3
ATOM      3  C   UNL     1      57.737   1.695  97.002  1.00  0.00     0.000 C 
BRANCH   3   4
ATOM      4  C   UNL     1      59.137   1.340  96.469  1.00  0.00     0.000 C 
BRANCH   4   5
ATOM      5  C   UNL     1      59.437  -0.169  96.378  1.00  0.00     0.000 C 
BRANCH   5   6
ATOM      6  C   UNL     1      60.886  -0.526  95.989  1.00  0.00     0.000 C 
BRANCH   6   7
ATOM      7  C   UNL     1      61.084  -0.940  94.519  1.00  0.00     0.000 C 
BRANCH   7   8
ATOM      8  C   UNL     1      59.754  -1.212  93.796  1.00  0.00     0.000 C 
BRANCH   8   9
ATOM      9  C   UNL     1      59.814  -0.861  92.300  1.00  0.00     0.000 C 
BRANCH   9  10
ATOM     10  C   UNL     1      58.736   0.152  91.885  1.00  0.00     0.000 C 
BRANCH  10  11
ATOM     11  C   UNL     1      58.139   0.846  93.118  1.00  0.00     0.000 C 
BRANCH  11  12
ATOM     12  C   UNL     1      56.697   1.337  92.891  1.00  0.00     0.000 C 
BRANCH  12  13
ATOM     13  C   UNL     1      55.683   0.892  93.961  1.00  0.00     0.006 C 
BRANCH  13  14
ATOM     14  C   UNL     1      55.774  -0.605  94.289  1.00  0.00     0.053 C 
BRANCH  14  15
ATOM     15  C   UNL     1      55.444  -0.855  95.726  1.00  0.00     0.041 C 
ATOM     16  O   UNL     1      56.235  -1.514  96.453  1.00  0.00    -0.550 OA
ATOM     17  O   UNL     1      54.256  -0.375  96.260  1.00  0.00    -0.550 OA
ENDBRANCH  14  15
ENDBRANCH  13  14
ENDBRANCH  12  13
ENDBRANCH  11  12
ENDBRANCH  10  11
ENDBRANCH   9  10
ENDBRANCH   8   9
ENDBRANCH   7   8
ENDBRANCH   6   7
ENDBRANCH   5   6
ENDBRANCH   4   5
ENDBRANCH   3   4
ENDBRANCH   2   3
ENDBRANCH   1   2
BRANCH   1  18
ATOM     18  C   UNL     1      58.463   5.274  95.825  1.00  0.00     0.000 C 
BRANCH  18  19
ATOM     19  C   UNL     1      59.683   5.457  96.745  1.00  0.00     0.000 C 
BRANCH  19  20
ATOM     20  C   UNL     1      60.774   6.344  96.120  1.00  0.00     0.000 C 
BRANCH  20  21
ATOM     21  C   UNL     1      60.476   6.851  94.693  1.00  0.00     0.000 C 
BRANCH  21  22
ATOM     22  C   UNL     1      60.794   8.338  94.439  1.00  0.00     0.000 C 
BRANCH  22  23
ATOM     23  C   UNL     1      59.570   9.227  94.149  1.00  0.00     0.000 C 
BRANCH  23  24
ATOM     24  C   UNL     1      58.337   8.838  94.980  1.00  0.00    -0.000 C 
BRANCH  24  25
ATOM     25  C   UNL     1      57.130   8.444  94.109  1.00  0.00    -0.000 C 
BRANCH  25  26
ATOM     26  C   UNL     1      57.282   8.744  92.605  1.00  0.00    -0.000 C 
BRANCH  26  27
ATOM     27  C   UNL     1      57.224   7.508  91.685  1.00  0.00    -0.000 C 
BRANCH  27  28
ATOM     28  C   UNL     1      58.019   6.278  92.175  1.00  0.00    -0.000 C 
BRANCH  28  29
ATOM     29  C   UNL     1      57.213   4.964  92.252  1.00  0.00    -0.000 C 
BRANCH  29  30
ATOM     30  C   UNL     1      55.889   5.086  93.041  1.00  0.00    -0.000 C 
BRANCH  30  31
ATOM     31  C   UNL     1      54.687   4.449  92.325  1.00  0.00    -0.003 C 
ATOM     32  C   UNL     1      54.767   4.575  90.804  1.00  0.00     0.004 C 
ENDBRANCH  30  31
ENDBRANCH  29  30
ENDBRANCH  28  29
ENDBRANCH  27  28
ENDBRANCH  26  27
ENDBRANCH  25  26
ENDBRANCH  24  25
ENDBRANCH  23  24
ENDBRANCH  22  23
ENDBRANCH  21  22
ENDBRANCH  20  21
ENDBRANCH  19  20
ENDBRANCH  18  19
ENDBRANCH   1  18
TORSDOF 28
ENDMDL
MODEL 2
REMARK VINA RESULT:    -3.037      2.008      5.990
REMARK INTER + INTRA:         -13.414
REMARK INTER:                  -8.841
REMARK INTRA:                  -4.572
REMARK UNBOUND:                -5.405
REMARK SMILES CCCCCCCCCCCCCCCCCCCCCCCCCCCCCC(=O)[O-]
REMARK SMILES IDX 16 1 17 2 18 3 19 4 20 5 21 6 22 7 23 8 24 9 25 10 26 11
REMARK SMILES IDX 27 12 28 13 29 14 30 15 31 16 32 17 15 18 14 19 13 20 12 21
REMARK SMILES IDX 11 22 10 23 9 24 8 25 7 26 6 27 5 28 4 29 3 30 2 31 1 32
REMARK H PARENT
REMARK Flexibility Score: inf
ROOT
ATOM      1  C   UNL     1      58.006  -2.696  89.431  1.00  0.00     0.000 C 
ENDROOT
BRANCH   1   2
ATOM      2  C   UNL     1      58.820  -3.902  89.924  1.00  0.00     0.000 C 
BRANCH   2   3
ATOM      3  C   UNL     1      60.323  -3.586  89.926  1.00  0.00     0.000 C 
BRANCH   3   4
ATOM      4  C   UNL     1      60.969  -3.765  91.313  1.00  0.00     0.000 C 
BRANCH   4   5
ATOM      5  C   UNL     1      59.978  -4.025  92.465  1.00  0.00     0.000 C 
BRANCH   5   6
ATOM      6  C   UNL     1      59.802  -2.853  93.452  1.00  0.00     0.000 C 
BRANCH   6   7
ATOM      7  C   UNL     1      60.610  -1.587  93.112  1.00  0.00     0.000 C 
BRANCH   7   8
ATOM      8  C   UNL     1      60.313  -0.420  94.068  1.00  0.00     0.000 C 
BRANCH   8   9
ATOM      9  C   UNL     1      60.810  -0.687  95.498  1.00  0.00     0.000 C 
BRANCH   9  10
ATOM     10  C   UNL     1      59.978   0.044  96.562  1.00  0.00     0.000 C 
BRANCH  10  11
ATOM     11  C   UNL     1      58.796   0.782  95.915  1.00  0.00     0.000 C 
BRANCH  11  12
ATOM     12  C   UNL     1      57.437   0.124  96.222  1.00  0.00     0.000 C 
BRANCH  12  13
ATOM     13  C   UNL     1      57.508  -1.368  96.599  1.00  0.00     0.006 C 
BRANCH  13  14
ATOM     14  C   UNL     1      56.739  -2.272  95.624  1.00  0.00     0.053 C 
BRANCH  14  15
ATOM     15  C   UNL     1      55.479  -2.778  96.251  1.00  0.00     0.041 C 
ATOM     16  O   UNL     1      54.462  -2.038  96.320  1.00  0.00    -0.550 OA
ATOM     17  O   UNL     1      55.432  -4.063  96.776  1.00  0.00    -0.550 OA
ENDBRANCH  14  15
ENDBRANCH  13  14
ENDBRANCH  12  13
ENDBRANCH  11  12
ENDBRANCH  10  11
ENDBRANCH   9  10
ENDBRANCH   8   9
ENDBRANCH   7   8
ENDBRANCH   6   7
ENDBRANCH   5   6
ENDBRANCH   4   5
ENDBRANCH   3   4
ENDBRANCH   2   3
ENDBRANCH   1   2
BRANCH   1  18
ATOM     18  C   UNL     1      58.001  -1.533  90.438  1.00  0.00     0.000 C 
BRANCH  18  19
ATOM     19  C   UNL     1      56.802  -1.594  91.401  1.00  0.00     0.000 C 
BRANCH  19  20
ATOM     20  C   UNL     1      56.967  -0.667  92.619  1.00  0.00     0.000 C 
BRANCH  20  21
ATOM     21  C   UNL     1      57.470   0.758  92.301  1.00  0.00     0.000 C 
BRANCH  21  22
ATOM     22  C   UNL     1      56.379   1.847  92.249  1.00  0.00     0.000 C 
BRANCH  22  23
ATOM     23  C   UNL     1      56.886   3.262  91.916  1.00  0.00     0.000 C 
BRANCH  23  24
ATOM     24  C   UNL     1      56.297   4.342  92.838  1.00  0.00    -0.000 C 
BRANCH  24  25
ATOM     25  C   UNL     1      57.338   4.932  93.808  1.00  0.00    -0.000 C 
BRANCH  25  26
ATOM     26  C   UNL     1      57.261   4.402  95.253  1.00  0.00    -0.000 C 
BRANCH  26  27
ATOM     27  C   UNL     1      57.034   5.480  96.331  1.00  0.00    -0.000 C 
BRANCH  27  28
ATOM     28  C   UNL     1      58.292   5.908  97.118  1.00  0.00    -0.000 C 
BRANCH  28  29
ATOM     29  C   UNL     1      59.550   5.052  96.862  1.00  0.00    -0.000 C 
BRANCH  29  30
ATOM     30  C   UNL     1      60.700   5.818  96.169  1.00  0.00    -0.000 C 
BRANCH  30  31
ATOM     31  C   UNL     1      60.235   7.076  95.417  1.00  0.00    -0.003 C 
ATOM     32  C   UNL     1      60.638   7.069  93.943  1.00  0.00     0.004 C 
ENDBRANCH  30  31
ENDBRANCH  29  30
ENDBRANCH  28  29
ENDBRANCH  27  28
ENDBRANCH  26  27
ENDBRANCH  25  26
ENDBRANCH  24  25
ENDBRANCH  23  24
ENDBRANCH  22  23
ENDBRANCH  21  22
ENDBRANCH  20  21
ENDBRANCH  19  20
ENDBRANCH  18  19
ENDBRANCH   1  18
TORSDOF 28
ENDMDL
MODEL 3
REMARK VINA RESULT:    -3.004      3.606      7.478
REMARK INTER + INTRA:         -13.326
REMARK INTER:                  -6.635
REMARK INTRA:                  -6.692
REMARK UNBOUND:                -5.405
REMARK SMILES CCCCCCCCCCCCCCCCCCCCCCCCCCCCCC(=O)[O-]
REMARK SMILES IDX 16 1 17 2 18 3 19 4 20 5 21 6 22 7 23 8 24 9 25 10 26 11
REMARK SMILES IDX 27 12 28 13 29 14 30 15 31 16 32 17 15 18 14 19 13 20 12 21
REMARK SMILES IDX 11 22 10 23 9 24 8 25 7 26 6 27 5 28 4 29 3 30 2 31 1 32
REMARK H PARENT
REMARK Flexibility Score: inf
ROOT
ATOM      1  C   UNL     1      59.763   0.869  96.509  1.00  0.00     0.000 C 
ENDROOT
BRANCH   1   2
ATOM      2  C   UNL     1      58.358   1.440  96.753  1.00  0.00     0.000 C 
BRANCH   2   3
ATOM      3  C   UNL     1      58.138   2.723  95.938  1.00  0.00     0.000 C 
BRANCH   3   4
ATOM      4  C   UNL     1      57.004   2.589  94.905  1.00  0.00     0.000 C 
BRANCH   4   5
ATOM      5  C   UNL     1      56.475   1.155  94.700  1.00  0.00     0.000 C 
BRANCH   5   6
ATOM      6  C   UNL     1      56.866   0.499  93.361  1.00  0.00     0.000 C 
BRANCH   6   7
ATOM      7  C   UNL     1      57.481   1.454  92.322  1.00  0.00     0.000 C 
BRANCH   7   8
ATOM      8  C   UNL     1      58.085   0.711  91.118  1.00  0.00     0.000 C 
BRANCH   8   9
ATOM      9  C   UNL     1      57.354   1.026  89.803  1.00  0.00     0.000 C 
BRANCH   9  10
ATOM     10  C   UNL     1      56.060   0.216  89.634  1.00  0.00     0.000 C 
BRANCH  10  11
ATOM     11  C   UNL     1      54.829   1.099  89.885  1.00  0.00     0.000 C 
BRANCH  11  12
ATOM     12  C   UNL     1      53.881   0.520  90.952  1.00  0.00     0.000 C 
BRANCH  12  13
ATOM     13  C   UNL     1      54.312  -0.840  91.535  1.00  0.00     0.006 C 
BRANCH  13  14
ATOM     14  C   UNL     1      53.124  -1.749  91.879  1.00  0.00     0.053 C 
BRANCH  14  15
ATOM     15  C   UNL     1      53.277  -2.327  93.249  1.00  0.00     0.041 C 
ATOM     16  O   UNL     1      53.532  -3.553  93.396  1.00  0.00    -0.550 OA
ATOM     17  O   UNL     1      53.123  -1.517  94.367  1.00  0.00    -0.550 OA
ENDBRANCH  14  15
ENDBRANCH  13  14
ENDBRANCH  12  13
ENDBRANCH  11  12
ENDBRANCH  10  11
ENDBRANCH   9  10
ENDBRANCH   8   9
ENDBRANCH   7   8
ENDBRANCH   6   7
ENDBRANCH   5   6
ENDBRANCH   4   5
ENDBRANCH   3   4
ENDBRANCH   2   3
ENDBRANCH   1   2
BRANCH   1  18
ATOM     18  C   UNL     1      59.742  -0.430  95.687  1.00  0.00     0.000 C 
BRANCH  18  19
ATOM     19  C   UNL     1      60.370  -0.255  94.294  1.00  0.00     0.000 C 
BRANCH  19  20
ATOM     20  C   UNL     1      60.077  -1.439  93.354  1.00  0.00     0.000 C 
BRANCH  20  21
ATOM     21  C   UNL     1      60.744  -2.775  93.748  1.00  0.00     0.000 C 
BRANCH  21  22
ATOM     22  C   UNL     1      60.627  -3.905  92.705  1.00  0.00     0.000 C 
BRANCH  22  23
ATOM     23  C   UNL     1      61.125  -3.545  91.293  1.00  0.00     0.000 C 
BRANCH  23  24
ATOM     24  C   UNL     1      60.088  -3.842  90.198  1.00  0.00    -0.000 C 
BRANCH  24  25
ATOM     25  C   UNL     1      59.106  -2.676  89.975  1.00  0.00    -0.000 C 
BRANCH  25  26
ATOM     26  C   UNL     1      57.622  -3.014  90.219  1.00  0.00    -0.000 C 
BRANCH  26  27
ATOM     27  C   UNL     1      57.154  -2.872  91.680  1.00  0.00    -0.000 C 
BRANCH  27  28
ATOM     28  C   UNL     1      56.790  -4.193  92.393  1.00  0.00    -0.000 C 
BRANCH  28  29
ATOM     29  C   UNL     1      57.064  -4.217  93.911  1.00  0.00    -0.000 C 
BRANCH  29  30
ATOM     30  C   UNL     1      56.946  -2.834  94.591  1.00  0.00    -0.000 C 
BRANCH  30  31
ATOM     31  C   UNL     1      56.057  -2.840  95.846  1.00  0.00    -0.003 C 
ATOM     32  C   UNL     1      56.595  -1.942  96.958  1.00  0.00     0.004 C 
ENDBRANCH  30  31
ENDBRANCH  29  30
ENDBRANCH  28  29
ENDBRANCH  27  28
ENDBRANCH  26  27
ENDBRANCH  25  26
ENDBRANCH  24  25
ENDBRANCH  23  24
ENDBRANCH  22  23
ENDBRANCH  21  22
ENDBRANCH  20  21
ENDBRANCH  19  20
ENDBRANCH  18  19
ENDBRANCH   1  18
TORSDOF 28
ENDMDL
MODEL 4
REMARK VINA RESULT:    -2.988      3.599      8.133
REMARK INTER + INTRA:         -13.283
REMARK INTER:                  -8.370
REMARK INTRA:                  -4.913
REMARK UNBOUND:                -5.405
REMARK SMILES CCCCCCCCCCCCCCCCCCCCCCCCCCCCCC(=O)[O-]
REMARK SMILES IDX 16 1 17 2 18 3 19 4 20 5 21 6 22 7 23 8 24 9 25 10 26 11
REMARK SMILES IDX 27 12 28 13 29 14 30 15 31 16 32 17 15 18 14 19 13 20 12 21
REMARK SMILES IDX 11 22 10 23 9 24 8 25 7 26 6 27 5 28 4 29 3 30 2 31 1 32
REMARK H PARENT
REMARK Flexibility Score: inf
ROOT
ATOM      1  C   UNL     1      57.741   4.634  94.948  1.00  0.00     0.000 C 
ENDROOT
BRANCH   1   2
ATOM      2  C   UNL     1      57.990   4.926  96.436  1.00  0.00     0.000 C 
BRANCH   2   3
ATOM      3  C   UNL     1      59.379   5.544  96.649  1.00  0.00     0.000 C 
BRANCH   3   4
ATOM      4  C   UNL     1      59.879   6.330  95.422  1.00  0.00     0.000 C 
BRANCH   4   5
ATOM      5  C   UNL     1      60.131   7.831  95.668  1.00  0.00     0.000 C 
BRANCH   5   6
ATOM      6  C   UNL     1      59.147   8.783  94.960  1.00  0.00     0.000 C 
BRANCH   6   7
ATOM      7  C   UNL     1      58.138   8.097  94.021  1.00  0.00     0.000 C 
BRANCH   7   8
ATOM      8  C   UNL     1      56.716   8.058  94.606  1.00  0.00     0.000 C 
BRANCH   8   9
ATOM      9  C   UNL     1      56.669   8.511  96.074  1.00  0.00     0.000 C 
BRANCH   9  10
ATOM     10  C   UNL     1      55.273   8.363  96.697  1.00  0.00     0.000 C 
BRANCH  10  11
ATOM     11  C   UNL     1      54.763   6.922  96.552  1.00  0.00     0.000 C 
BRANCH  11  12
ATOM     12  C   UNL     1      53.396   6.836  95.847  1.00  0.00     0.000 C 
BRANCH  12  13
ATOM     13  C   UNL     1      52.488   8.066  96.037  1.00  0.00     0.006 C 
BRANCH  13  14
ATOM     14  C   UNL     1      51.511   8.278  94.871  1.00  0.00     0.053 C 
BRANCH  14  15
ATOM     15  C   UNL     1      50.311   9.050  95.318  1.00  0.00     0.041 C 
ATOM     16  O   UNL     1      49.193   8.858  94.769  1.00  0.00    -0.550 OA
ATOM     17  O   UNL     1      50.430   9.995  96.329  1.00  0.00    -0.550 OA
ENDBRANCH  14  15
ENDBRANCH  13  14
ENDBRANCH  12  13
ENDBRANCH  11  12
ENDBRANCH  10  11
ENDBRANCH   9  10
ENDBRANCH   8   9
ENDBRANCH   7   8
ENDBRANCH   6   7
ENDBRANCH   5   6
ENDBRANCH   4   5
ENDBRANCH   3   4
ENDBRANCH   2   3
ENDBRANCH   1   2
BRANCH   1  18
ATOM     18  C   UNL     1      56.322   4.108  94.676  1.00  0.00     0.000 C 
BRANCH  18  19
ATOM     19  C   UNL     1      55.746   4.629  93.348  1.00  0.00     0.000 C 
BRANCH  19  20
ATOM     20  C   UNL     1      56.824   4.829  92.267  1.00  0.00     0.000 C 
BRANCH  20  21
ATOM     21  C   UNL     1      56.716   3.890  91.046  1.00  0.00     0.000 C 
BRANCH  21  22
ATOM     22  C   UNL     1      56.422   2.412  91.373  1.00  0.00     0.000 C 
BRANCH  22  23
ATOM     23  C   UNL     1      57.635   1.597  91.858  1.00  0.00     0.000 C 
BRANCH  23  24
ATOM     24  C   UNL     1      57.260   0.519  92.888  1.00  0.00    -0.000 C 
BRANCH  24  25
ATOM     25  C   UNL     1      58.130  -0.746  92.771  1.00  0.00    -0.000 C 
BRANCH  25  26
ATOM     26  C   UNL     1      59.650  -0.496  92.748  1.00  0.00    -0.000 C 
BRANCH  26  27
ATOM     27  C   UNL     1      60.466  -1.350  93.739  1.00  0.00    -0.000 C 
BRANCH  27  28
ATOM     28  C   UNL     1      60.847  -0.650  95.062  1.00  0.00    -0.000 C 
BRANCH  28  29
ATOM     29  C   UNL     1      59.686  -0.449  96.056  1.00  0.00    -0.000 C 
BRANCH  29  30
ATOM     30  C   UNL     1      59.259   1.026  96.232  1.00  0.00    -0.000 C 
BRANCH  30  31
ATOM     31  C   UNL     1      57.765   1.200  96.551  1.00  0.00    -0.003 C 
ATOM     32  C   UNL     1      56.991  -0.116  96.502  1.00  0.00     0.004 C 
ENDBRANCH  30  31
ENDBRANCH  29  30
ENDBRANCH  28  29
ENDBRANCH  27  28
ENDBRANCH  26  27
ENDBRANCH  25  26
ENDBRANCH  24  25
ENDBRANCH  23  24
ENDBRANCH  22  23
ENDBRANCH  21  22
ENDBRANCH  20  21
ENDBRANCH  19  20
ENDBRANCH  18  19
ENDBRANCH   1  18
TORSDOF 28
ENDMDL
MODEL 5
REMARK VINA RESULT:    -2.968      4.058      6.541
REMARK INTER + INTRA:         -13.232
REMARK INTER:                  -6.896
REMARK INTRA:                  -6.336
REMARK UNBOUND:                -5.405
REMARK SMILES CCCCCCCCCCCCCCCCCCCCCCCCCCCCCC(=O)[O-]
REMARK SMILES IDX 16 1 17 2 18 3 19 4 20 5 21 6 22 7 23 8 24 9 25 10 26 11
REMARK SMILES IDX 27 12 28 13 29 14 30 15 31 16 32 17 15 18 14 19 13 20 12 21
REMARK SMILES IDX 11 22 10 23 9 24 8 25 7 26 6 27 5 28 4 29 3 30 2 31 1 32
REMARK H PARENT
REMARK Flexibility Score: inf
ROOT
ATOM      1  C   UNL     1      60.625  -1.225  94.004  1.00  0.00     0.000 C 
ENDROOT
BRANCH   1   2
ATOM      2  C   UNL     1      59.805  -0.969  95.277  1.00  0.00     0.000 C 
BRANCH   2   3
ATOM      3  C   UNL     1      60.647  -0.241  96.335  1.00  0.00     0.000 C 
BRANCH   3   4
ATOM      4  C   UNL     1      59.979   1.050  96.847  1.00  0.00     0.000 C 
BRANCH   4   5
ATOM      5  C   UNL     1      58.832   1.584  95.966  1.00  0.00     0.000 C 
BRANCH   5   6
ATOM      6  C   UNL     1      57.439   1.566  96.627  1.00  0.00     0.000 C 
BRANCH   6   7
ATOM      7  C   UNL     1      56.418   0.618  95.971  1.00  0.00     0.000 C 
BRANCH   7   8
ATOM      8  C   UNL     1      55.846  -0.412  96.960  1.00  0.00     0.000 C 
BRANCH   8   9
ATOM      9  C   UNL     1      56.696  -1.690  97.039  1.00  0.00     0.000 C 
BRANCH   9  10
ATOM     10  C   UNL     1      56.090  -2.856  96.243  1.00  0.00     0.000 C 
BRANCH  10  11
ATOM     11  C   UNL     1      56.664  -2.900  94.820  1.00  0.00     0.000 C 
BRANCH  11  12
ATOM     12  C   UNL     1      56.265  -4.172  94.049  1.00  0.00     0.000 C 
BRANCH  12  13
ATOM     13  C   UNL     1      57.442  -4.961  93.443  1.00  0.00     0.006 C 
BRANCH  13  14
ATOM     14  C   UNL     1      58.516  -4.056  92.824  1.00  0.00     0.053 C 
BRANCH  14  15
ATOM     15  C   UNL     1      58.454  -4.104  91.331  1.00  0.00     0.041 C 
ATOM     16  O   UNL     1      58.611  -3.051  90.655  1.00  0.00    -0.550 OA
ATOM     17  O   UNL     1      58.206  -5.307  90.684  1.00  0.00    -0.550 OA
ENDBRANCH  14  15
ENDBRANCH  13  14
ENDBRANCH  12  13
ENDBRANCH  11  12
ENDBRANCH  10  11
ENDBRANCH   9  10
ENDBRANCH   8   9
ENDBRANCH   7   8
ENDBRANCH   6   7
ENDBRANCH   5   6
ENDBRANCH   4   5
ENDBRANCH   3   4
ENDBRANCH   2   3
ENDBRANCH   1   2
BRANCH   1  18
ATOM     18  C   UNL     1      60.029  -0.536  92.765  1.00  0.00     0.000 C 
BRANCH  18  19
ATOM     19  C   UNL     1      58.517  -0.290  92.899  1.00  0.00     0.000 C 
BRANCH  19  20
ATOM     20  C   UNL     1      58.007   0.822  91.963  1.00  0.00     0.000 C 
BRANCH  20  21
ATOM     21  C   UNL     1      57.009   1.812  92.599  1.00  0.00     0.000 C 
BRANCH  21  22
ATOM     22  C   UNL     1      56.125   2.591  91.603  1.00  0.00     0.000 C 
BRANCH  22  23
ATOM     23  C   UNL     1      56.821   2.995  90.291  1.00  0.00     0.000 C 
BRANCH  23  24
ATOM     24  C   UNL     1      56.098   2.467  89.041  1.00  0.00    -0.000 C 
BRANCH  24  25
ATOM     25  C   UNL     1      56.856   1.315  88.355  1.00  0.00    -0.000 C 
BRANCH  25  26
ATOM     26  C   UNL     1      56.068  -0.003  88.226  1.00  0.00    -0.000 C 
BRANCH  26  27
ATOM     27  C   UNL     1      56.088  -0.899  89.481  1.00  0.00    -0.000 C 
BRANCH  27  28
ATOM     28  C   UNL     1      54.875  -0.748  90.424  1.00  0.00    -0.000 C 
BRANCH  28  29
ATOM     29  C   UNL     1      55.040  -1.395  91.814  1.00  0.00    -0.000 C 
BRANCH  29  30
ATOM     30  C   UNL     1      54.226  -0.701  92.930  1.00  0.00    -0.000 C 
BRANCH  30  31
ATOM     31  C   UNL     1      53.391  -1.675  93.778  1.00  0.00    -0.003 C 
ATOM     32  C   UNL     1      52.816  -1.024  95.035  1.00  0.00     0.004 C 
ENDBRANCH  30  31
ENDBRANCH  29  30
ENDBRANCH  28  29
ENDBRANCH  27  28
ENDBRANCH  26  27
ENDBRANCH  25  26
ENDBRANCH  24  25
ENDBRANCH  23  24
ENDBRANCH  22  23
ENDBRANCH  21  22
ENDBRANCH  20  21
ENDBRANCH  19  20
ENDBRANCH  18  19
ENDBRANCH   1  18
TORSDOF 28
ENDMDL
MODEL 6
REMARK VINA RESULT:    -2.956      1.612      2.505
REMARK INTER + INTRA:         -13.200
REMARK INTER:                  -8.296
REMARK INTRA:                  -4.904
REMARK UNBOUND:                -5.405
REMARK SMILES CCCCCCCCCCCCCCCCCCCCCCCCCCCCCC(=O)[O-]
REMARK SMILES IDX 16 1 17 2 18 3 19 4 20 5 21 6 22 7 23 8 24 9 25 10 26 11
REMARK SMILES IDX 27 12 28 13 29 14 30 15 31 16 32 17 15 18 14 19 13 20 12 21
REMARK SMILES IDX 11 22 10 23 9 24 8 25 7 26 6 27 5 28 4 29 3 30 2 31 1 32
REMARK H PARENT
REMARK Flexibility Score: inf
ROOT
ATOM      1  C   UNL     1      57.117   3.606  96.477  1.00  0.00     0.000 C 
ENDROOT
BRANCH   1   2
ATOM      2  C   UNL     1      58.016   2.572  95.782  1.00  0.00     0.000 C 
BRANCH   2   3
ATOM      3  C   UNL     1      58.462   1.482  96.769  1.00  0.00     0.000 C 
BRANCH   3   4
ATOM      4  C   UNL     1      59.984   1.246  96.751  1.00  0.00     0.000 C 
BRANCH   4   5
ATOM      5  C   UNL     1      60.413  -0.230  96.634  1.00  0.00     0.000 C 
BRANCH   5   6
ATOM      6  C   UNL     1      61.078  -0.612  95.296  1.00  0.00     0.000 C 
BRANCH   6   7
ATOM      7  C   UNL     1      60.237  -1.527  94.388  1.00  0.00     0.000 C 
BRANCH   7   8
ATOM      8  C   UNL     1      60.237  -1.067  92.920  1.00  0.00     0.000 C 
BRANCH   8   9
ATOM      9  C   UNL     1      58.819  -0.845  92.371  1.00  0.00     0.000 C 
BRANCH   9  10
ATOM     10  C   UNL     1      57.918  -0.073  93.347  1.00  0.00     0.000 C 
BRANCH  10  11
ATOM     11  C   UNL     1      56.666  -0.891  93.694  1.00  0.00     0.000 C 
BRANCH  11  12
ATOM     12  C   UNL     1      56.300  -0.825  95.188  1.00  0.00     0.000 C 
BRANCH  12  13
ATOM     13  C   UNL     1      57.038  -1.838  96.083  1.00  0.00     0.006 C 
BRANCH  13  14
ATOM     14  C   UNL     1      56.090  -2.670  96.958  1.00  0.00     0.053 C 
BRANCH  14  15
ATOM     15  C   UNL     1      55.536  -3.827  96.189  1.00  0.00     0.041 C 
ATOM     16  O   UNL     1      54.433  -4.340  96.521  1.00  0.00    -0.550 OA
ATOM     17  O   UNL     1      56.244  -4.351  95.116  1.00  0.00    -0.550 OA
ENDBRANCH  14  15
ENDBRANCH  13  14
ENDBRANCH  12  13
ENDBRANCH  11  12
ENDBRANCH  10  11
ENDBRANCH   9  10
ENDBRANCH   8   9
ENDBRANCH   7   8
ENDBRANCH   6   7
ENDBRANCH   5   6
ENDBRANCH   4   5
ENDBRANCH   3   4
ENDBRANCH   2   3
ENDBRANCH   1   2
BRANCH   1  18
ATOM     18  C   UNL     1      57.522   5.055  96.156  1.00  0.00     0.000 C 
BRANCH  18  19
ATOM     19  C   UNL     1      59.044   5.267  96.216  1.00  0.00     0.000 C 
BRANCH  19  20
ATOM     20  C   UNL     1      59.432   6.679  96.691  1.00  0.00     0.000 C 
BRANCH  20  21
ATOM     21  C   UNL     1      60.314   7.485  95.714  1.00  0.00     0.000 C 
BRANCH  21  22
ATOM     22  C   UNL     1      60.538   6.833  94.334  1.00  0.00     0.000 C 
BRANCH  22  23
ATOM     23  C   UNL     1      59.832   7.533  93.159  1.00  0.00     0.000 C 
BRANCH  23  24
ATOM     24  C   UNL     1      58.316   7.281  93.135  1.00  0.00    -0.000 C 
BRANCH  24  25
ATOM     25  C   UNL     1      57.905   6.209  92.108  1.00  0.00    -0.000 C 
BRANCH  25  26
ATOM     26  C   UNL     1      57.469   4.858  92.709  1.00  0.00    -0.000 C 
BRANCH  26  27
ATOM     27  C   UNL     1      56.111   4.331  92.208  1.00  0.00    -0.000 C 
BRANCH  27  28
ATOM     28  C   UNL     1      55.846   2.830  92.461  1.00  0.00    -0.000 C 
BRANCH  28  29
ATOM     29  C   UNL     1      54.906   2.520  93.644  1.00  0.00    -0.000 C 
BRANCH  29  30
ATOM     30  C   UNL     1      54.195   3.764  94.223  1.00  0.00    -0.000 C 
BRANCH  30  31
ATOM     31  C   UNL     1      52.739   3.914  93.753  1.00  0.00    -0.003 C 
ATOM     32  C   UNL     1      52.509   5.179  92.929  1.00  0.00     0.004 C 
ENDBRANCH  30  31
ENDBRANCH  29  30
ENDBRANCH  28  29
ENDBRANCH  27  28
ENDBRANCH  26  27
ENDBRANCH  25  26
ENDBRANCH  24  25
ENDBRANCH  23  24
ENDBRANCH  22  23
ENDBRANCH  21  22
ENDBRANCH  20  21
ENDBRANCH  19  20
ENDBRANCH  18  19
ENDBRANCH   1  18
TORSDOF 28
ENDMDL
MODEL 7
REMARK VINA RESULT:    -2.939      1.512      3.821
REMARK INTER + INTRA:         -13.153
REMARK INTER:                  -8.336
REMARK INTRA:                  -4.818
REMARK UNBOUND:                -5.405
REMARK SMILES CCCCCCCCCCCCCCCCCCCCCCCCCCCCCC(=O)[O-]
REMARK SMILES IDX 16 1 17 2 18 3 19 4 20 5 21 6 22 7 23 8 24 9 25 10 26 11
REMARK SMILES IDX 27 12 28 13 29 14 30 15 31 16 32 17 15 18 14 19 13 20 12 21
REMARK SMILES IDX 11 22 10 23 9 24 8 25 7 26 6 27 5 28 4 29 3 30 2 31 1 32
REMARK H PARENT
REMARK Flexibility Score: inf
ROOT
ATOM      1  C   UNL     1      56.330   1.648  92.603  1.00  0.00     0.000 C 
ENDROOT
BRANCH   1   2
ATOM      2  C   UNL     1      57.673   1.239  91.980  1.00  0.00     0.000 C 
BRANCH   2   3
ATOM      3  C   UNL     1      58.164  -0.095  92.562  1.00  0.00     0.000 C 
BRANCH   3   4
ATOM      4  C   UNL     1      59.684  -0.291  92.407  1.00  0.00     0.000 C 
BRANCH   4   5
ATOM      5  C   UNL     1      60.193  -1.713  92.717  1.00  0.00     0.000 C 
BRANCH   5   6
ATOM      6  C   UNL     1      60.738  -1.916  94.145  1.00  0.00     0.000 C 
BRANCH   6   7
ATOM      7  C   UNL     1      61.121  -0.622  94.886  1.00  0.00     0.000 C 
BRANCH   7   8
ATOM      8  C   UNL     1      60.443  -0.504  96.262  1.00  0.00     0.000 C 
BRANCH   8   9
ATOM      9  C   UNL     1      59.190   0.385  96.229  1.00  0.00     0.000 C 
BRANCH   9  10
ATOM     10  C   UNL     1      57.889  -0.426  96.143  1.00  0.00     0.000 C 
BRANCH  10  11
ATOM     11  C   UNL     1      56.705   0.386  96.688  1.00  0.00     0.000 C 
BRANCH  11  12
ATOM     12  C   UNL     1      55.346  -0.097  96.149  1.00  0.00     0.000 C 
BRANCH  12  13
ATOM     13  C   UNL     1      55.429  -1.147  95.025  1.00  0.00     0.006 C 
BRANCH  13  14
ATOM     14  C   UNL     1      54.266  -2.149  95.052  1.00  0.00     0.053 C 
BRANCH  14  15
ATOM     15  C   UNL     1      54.629  -3.363  95.847  1.00  0.00     0.041 C 
ATOM     16  O   UNL     1      53.798  -4.299  95.991  1.00  0.00    -0.550 OA
ATOM     17  O   UNL     1      55.880  -3.454  96.444  1.00  0.00    -0.550 OA
ENDBRANCH  14  15
ENDBRANCH  13  14
ENDBRANCH  12  13
ENDBRANCH  11  12
ENDBRANCH  10  11
ENDBRANCH   9  10
ENDBRANCH   8   9
ENDBRANCH   7   8
ENDBRANCH   6   7
ENDBRANCH   5   6
ENDBRANCH   4   5
ENDBRANCH   3   4
ENDBRANCH   2   3
ENDBRANCH   1   2
BRANCH   1  18
ATOM     18  C   UNL     1      56.399   3.005  93.323  1.00  0.00     0.000 C 
BRANCH  18  19
ATOM     19  C   UNL     1      57.373   2.992  94.513  1.00  0.00     0.000 C 
BRANCH  19  20
ATOM     20  C   UNL     1      57.010   4.026  95.595  1.00  0.00     0.000 C 
BRANCH  20  21
ATOM     21  C   UNL     1      57.734   3.849  96.946  1.00  0.00     0.000 C 
BRANCH  21  22
ATOM     22  C   UNL     1      59.208   4.304  96.970  1.00  0.00     0.000 C 
BRANCH  22  23
ATOM     23  C   UNL     1      59.434   5.801  96.694  1.00  0.00     0.000 C 
BRANCH  23  24
ATOM     24  C   UNL     1      60.831   6.102  96.128  1.00  0.00    -0.000 C 
BRANCH  24  25
ATOM     25  C   UNL     1      60.934   7.508  95.508  1.00  0.00    -0.000 C 
BRANCH  25  26
ATOM     26  C   UNL     1      59.618   8.069  94.934  1.00  0.00    -0.000 C 
BRANCH  26  27
ATOM     27  C   UNL     1      59.352   7.721  93.456  1.00  0.00    -0.000 C 
BRANCH  27  28
ATOM     28  C   UNL     1      58.534   6.434  93.214  1.00  0.00    -0.000 C 
BRANCH  28  29
ATOM     29  C   UNL     1      57.059   6.657  92.824  1.00  0.00    -0.000 C 
BRANCH  29  30
ATOM     30  C   UNL     1      56.331   7.706  93.696  1.00  0.00    -0.000 C 
BRANCH  30  31
ATOM     31  C   UNL     1      55.978   7.197  95.103  1.00  0.00    -0.003 C 
ATOM     32  C   UNL     1      55.928   8.315  96.143  1.00  0.00     0.004 C 
ENDBRANCH  30  31
ENDBRANCH  29  30
ENDBRANCH  28  29
ENDBRANCH  27  28
ENDBRANCH  26  27
ENDBRANCH  25  26
ENDBRANCH  24  25
ENDBRANCH  23  24
ENDBRANCH  22  23
ENDBRANCH  21  22
ENDBRANCH  20  21
ENDBRANCH  19  20
ENDBRANCH  18  19
ENDBRANCH   1  18
TORSDOF 28
ENDMDL
MODEL 8
REMARK VINA RESULT:    -2.904      3.389      7.480
REMARK INTER + INTRA:         -13.061
REMARK INTER:                  -6.900
REMARK INTRA:                  -6.161
REMARK UNBOUND:                -5.405
REMARK SMILES CCCCCCCCCCCCCCCCCCCCCCCCCCCCCC(=O)[O-]
REMARK SMILES IDX 16 1 17 2 18 3 19 4 20 5 21 6 22 7 23 8 24 9 25 10 26 11
REMARK SMILES IDX 27 12 28 13 29 14 30 15 31 16 32 17 15 18 14 19 13 20 12 21
REMARK SMILES IDX 11 22 10 23 9 24 8 25 7 26 6 27 5 28 4 29 3 30 2 31 1 32
REMARK H PARENT
REMARK Flexibility Score: inf
ROOT
ATOM      1  C   UNL     1      58.813   1.603  96.021  1.00  0.00     0.000 C 
ENDROOT
BRANCH   1   2
ATOM      2  C   UNL     1      60.046   1.019  96.728  1.00  0.00     0.000 C 
BRANCH   2   3
ATOM      3  C   UNL     1      60.224  -0.467  96.382  1.00  0.00     0.000 C 
BRANCH   3   4
ATOM      4  C   UNL     1      61.094  -0.689  95.130  1.00  0.00     0.000 C 
BRANCH   4   5
ATOM      5  C   UNL     1      60.401  -1.451  93.982  1.00  0.00     0.000 C 
BRANCH   5   6
ATOM      6  C   UNL     1      58.922  -1.807  94.233  1.00  0.00     0.000 C 
BRANCH   6   7
ATOM      7  C   UNL     1      57.908  -1.007  93.395  1.00  0.00     0.000 C 
BRANCH   7   8
ATOM      8  C   UNL     1      58.581   0.039  92.490  1.00  0.00     0.000 C 
BRANCH   8   9
ATOM      9  C   UNL     1      57.710   1.289  92.285  1.00  0.00     0.000 C 
BRANCH   9  10
ATOM     10  C   UNL     1      56.288   1.120  92.840  1.00  0.00     0.000 C 
BRANCH  10  11
ATOM     11  C   UNL     1      55.669   2.485  93.175  1.00  0.00     0.000 C 
BRANCH  11  12
ATOM     12  C   UNL     1      56.713   3.524  93.625  1.00  0.00     0.000 C 
BRANCH  12  13
ATOM     13  C   UNL     1      56.170   4.634  94.545  1.00  0.00     0.006 C 
BRANCH  13  14
ATOM     14  C   UNL     1      54.853   4.252  95.234  1.00  0.00     0.053 C 
BRANCH  14  15
ATOM     15  C   UNL     1      53.999   5.461  95.455  1.00  0.00     0.041 C 
ATOM     16  O   UNL     1      52.758   5.408  95.243  1.00  0.00    -0.550 OA
ATOM     17  O   UNL     1      54.576   6.651  95.878  1.00  0.00    -0.550 OA
ENDBRANCH  14  15
ENDBRANCH  13  14
ENDBRANCH  12  13
ENDBRANCH  11  12
ENDBRANCH  10  11
ENDBRANCH   9  10
ENDBRANCH   8   9
ENDBRANCH   7   8
ENDBRANCH   6   7
ENDBRANCH   5   6
ENDBRANCH   4   5
ENDBRANCH   3   4
ENDBRANCH   2   3
ENDBRANCH   1   2
BRANCH   1  18
ATOM     18  C   UNL     1      57.871   2.343  96.985  1.00  0.00     0.000 C 
BRANCH  18  19
ATOM     19  C   UNL     1      56.504   1.653  97.118  1.00  0.00     0.000 C 
BRANCH  19  20
ATOM     20  C   UNL     1      56.374   0.407  96.222  1.00  0.00     0.000 C 
BRANCH  20  21
ATOM     21  C   UNL     1      55.677  -0.805  96.874  1.00  0.00     0.000 C 
BRANCH  21  22
ATOM     22  C   UNL     1      56.557  -2.060  97.047  1.00  0.00     0.000 C 
BRANCH  22  23
ATOM     23  C   UNL     1      55.830  -3.401  96.842  1.00  0.00     0.000 C 
BRANCH  23  24
ATOM     24  C   UNL     1      55.384  -3.625  95.388  1.00  0.00    -0.000 C 
BRANCH  24  25
ATOM     25  C   UNL     1      56.364  -4.506  94.592  1.00  0.00    -0.000 C 
BRANCH  25  26
ATOM     26  C   UNL     1      56.325  -4.313  93.063  1.00  0.00    -0.000 C 
BRANCH  26  27
ATOM     27  C   UNL     1      57.436  -5.045  92.285  1.00  0.00    -0.000 C 
BRANCH  27  28
ATOM     28  C   UNL     1      58.360  -4.142  91.438  1.00  0.00    -0.000 C 
BRANCH  28  29
ATOM     29  C   UNL     1      57.756  -3.652  90.106  1.00  0.00    -0.000 C 
BRANCH  29  30
ATOM     30  C   UNL     1      58.139  -2.199  89.742  1.00  0.00    -0.000 C 
BRANCH  30  31
ATOM     31  C   UNL     1      56.927  -1.264  89.593  1.00  0.00    -0.003 C 
ATOM     32  C   UNL     1      55.705  -1.748  90.373  1.00  0.00     0.004 C 
ENDBRANCH  30  31
ENDBRANCH  29  30
ENDBRANCH  28  29
ENDBRANCH  27  28
ENDBRANCH  26  27
ENDBRANCH  25  26
ENDBRANCH  24  25
ENDBRANCH  23  24
ENDBRANCH  22  23
ENDBRANCH  21  22
ENDBRANCH  20  21
ENDBRANCH  19  20
ENDBRANCH  18  19
ENDBRANCH   1  18
TORSDOF 28
ENDMDL
MODEL 9
REMARK VINA RESULT:    -2.895      3.330      8.347
REMARK INTER + INTRA:         -13.038
REMARK INTER:                  -7.162
REMARK INTRA:                  -5.876
REMARK UNBOUND:                -5.405
REMARK SMILES CCCCCCCCCCCCCCCCCCCCCCCCCCCCCC(=O)[O-]
REMARK SMILES IDX 16 1 17 2 18 3 19 4 20 5 21 6 22 7 23 8 24 9 25 10 26 11
REMARK SMILES IDX 27 12 28 13 29 14 30 15 31 16 32 17 15 18 14 19 13 20 12 21
REMARK SMILES IDX 11 22 10 23 9 24 8 25 7 26 6 27 5 28 4 29 3 30 2 31 1 32
REMARK H PARENT
REMARK Flexibility Score: inf
ROOT
ATOM      1  C   UNL     1      56.727  -0.009  96.242  1.00  0.00     0.000 C 
ENDROOT
BRANCH   1   2
ATOM      2  C   UNL     1      57.565   1.161  96.779  1.00  0.00     0.000 C 
BRANCH   2   3
ATOM      3  C   UNL     1      58.854   1.334  95.962  1.00  0.00     0.000 C 
BRANCH   3   4
ATOM      4  C   UNL     1      60.125   1.039  96.781  1.00  0.00     0.000 C 
BRANCH   4   5
ATOM      5  C   UNL     1      60.769  -0.336  96.512  1.00  0.00     0.000 C 
BRANCH   5   6
ATOM      6  C   UNL     1      61.020  -0.661  95.026  1.00  0.00     0.000 C 
BRANCH   6   7
ATOM      7  C   UNL     1      60.139  -1.782  94.445  1.00  0.00     0.000 C 
BRANCH   7   8
ATOM      8  C   UNL     1      59.091  -1.257  93.449  1.00  0.00     0.000 C 
BRANCH   8   9
ATOM      9  C   UNL     1      59.676  -0.236  92.460  1.00  0.00     0.000 C 
BRANCH   9  10
ATOM     10  C   UNL     1      58.592   0.556  91.714  1.00  0.00     0.000 C 
BRANCH  10  11
ATOM     11  C   UNL     1      57.322   0.677  92.568  1.00  0.00     0.000 C 
BRANCH  11  12
ATOM     12  C   UNL     1      56.621   2.040  92.412  1.00  0.00     0.000 C 
BRANCH  12  13
ATOM     13  C   UNL     1      56.245   2.733  93.736  1.00  0.00     0.006 C 
BRANCH  13  14
ATOM     14  C   UNL     1      57.025   4.034  93.975  1.00  0.00     0.053 C 
BRANCH  14  15
ATOM     15  C   UNL     1      56.582   4.693  95.242  1.00  0.00     0.041 C 
ATOM     16  O   UNL     1      55.832   4.080  96.048  1.00  0.00    -0.550 OA
ATOM     17  O   UNL     1      56.983   5.992  95.527  1.00  0.00    -0.550 OA
ENDBRANCH  14  15
ENDBRANCH  13  14
ENDBRANCH  12  13
ENDBRANCH  11  12
ENDBRANCH  10  11
ENDBRANCH   9  10
ENDBRANCH   8   9
ENDBRANCH   7   8
ENDBRANCH   6   7
ENDBRANCH   5   6
ENDBRANCH   4   5
ENDBRANCH   3   4
ENDBRANCH   2   3
ENDBRANCH   1   2
BRANCH   1  18
ATOM     18  C   UNL     1      57.263  -1.379  96.694  1.00  0.00     0.000 C 
BRANCH  18  19
ATOM     19  C   UNL     1      56.271  -2.520  96.412  1.00  0.00     0.000 C 
BRANCH  19  20
ATOM     20  C   UNL     1      56.377  -3.061  94.974  1.00  0.00     0.000 C 
BRANCH  20  21
ATOM     21  C   UNL     1      55.046  -3.523  94.344  1.00  0.00     0.000 C 
BRANCH  21  22
ATOM     22  C   UNL     1      55.052  -3.653  92.807  1.00  0.00     0.000 C 
BRANCH  22  23
ATOM     23  C   UNL     1      56.102  -2.790  92.083  1.00  0.00     0.000 C 
BRANCH  23  24
ATOM     24  C   UNL     1      56.624  -3.440  90.792  1.00  0.00    -0.000 C 
BRANCH  24  25
ATOM     25  C   UNL     1      57.955  -2.830  90.312  1.00  0.00    -0.000 C 
BRANCH  25  26
ATOM     26  C   UNL     1      59.219  -3.615  90.716  1.00  0.00    -0.000 C 
BRANCH  26  27
ATOM     27  C   UNL     1      58.953  -4.976  91.389  1.00  0.00    -0.000 C 
BRANCH  27  28
ATOM     28  C   UNL     1      59.165  -5.014  92.918  1.00  0.00    -0.000 C 
BRANCH  28  29
ATOM     29  C   UNL     1      59.452  -6.410  93.506  1.00  0.00    -0.000 C 
BRANCH  29  30
ATOM     30  C   UNL     1      58.217  -7.339  93.552  1.00  0.00    -0.000 C 
BRANCH  30  31
ATOM     31  C   UNL     1      56.933  -6.632  94.018  1.00  0.00    -0.003 C 
ATOM     32  C   UNL     1      56.397  -7.185  95.337  1.00  0.00     0.004 C 
ENDBRANCH  30  31
ENDBRANCH  29  30
ENDBRANCH  28  29
ENDBRANCH  27  28
ENDBRANCH  26  27
ENDBRANCH  25  26
ENDBRANCH  24  25
ENDBRANCH  23  24
ENDBRANCH  22  23
ENDBRANCH  21  22
ENDBRANCH  20  21
ENDBRANCH  19  20
ENDBRANCH  18  19
ENDBRANCH   1  18
TORSDOF 28
ENDMDL
