MODEL 1
REMARK VINA RESULT:    -5.897      0.000      0.000
REMARK INTER + INTRA:         -11.730
REMARK INTER:                 -10.723
REMARK INTRA:                  -1.007
REMARK UNBOUND:                -1.007
REMARK SMILES CCCCCCCCCCCCCCCC(=O)[O-]
REMARK SMILES IDX 9 1 10 2 11 3 12 4 13 5 14 6 15 7 16 8 17 9 18 10 8 11 7 12
REMARK SMILES IDX 6 13 5 14 4 15 3 16 2 17 1 18
REMARK H PARENT
REMARK Flexibility Score: inf
ROOT
ATOM      1  C   UNL     1     -11.036  -0.637  -9.521  1.00  0.00     0.000 C 
ENDROOT
BRANCH   1   2
ATOM      2  C   UNL     1     -12.087  -0.648 -10.649  1.00  0.00     0.000 C 
BRANCH   2   3
ATOM      3  C   UNL     1     -13.484  -1.144 -10.228  1.00  0.00     0.000 C 
BRANCH   3   4
ATOM      4  C   UNL     1     -14.642  -0.174 -10.538  1.00  0.00     0.000 C 
BRANCH   4   5
ATOM      5  C   UNL     1     -15.124   0.664  -9.341  1.00  0.00     0.000 C 
BRANCH   5   6
ATOM      6  C   UNL     1     -14.751   2.152  -9.465  1.00  0.00     0.006 C 
BRANCH   6   7
ATOM      7  C   UNL     1     -13.239   2.381  -9.345  1.00  0.00     0.053 C 
BRANCH   7   8
ATOM      8  C   UNL     1     -12.928   3.628  -8.575  1.00  0.00     0.041 C 
ATOM      9  O   UNL     1     -11.776   3.811  -8.102  1.00  0.00    -0.550 OA
ATOM     10  O   UNL     1     -13.901   4.606  -8.414  1.00  0.00    -0.550 OA
ENDBRANCH   7   8
ENDBRANCH   6   7
ENDBRANCH   5   6
ENDBRANCH   4   5
ENDBRANCH   3   4
ENDBRANCH   2   3
ENDBRANCH   1   2
BRANCH   1  11
ATOM     11  C   UNL     1     -10.773  -2.005  -8.861  1.00  0.00     0.000 C 
BRANCH  11  12
ATOM     12  C   UNL     1      -9.920  -2.980  -9.693  1.00  0.00    -0.000 C 
BRANCH  12  13
ATOM     13  C   UNL     1     -10.350  -4.447  -9.519  1.00  0.00    -0.000 C 
BRANCH  13  14
ATOM     14  C   UNL     1     -11.504  -4.608  -8.517  1.00  0.00    -0.000 C 
BRANCH  14  15
ATOM     15  C   UNL     1     -11.394  -5.903  -7.693  1.00  0.00    -0.000 C 
BRANCH  15  16
ATOM     16  C   UNL     1     -10.863  -5.654  -6.271  1.00  0.00    -0.000 C 
BRANCH  16  17
ATOM     17  C   UNL     1     -11.949  -5.813  -5.197  1.00  0.00    -0.003 C 
ATOM     18  C   UNL     1     -13.022  -6.801  -5.642  1.00  0.00     0.004 C 
ENDBRANCH  16  17
ENDBRANCH  15  16
ENDBRANCH  14  15
ENDBRANCH  13  14
ENDBRANCH  12  13
ENDBRANCH  11  12
ENDBRANCH   1  11
TORSDOF 14
ENDMDL
MODEL 2
REMARK VINA RESULT:    -5.770      4.123      8.084
REMARK INTER + INTRA:         -11.499
REMARK INTER:                 -10.427
REMARK INTRA:                  -1.072
REMARK UNBOUND:                -1.007
REMARK SMILES CCCCCCCCCCCCCCCC(=O)[O-]
REMARK SMILES IDX 9 1 10 2 11 3 12 4 13 5 14 6 15 7 16 8 17 9 18 10 8 11 7 12
REMARK SMILES IDX 6 13 5 14 4 15 3 16 2 17 1 18
REMARK H PARENT
REMARK Flexibility Score: inf
ROOT
ATOM      1  C   UNL     1     -11.355  -0.364  -9.381  1.00  0.00     0.000 C 
ENDROOT
BRANCH   1   2
ATOM      2  C   UNL     1     -10.610  -1.619  -8.886  1.00  0.00     0.000 C 
BRANCH   2   3
ATOM      3  C   UNL     1     -10.192  -2.605  -9.995  1.00  0.00     0.000 C 
BRANCH   3   4
ATOM      4  C   UNL     1     -10.234  -4.094  -9.596  1.00  0.00     0.000 C 
BRANCH   4   5
ATOM      5  C   UNL     1     -11.182  -4.427  -8.430  1.00  0.00     0.000 C 
BRANCH   5   6
ATOM      6  C   UNL     1     -10.438  -4.911  -7.174  1.00  0.00     0.006 C 
BRANCH   6   7
ATOM      7  C   UNL     1     -11.401  -5.396  -6.083  1.00  0.00     0.053 C 
BRANCH   7   8
ATOM      8  C   UNL     1     -11.314  -6.879  -5.887  1.00  0.00     0.041 C 
ATOM      9  O   UNL     1     -10.571  -7.575  -6.627  1.00  0.00    -0.550 OA
ATOM     10  O   UNL     1     -12.027  -7.488  -4.861  1.00  0.00    -0.550 OA
ENDBRANCH   7   8
ENDBRANCH   6   7
ENDBRANCH   5   6
ENDBRANCH   4   5
ENDBRANCH   3   4
ENDBRANCH   2   3
ENDBRANCH   1   2
BRANCH   1  11
ATOM     11  C   UNL     1     -12.246  -0.580 -10.621  1.00  0.00     0.000 C 
BRANCH  11  12
ATOM     12  C   UNL     1     -13.659  -1.113 -10.326  1.00  0.00    -0.000 C 
BRANCH  12  13
ATOM     13  C   UNL     1     -14.761  -0.082 -10.625  1.00  0.00    -0.000 C 
BRANCH  13  14
ATOM     14  C   UNL     1     -15.071   0.816  -9.416  1.00  0.00    -0.000 C 
BRANCH  14  15
ATOM     15  C   UNL     1     -14.482   2.230  -9.565  1.00  0.00    -0.000 C 
BRANCH  15  16
ATOM     16  C   UNL     1     -14.489   3.015  -8.243  1.00  0.00    -0.000 C 
BRANCH  16  17
ATOM     17  C   UNL     1     -13.438   4.134  -8.212  1.00  0.00    -0.003 C 
ATOM     18  C   UNL     1     -12.262   3.809  -9.128  1.00  0.00     0.004 C 
ENDBRANCH  16  17
ENDBRANCH  15  16
ENDBRANCH  14  15
ENDBRANCH  13  14
ENDBRANCH  12  13
ENDBRANCH  11  12
ENDBRANCH   1  11
TORSDOF 14
ENDMDL
MODEL 3
REMARK VINA RESULT:    -5.679      1.039      1.693
REMARK INTER + INTRA:         -11.334
REMARK INTER:                 -10.405
REMARK INTRA:                  -0.929
REMARK UNBOUND:                -1.007
REMARK SMILES CCCCCCCCCCCCCCCC(=O)[O-]
REMARK SMILES IDX 9 1 10 2 11 3 12 4 13 5 14 6 15 7 16 8 17 9 18 10 8 11 7 12
REMARK SMILES IDX 6 13 5 14 4 15 3 16 2 17 1 18
REMARK H PARENT
REMARK Flexibility Score: inf
ROOT
ATOM      1  C   UNL     1     -10.252  -2.417  -9.918  1.00  0.00     0.000 C 
ENDROOT
BRANCH   1   2
ATOM      2  C   UNL     1     -10.660  -1.025 -10.440  1.00  0.00     0.000 C 
BRANCH   2   3
ATOM      3  C   UNL     1     -12.165  -0.709 -10.335  1.00  0.00     0.000 C 
BRANCH   3   4
ATOM      4  C   UNL     1     -12.504   0.634  -9.657  1.00  0.00     0.000 C 
BRANCH   4   5
ATOM      5  C   UNL     1     -14.002   0.989  -9.631  1.00  0.00     0.000 C 
BRANCH   5   6
ATOM      6  C   UNL     1     -14.263   2.448  -9.220  1.00  0.00     0.006 C 
BRANCH   6   7
ATOM      7  C   UNL     1     -13.034   3.340  -9.439  1.00  0.00     0.053 C 
BRANCH   7   8
ATOM      8  C   UNL     1     -12.433   3.783  -8.140  1.00  0.00     0.041 C 
ATOM      9  O   UNL     1     -13.162   4.273  -7.238  1.00  0.00    -0.550 OA
ATOM     10  O   UNL     1     -11.072   3.621  -7.912  1.00  0.00    -0.550 OA
ENDBRANCH   7   8
ENDBRANCH   6   7
ENDBRANCH   5   6
ENDBRANCH   4   5
ENDBRANCH   3   4
ENDBRANCH   2   3
ENDBRANCH   1   2
BRANCH   1  11
ATOM     11  C   UNL     1     -10.240  -2.560  -8.383  1.00  0.00     0.000 C 
BRANCH  11  12
ATOM     12  C   UNL     1     -10.560  -3.971  -7.855  1.00  0.00    -0.000 C 
BRANCH  12  13
ATOM     13  C   UNL     1      -9.991  -5.086  -8.749  1.00  0.00    -0.000 C 
BRANCH  13  14
ATOM     14  C   UNL     1     -10.915  -6.313  -8.820  1.00  0.00    -0.000 C 
BRANCH  14  15
ATOM     15  C   UNL     1     -12.286  -6.057  -8.169  1.00  0.00    -0.000 C 
BRANCH  15  16
ATOM     16  C   UNL     1     -12.691  -7.171  -7.190  1.00  0.00    -0.000 C 
BRANCH  16  17
ATOM     17  C   UNL     1     -13.031  -6.635  -5.791  1.00  0.00    -0.003 C 
ATOM     18  C   UNL     1     -11.798  -6.047  -5.113  1.00  0.00     0.004 C 
ENDBRANCH  16  17
ENDBRANCH  15  16
ENDBRANCH  14  15
ENDBRANCH  13  14
ENDBRANCH  12  13
ENDBRANCH  11  12
ENDBRANCH   1  11
TORSDOF 14
ENDMDL
MODEL 4
REMARK VINA RESULT:    -5.394      3.883      8.205
REMARK INTER + INTRA:         -10.815
REMARK INTER:                 -10.001
REMARK INTRA:                  -0.814
REMARK UNBOUND:                -1.007
REMARK SMILES CCCCCCCCCCCCCCCC(=O)[O-]
REMARK SMILES IDX 9 1 10 2 11 3 12 4 13 5 14 6 15 7 16 8 17 9 18 10 8 11 7 12
REMARK SMILES IDX 6 13 5 14 4 15 3 16 2 17 1 18
REMARK H PARENT
REMARK Flexibility Score: inf
ROOT
ATOM      1  C   UNL     1     -10.998  -2.541  -8.963  1.00  0.00     0.000 C 
ENDROOT
BRANCH   1   2
ATOM      2  C   UNL     1     -10.606  -3.977  -9.365  1.00  0.00     0.000 C 
BRANCH   2   3
ATOM      3  C   UNL     1     -11.098  -5.076  -8.403  1.00  0.00     0.000 C 
BRANCH   3   4
ATOM      4  C   UNL     1     -10.443  -5.063  -7.007  1.00  0.00     0.000 C 
BRANCH   4   5
ATOM      5  C   UNL     1     -11.370  -5.484  -5.852  1.00  0.00     0.000 C 
BRANCH   5   6
ATOM      6  C   UNL     1     -11.935  -6.904  -6.026  1.00  0.00     0.006 C 
BRANCH   6   7
ATOM      7  C   UNL     1     -13.467  -6.929  -5.954  1.00  0.00     0.053 C 
BRANCH   7   8
ATOM      8  C   UNL     1     -14.083  -7.075  -7.313  1.00  0.00     0.041 C 
ATOM      9  O   UNL     1     -14.924  -6.233  -7.723  1.00  0.00    -0.550 OA
ATOM     10  O   UNL     1     -13.698  -8.122  -8.140  1.00  0.00    -0.550 OA
ENDBRANCH   7   8
ENDBRANCH   6   7
ENDBRANCH   5   6
ENDBRANCH   4   5
ENDBRANCH   3   4
ENDBRANCH   2   3
ENDBRANCH   1   2
BRANCH   1  11
ATOM     11  C   UNL     1     -10.773  -1.473 -10.052  1.00  0.00     0.000 C 
BRANCH  11  12
ATOM     12  C   UNL     1     -11.711  -0.255  -9.978  1.00  0.00    -0.000 C 
BRANCH  12  13
ATOM     13  C   UNL     1     -13.164  -0.597 -10.348  1.00  0.00    -0.000 C 
BRANCH  13  14
ATOM     14  C   UNL     1     -14.150   0.515  -9.955  1.00  0.00    -0.000 C 
BRANCH  14  15
ATOM     15  C   UNL     1     -13.439   1.823  -9.563  1.00  0.00    -0.000 C 
BRANCH  15  16
ATOM     16  C   UNL     1     -14.356   2.784  -8.790  1.00  0.00    -0.000 C 
BRANCH  16  17
ATOM     17  C   UNL     1     -13.621   4.043  -8.305  1.00  0.00    -0.003 C 
ATOM     18  C   UNL     1     -12.109   3.860  -8.381  1.00  0.00     0.004 C 
ENDBRANCH  16  17
ENDBRANCH  15  16
ENDBRANCH  14  15
ENDBRANCH  13  14
ENDBRANCH  12  13
ENDBRANCH  11  12
ENDBRANCH   1  11
TORSDOF 14
ENDMDL
MODEL 5
REMARK VINA RESULT:    -4.903      3.839      8.032
REMARK INTER + INTRA:          -9.923
REMARK INTER:                  -8.813
REMARK INTRA:                  -1.109
REMARK UNBOUND:                -1.007
REMARK SMILES CCCCCCCCCCCCCCCC(=O)[O-]
REMARK SMILES IDX 9 1 10 2 11 3 12 4 13 5 14 6 15 7 16 8 17 9 18 10 8 11 7 12
REMARK SMILES IDX 6 13 5 14 4 15 3 16 2 17 1 18
REMARK H PARENT
REMARK Flexibility Score: inf
ROOT
ATOM      1  C   UNL     1     -10.568  -2.126  -8.278  1.00  0.00     0.000 C 
ENDROOT
BRANCH   1   2
ATOM      2  C   UNL     1     -10.553  -3.572  -7.746  1.00  0.00     0.000 C 
BRANCH   2   3
ATOM      3  C   UNL     1     -11.237  -4.607  -8.661  1.00  0.00     0.000 C 
BRANCH   3   4
ATOM      4  C   UNL     1     -10.440  -5.909  -8.885  1.00  0.00     0.000 C 
BRANCH   4   5
ATOM      5  C   UNL     1     -11.298  -7.161  -9.137  1.00  0.00     0.000 C 
BRANCH   5   6
ATOM      6  C   UNL     1     -12.706  -7.052  -8.527  1.00  0.00     0.006 C 
BRANCH   6   7
ATOM      7  C   UNL     1     -12.830  -7.837  -7.214  1.00  0.00     0.053 C 
BRANCH   7   8
ATOM      8  C   UNL     1     -12.654  -6.949  -6.020  1.00  0.00     0.041 C 
ATOM      9  O   UNL     1     -13.655  -6.419  -5.471  1.00  0.00    -0.550 OA
ATOM     10  O   UNL     1     -11.386  -6.738  -5.492  1.00  0.00    -0.550 OA
ENDBRANCH   7   8
ENDBRANCH   6   7
ENDBRANCH   5   6
ENDBRANCH   4   5
ENDBRANCH   3   4
ENDBRANCH   2   3
ENDBRANCH   1   2
BRANCH   1  11
ATOM     11  C   UNL     1     -11.124  -1.962  -9.708  1.00  0.00     0.000 C 
BRANCH  11  12
ATOM     12  C   UNL     1     -11.772  -0.597 -10.006  1.00  0.00    -0.000 C 
BRANCH  12  13
ATOM     13  C   UNL     1     -13.091  -0.721 -10.786  1.00  0.00    -0.000 C 
BRANCH  13  14
ATOM     14  C   UNL     1     -14.321  -0.406  -9.919  1.00  0.00    -0.000 C 
BRANCH  14  15
ATOM     15  C   UNL     1     -14.870   1.010 -10.166  1.00  0.00    -0.000 C 
BRANCH  15  16
ATOM     16  C   UNL     1     -14.932   1.851  -8.881  1.00  0.00    -0.000 C 
BRANCH  16  17
ATOM     17  C   UNL     1     -14.168   3.178  -9.003  1.00  0.00    -0.003 C 
ATOM     18  C   UNL     1     -12.663   2.942  -9.059  1.00  0.00     0.004 C 
ENDBRANCH  16  17
ENDBRANCH  15  16
ENDBRANCH  14  15
ENDBRANCH  13  14
ENDBRANCH  12  13
ENDBRANCH  11  12
ENDBRANCH   1  11
TORSDOF 14
ENDMDL
MODEL 6
REMARK VINA RESULT:    -4.754     15.915     18.199
REMARK INTER + INTRA:          -9.652
REMARK INTER:                  -8.005
REMARK INTRA:                  -1.647
REMARK UNBOUND:                -1.007
REMARK SMILES CCCCCCCCCCCCCCCC(=O)[O-]
REMARK SMILES IDX 9 1 10 2 11 3 12 4 13 5 14 6 15 7 16 8 17 9 18 10 8 11 7 12
REMARK SMILES IDX 6 13 5 14 4 15 3 16 2 17 1 18
REMARK H PARENT
REMARK Flexibility Score: inf
ROOT
ATOM      1  C   UNL     1     -10.760   4.018   8.102  1.00  0.00     0.000 C 
ENDROOT
BRANCH   1   2
ATOM      2  C   UNL     1     -10.261   5.474   8.016  1.00  0.00     0.000 C 
BRANCH   2   3
ATOM      3  C   UNL     1      -9.446   5.807   6.750  1.00  0.00     0.000 C 
BRANCH   3   4
ATOM      4  C   UNL     1      -8.709   7.161   6.785  1.00  0.00     0.000 C 
BRANCH   4   5
ATOM      5  C   UNL     1      -8.734   7.948   5.463  1.00  0.00     0.000 C 
BRANCH   5   6
ATOM      6  C   UNL     1      -8.528   9.460   5.663  1.00  0.00     0.006 C 
BRANCH   6   7
ATOM      7  C   UNL     1      -7.105   9.903   5.299  1.00  0.00     0.053 C 
BRANCH   7   8
ATOM      8  C   UNL     1      -6.285  10.188   6.520  1.00  0.00     0.041 C 
ATOM      9  O   UNL     1      -6.840  10.578   7.581  1.00  0.00    -0.550 OA
ATOM     10  O   UNL     1      -4.910   9.987   6.496  1.00  0.00    -0.550 OA
ENDBRANCH   7   8
ENDBRANCH   6   7
ENDBRANCH   5   6
ENDBRANCH   4   5
ENDBRANCH   3   4
ENDBRANCH   2   3
ENDBRANCH   1   2
BRANCH   1  11
ATOM     11  C   UNL     1     -11.513   3.511   6.855  1.00  0.00     0.000 C 
BRANCH  11  12
ATOM     12  C   UNL     1     -12.645   4.428   6.357  1.00  0.00    -0.000 C 
BRANCH  12  13
ATOM     13  C   UNL     1     -12.550   4.730   4.852  1.00  0.00    -0.000 C 
BRANCH  13  14
ATOM     14  C   UNL     1     -13.567   5.790   4.398  1.00  0.00    -0.000 C 
BRANCH  14  15
ATOM     15  C   UNL     1     -14.146   6.594   5.576  1.00  0.00    -0.000 C 
BRANCH  15  16
ATOM     16  C   UNL     1     -13.593   8.027   5.640  1.00  0.00    -0.000 C 
BRANCH  16  17
ATOM     17  C   UNL     1     -12.549   8.210   6.752  1.00  0.00    -0.003 C 
ATOM     18  C   UNL     1     -13.129   7.847   8.115  1.00  0.00     0.004 C 
ENDBRANCH  16  17
ENDBRANCH  15  16
ENDBRANCH  14  15
ENDBRANCH  13  14
ENDBRANCH  12  13
ENDBRANCH  11  12
ENDBRANCH   1  11
TORSDOF 14
ENDMDL
MODEL 7
REMARK VINA RESULT:    -4.711     15.930     18.096
REMARK INTER + INTRA:          -9.574
REMARK INTER:                  -7.730
REMARK INTRA:                  -1.844
REMARK UNBOUND:                -1.007
REMARK SMILES CCCCCCCCCCCCCCCC(=O)[O-]
REMARK SMILES IDX 9 1 10 2 11 3 12 4 13 5 14 6 15 7 16 8 17 9 18 10 8 11 7 12
REMARK SMILES IDX 6 13 5 14 4 15 3 16 2 17 1 18
REMARK H PARENT
REMARK Flexibility Score: inf
ROOT
ATOM      1  C   UNL     1     -11.508   3.487   6.142  1.00  0.00     0.000 C 
ENDROOT
BRANCH   1   2
ATOM      2  C   UNL     1     -10.765   4.524   5.276  1.00  0.00     0.000 C 
BRANCH   2   3
ATOM      3  C   UNL     1      -9.745   5.392   6.038  1.00  0.00     0.000 C 
BRANCH   3   4
ATOM      4  C   UNL     1      -9.553   6.817   5.479  1.00  0.00     0.000 C 
BRANCH   4   5
ATOM      5  C   UNL     1      -8.799   7.783   6.409  1.00  0.00     0.000 C 
BRANCH   5   6
ATOM      6  C   UNL     1      -8.705   9.209   5.840  1.00  0.00     0.006 C 
BRANCH   6   7
ATOM      7  C   UNL     1      -7.264   9.594   5.480  1.00  0.00     0.053 C 
BRANCH   7   8
ATOM      8  C   UNL     1      -6.477   9.991   6.692  1.00  0.00     0.041 C 
ATOM      9  O   UNL     1      -7.070  10.333   7.749  1.00  0.00    -0.550 OA
ATOM     10  O   UNL     1      -5.089   9.947   6.665  1.00  0.00    -0.550 OA
ENDBRANCH   7   8
ENDBRANCH   6   7
ENDBRANCH   5   6
ENDBRANCH   4   5
ENDBRANCH   3   4
ENDBRANCH   2   3
ENDBRANCH   1   2
BRANCH   1  11
ATOM     11  C   UNL     1     -11.201   3.556   7.651  1.00  0.00     0.000 C 
BRANCH  11  12
ATOM     12  C   UNL     1     -12.287   4.229   8.511  1.00  0.00    -0.000 C 
BRANCH  12  13
ATOM     13  C   UNL     1     -11.836   5.578   9.094  1.00  0.00    -0.000 C 
BRANCH  13  14
ATOM     14  C   UNL     1     -12.509   6.774   8.400  1.00  0.00    -0.000 C 
BRANCH  14  15
ATOM     15  C   UNL     1     -13.520   6.340   7.324  1.00  0.00    -0.000 C 
BRANCH  15  16
ATOM     16  C   UNL     1     -13.267   7.019   5.968  1.00  0.00    -0.000 C 
BRANCH  16  17
ATOM     17  C   UNL     1     -14.343   6.679   4.925  1.00  0.00    -0.003 C 
ATOM     18  C   UNL     1     -13.865   5.578   3.983  1.00  0.00     0.004 C 
ENDBRANCH  16  17
ENDBRANCH  15  16
ENDBRANCH  14  15
ENDBRANCH  13  14
ENDBRANCH  12  13
ENDBRANCH  11  12
ENDBRANCH   1  11
TORSDOF 14
ENDMDL
MODEL 8
REMARK VINA RESULT:    -4.656     16.179     18.584
REMARK INTER + INTRA:          -9.474
REMARK INTER:                  -7.927
REMARK INTRA:                  -1.547
REMARK UNBOUND:                -1.007
REMARK SMILES CCCCCCCCCCCCCCCC(=O)[O-]
REMARK SMILES IDX 9 1 10 2 11 3 12 4 13 5 14 6 15 7 16 8 17 9 18 10 8 11 7 12
REMARK SMILES IDX 6 13 5 14 4 15 3 16 2 17 1 18
REMARK H PARENT
REMARK Flexibility Score: inf
ROOT
ATOM      1  C   UNL     1     -10.220   4.790   8.217  1.00  0.00     0.000 C 
ENDROOT
BRANCH   1   2
ATOM      2  C   UNL     1     -11.527   3.978   8.128  1.00  0.00     0.000 C 
BRANCH   2   3
ATOM      3  C   UNL     1     -12.757   4.659   8.760  1.00  0.00     0.000 C 
BRANCH   3   4
ATOM      4  C   UNL     1     -12.566   6.145   9.125  1.00  0.00     0.000 C 
BRANCH   4   5
ATOM      5  C   UNL     1     -12.955   7.141   8.018  1.00  0.00     0.000 C 
BRANCH   5   6
ATOM      6  C   UNL     1     -13.713   6.476   6.856  1.00  0.00     0.006 C 
BRANCH   6   7
ATOM      7  C   UNL     1     -12.966   6.616   5.523  1.00  0.00     0.053 C 
BRANCH   7   8
ATOM      8  C   UNL     1     -13.148   5.406   4.658  1.00  0.00     0.041 C 
ATOM      9  O   UNL     1     -12.426   4.389   4.829  1.00  0.00    -0.550 OA
ATOM     10  O   UNL     1     -14.141   5.389   3.686  1.00  0.00    -0.550 OA
ENDBRANCH   7   8
ENDBRANCH   6   7
ENDBRANCH   5   6
ENDBRANCH   4   5
ENDBRANCH   3   4
ENDBRANCH   2   3
ENDBRANCH   1   2
BRANCH   1  11
ATOM     11  C   UNL     1      -9.691   5.326   6.872  1.00  0.00     0.000 C 
BRANCH  11  12
ATOM     12  C   UNL     1      -9.085   6.741   6.924  1.00  0.00    -0.000 C 
BRANCH  12  13
ATOM     13  C   UNL     1      -9.242   7.506   5.599  1.00  0.00    -0.000 C 
BRANCH  13  14
ATOM     14  C   UNL     1      -8.675   8.934   5.672  1.00  0.00    -0.000 C 
BRANCH  14  15
ATOM     15  C   UNL     1      -7.486   9.047   6.643  1.00  0.00    -0.000 C 
BRANCH  15  16
ATOM     16  C   UNL     1      -7.391  10.433   7.299  1.00  0.00    -0.000 C 
BRANCH  16  17
ATOM     17  C   UNL     1      -5.994  11.058   7.166  1.00  0.00    -0.003 C 
ATOM     18  C   UNL     1      -5.103  10.222   6.253  1.00  0.00     0.004 C 
ENDBRANCH  16  17
ENDBRANCH  15  16
ENDBRANCH  14  15
ENDBRANCH  13  14
ENDBRANCH  12  13
ENDBRANCH  11  12
ENDBRANCH   1  11
TORSDOF 14
ENDMDL
MODEL 9
REMARK VINA RESULT:    -4.654     16.406     18.526
REMARK INTER + INTRA:          -9.470
REMARK INTER:                  -7.637
REMARK INTRA:                  -1.832
REMARK UNBOUND:                -1.007
REMARK SMILES CCCCCCCCCCCCCCCC(=O)[O-]
REMARK SMILES IDX 9 1 10 2 11 3 12 4 13 5 14 6 15 7 16 8 17 9 18 10 8 11 7 12
REMARK SMILES IDX 6 13 5 14 4 15 3 16 2 17 1 18
REMARK H PARENT
REMARK Flexibility Score: inf
ROOT
ATOM      1  C   UNL     1     -11.047   4.859   5.332  1.00  0.00     0.000 C 
ENDROOT
BRANCH   1   2
ATOM      2  C   UNL     1      -9.835   5.541   5.997  1.00  0.00     0.000 C 
BRANCH   2   3
ATOM      3  C   UNL     1      -9.943   7.073   6.125  1.00  0.00     0.000 C 
BRANCH   3   4
ATOM      4  C   UNL     1      -8.608   7.803   6.378  1.00  0.00     0.000 C 
BRANCH   4   5
ATOM      5  C   UNL     1      -8.239   8.865   5.327  1.00  0.00     0.000 C 
BRANCH   5   6
ATOM      6  C   UNL     1      -8.162  10.285   5.915  1.00  0.00     0.006 C 
BRANCH   6   7
ATOM      7  C   UNL     1      -7.290  10.342   7.176  1.00  0.00     0.053 C 
BRANCH   7   8
ATOM      8  C   UNL     1      -5.890  10.775   6.863  1.00  0.00     0.041 C 
ATOM      9  O   UNL     1      -5.034   9.932   6.487  1.00  0.00    -0.550 OA
ATOM     10  O   UNL     1      -5.543  12.118   6.949  1.00  0.00    -0.550 OA
ENDBRANCH   7   8
ENDBRANCH   6   7
ENDBRANCH   5   6
ENDBRANCH   4   5
ENDBRANCH   3   4
ENDBRANCH   2   3
ENDBRANCH   1   2
BRANCH   1  11
ATOM     11  C   UNL     1     -11.746   3.786   6.191  1.00  0.00     0.000 C 
BRANCH  11  12
ATOM     12  C   UNL     1     -11.071   3.489   7.543  1.00  0.00    -0.000 C 
BRANCH  12  13
ATOM     13  C   UNL     1     -11.962   3.844   8.746  1.00  0.00    -0.000 C 
BRANCH  13  14
ATOM     14  C   UNL     1     -12.982   4.947   8.418  1.00  0.00    -0.000 C 
BRANCH  14  15
ATOM     15  C   UNL     1     -12.474   6.350   8.793  1.00  0.00    -0.000 C 
BRANCH  15  16
ATOM     16  C   UNL     1     -13.154   7.461   7.977  1.00  0.00    -0.000 C 
BRANCH  16  17
ATOM     17  C   UNL     1     -14.125   6.911   6.921  1.00  0.00    -0.003 C 
ATOM     18  C   UNL     1     -13.714   7.344   5.518  1.00  0.00     0.004 C 
ENDBRANCH  16  17
ENDBRANCH  15  16
ENDBRANCH  14  15
ENDBRANCH  13  14
ENDBRANCH  12  13
ENDBRANCH  11  12
ENDBRANCH   1  11
TORSDOF 14
ENDMDL
