MODEL 1
REMARK VINA RESULT:    -3.221      0.000      0.000
REMARK INTER + INTRA:         -13.059
REMARK INTER:                  -8.117
REMARK INTRA:                  -4.942
REMARK UNBOUND:                -4.942
REMARK SMILES CCCCCCCCCCCCCCCCCCCCCCCCCCCC(=O)[O-]
REMARK SMILES IDX 15 1 16 2 17 3 18 4 19 5 20 6 21 7 22 8 23 9 24 10 25 11
REMARK SMILES IDX 26 12 27 13 28 14 29 15 30 16 14 17 13 18 12 19 11 20 10 21
REMARK SMILES IDX 9 22 8 23 7 24 6 25 5 26 4 27 3 28 2 29 1 30
REMARK H PARENT
REMARK Flexibility Score: inf
ROOT
ATOM      1  C   UNL     1      56.582  27.120  50.797  1.00  0.00     0.000 C 
ENDROOT
BRANCH   1   2
ATOM      2  C   UNL     1      57.874  27.903  51.078  1.00  0.00     0.000 C 
BRANCH   2   3
ATOM      3  C   UNL     1      58.089  29.090  50.120  1.00  0.00     0.000 C 
BRANCH   3   4
ATOM      4  C   UNL     1      59.315  28.988  49.191  1.00  0.00     0.000 C 
BRANCH   4   5
ATOM      5  C   UNL     1      59.998  27.609  49.235  1.00  0.00     0.000 C 
BRANCH   5   6
ATOM      6  C   UNL     1      61.534  27.709  49.271  1.00  0.00     0.000 C 
BRANCH   6   7
ATOM      7  C   UNL     1      62.195  27.093  50.518  1.00  0.00     0.000 C 
BRANCH   7   8
ATOM      8  C   UNL     1      61.865  27.861  51.808  1.00  0.00     0.000 C 
BRANCH   8   9
ATOM      9  C   UNL     1      60.986  27.015  52.737  1.00  0.00     0.000 C 
BRANCH   9  10
ATOM     10  C   UNL     1      60.999  25.537  52.317  1.00  0.00     0.000 C 
BRANCH  10  11
ATOM     11  C   UNL     1      59.602  24.898  52.362  1.00  0.00     0.000 C 
BRANCH  11  12
ATOM     12  C   UNL     1      59.405  23.830  51.271  1.00  0.00     0.006 C 
BRANCH  12  13
ATOM     13  C   UNL     1      60.354  24.034  50.082  1.00  0.00     0.053 C 
BRANCH  13  14
ATOM     14  C   UNL     1      61.194  22.821  49.817  1.00  0.00     0.041 C 
ATOM     15  O   UNL     1      62.280  22.654  50.434  1.00  0.00    -0.550 OA
ATOM     16  O   UNL     1      60.772  21.871  48.894  1.00  0.00    -0.550 OA
ENDBRANCH  13  14
ENDBRANCH  12  13
ENDBRANCH  11  12
ENDBRANCH  10  11
ENDBRANCH   9  10
ENDBRANCH   8   9
ENDBRANCH   7   8
ENDBRANCH   6   7
ENDBRANCH   5   6
ENDBRANCH   4   5
ENDBRANCH   3   4
ENDBRANCH   2   3
ENDBRANCH   1   2
BRANCH   1  17
ATOM     17  C   UNL     1      55.415  28.027  50.367  1.00  0.00     0.000 C 
BRANCH  17  18
ATOM     18  C   UNL     1      54.239  27.266  49.718  1.00  0.00     0.000 C 
BRANCH  18  19
ATOM     19  C   UNL     1      54.579  25.792  49.429  1.00  0.00     0.000 C 
BRANCH  19  20
ATOM     20  C   UNL     1      53.462  24.832  49.865  1.00  0.00     0.000 C 
BRANCH  20  21
ATOM     21  C   UNL     1      53.104  24.976  51.356  1.00  0.00     0.000 C 
BRANCH  21  22
ATOM     22  C   UNL     1      54.269  24.605  52.287  1.00  0.00    -0.000 C 
BRANCH  22  23
ATOM     23  C   UNL     1      54.476  25.631  53.416  1.00  0.00    -0.000 C 
BRANCH  23  24
ATOM     24  C   UNL     1      53.297  26.612  53.558  1.00  0.00    -0.000 C 
BRANCH  24  25
ATOM     25  C   UNL     1      53.691  28.035  53.994  1.00  0.00    -0.000 C 
BRANCH  25  26
ATOM     26  C   UNL     1      55.214  28.240  54.043  1.00  0.00    -0.000 C 
BRANCH  26  27
ATOM     27  C   UNL     1      55.634  29.682  53.710  1.00  0.00    -0.000 C 
BRANCH  27  28
ATOM     28  C   UNL     1      54.530  30.742  53.908  1.00  0.00    -0.000 C 
BRANCH  28  29
ATOM     29  C   UNL     1      54.172  31.551  52.649  1.00  0.00    -0.003 C 
ATOM     30  C   UNL     1      53.502  30.706  51.566  1.00  0.00     0.004 C 
ENDBRANCH  28  29
ENDBRANCH  27  28
ENDBRANCH  26  27
ENDBRANCH  25  26
ENDBRANCH  24  25
ENDBRANCH  23  24
ENDBRANCH  22  23
ENDBRANCH  21  22
ENDBRANCH  20  21
ENDBRANCH  19  20
ENDBRANCH  18  19
ENDBRANCH  17  18
ENDBRANCH   1  17
TORSDOF 26
ENDMDL
MODEL 2
REMARK VINA RESULT:    -3.110      3.575      5.786
REMARK INTER + INTRA:         -12.779
REMARK INTER:                  -8.308
REMARK INTRA:                  -4.471
REMARK UNBOUND:                -4.942
REMARK SMILES CCCCCCCCCCCCCCCCCCCCCCCCCCCC(=O)[O-]
REMARK SMILES IDX 15 1 16 2 17 3 18 4 19 5 20 6 21 7 22 8 23 9 24 10 25 11
REMARK SMILES IDX 26 12 27 13 28 14 29 15 30 16 14 17 13 18 12 19 11 20 10 21
REMARK SMILES IDX 9 22 8 23 7 24 6 25 5 26 4 27 3 28 2 29 1 30
REMARK H PARENT
REMARK Flexibility Score: inf
ROOT
ATOM      1  C   UNL     1      58.002  28.883  50.273  1.00  0.00     0.000 C 
ENDROOT
BRANCH   1   2
ATOM      2  C   UNL     1      59.138  29.050  49.251  1.00  0.00     0.000 C 
BRANCH   2   3
ATOM      3  C   UNL     1      59.996  27.782  49.081  1.00  0.00     0.000 C 
BRANCH   3   4
ATOM      4  C   UNL     1      59.287  26.448  49.385  1.00  0.00     0.000 C 
BRANCH   4   5
ATOM      5  C   UNL     1      60.159  25.462  50.184  1.00  0.00     0.000 C 
BRANCH   5   6
ATOM      6  C   UNL     1      61.433  26.119  50.746  1.00  0.00     0.000 C 
BRANCH   6   7
ATOM      7  C   UNL     1      62.751  25.445  50.322  1.00  0.00     0.000 C 
BRANCH   7   8
ATOM      8  C   UNL     1      63.820  26.454  49.875  1.00  0.00     0.000 C 
BRANCH   8   9
ATOM      9  C   UNL     1      63.684  27.772  50.648  1.00  0.00     0.000 C 
BRANCH   9  10
ATOM     10  C   UNL     1      63.407  28.946  49.696  1.00  0.00     0.000 C 
BRANCH  10  11
ATOM     11  C   UNL     1      62.524  30.028  50.335  1.00  0.00     0.000 C 
BRANCH  11  12
ATOM     12  C   UNL     1      63.247  31.381  50.466  1.00  0.00     0.006 C 
BRANCH  12  13
ATOM     13  C   UNL     1      63.255  32.163  49.145  1.00  0.00     0.053 C 
BRANCH  13  14
ATOM     14  C   UNL     1      62.476  33.440  49.243  1.00  0.00     0.041 C 
ATOM     15  O   UNL     1      62.287  34.148  48.217  1.00  0.00    -0.550 OA
ATOM     16  O   UNL     1      61.953  33.845  50.466  1.00  0.00    -0.550 OA
ENDBRANCH  13  14
ENDBRANCH  12  13
ENDBRANCH  11  12
ENDBRANCH  10  11
ENDBRANCH   9  10
ENDBRANCH   8   9
ENDBRANCH   7   8
ENDBRANCH   6   7
ENDBRANCH   5   6
ENDBRANCH   4   5
ENDBRANCH   3   4
ENDBRANCH   2   3
ENDBRANCH   1   2
BRANCH   1  17
ATOM     17  C   UNL     1      58.436  29.223  51.710  1.00  0.00     0.000 C 
BRANCH  17  18
ATOM     18  C   UNL     1      58.485  28.001  52.653  1.00  0.00     0.000 C 
BRANCH  18  19
ATOM     19  C   UNL     1      57.414  26.949  52.309  1.00  0.00     0.000 C 
BRANCH  19  20
ATOM     20  C   UNL     1      56.668  26.439  53.551  1.00  0.00     0.000 C 
BRANCH  20  21
ATOM     21  C   UNL     1      56.288  27.572  54.523  1.00  0.00     0.000 C 
BRANCH  21  22
ATOM     22  C   UNL     1      54.989  28.289  54.124  1.00  0.00    -0.000 C 
BRANCH  22  23
ATOM     23  C   UNL     1      55.231  29.730  53.639  1.00  0.00    -0.000 C 
BRANCH  23  24
ATOM     24  C   UNL     1      54.684  29.985  52.221  1.00  0.00    -0.000 C 
BRANCH  24  25
ATOM     25  C   UNL     1      53.921  28.801  51.602  1.00  0.00    -0.000 C 
BRANCH  25  26
ATOM     26  C   UNL     1      54.334  28.524  50.146  1.00  0.00    -0.000 C 
BRANCH  26  27
ATOM     27  C   UNL     1      54.767  27.066  49.915  1.00  0.00    -0.000 C 
BRANCH  27  28
ATOM     28  C   UNL     1      53.659  26.137  49.376  1.00  0.00    -0.000 C 
BRANCH  28  29
ATOM     29  C   UNL     1      53.563  24.768  50.073  1.00  0.00    -0.003 C 
ATOM     30  C   UNL     1      53.595  24.870  51.597  1.00  0.00     0.004 C 
ENDBRANCH  28  29
ENDBRANCH  27  28
ENDBRANCH  26  27
ENDBRANCH  25  26
ENDBRANCH  24  25
ENDBRANCH  23  24
ENDBRANCH  22  23
ENDBRANCH  21  22
ENDBRANCH  20  21
ENDBRANCH  19  20
ENDBRANCH  18  19
ENDBRANCH  17  18
ENDBRANCH   1  17
TORSDOF 26
ENDMDL
MODEL 3
REMARK VINA RESULT:    -3.102      3.874      7.621
REMARK INTER + INTRA:         -12.759
REMARK INTER:                  -8.941
REMARK INTRA:                  -3.819
REMARK UNBOUND:                -4.942
REMARK SMILES CCCCCCCCCCCCCCCCCCCCCCCCCCCC(=O)[O-]
REMARK SMILES IDX 15 1 16 2 17 3 18 4 19 5 20 6 21 7 22 8 23 9 24 10 25 11
REMARK SMILES IDX 26 12 27 13 28 14 29 15 30 16 14 17 13 18 12 19 11 20 10 21
REMARK SMILES IDX 9 22 8 23 7 24 6 25 5 26 4 27 3 28 2 29 1 30
REMARK H PARENT
REMARK Flexibility Score: inf
ROOT
ATOM      1  C   UNL     1      58.839  25.815  52.209  1.00  0.00     0.000 C 
ENDROOT
BRANCH   1   2
ATOM      2  C   UNL     1      58.380  25.165  50.894  1.00  0.00     0.000 C 
BRANCH   2   3
ATOM      3  C   UNL     1      59.394  25.331  49.746  1.00  0.00     0.000 C 
BRANCH   3   4
ATOM      4  C   UNL     1      60.755  25.939  50.137  1.00  0.00     0.000 C 
BRANCH   4   5
ATOM      5  C   UNL     1      61.049  27.276  49.432  1.00  0.00     0.000 C 
BRANCH   5   6
ATOM      6  C   UNL     1      60.642  28.495  50.278  1.00  0.00     0.000 C 
BRANCH   6   7
ATOM      7  C   UNL     1      59.494  29.337  49.692  1.00  0.00     0.000 C 
BRANCH   7   8
ATOM      8  C   UNL     1      58.112  28.708  49.929  1.00  0.00     0.000 C 
BRANCH   8   9
ATOM      9  C   UNL     1      57.549  29.125  51.294  1.00  0.00     0.000 C 
BRANCH   9  10
ATOM     10  C   UNL     1      56.176  28.483  51.546  1.00  0.00     0.000 C 
BRANCH  10  11
ATOM     11  C   UNL     1      55.103  28.977  50.564  1.00  0.00     0.000 C 
BRANCH  11  12
ATOM     12  C   UNL     1      54.259  27.828  49.983  1.00  0.00     0.006 C 
BRANCH  12  13
ATOM     13  C   UNL     1      55.055  26.520  49.877  1.00  0.00     0.053 C 
BRANCH  13  14
ATOM     14  C   UNL     1      54.246  25.333  50.304  1.00  0.00     0.041 C 
ATOM     15  O   UNL     1      53.505  24.739  49.475  1.00  0.00    -0.550 OA
ATOM     16  O   UNL     1      54.316  24.877  51.615  1.00  0.00    -0.550 OA
ENDBRANCH  13  14
ENDBRANCH  12  13
ENDBRANCH  11  12
ENDBRANCH  10  11
ENDBRANCH   9  10
ENDBRANCH   8   9
ENDBRANCH   7   8
ENDBRANCH   6   7
ENDBRANCH   5   6
ENDBRANCH   4   5
ENDBRANCH   3   4
ENDBRANCH   2   3
ENDBRANCH   1   2
BRANCH   1  17
ATOM     17  C   UNL     1      58.915  24.814  53.376  1.00  0.00     0.000 C 
BRANCH  17  18
ATOM     18  C   UNL     1      57.812  23.734  53.345  1.00  0.00     0.000 C 
BRANCH  18  19
ATOM     19  C   UNL     1      58.383  22.307  53.447  1.00  0.00     0.000 C 
BRANCH  19  20
ATOM     20  C   UNL     1      59.499  22.045  52.424  1.00  0.00     0.000 C 
BRANCH  20  21
ATOM     21  C   UNL     1      59.740  20.545  52.178  1.00  0.00     0.000 C 
BRANCH  21  22
ATOM     22  C   UNL     1      59.971  20.213  50.695  1.00  0.00    -0.000 C 
BRANCH  22  23
ATOM     23  C   UNL     1      59.808  18.713  50.390  1.00  0.00    -0.000 C 
BRANCH  23  24
ATOM     24  C   UNL     1      58.534  18.400  49.582  1.00  0.00    -0.000 C 
BRANCH  24  25
ATOM     25  C   UNL     1      57.411  17.722  50.386  1.00  0.00    -0.000 C 
BRANCH  25  26
ATOM     26  C   UNL     1      56.214  18.655  50.636  1.00  0.00    -0.000 C 
BRANCH  26  27
ATOM     27  C   UNL     1      56.321  19.422  51.965  1.00  0.00    -0.000 C 
BRANCH  27  28
ATOM     28  C   UNL     1      56.813  18.582  53.162  1.00  0.00    -0.000 C 
BRANCH  28  29
ATOM     29  C   UNL     1      55.792  18.413  54.301  1.00  0.00    -0.003 C 
ATOM     30  C   UNL     1      54.465  19.117  54.023  1.00  0.00     0.004 C 
ENDBRANCH  28  29
ENDBRANCH  27  28
ENDBRANCH  26  27
ENDBRANCH  25  26
ENDBRANCH  24  25
ENDBRANCH  23  24
ENDBRANCH  22  23
ENDBRANCH  21  22
ENDBRANCH  20  21
ENDBRANCH  19  20
ENDBRANCH  18  19
ENDBRANCH  17  18
ENDBRANCH   1  17
TORSDOF 26
ENDMDL
MODEL 4
REMARK VINA RESULT:    -3.061     11.016     13.603
REMARK INTER + INTRA:         -12.656
REMARK INTER:                  -9.471
REMARK INTRA:                  -3.185
REMARK UNBOUND:                -4.942
REMARK SMILES CCCCCCCCCCCCCCCCCCCCCCCCCCCC(=O)[O-]
REMARK SMILES IDX 15 1 16 2 17 3 18 4 19 5 20 6 21 7 22 8 23 9 24 10 25 11
REMARK SMILES IDX 26 12 27 13 28 14 29 15 30 16 14 17 13 18 12 19 11 20 10 21
REMARK SMILES IDX 9 22 8 23 7 24 6 25 5 26 4 27 3 28 2 29 1 30
REMARK H PARENT
REMARK Flexibility Score: inf
ROOT
ATOM      1  C   UNL     1      62.959  29.309  61.229  1.00  0.00     0.000 C 
ENDROOT
BRANCH   1   2
ATOM      2  C   UNL     1      63.865  30.499  61.586  1.00  0.00     0.000 C 
BRANCH   2   3
ATOM      3  C   UNL     1      65.002  30.725  60.572  1.00  0.00     0.000 C 
BRANCH   3   4
ATOM      4  C   UNL     1      65.239  29.582  59.565  1.00  0.00     0.000 C 
BRANCH   4   5
ATOM      5  C   UNL     1      66.661  28.997  59.632  1.00  0.00     0.000 C 
BRANCH   5   6
ATOM      6  C   UNL     1      67.039  28.516  61.044  1.00  0.00     0.000 C 
BRANCH   6   7
ATOM      7  C   UNL     1      68.477  28.852  61.480  1.00  0.00     0.000 C 
BRANCH   7   8
ATOM      8  C   UNL     1      69.332  29.413  60.333  1.00  0.00     0.000 C 
BRANCH   8   9
ATOM      9  C   UNL     1      70.731  28.783  60.336  1.00  0.00     0.000 C 
BRANCH   9  10
ATOM     10  C   UNL     1      71.823  29.859  60.234  1.00  0.00     0.000 C 
BRANCH  10  11
ATOM     11  C   UNL     1      71.558  31.059  61.156  1.00  0.00     0.000 C 
BRANCH  11  12
ATOM     12  C   UNL     1      71.839  32.407  60.468  1.00  0.00     0.006 C 
BRANCH  12  13
ATOM     13  C   UNL     1      71.484  32.381  58.975  1.00  0.00     0.053 C 
BRANCH  13  14
ATOM     14  C   UNL     1      71.262  33.758  58.426  1.00  0.00     0.041 C 
ATOM     15  O   UNL     1      71.689  34.060  57.279  1.00  0.00    -0.550 OA
ATOM     16  O   UNL     1      70.575  34.705  59.177  1.00  0.00    -0.550 OA
ENDBRANCH  13  14
ENDBRANCH  12  13
ENDBRANCH  11  12
ENDBRANCH  10  11
ENDBRANCH   9  10
ENDBRANCH   8   9
ENDBRANCH   7   8
ENDBRANCH   6   7
ENDBRANCH   5   6
ENDBRANCH   4   5
ENDBRANCH   3   4
ENDBRANCH   2   3
ENDBRANCH   1   2
BRANCH   1  17
ATOM     17  C   UNL     1      61.463  29.669  61.254  1.00  0.00     0.000 C 
BRANCH  17  18
ATOM     18  C   UNL     1      61.171  31.093  61.774  1.00  0.00     0.000 C 
BRANCH  18  19
ATOM     19  C   UNL     1      61.009  32.115  60.633  1.00  0.00     0.000 C 
BRANCH  19  20
ATOM     20  C   UNL     1      60.554  31.463  59.319  1.00  0.00     0.000 C 
BRANCH  20  21
ATOM     21  C   UNL     1      61.563  31.667  58.174  1.00  0.00     0.000 C 
BRANCH  21  22
ATOM     22  C   UNL     1      61.569  33.106  57.634  1.00  0.00    -0.000 C 
BRANCH  22  23
ATOM     23  C   UNL     1      60.228  33.504  56.990  1.00  0.00    -0.000 C 
BRANCH  23  24
ATOM     24  C   UNL     1      59.542  34.678  57.712  1.00  0.00    -0.000 C 
BRANCH  24  25
ATOM     25  C   UNL     1      60.499  35.771  58.221  1.00  0.00    -0.000 C 
BRANCH  25  26
ATOM     26  C   UNL     1      60.037  36.393  59.550  1.00  0.00    -0.000 C 
BRANCH  26  27
ATOM     27  C   UNL     1      61.119  36.344  60.641  1.00  0.00    -0.000 C 
BRANCH  27  28
ATOM     28  C   UNL     1      62.353  35.486  60.294  1.00  0.00    -0.000 C 
BRANCH  28  29
ATOM     29  C   UNL     1      63.500  35.551  61.318  1.00  0.00    -0.003 C 
ATOM     30  C   UNL     1      64.443  34.352  61.237  1.00  0.00     0.004 C 
ENDBRANCH  28  29
ENDBRANCH  27  28
ENDBRANCH  26  27
ENDBRANCH  25  26
ENDBRANCH  24  25
ENDBRANCH  23  24
ENDBRANCH  22  23
ENDBRANCH  21  22
ENDBRANCH  20  21
ENDBRANCH  19  20
ENDBRANCH  18  19
ENDBRANCH  17  18
ENDBRANCH   1  17
TORSDOF 26
ENDMDL
MODEL 5
REMARK VINA RESULT:    -3.000     10.833     13.592
REMARK INTER + INTRA:         -12.501
REMARK INTER:                  -7.783
REMARK INTRA:                  -4.718
REMARK UNBOUND:                -4.942
REMARK SMILES CCCCCCCCCCCCCCCCCCCCCCCCCCCC(=O)[O-]
REMARK SMILES IDX 15 1 16 2 17 3 18 4 19 5 20 6 21 7 22 8 23 9 24 10 25 11
REMARK SMILES IDX 26 12 27 13 28 14 29 15 30 16 14 17 13 18 12 19 11 20 10 21
REMARK SMILES IDX 9 22 8 23 7 24 6 25 5 26 4 27 3 28 2 29 1 30
REMARK H PARENT
REMARK Flexibility Score: inf
ROOT
ATOM      1  C   UNL     1      62.468  32.350  60.100  1.00  0.00     0.000 C 
ENDROOT
BRANCH   1   2
ATOM      2  C   UNL     1      61.230  32.274  61.008  1.00  0.00     0.000 C 
BRANCH   2   3
ATOM      3  C   UNL     1      61.071  30.911  61.708  1.00  0.00     0.000 C 
BRANCH   3   4
ATOM      4  C   UNL     1      61.349  29.672  60.834  1.00  0.00     0.000 C 
BRANCH   4   5
ATOM      5  C   UNL     1      62.417  28.735  61.426  1.00  0.00     0.000 C 
BRANCH   5   6
ATOM      6  C   UNL     1      63.822  29.365  61.429  1.00  0.00     0.000 C 
BRANCH   6   7
ATOM      7  C   UNL     1      64.630  29.153  60.136  1.00  0.00     0.000 C 
BRANCH   7   8
ATOM      8  C   UNL     1      65.953  29.936  60.124  1.00  0.00     0.000 C 
BRANCH   8   9
ATOM      9  C   UNL     1      67.056  29.155  60.850  1.00  0.00     0.000 C 
BRANCH   9  10
ATOM     10  C   UNL     1      68.269  28.930  59.934  1.00  0.00     0.000 C 
BRANCH  10  11
ATOM     11  C   UNL     1      68.437  30.046  58.892  1.00  0.00     0.000 C 
BRANCH  11  12
ATOM     12  C   UNL     1      69.899  30.219  58.440  1.00  0.00     0.006 C 
BRANCH  12  13
ATOM     13  C   UNL     1      70.459  31.599  58.808  1.00  0.00     0.053 C 
BRANCH  13  14
ATOM     14  C   UNL     1      71.246  31.566  60.083  1.00  0.00     0.041 C 
ATOM     15  O   UNL     1      71.563  30.462  60.605  1.00  0.00    -0.550 OA
ATOM     16  O   UNL     1      71.637  32.753  60.692  1.00  0.00    -0.550 OA
ENDBRANCH  13  14
ENDBRANCH  12  13
ENDBRANCH  11  12
ENDBRANCH  10  11
ENDBRANCH   9  10
ENDBRANCH   8   9
ENDBRANCH   7   8
ENDBRANCH   6   7
ENDBRANCH   5   6
ENDBRANCH   4   5
ENDBRANCH   3   4
ENDBRANCH   2   3
ENDBRANCH   1   2
BRANCH   1  17
ATOM     17  C   UNL     1      63.671  33.024  60.785  1.00  0.00     0.000 C 
BRANCH  17  18
ATOM     18  C   UNL     1      64.518  33.902  59.838  1.00  0.00     0.000 C 
BRANCH  18  19
ATOM     19  C   UNL     1      64.558  35.377  60.282  1.00  0.00     0.000 C 
BRANCH  19  20
ATOM     20  C   UNL     1      63.529  35.689  61.380  1.00  0.00     0.000 C 
BRANCH  20  21
ATOM     21  C   UNL     1      62.431  36.658  60.907  1.00  0.00     0.000 C 
BRANCH  21  22
ATOM     22  C   UNL     1      61.119  35.943  60.546  1.00  0.00    -0.000 C 
BRANCH  22  23
ATOM     23  C   UNL     1      60.709  36.160  59.078  1.00  0.00    -0.000 C 
BRANCH  23  24
ATOM     24  C   UNL     1      60.802  34.874  58.234  1.00  0.00    -0.000 C 
BRANCH  24  25
ATOM     25  C   UNL     1      61.995  34.826  57.263  1.00  0.00    -0.000 C 
BRANCH  25  26
ATOM     26  C   UNL     1      62.180  33.442  56.618  1.00  0.00    -0.000 C 
BRANCH  26  27
ATOM     27  C   UNL     1      63.647  33.136  56.269  1.00  0.00    -0.000 C 
BRANCH  27  28
ATOM     28  C   UNL     1      64.191  31.815  56.849  1.00  0.00    -0.000 C 
BRANCH  28  29
ATOM     29  C   UNL     1      65.675  31.536  56.551  1.00  0.00    -0.003 C 
ATOM     30  C   UNL     1      66.615  32.558  57.190  1.00  0.00     0.004 C 
ENDBRANCH  28  29
ENDBRANCH  27  28
ENDBRANCH  26  27
ENDBRANCH  25  26
ENDBRANCH  24  25
ENDBRANCH  23  24
ENDBRANCH  22  23
ENDBRANCH  21  22
ENDBRANCH  20  21
ENDBRANCH  19  20
ENDBRANCH  18  19
ENDBRANCH  17  18
ENDBRANCH   1  17
TORSDOF 26
ENDMDL
MODEL 6
REMARK VINA RESULT:    -2.966      3.409      5.876
REMARK INTER + INTRA:         -12.417
REMARK INTER:                  -6.924
REMARK INTRA:                  -5.494
REMARK UNBOUND:                -4.942
REMARK SMILES CCCCCCCCCCCCCCCCCCCCCCCCCCCC(=O)[O-]
REMARK SMILES IDX 15 1 16 2 17 3 18 4 19 5 20 6 21 7 22 8 23 9 24 10 25 11
REMARK SMILES IDX 26 12 27 13 28 14 29 15 30 16 14 17 13 18 12 19 11 20 10 21
REMARK SMILES IDX 9 22 8 23 7 24 6 25 5 26 4 27 3 28 2 29 1 30
REMARK H PARENT
REMARK Flexibility Score: inf
ROOT
ATOM      1  C   UNL     1      57.952  28.683  50.083  1.00  0.00     0.000 C 
ENDROOT
BRANCH   1   2
ATOM      2  C   UNL     1      59.445  28.702  49.717  1.00  0.00     0.000 C 
BRANCH   2   3
ATOM      3  C   UNL     1      60.022  27.301  49.438  1.00  0.00     0.000 C 
BRANCH   3   4
ATOM      4  C   UNL     1      58.994  26.154  49.375  1.00  0.00     0.000 C 
BRANCH   4   5
ATOM      5  C   UNL     1      59.231  25.065  50.436  1.00  0.00     0.000 C 
BRANCH   5   6
ATOM      6  C   UNL     1      58.168  25.080  51.550  1.00  0.00     0.000 C 
BRANCH   6   7
ATOM      7  C   UNL     1      58.696  25.468  52.943  1.00  0.00     0.000 C 
BRANCH   7   8
ATOM      8  C   UNL     1      60.226  25.606  52.985  1.00  0.00     0.000 C 
BRANCH   8   9
ATOM      9  C   UNL     1      60.640  26.855  53.774  1.00  0.00     0.000 C 
BRANCH   9  10
ATOM     10  C   UNL     1      61.174  27.949  52.837  1.00  0.00     0.000 C 
BRANCH  10  11
ATOM     11  C   UNL     1      61.721  29.166  53.601  1.00  0.00     0.000 C 
BRANCH  11  12
ATOM     12  C   UNL     1      62.247  30.266  52.662  1.00  0.00     0.006 C 
BRANCH  12  13
ATOM     13  C   UNL     1      61.110  31.089  52.040  1.00  0.00     0.053 C 
BRANCH  13  14
ATOM     14  C   UNL     1      61.160  32.527  52.461  1.00  0.00     0.041 C 
ATOM     15  O   UNL     1      60.830  32.856  53.633  1.00  0.00    -0.550 OA
ATOM     16  O   UNL     1      61.579  33.502  51.563  1.00  0.00    -0.550 OA
ENDBRANCH  13  14
ENDBRANCH  12  13
ENDBRANCH  11  12
ENDBRANCH  10  11
ENDBRANCH   9  10
ENDBRANCH   8   9
ENDBRANCH   7   8
ENDBRANCH   6   7
ENDBRANCH   5   6
ENDBRANCH   4   5
ENDBRANCH   3   4
ENDBRANCH   2   3
ENDBRANCH   1   2
BRANCH   1  17
ATOM     17  C   UNL     1      57.619  29.593  51.279  1.00  0.00     0.000 C 
BRANCH  17  18
ATOM     18  C   UNL     1      57.613  28.861  52.638  1.00  0.00     0.000 C 
BRANCH  18  19
ATOM     19  C   UNL     1      57.984  29.791  53.809  1.00  0.00     0.000 C 
BRANCH  19  20
ATOM     20  C   UNL     1      57.699  31.269  53.500  1.00  0.00     0.000 C 
BRANCH  20  21
ATOM     21  C   UNL     1      56.434  31.790  54.206  1.00  0.00     0.000 C 
BRANCH  21  22
ATOM     22  C   UNL     1      55.169  31.645  53.347  1.00  0.00    -0.000 C 
BRANCH  22  23
ATOM     23  C   UNL     1      54.265  30.489  53.811  1.00  0.00    -0.000 C 
BRANCH  23  24
ATOM     24  C   UNL     1      53.416  29.896  52.671  1.00  0.00    -0.000 C 
BRANCH  24  25
ATOM     25  C   UNL     1      53.980  30.130  51.258  1.00  0.00    -0.000 C 
BRANCH  25  26
ATOM     26  C   UNL     1      53.318  29.233  50.198  1.00  0.00    -0.000 C 
BRANCH  26  27
ATOM     27  C   UNL     1      53.384  27.738  50.555  1.00  0.00    -0.000 C 
BRANCH  27  28
ATOM     28  C   UNL     1      54.809  27.156  50.657  1.00  0.00    -0.000 C 
BRANCH  28  29
ATOM     29  C   UNL     1      55.136  26.055  49.634  1.00  0.00    -0.003 C 
ATOM     30  C   UNL     1      53.890  25.446  48.992  1.00  0.00     0.004 C 
ENDBRANCH  28  29
ENDBRANCH  27  28
ENDBRANCH  26  27
ENDBRANCH  25  26
ENDBRANCH  24  25
ENDBRANCH  23  24
ENDBRANCH  22  23
ENDBRANCH  21  22
ENDBRANCH  20  21
ENDBRANCH  19  20
ENDBRANCH  18  19
ENDBRANCH  17  18
ENDBRANCH   1  17
TORSDOF 26
ENDMDL
MODEL 7
REMARK VINA RESULT:    -2.963      9.354     12.192
REMARK INTER + INTRA:         -12.410
REMARK INTER:                  -7.411
REMARK INTRA:                  -4.999
REMARK UNBOUND:                -4.942
REMARK SMILES CCCCCCCCCCCCCCCCCCCCCCCCCCCC(=O)[O-]
REMARK SMILES IDX 15 1 16 2 17 3 18 4 19 5 20 6 21 7 22 8 23 9 24 10 25 11
REMARK SMILES IDX 26 12 27 13 28 14 29 15 30 16 14 17 13 18 12 19 11 20 10 21
REMARK SMILES IDX 9 22 8 23 7 24 6 25 5 26 4 27 3 28 2 29 1 30
REMARK H PARENT
REMARK Flexibility Score: inf
ROOT
ATOM      1  C   UNL     1      61.109  31.091  61.433  1.00  0.00     0.000 C 
ENDROOT
BRANCH   1   2
ATOM      2  C   UNL     1      62.329  30.217  61.767  1.00  0.00     0.000 C 
BRANCH   2   3
ATOM      3  C   UNL     1      63.674  30.919  61.496  1.00  0.00     0.000 C 
BRANCH   3   4
ATOM      4  C   UNL     1      64.629  30.187  60.533  1.00  0.00     0.000 C 
BRANCH   4   5
ATOM      5  C   UNL     1      64.134  30.176  59.076  1.00  0.00     0.000 C 
BRANCH   5   6
ATOM      6  C   UNL     1      63.710  28.773  58.604  1.00  0.00     0.000 C 
BRANCH   6   7
ATOM      7  C   UNL     1      62.193  28.577  58.432  1.00  0.00     0.000 C 
BRANCH   7   8
ATOM      8  C   UNL     1      61.656  27.365  59.208  1.00  0.00     0.000 C 
BRANCH   8   9
ATOM      9  C   UNL     1      60.380  27.730  59.977  1.00  0.00     0.000 C 
BRANCH   9  10
ATOM     10  C   UNL     1      59.562  28.789  59.221  1.00  0.00     0.000 C 
BRANCH  10  11
ATOM     11  C   UNL     1      58.393  28.180  58.432  1.00  0.00     0.000 C 
BRANCH  11  12
ATOM     12  C   UNL     1      57.523  27.244  59.292  1.00  0.00     0.006 C 
BRANCH  12  13
ATOM     13  C   UNL     1      56.560  28.021  60.200  1.00  0.00     0.053 C 
BRANCH  13  14
ATOM     14  C   UNL     1      56.847  27.790  61.653  1.00  0.00     0.041 C 
ATOM     15  O   UNL     1      56.279  28.493  62.532  1.00  0.00    -0.550 OA
ATOM     16  O   UNL     1      57.737  26.793  62.037  1.00  0.00    -0.550 OA
ENDBRANCH  13  14
ENDBRANCH  12  13
ENDBRANCH  11  12
ENDBRANCH  10  11
ENDBRANCH   9  10
ENDBRANCH   8   9
ENDBRANCH   7   8
ENDBRANCH   6   7
ENDBRANCH   5   6
ENDBRANCH   4   5
ENDBRANCH   3   4
ENDBRANCH   2   3
ENDBRANCH   1   2
BRANCH   1  17
ATOM     17  C   UNL     1      61.476  32.340  60.611  1.00  0.00     0.000 C 
BRANCH  17  18
ATOM     18  C   UNL     1      61.288  32.164  59.089  1.00  0.00     0.000 C 
BRANCH  18  19
ATOM     19  C   UNL     1      59.841  32.442  58.639  1.00  0.00     0.000 C 
BRANCH  19  20
ATOM     20  C   UNL     1      59.679  33.830  58.002  1.00  0.00     0.000 C 
BRANCH  20  21
ATOM     21  C   UNL     1      61.005  34.610  57.931  1.00  0.00     0.000 C 
BRANCH  21  22
ATOM     22  C   UNL     1      60.907  36.013  58.551  1.00  0.00    -0.000 C 
BRANCH  22  23
ATOM     23  C   UNL     1      60.626  35.974  60.064  1.00  0.00    -0.000 C 
BRANCH  23  24
ATOM     24  C   UNL     1      61.492  36.970  60.860  1.00  0.00    -0.000 C 
BRANCH  24  25
ATOM     25  C   UNL     1      62.984  36.971  60.483  1.00  0.00    -0.000 C 
BRANCH  25  26
ATOM     26  C   UNL     1      63.848  36.177  61.478  1.00  0.00    -0.000 C 
BRANCH  26  27
ATOM     27  C   UNL     1      63.847  34.665  61.197  1.00  0.00    -0.000 C 
BRANCH  27  28
ATOM     28  C   UNL     1      64.927  34.188  60.204  1.00  0.00    -0.000 C 
BRANCH  28  29
ATOM     29  C   UNL     1      64.417  33.892  58.782  1.00  0.00    -0.003 C 
ATOM     30  C   UNL     1      64.740  35.007  57.788  1.00  0.00     0.004 C 
ENDBRANCH  28  29
ENDBRANCH  27  28
ENDBRANCH  26  27
ENDBRANCH  25  26
ENDBRANCH  24  25
ENDBRANCH  23  24
ENDBRANCH  22  23
ENDBRANCH  21  22
ENDBRANCH  20  21
ENDBRANCH  19  20
ENDBRANCH  18  19
ENDBRANCH  17  18
ENDBRANCH   1  17
TORSDOF 26
ENDMDL
MODEL 8
REMARK VINA RESULT:    -2.952     10.996     14.266
REMARK INTER + INTRA:         -12.382
REMARK INTER:                  -8.382
REMARK INTRA:                  -4.001
REMARK UNBOUND:                -4.942
REMARK SMILES CCCCCCCCCCCCCCCCCCCCCCCCCCCC(=O)[O-]
REMARK SMILES IDX 15 1 16 2 17 3 18 4 19 5 20 6 21 7 22 8 23 9 24 10 25 11
REMARK SMILES IDX 26 12 27 13 28 14 29 15 30 16 14 17 13 18 12 19 11 20 10 21
REMARK SMILES IDX 9 22 8 23 7 24 6 25 5 26 4 27 3 28 2 29 1 30
REMARK H PARENT
REMARK Flexibility Score: inf
ROOT
ATOM      1  C   UNL     1      62.488  31.549  60.983  1.00  0.00     0.000 C 
ENDROOT
BRANCH   1   2
ATOM      2  C   UNL     1      61.995  30.290  61.716  1.00  0.00     0.000 C 
BRANCH   2   3
ATOM      3  C   UNL     1      62.160  29.001  60.889  1.00  0.00     0.000 C 
BRANCH   3   4
ATOM      4  C   UNL     1      63.089  29.104  59.664  1.00  0.00     0.000 C 
BRANCH   4   5
ATOM      5  C   UNL     1      64.142  27.984  59.601  1.00  0.00     0.000 C 
BRANCH   5   6
ATOM      6  C   UNL     1      65.065  27.968  60.833  1.00  0.00     0.000 C 
BRANCH   6   7
ATOM      7  C   UNL     1      66.066  29.135  60.908  1.00  0.00     0.000 C 
BRANCH   7   8
ATOM      8  C   UNL     1      67.530  28.668  60.893  1.00  0.00     0.000 C 
BRANCH   8   9
ATOM      9  C   UNL     1      68.077  28.630  59.460  1.00  0.00     0.000 C 
BRANCH   9  10
ATOM     10  C   UNL     1      69.381  29.434  59.344  1.00  0.00     0.000 C 
BRANCH  10  11
ATOM     11  C   UNL     1      70.046  29.680  60.707  1.00  0.00     0.000 C 
BRANCH  11  12
ATOM     12  C   UNL     1      71.571  29.474  60.666  1.00  0.00     0.006 C 
BRANCH  12  13
ATOM     13  C   UNL     1      72.339  30.755  61.019  1.00  0.00     0.053 C 
BRANCH  13  14
ATOM     14  C   UNL     1      71.929  31.912  60.157  1.00  0.00     0.041 C 
ATOM     15  O   UNL     1      72.046  31.842  58.904  1.00  0.00    -0.550 OA
ATOM     16  O   UNL     1      71.409  33.063  60.739  1.00  0.00    -0.550 OA
ENDBRANCH  13  14
ENDBRANCH  12  13
ENDBRANCH  11  12
ENDBRANCH  10  11
ENDBRANCH   9  10
ENDBRANCH   8   9
ENDBRANCH   7   8
ENDBRANCH   6   7
ENDBRANCH   5   6
ENDBRANCH   4   5
ENDBRANCH   3   4
ENDBRANCH   2   3
ENDBRANCH   1   2
BRANCH   1  17
ATOM     17  C   UNL     1      61.347  32.518  60.625  1.00  0.00     0.000 C 
BRANCH  17  18
ATOM     18  C   UNL     1      61.811  33.771  59.852  1.00  0.00     0.000 C 
BRANCH  18  19
ATOM     19  C   UNL     1      61.472  35.078  60.593  1.00  0.00     0.000 C 
BRANCH  19  20
ATOM     20  C   UNL     1      62.726  35.856  61.019  1.00  0.00     0.000 C 
BRANCH  20  21
ATOM     21  C   UNL     1      63.907  34.932  61.371  1.00  0.00     0.000 C 
BRANCH  21  22
ATOM     22  C   UNL     1      65.258  35.664  61.367  1.00  0.00    -0.000 C 
BRANCH  22  23
ATOM     23  C   UNL     1      65.345  36.744  60.274  1.00  0.00    -0.000 C 
BRANCH  23  24
ATOM     24  C   UNL     1      66.077  36.259  59.008  1.00  0.00    -0.000 C 
BRANCH  24  25
ATOM     25  C   UNL     1      65.164  35.649  57.930  1.00  0.00    -0.000 C 
BRANCH  25  26
ATOM     26  C   UNL     1      65.631  34.255  57.476  1.00  0.00    -0.000 C 
BRANCH  26  27
ATOM     27  C   UNL     1      64.807  33.116  58.102  1.00  0.00    -0.000 C 
BRANCH  27  28
ATOM     28  C   UNL     1      65.630  31.892  58.555  1.00  0.00    -0.000 C 
BRANCH  28  29
ATOM     29  C   UNL     1      65.675  30.730  57.548  1.00  0.00    -0.003 C 
ATOM     30  C   UNL     1      64.485  30.725  56.588  1.00  0.00     0.004 C 
ENDBRANCH  28  29
ENDBRANCH  27  28
ENDBRANCH  26  27
ENDBRANCH  25  26
ENDBRANCH  24  25
ENDBRANCH  23  24
ENDBRANCH  22  23
ENDBRANCH  21  22
ENDBRANCH  20  21
ENDBRANCH  19  20
ENDBRANCH  18  19
ENDBRANCH  17  18
ENDBRANCH   1  17
TORSDOF 26
ENDMDL
MODEL 9
REMARK VINA RESULT:    -2.933      8.460     11.396
REMARK INTER + INTRA:         -12.332
REMARK INTER:                  -6.997
REMARK INTRA:                  -5.336
REMARK UNBOUND:                -4.942
REMARK SMILES CCCCCCCCCCCCCCCCCCCCCCCCCCCC(=O)[O-]
REMARK SMILES IDX 15 1 16 2 17 3 18 4 19 5 20 6 21 7 22 8 23 9 24 10 25 11
REMARK SMILES IDX 26 12 27 13 28 14 29 15 30 16 14 17 13 18 12 19 11 20 10 21
REMARK SMILES IDX 9 22 8 23 7 24 6 25 5 26 4 27 3 28 2 29 1 30
REMARK H PARENT
REMARK Flexibility Score: inf
ROOT
ATOM      1  C   UNL     1      63.887  33.867  60.703  1.00  0.00     0.000 C 
ENDROOT
BRANCH   1   2
ATOM      2  C   UNL     1      64.748  33.609  59.455  1.00  0.00     0.000 C 
BRANCH   2   3
ATOM      3  C   UNL     1      63.926  33.175  58.227  1.00  0.00     0.000 C 
BRANCH   3   4
ATOM      4  C   UNL     1      63.797  31.654  58.011  1.00  0.00     0.000 C 
BRANCH   4   5
ATOM      5  C   UNL     1      62.340  31.159  58.024  1.00  0.00     0.000 C 
BRANCH   5   6
ATOM      6  C   UNL     1      61.339  32.271  58.386  1.00  0.00     0.000 C 
BRANCH   6   7
ATOM      7  C   UNL     1      60.420  31.952  59.580  1.00  0.00     0.000 C 
BRANCH   7   8
ATOM      8  C   UNL     1      61.201  31.605  60.858  1.00  0.00     0.000 C 
BRANCH   8   9
ATOM      9  C   UNL     1      60.952  30.149  61.272  1.00  0.00     0.000 C 
BRANCH   9  10
ATOM     10  C   UNL     1      62.259  29.466  61.704  1.00  0.00     0.000 C 
BRANCH  10  11
ATOM     11  C   UNL     1      63.475  30.400  61.604  1.00  0.00     0.000 C 
BRANCH  11  12
ATOM     12  C   UNL     1      64.690  29.721  60.946  1.00  0.00     0.006 C 
BRANCH  12  13
ATOM     13  C   UNL     1      64.377  28.289  60.490  1.00  0.00     0.053 C 
BRANCH  13  14
ATOM     14  C   UNL     1      64.506  28.130  59.005  1.00  0.00     0.041 C 
ATOM     15  O   UNL     1      63.558  27.639  58.335  1.00  0.00    -0.550 OA
ATOM     16  O   UNL     1      65.671  28.532  58.361  1.00  0.00    -0.550 OA
ENDBRANCH  13  14
ENDBRANCH  12  13
ENDBRANCH  11  12
ENDBRANCH  10  11
ENDBRANCH   9  10
ENDBRANCH   8   9
ENDBRANCH   7   8
ENDBRANCH   6   7
ENDBRANCH   5   6
ENDBRANCH   4   5
ENDBRANCH   3   4
ENDBRANCH   2   3
ENDBRANCH   1   2
BRANCH   1  17
ATOM     17  C   UNL     1      63.237  35.262  60.703  1.00  0.00     0.000 C 
BRANCH  17  18
ATOM     18  C   UNL     1      61.694  35.233  60.662  1.00  0.00     0.000 C 
BRANCH  18  19
ATOM     19  C   UNL     1      61.079  36.645  60.639  1.00  0.00     0.000 C 
BRANCH  19  20
ATOM     20  C   UNL     1      60.065  36.827  59.500  1.00  0.00     0.000 C 
BRANCH  20  21
ATOM     21  C   UNL     1      60.617  36.379  58.135  1.00  0.00     0.000 C 
BRANCH  21  22
ATOM     22  C   UNL     1      59.678  35.407  57.402  1.00  0.00    -0.000 C 
BRANCH  22  23
ATOM     23  C   UNL     1      58.192  35.754  57.601  1.00  0.00    -0.000 C 
BRANCH  23  24
ATOM     24  C   UNL     1      57.274  34.518  57.534  1.00  0.00    -0.000 C 
BRANCH  24  25
ATOM     25  C   UNL     1      57.970  33.222  57.084  1.00  0.00    -0.000 C 
BRANCH  25  26
ATOM     26  C   UNL     1      56.997  32.036  56.965  1.00  0.00    -0.000 C 
BRANCH  26  27
ATOM     27  C   UNL     1      57.428  30.823  57.806  1.00  0.00    -0.000 C 
BRANCH  27  28
ATOM     28  C   UNL     1      58.548  29.965  57.182  1.00  0.00    -0.000 C 
BRANCH  28  29
ATOM     29  C   UNL     1      59.048  28.808  58.065  1.00  0.00    -0.003 C 
ATOM     30  C   UNL     1      58.237  28.642  59.350  1.00  0.00     0.004 C 
ENDBRANCH  28  29
ENDBRANCH  27  28
ENDBRANCH  26  27
ENDBRANCH  25  26
ENDBRANCH  24  25
ENDBRANCH  23  24
ENDBRANCH  22  23
ENDBRANCH  21  22
ENDBRANCH  20  21
ENDBRANCH  19  20
ENDBRANCH  18  19
ENDBRANCH  17  18
ENDBRANCH   1  17
TORSDOF 26
ENDMDL
