MODEL 1
REMARK VINA RESULT:    -3.742      0.000      0.000
REMARK INTER + INTRA:          -3.742
REMARK INTER:                  -3.742
REMARK INTRA:                   0.000
REMARK UNBOUND:                 0.000
REMARK SMILES CC1(C)C(=O)[C@]2(C)CC[C@H]1C2
REMARK SMILES IDX 1 1 2 2 10 3 9 4 8 5 6 6 11 7 4 8 5 9 7 10 3 11
REMARK H PARENT
REMARK Flexibility Score: inf
ROOT
ATOM      1  C   UNL     1     116.148 114.377 119.751  1.00  0.00     0.020 C 
ATOM      2  C   UNL     1     115.253 115.555 120.188  1.00  0.00     0.027 C 
ATOM      3  C   UNL     1     115.753 116.917 119.585  1.00  0.00     0.003 C 
ATOM      4  C   UNL     1     114.749 118.061 119.879  1.00  0.00     0.005 C 
ATOM      5  C   UNL     1     114.865 118.245 121.409  1.00  0.00     0.015 C 
ATOM      6  C   UNL     1     115.988 117.257 121.782  1.00  0.00     0.027 C 
ATOM      7  C   UNL     1     116.869 117.319 120.550  1.00  0.00     0.019 C 
ATOM      8  C   UNL     1     115.436 115.866 121.645  1.00  0.00     0.144 C 
ATOM      9  O   UNL     1     115.115 115.134 122.570  1.00  0.00    -0.298 OA
ATOM     10  C   UNL     1     116.708 117.551 123.100  1.00  0.00     0.020 C 
ATOM     11  C   UNL     1     113.780 115.220 119.861  1.00  0.00     0.020 C 
ENDROOT
TORSDOF 0
ENDMDL
MODEL 2
REMARK VINA RESULT:    -3.715      1.712      2.671
REMARK INTER + INTRA:          -3.715
REMARK INTER:                  -3.715
REMARK INTRA:                   0.000
REMARK UNBOUND:                 0.000
REMARK SMILES CC1(C)C(=O)[C@]2(C)CC[C@H]1C2
REMARK SMILES IDX 1 1 2 2 10 3 9 4 8 5 6 6 11 7 4 8 5 9 7 10 3 11
REMARK H PARENT
REMARK Flexibility Score: inf
ROOT
ATOM      1  C   UNL     1     114.369 117.113 119.722  1.00  0.00     0.020 C 
ATOM      2  C   UNL     1     115.572 117.966 120.178  1.00  0.00     0.027 C 
ATOM      3  C   UNL     1     116.925 117.416 119.599  1.00  0.00     0.003 C 
ATOM      4  C   UNL     1     118.099 118.379 119.911  1.00  0.00     0.005 C 
ATOM      5  C   UNL     1     118.252 118.259 121.444  1.00  0.00     0.015 C 
ATOM      6  C   UNL     1     117.219 117.173 121.802  1.00  0.00     0.027 C 
ATOM      7  C   UNL     1     117.270 116.288 120.572  1.00  0.00     0.019 C 
ATOM      8  C   UNL     1     115.850 117.774 121.641  1.00  0.00     0.144 C 
ATOM      9  O   UNL     1     115.115 118.122 122.553  1.00  0.00    -0.298 OA
ATOM     10  C   UNL     1     117.464 116.444 123.125  1.00  0.00     0.020 C 
ATOM     11  C   UNL     1     115.295 119.449 119.844  1.00  0.00     0.020 C 
ENDROOT
TORSDOF 0
ENDMDL
MODEL 3
REMARK VINA RESULT:    -3.713      1.704      2.653
REMARK INTER + INTRA:          -3.713
REMARK INTER:                  -3.713
REMARK INTRA:                   0.000
REMARK UNBOUND:                 0.000
REMARK SMILES CC1(C)C(=O)[C@]2(C)CC[C@H]1C2
REMARK SMILES IDX 1 1 2 2 10 3 9 4 8 5 6 6 11 7 4 8 5 9 7 10 3 11
REMARK H PARENT
REMARK Flexibility Score: inf
ROOT
ATOM      1  C   UNL     1     118.861 116.231 119.781  1.00  0.00     0.020 C 
ATOM      2  C   UNL     1     117.678 115.316 120.164  1.00  0.00     0.027 C 
ATOM      3  C   UNL     1     116.331 115.815 119.527  1.00  0.00     0.003 C 
ATOM      4  C   UNL     1     115.189 114.794 119.766  1.00  0.00     0.005 C 
ATOM      5  C   UNL     1     114.955 114.880 121.291  1.00  0.00     0.015 C 
ATOM      6  C   UNL     1     115.919 116.006 121.716  1.00  0.00     0.027 C 
ATOM      7  C   UNL     1     115.888 116.909 120.499  1.00  0.00     0.019 C 
ATOM      8  C   UNL     1     117.320 115.469 121.614  1.00  0.00     0.144 C 
ATOM      9  O   UNL     1     118.025 115.139 122.556  1.00  0.00    -0.298 OA
ATOM     10  C   UNL     1     115.576 116.699 123.037  1.00  0.00     0.020 C 
ATOM     11  C   UNL     1     118.039 113.853 119.821  1.00  0.00     0.020 C 
ENDROOT
TORSDOF 0
ENDMDL
MODEL 4
REMARK VINA RESULT:    -3.711      2.217      3.723
REMARK INTER + INTRA:          -3.711
REMARK INTER:                  -3.711
REMARK INTRA:                   0.000
REMARK UNBOUND:                 0.000
REMARK SMILES CC1(C)C(=O)[C@]2(C)CC[C@H]1C2
REMARK SMILES IDX 1 1 2 2 10 3 9 4 8 5 6 6 11 7 4 8 5 9 7 10 3 11
REMARK H PARENT
REMARK Flexibility Score: inf
ROOT
ATOM      1  C   UNL     1     117.010 118.863 119.749  1.00  0.00     0.020 C 
ATOM      2  C   UNL     1     117.903 117.673 120.158  1.00  0.00     0.027 C 
ATOM      3  C   UNL     1     117.390 116.323 119.538  1.00  0.00     0.003 C 
ATOM      4  C   UNL     1     118.391 115.170 119.803  1.00  0.00     0.005 C 
ATOM      5  C   UNL     1     118.290 114.962 121.331  1.00  0.00     0.015 C 
ATOM      6  C   UNL     1     117.176 115.949 121.732  1.00  0.00     0.027 C 
ATOM      7  C   UNL     1     116.282 115.911 120.508  1.00  0.00     0.019 C 
ATOM      8  C   UNL     1     117.734 117.340 121.612  1.00  0.00     0.144 C 
ATOM      9  O   UNL     1     118.067 118.055 122.546  1.00  0.00    -0.298 OA
ATOM     10  C   UNL     1     116.467 115.637 123.052  1.00  0.00     0.020 C 
ATOM     11  C   UNL     1     119.374 118.006 119.821  1.00  0.00     0.020 C 
ENDROOT
TORSDOF 0
ENDMDL
MODEL 5
REMARK VINA RESULT:    -3.611      1.867      3.331
REMARK INTER + INTRA:          -3.611
REMARK INTER:                  -3.611
REMARK INTRA:                   0.000
REMARK UNBOUND:                 0.000
REMARK SMILES CC1(C)C(=O)[C@]2(C)CC[C@H]1C2
REMARK SMILES IDX 1 1 2 2 10 3 9 4 8 5 6 6 11 7 4 8 5 9 7 10 3 11
REMARK H PARENT
REMARK Flexibility Score: inf
ROOT
ATOM      1  C   UNL     1     114.752 118.170 120.891  1.00  0.00     0.020 C 
ATOM      2  C   UNL     1     114.977 117.101 119.801  1.00  0.00     0.027 C 
ATOM      3  C   UNL     1     114.313 115.730 120.189  1.00  0.00     0.003 C 
ATOM      4  C   UNL     1     114.388 114.721 119.014  1.00  0.00     0.005 C 
ATOM      5  C   UNL     1     115.898 114.410 118.915  1.00  0.00     0.015 C 
ATOM      6  C   UNL     1     116.483 115.198 120.104  1.00  0.00     0.027 C 
ATOM      7  C   UNL     1     115.356 115.104 121.114  1.00  0.00     0.019 C 
ATOM      8  C   UNL     1     116.412 116.660 119.760  1.00  0.00     0.144 C 
ATOM      9  O   UNL     1     117.358 117.359 119.428  1.00  0.00    -0.298 OA
ATOM     10  C   UNL     1     117.841 114.708 120.611  1.00  0.00     0.020 C 
ATOM     11  C   UNL     1     114.519 117.664 118.437  1.00  0.00     0.020 C 
ENDROOT
TORSDOF 0
ENDMDL
MODEL 6
REMARK VINA RESULT:    -3.590      1.766      3.259
REMARK INTER + INTRA:          -3.590
REMARK INTER:                  -3.590
REMARK INTRA:                   0.000
REMARK UNBOUND:                 0.000
REMARK SMILES CC1(C)C(=O)[C@]2(C)CC[C@H]1C2
REMARK SMILES IDX 1 1 2 2 10 3 9 4 8 5 6 6 11 7 4 8 5 9 7 10 3 11
REMARK H PARENT
REMARK Flexibility Score: inf
ROOT
ATOM      1  C   UNL     1     118.143 118.384 120.897  1.00  0.00     0.020 C 
ATOM      2  C   UNL     1     117.071 118.163 119.808  1.00  0.00     0.027 C 
ATOM      3  C   UNL     1     115.699 118.816 120.206  1.00  0.00     0.003 C 
ATOM      4  C   UNL     1     114.686 118.747 119.033  1.00  0.00     0.005 C 
ATOM      5  C   UNL     1     114.382 117.236 118.922  1.00  0.00     0.015 C 
ATOM      6  C   UNL     1     115.177 116.644 120.102  1.00  0.00     0.027 C 
ATOM      7  C   UNL     1     115.081 117.761 121.123  1.00  0.00     0.019 C 
ATOM      8  C   UNL     1     116.638 116.726 119.755  1.00  0.00     0.144 C 
ATOM      9  O   UNL     1     117.341 115.787 119.412  1.00  0.00    -0.298 OA
ATOM     10  C   UNL     1     114.696 115.279 120.599  1.00  0.00     0.020 C 
ATOM     11  C   UNL     1     117.628 118.636 118.446  1.00  0.00     0.020 C 
ENDROOT
TORSDOF 0
ENDMDL
MODEL 7
REMARK VINA RESULT:    -3.584      2.239      3.305
REMARK INTER + INTRA:          -3.584
REMARK INTER:                  -3.584
REMARK INTRA:                   0.000
REMARK UNBOUND:                 0.000
REMARK SMILES CC1(C)C(=O)[C@]2(C)CC[C@H]1C2
REMARK SMILES IDX 1 1 2 2 10 3 9 4 8 5 6 6 11 7 4 8 5 9 7 10 3 11
REMARK H PARENT
REMARK Flexibility Score: inf
ROOT
ATOM      1  C   UNL     1     115.020 114.774 120.794  1.00  0.00     0.020 C 
ATOM      2  C   UNL     1     116.099 114.992 119.713  1.00  0.00     0.027 C 
ATOM      3  C   UNL     1     117.462 114.320 120.112  1.00  0.00     0.003 C 
ATOM      4  C   UNL     1     118.481 114.388 118.945  1.00  0.00     0.005 C 
ATOM      5  C   UNL     1     118.803 115.896 118.848  1.00  0.00     0.015 C 
ATOM      6  C   UNL     1     118.009 116.486 120.029  1.00  0.00     0.027 C 
ATOM      7  C   UNL     1     118.087 115.361 121.041  1.00  0.00     0.019 C 
ATOM      8  C   UNL     1     116.549 116.424 119.674  1.00  0.00     0.144 C 
ATOM      9  O   UNL     1     115.859 117.374 119.335  1.00  0.00    -0.298 OA
ATOM     10  C   UNL     1     118.503 117.842 120.540  1.00  0.00     0.020 C 
ATOM     11  C   UNL     1     115.544 114.537 118.345  1.00  0.00     0.020 C 
ENDROOT
TORSDOF 0
ENDMDL
MODEL 8
REMARK VINA RESULT:    -3.567      2.202      3.252
REMARK INTER + INTRA:          -3.567
REMARK INTER:                  -3.567
REMARK INTRA:                   0.000
REMARK UNBOUND:                 0.000
REMARK SMILES CC1(C)C(=O)[C@]2(C)CC[C@H]1C2
REMARK SMILES IDX 1 1 2 2 10 3 9 4 8 5 6 6 11 7 4 8 5 9 7 10 3 11
REMARK H PARENT
REMARK Flexibility Score: inf
ROOT
ATOM      1  C   UNL     1     118.321 115.044 120.881  1.00  0.00     0.020 C 
ATOM      2  C   UNL     1     118.169 116.112 119.777  1.00  0.00     0.027 C 
ATOM      3  C   UNL     1     118.876 117.458 120.173  1.00  0.00     0.003 C 
ATOM      4  C   UNL     1     118.875 118.459 118.990  1.00  0.00     0.005 C 
ATOM      5  C   UNL     1     117.381 118.830 118.846  1.00  0.00     0.015 C 
ATOM      6  C   UNL     1     116.733 118.076 120.023  1.00  0.00     0.027 C 
ATOM      7  C   UNL     1     117.833 118.133 121.064  1.00  0.00     0.019 C 
ATOM      8  C   UNL     1     116.755 116.609 119.693  1.00  0.00     0.144 C 
ATOM      9  O   UNL     1     115.791 115.946 119.338  1.00  0.00    -0.298 OA
ATOM     10  C   UNL     1     115.382 118.624 120.488  1.00  0.00     0.020 C 
ATOM     11  C   UNL     1     118.642 115.519 118.431  1.00  0.00     0.020 C 
ENDROOT
TORSDOF 0
ENDMDL
MODEL 9
REMARK VINA RESULT:    -3.560      2.099      3.217
REMARK INTER + INTRA:          -3.560
REMARK INTER:                  -3.560
REMARK INTRA:                   0.000
REMARK UNBOUND:                 0.000
REMARK SMILES CC1(C)C(=O)[C@]2(C)CC[C@H]1C2
REMARK SMILES IDX 1 1 2 2 10 3 9 4 8 5 6 6 11 7 4 8 5 9 7 10 3 11
REMARK H PARENT
REMARK Flexibility Score: inf
ROOT
ATOM      1  C   UNL     1     113.617 115.945 119.680  1.00  0.00     0.020 C 
ATOM      2  C   UNL     1     115.014 116.587 119.543  1.00  0.00     0.027 C 
ATOM      3  C   UNL     1     115.566 117.074 120.931  1.00  0.00     0.003 C 
ATOM      4  C   UNL     1     117.037 117.549 120.813  1.00  0.00     0.005 C 
ATOM      5  C   UNL     1     116.921 118.836 119.966  1.00  0.00     0.015 C 
ATOM      6  C   UNL     1     115.397 118.989 119.792  1.00  0.00     0.027 C 
ATOM      7  C   UNL     1     114.884 118.431 121.104  1.00  0.00     0.019 C 
ATOM      8  C   UNL     1     114.936 117.915 118.847  1.00  0.00     0.144 C 
ATOM      9  O   UNL     1     114.621 118.084 117.678  1.00  0.00    -0.298 OA
ATOM     10  C   UNL     1     114.913 120.404 119.465  1.00  0.00     0.020 C 
ATOM     11  C   UNL     1     115.949 115.610 118.795  1.00  0.00     0.020 C 
ENDROOT
TORSDOF 0
ENDMDL
