MODEL 1
REMARK VINA RESULT:    -2.931      0.000      0.000
REMARK INTER + INTRA:          -8.312
REMARK INTER:                  -6.700
REMARK INTRA:                  -1.612
REMARK UNBOUND:                -1.612
REMARK SMILES CCCCCCCCCCCCCCCCCCCCCCCC(=O)[O-]
REMARK SMILES IDX 13 1 14 2 15 3 16 4 17 5 18 6 19 7 20 8 21 9 22 10 23 11
REMARK SMILES IDX 24 12 25 13 26 14 12 15 11 16 10 17 9 18 8 19 7 20 6 21 5 22
REMARK SMILES IDX 4 23 3 24 2 25 1 26
REMARK H PARENT
REMARK Flexibility Score: inf
ROOT
ATOM      1  C   UNL     1      14.223  -8.968   7.257  1.00  0.00     0.000 C 
ENDROOT
BRANCH   1   2
ATOM      2  C   UNL     1      14.906  -7.870   6.415  1.00  0.00     0.000 C 
BRANCH   2   3
ATOM      3  C   UNL     1      15.167  -8.280   4.955  1.00  0.00     0.000 C 
BRANCH   3   4
ATOM      4  C   UNL     1      15.206  -7.084   3.993  1.00  0.00     0.000 C 
BRANCH   4   5
ATOM      5  C   UNL     1      16.606  -6.455   3.957  1.00  0.00     0.000 C 
BRANCH   5   6
ATOM      6  C   UNL     1      17.726  -7.506   3.883  1.00  0.00     0.000 C 
BRANCH   6   7
ATOM      7  C   UNL     1      19.066  -7.068   4.509  1.00  0.00     0.000 C 
BRANCH   7   8
ATOM      8  C   UNL     1      20.164  -8.152   4.445  1.00  0.00     0.000 C 
BRANCH   8   9
ATOM      9  C   UNL     1      20.633  -8.585   5.846  1.00  0.00     0.000 C 
BRANCH   9  10
ATOM     10  C   UNL     1      19.462  -8.963   6.767  1.00  0.00     0.006 C 
BRANCH  10  11
ATOM     11  C   UNL     1      19.635  -8.412   8.189  1.00  0.00     0.053 C 
BRANCH  11  12
ATOM     12  C   UNL     1      18.926  -7.103   8.331  1.00  0.00     0.041 C 
ATOM     13  O   UNL     1      17.693  -7.020   8.089  1.00  0.00    -0.550 OA
ATOM     14  O   UNL     1      19.635  -5.962   8.686  1.00  0.00    -0.550 OA
ENDBRANCH  11  12
ENDBRANCH  10  11
ENDBRANCH   9  10
ENDBRANCH   8   9
ENDBRANCH   7   8
ENDBRANCH   6   7
ENDBRANCH   5   6
ENDBRANCH   4   5
ENDBRANCH   3   4
ENDBRANCH   2   3
ENDBRANCH   1   2
BRANCH   1  15
ATOM     15  C   UNL     1      12.749  -9.168   6.871  1.00  0.00     0.000 C 
BRANCH  15  16
ATOM     16  C   UNL     1      12.161  -7.886   6.265  1.00  0.00     0.000 C 
BRANCH  16  17
ATOM     17  C   UNL     1      11.547  -8.107   4.870  1.00  0.00     0.000 C 
BRANCH  17  18
ATOM     18  C   UNL     1      10.009  -8.064   4.817  1.00  0.00    -0.000 C 
BRANCH  18  19
ATOM     19  C   UNL     1       9.385  -9.410   4.407  1.00  0.00    -0.000 C 
BRANCH  19  20
ATOM     20  C   UNL     1       8.218  -9.833   5.318  1.00  0.00    -0.000 C 
BRANCH  20  21
ATOM     21  C   UNL     1       6.836  -9.881   4.636  1.00  0.00    -0.000 C 
BRANCH  21  22
ATOM     22  C   UNL     1       5.679  -9.259   5.445  1.00  0.00    -0.000 C 
BRANCH  22  23
ATOM     23  C   UNL     1       5.822  -7.755   5.739  1.00  0.00    -0.000 C 
BRANCH  23  24
ATOM     24  C   UNL     1       5.784  -6.890   4.468  1.00  0.00    -0.000 C 
BRANCH  24  25
ATOM     25  C   UNL     1       4.455  -6.136   4.309  1.00  0.00    -0.003 C 
ATOM     26  C   UNL     1       3.302  -7.046   3.887  1.00  0.00     0.004 C 
ENDBRANCH  24  25
ENDBRANCH  23  24
ENDBRANCH  22  23
ENDBRANCH  21  22
ENDBRANCH  20  21
ENDBRANCH  19  20
ENDBRANCH  18  19
ENDBRANCH  17  18
ENDBRANCH  16  17
ENDBRANCH  15  16
ENDBRANCH   1  15
TORSDOF 22
ENDMDL
MODEL 2
REMARK VINA RESULT:    -2.793      3.674     11.000
REMARK INTER + INTRA:          -7.998
REMARK INTER:                  -5.509
REMARK INTRA:                  -2.488
REMARK UNBOUND:                -1.612
REMARK SMILES CCCCCCCCCCCCCCCCCCCCCCCC(=O)[O-]
REMARK SMILES IDX 13 1 14 2 15 3 16 4 17 5 18 6 19 7 20 8 21 9 22 10 23 11
REMARK SMILES IDX 24 12 25 13 26 14 12 15 11 16 10 17 9 18 8 19 7 20 6 21 5 22
REMARK SMILES IDX 4 23 3 24 2 25 1 26
REMARK H PARENT
REMARK Flexibility Score: inf
ROOT
ATOM      1  C   UNL     1      15.939  -7.587   6.433  1.00  0.00     0.000 C 
ENDROOT
BRANCH   1   2
ATOM      2  C   UNL     1      14.720  -8.520   6.587  1.00  0.00     0.000 C 
BRANCH   2   3
ATOM      3  C   UNL     1      13.441  -7.986   5.917  1.00  0.00     0.000 C 
BRANCH   3   4
ATOM      4  C   UNL     1      12.680  -9.063   5.131  1.00  0.00     0.000 C 
BRANCH   4   5
ATOM      5  C   UNL     1      11.612  -8.430   4.228  1.00  0.00     0.000 C 
BRANCH   5   6
ATOM      6  C   UNL     1      10.357  -7.998   5.007  1.00  0.00     0.000 C 
BRANCH   6   7
ATOM      7  C   UNL     1       9.987  -8.911   6.193  1.00  0.00     0.000 C 
BRANCH   7   8
ATOM      8  C   UNL     1       8.994 -10.035   5.825  1.00  0.00     0.000 C 
BRANCH   8   9
ATOM      9  C   UNL     1       8.351  -9.810   4.445  1.00  0.00     0.000 C 
BRANCH   9  10
ATOM     10  C   UNL     1       6.815  -9.795   4.507  1.00  0.00     0.006 C 
BRANCH  10  11
ATOM     11  C   UNL     1       6.283  -8.841   5.585  1.00  0.00     0.053 C 
BRANCH  11  12
ATOM     12  C   UNL     1       5.954  -7.510   4.987  1.00  0.00     0.041 C 
ATOM     13  O   UNL     1       4.779  -7.062   5.046  1.00  0.00    -0.550 OA
ATOM     14  O   UNL     1       6.934  -6.784   4.324  1.00  0.00    -0.550 OA
ENDBRANCH  11  12
ENDBRANCH  10  11
ENDBRANCH   9  10
ENDBRANCH   8   9
ENDBRANCH   7   8
ENDBRANCH   6   7
ENDBRANCH   5   6
ENDBRANCH   4   5
ENDBRANCH   3   4
ENDBRANCH   2   3
ENDBRANCH   1   2
BRANCH   1  15
ATOM     15  C   UNL     1      16.591  -7.701   5.046  1.00  0.00     0.000 C 
BRANCH  15  16
ATOM     16  C   UNL     1      16.436  -9.120   4.482  1.00  0.00     0.000 C 
BRANCH  16  17
ATOM     17  C   UNL     1      17.612 -10.045   4.851  1.00  0.00     0.000 C 
BRANCH  17  18
ATOM     18  C   UNL     1      18.803 -10.011   3.876  1.00  0.00    -0.000 C 
BRANCH  18  19
ATOM     19  C   UNL     1      20.164 -10.123   4.586  1.00  0.00    -0.000 C 
BRANCH  19  20
ATOM     20  C   UNL     1      21.026  -8.857   4.436  1.00  0.00    -0.000 C 
BRANCH  20  21
ATOM     21  C   UNL     1      20.288  -7.622   3.879  1.00  0.00    -0.000 C 
BRANCH  21  22
ATOM     22  C   UNL     1      19.812  -6.605   4.937  1.00  0.00    -0.000 C 
BRANCH  22  23
ATOM     23  C   UNL     1      20.635  -6.582   6.238  1.00  0.00    -0.000 C 
BRANCH  23  24
ATOM     24  C   UNL     1      19.812  -6.135   7.458  1.00  0.00    -0.000 C 
BRANCH  24  25
ATOM     25  C   UNL     1      18.994  -7.284   8.068  1.00  0.00    -0.003 C 
ATOM     26  C   UNL     1      19.577  -8.661   7.756  1.00  0.00     0.004 C 
ENDBRANCH  24  25
ENDBRANCH  23  24
ENDBRANCH  22  23
ENDBRANCH  21  22
ENDBRANCH  20  21
ENDBRANCH  19  20
ENDBRANCH  18  19
ENDBRANCH  17  18
ENDBRANCH  16  17
ENDBRANCH  15  16
ENDBRANCH   1  15
TORSDOF 22
ENDMDL
MODEL 3
REMARK VINA RESULT:    -2.529      4.057     11.419
REMARK INTER + INTRA:          -7.394
REMARK INTER:                  -5.772
REMARK INTRA:                  -1.621
REMARK UNBOUND:                -1.612
REMARK SMILES CCCCCCCCCCCCCCCCCCCCCCCC(=O)[O-]
REMARK SMILES IDX 13 1 14 2 15 3 16 4 17 5 18 6 19 7 20 8 21 9 22 10 23 11
REMARK SMILES IDX 24 12 25 13 26 14 12 15 11 16 10 17 9 18 8 19 7 20 6 21 5 22
REMARK SMILES IDX 4 23 3 24 2 25 1 26
REMARK H PARENT
REMARK Flexibility Score: inf
ROOT
ATOM      1  C   UNL     1      15.928  -8.319   6.512  1.00  0.00     0.000 C 
ENDROOT
BRANCH   1   2
ATOM      2  C   UNL     1      14.395  -8.296   6.685  1.00  0.00     0.000 C 
BRANCH   2   3
ATOM      3  C   UNL     1      13.635  -9.059   5.586  1.00  0.00     0.000 C 
BRANCH   3   4
ATOM      4  C   UNL     1      13.107  -8.142   4.474  1.00  0.00     0.000 C 
BRANCH   4   5
ATOM      5  C   UNL     1      11.588  -7.954   4.593  1.00  0.00     0.000 C 
BRANCH   5   6
ATOM      6  C   UNL     1      11.108  -7.916   6.055  1.00  0.00     0.000 C 
BRANCH   6   7
ATOM      7  C   UNL     1      10.157  -9.063   6.451  1.00  0.00     0.000 C 
BRANCH   7   8
ATOM      8  C   UNL     1       9.764  -9.979   5.272  1.00  0.00     0.000 C 
BRANCH   8   9
ATOM      9  C   UNL     1       8.361  -9.655   4.729  1.00  0.00     0.000 C 
BRANCH   9  10
ATOM     10  C   UNL     1       7.578  -8.706   5.651  1.00  0.00     0.006 C 
BRANCH  10  11
ATOM     11  C   UNL     1       7.204  -7.391   4.954  1.00  0.00     0.053 C 
BRANCH  11  12
ATOM     12  C   UNL     1       5.856  -6.926   5.407  1.00  0.00     0.041 C 
ATOM     13  O   UNL     1       5.741  -6.246   6.459  1.00  0.00    -0.550 OA
ATOM     14  O   UNL     1       4.720  -7.284   4.692  1.00  0.00    -0.550 OA
ENDBRANCH  11  12
ENDBRANCH  10  11
ENDBRANCH   9  10
ENDBRANCH   8   9
ENDBRANCH   7   8
ENDBRANCH   6   7
ENDBRANCH   5   6
ENDBRANCH   4   5
ENDBRANCH   3   4
ENDBRANCH   2   3
ENDBRANCH   1   2
BRANCH   1  15
ATOM     15  C   UNL     1      16.408  -7.341   5.428  1.00  0.00     0.000 C 
BRANCH  15  16
ATOM     16  C   UNL     1      17.402  -8.021   4.477  1.00  0.00     0.000 C 
BRANCH  16  17
ATOM     17  C   UNL     1      18.276  -9.078   5.177  1.00  0.00     0.000 C 
BRANCH  17  18
ATOM     18  C   UNL     1      18.935 -10.108   4.241  1.00  0.00    -0.000 C 
BRANCH  18  19
ATOM     19  C   UNL     1      20.462  -9.944   4.148  1.00  0.00    -0.000 C 
BRANCH  19  20
ATOM     20  C   UNL     1      20.894  -8.491   3.882  1.00  0.00    -0.000 C 
BRANCH  20  21
ATOM     21  C   UNL     1      22.262  -8.093   4.474  1.00  0.00    -0.000 C 
BRANCH  21  22
ATOM     22  C   UNL     1      22.242  -6.878   5.424  1.00  0.00    -0.000 C 
BRANCH  22  23
ATOM     23  C   UNL     1      20.966  -6.018   5.357  1.00  0.00    -0.000 C 
BRANCH  23  24
ATOM     24  C   UNL     1      21.264  -4.511   5.283  1.00  0.00    -0.000 C 
BRANCH  24  25
ATOM     25  C   UNL     1      21.043  -3.936   3.876  1.00  0.00    -0.003 C 
ATOM     26  C   UNL     1      20.764  -2.434   3.883  1.00  0.00     0.004 C 
ENDBRANCH  24  25
ENDBRANCH  23  24
ENDBRANCH  22  23
ENDBRANCH  21  22
ENDBRANCH  20  21
ENDBRANCH  19  20
ENDBRANCH  18  19
ENDBRANCH  17  18
ENDBRANCH  16  17
ENDBRANCH  15  16
ENDBRANCH   1  15
TORSDOF 22
ENDMDL
MODEL 4
REMARK VINA RESULT:    -2.518      1.543      2.639
REMARK INTER + INTRA:          -7.368
REMARK INTER:                  -5.944
REMARK INTRA:                  -1.424
REMARK UNBOUND:                -1.612
REMARK SMILES CCCCCCCCCCCCCCCCCCCCCCCC(=O)[O-]
REMARK SMILES IDX 13 1 14 2 15 3 16 4 17 5 18 6 19 7 20 8 21 9 22 10 23 11
REMARK SMILES IDX 24 12 25 13 26 14 12 15 11 16 10 17 9 18 8 19 7 20 6 21 5 22
REMARK SMILES IDX 4 23 3 24 2 25 1 26
REMARK H PARENT
REMARK Flexibility Score: inf
ROOT
ATOM      1  C   UNL     1      15.672  -7.691   6.605  1.00  0.00     0.000 C 
ENDROOT
BRANCH   1   2
ATOM      2  C   UNL     1      15.834  -7.124   5.180  1.00  0.00     0.000 C 
BRANCH   2   3
ATOM      3  C   UNL     1      17.091  -7.629   4.450  1.00  0.00     0.000 C 
BRANCH   3   4
ATOM      4  C   UNL     1      16.924  -9.043   3.875  1.00  0.00     0.000 C 
BRANCH   4   5
ATOM      5  C   UNL     1      17.942 -10.010   4.494  1.00  0.00     0.000 C 
BRANCH   5   6
ATOM      6  C   UNL     1      19.364  -9.810   3.939  1.00  0.00     0.000 C 
BRANCH   6   7
ATOM      7  C   UNL     1      20.468  -9.715   5.011  1.00  0.00     0.000 C 
BRANCH   7   8
ATOM      8  C   UNL     1      21.461  -8.556   4.778  1.00  0.00     0.000 C 
BRANCH   8   9
ATOM      9  C   UNL     1      20.742  -7.232   4.463  1.00  0.00     0.000 C 
BRANCH   9  10
ATOM     10  C   UNL     1      19.875  -6.741   5.634  1.00  0.00     0.006 C 
BRANCH  10  11
ATOM     11  C   UNL     1      20.095  -7.564   6.910  1.00  0.00     0.053 C 
BRANCH  11  12
ATOM     12  C   UNL     1      19.425  -6.908   8.076  1.00  0.00     0.041 C 
ATOM     13  O   UNL     1      18.543  -7.524   8.728  1.00  0.00    -0.550 OA
ATOM     14  O   UNL     1      19.743  -5.599   8.414  1.00  0.00    -0.550 OA
ENDBRANCH  11  12
ENDBRANCH  10  11
ENDBRANCH   9  10
ENDBRANCH   8   9
ENDBRANCH   7   8
ENDBRANCH   6   7
ENDBRANCH   5   6
ENDBRANCH   4   5
ENDBRANCH   3   4
ENDBRANCH   2   3
ENDBRANCH   1   2
BRANCH   1  15
ATOM     15  C   UNL     1      14.291  -8.330   6.826  1.00  0.00     0.000 C 
BRANCH  15  16
ATOM     16  C   UNL     1      14.321  -9.828   6.492  1.00  0.00     0.000 C 
BRANCH  16  17
ATOM     17  C   UNL     1      14.173 -10.111   4.985  1.00  0.00     0.000 C 
BRANCH  17  18
ATOM     18  C   UNL     1      13.044  -9.336   4.281  1.00  0.00    -0.000 C 
BRANCH  18  19
ATOM     19  C   UNL     1      11.658  -9.969   4.496  1.00  0.00    -0.000 C 
BRANCH  19  20
ATOM     20  C   UNL     1      10.529  -8.927   4.586  1.00  0.00    -0.000 C 
BRANCH  20  21
ATOM     21  C   UNL     1      10.008  -8.643   6.010  1.00  0.00    -0.000 C 
BRANCH  21  22
ATOM     22  C   UNL     1       9.016  -9.683   6.570  1.00  0.00    -0.000 C 
BRANCH  22  23
ATOM     23  C   UNL     1       7.776  -9.094   7.266  1.00  0.00    -0.000 C 
BRANCH  23  24
ATOM     24  C   UNL     1       6.474  -9.352   6.487  1.00  0.00    -0.000 C 
BRANCH  24  25
ATOM     25  C   UNL     1       6.199  -8.272   5.429  1.00  0.00    -0.003 C 
ATOM     26  C   UNL     1       6.598  -6.871   5.891  1.00  0.00     0.004 C 
ENDBRANCH  24  25
ENDBRANCH  23  24
ENDBRANCH  22  23
ENDBRANCH  21  22
ENDBRANCH  20  21
ENDBRANCH  19  20
ENDBRANCH  18  19
ENDBRANCH  17  18
ENDBRANCH  16  17
ENDBRANCH  15  16
ENDBRANCH   1  15
TORSDOF 22
ENDMDL
MODEL 5
REMARK VINA RESULT:    -2.322      4.396     11.242
REMARK INTER + INTRA:          -6.921
REMARK INTER:                  -4.803
REMARK INTRA:                  -2.118
REMARK UNBOUND:                -1.612
REMARK SMILES CCCCCCCCCCCCCCCCCCCCCCCC(=O)[O-]
REMARK SMILES IDX 13 1 14 2 15 3 16 4 17 5 18 6 19 7 20 8 21 9 22 10 23 11
REMARK SMILES IDX 24 12 25 13 26 14 12 15 11 16 10 17 9 18 8 19 7 20 6 21 5 22
REMARK SMILES IDX 4 23 3 24 2 25 1 26
REMARK H PARENT
REMARK Flexibility Score: inf
ROOT
ATOM      1  C   UNL     1      15.423  -8.289   7.421  1.00  0.00     0.000 C 
ENDROOT
BRANCH   1   2
ATOM      2  C   UNL     1      13.885  -8.235   7.528  1.00  0.00     0.000 C 
BRANCH   2   3
ATOM      3  C   UNL     1      13.157  -8.923   6.360  1.00  0.00     0.000 C 
BRANCH   3   4
ATOM      4  C   UNL     1      12.827  -7.964   5.208  1.00  0.00     0.000 C 
BRANCH   4   5
ATOM      5  C   UNL     1      11.329  -8.005   4.873  1.00  0.00     0.000 C 
BRANCH   5   6
ATOM      6  C   UNL     1      10.830  -9.427   4.562  1.00  0.00     0.000 C 
BRANCH   6   7
ATOM      7  C   UNL     1       9.296  -9.584   4.547  1.00  0.00     0.000 C 
BRANCH   7   8
ATOM      8  C   UNL     1       8.535  -8.242   4.612  1.00  0.00     0.000 C 
BRANCH   8   9
ATOM      9  C   UNL     1       7.558  -8.188   5.800  1.00  0.00     0.000 C 
BRANCH   9  10
ATOM     10  C   UNL     1       6.569  -7.017   5.696  1.00  0.00     0.006 C 
BRANCH  10  11
ATOM     11  C   UNL     1       5.853  -6.974   4.339  1.00  0.00     0.053 C 
BRANCH  11  12
ATOM     12  C   UNL     1       4.403  -6.659   4.524  1.00  0.00     0.041 C 
ATOM     13  O   UNL     1       4.027  -5.468   4.679  1.00  0.00    -0.550 OA
ATOM     14  O   UNL     1       3.469  -7.686   4.573  1.00  0.00    -0.550 OA
ENDBRANCH  11  12
ENDBRANCH  10  11
ENDBRANCH   9  10
ENDBRANCH   8   9
ENDBRANCH   7   8
ENDBRANCH   6   7
ENDBRANCH   5   6
ENDBRANCH   4   5
ENDBRANCH   3   4
ENDBRANCH   2   3
ENDBRANCH   1   2
BRANCH   1  15
ATOM     15  C   UNL     1      15.998  -7.092   6.646  1.00  0.00     0.000 C 
BRANCH  15  16
ATOM     16  C   UNL     1      16.371  -7.494   5.213  1.00  0.00     0.000 C 
BRANCH  16  17
ATOM     17  C   UNL     1      16.613  -9.008   5.058  1.00  0.00     0.000 C 
BRANCH  17  18
ATOM     18  C   UNL     1      17.514  -9.409   3.875  1.00  0.00    -0.000 C 
BRANCH  18  19
ATOM     19  C   UNL     1      18.834 -10.061   4.323  1.00  0.00    -0.000 C 
BRANCH  19  20
ATOM     20  C   UNL     1      19.769  -9.083   5.056  1.00  0.00    -0.000 C 
BRANCH  20  21
ATOM     21  C   UNL     1      20.284  -9.567   6.427  1.00  0.00    -0.000 C 
BRANCH  21  22
ATOM     22  C   UNL     1      19.661  -8.867   7.651  1.00  0.00    -0.000 C 
BRANCH  22  23
ATOM     23  C   UNL     1      19.271  -7.394   7.433  1.00  0.00    -0.000 C 
BRANCH  23  24
ATOM     24  C   UNL     1      19.309  -6.567   8.729  1.00  0.00    -0.000 C 
BRANCH  24  25
ATOM     25  C   UNL     1      20.052  -5.233   8.554  1.00  0.00    -0.003 C 
ATOM     26  C   UNL     1      20.659  -5.069   7.162  1.00  0.00     0.004 C 
ENDBRANCH  24  25
ENDBRANCH  23  24
ENDBRANCH  22  23
ENDBRANCH  21  22
ENDBRANCH  20  21
ENDBRANCH  19  20
ENDBRANCH  18  19
ENDBRANCH  17  18
ENDBRANCH  16  17
ENDBRANCH  15  16
ENDBRANCH   1  15
TORSDOF 22
ENDMDL
MODEL 6
REMARK VINA RESULT:    -2.114      2.189      3.284
REMARK INTER + INTRA:          -6.444
REMARK INTER:                  -5.289
REMARK INTRA:                  -1.155
REMARK UNBOUND:                -1.612
REMARK SMILES CCCCCCCCCCCCCCCCCCCCCCCC(=O)[O-]
REMARK SMILES IDX 13 1 14 2 15 3 16 4 17 5 18 6 19 7 20 8 21 9 22 10 23 11
REMARK SMILES IDX 24 12 25 13 26 14 12 15 11 16 10 17 9 18 8 19 7 20 6 21 5 22
REMARK SMILES IDX 4 23 3 24 2 25 1 26
REMARK H PARENT
REMARK Flexibility Score: inf
ROOT
ATOM      1  C   UNL     1      15.771  -7.697   7.275  1.00  0.00     0.000 C 
ENDROOT
BRANCH   1   2
ATOM      2  C   UNL     1      16.259  -6.928   6.030  1.00  0.00     0.000 C 
BRANCH   2   3
ATOM      3  C   UNL     1      17.560  -7.487   5.426  1.00  0.00     0.000 C 
BRANCH   3   4
ATOM      4  C   UNL     1      17.317  -8.407   4.222  1.00  0.00     0.000 C 
BRANCH   4   5
ATOM      5  C   UNL     1      18.202  -9.659   4.302  1.00  0.00     0.000 C 
BRANCH   5   6
ATOM      6  C   UNL     1      19.704  -9.327   4.264  1.00  0.00     0.000 C 
BRANCH   6   7
ATOM      7  C   UNL     1      20.363  -9.161   5.647  1.00  0.00     0.000 C 
BRANCH   7   8
ATOM      8  C   UNL     1      21.778  -8.545   5.590  1.00  0.00     0.000 C 
BRANCH   8   9
ATOM      9  C   UNL     1      22.246  -8.303   4.144  1.00  0.00     0.000 C 
BRANCH   9  10
ATOM     10  C   UNL     1      22.688  -6.850   3.904  1.00  0.00     0.006 C 
BRANCH  10  11
ATOM     11  C   UNL     1      22.080  -5.878   4.924  1.00  0.00     0.053 C 
BRANCH  11  12
ATOM     12  C   UNL     1      21.003  -5.060   4.286  1.00  0.00     0.041 C 
ATOM     13  O   UNL     1      21.144  -3.816   4.157  1.00  0.00    -0.550 OA
ATOM     14  O   UNL     1      19.821  -5.664   3.875  1.00  0.00    -0.550 OA
ENDBRANCH  11  12
ENDBRANCH  10  11
ENDBRANCH   9  10
ENDBRANCH   8   9
ENDBRANCH   7   8
ENDBRANCH   6   7
ENDBRANCH   5   6
ENDBRANCH   4   5
ENDBRANCH   3   4
ENDBRANCH   2   3
ENDBRANCH   1   2
BRANCH   1  15
ATOM     15  C   UNL     1      14.577  -8.613   6.965  1.00  0.00     0.000 C 
BRANCH  15  16
ATOM     16  C   UNL     1      14.907  -9.576   5.817  1.00  0.00     0.000 C 
BRANCH  16  17
ATOM     17  C   UNL     1      13.687  -9.896   4.932  1.00  0.00     0.000 C 
BRANCH  17  18
ATOM     18  C   UNL     1      13.151  -8.714   4.103  1.00  0.00    -0.000 C 
BRANCH  18  19
ATOM     19  C   UNL     1      11.625  -8.757   3.913  1.00  0.00    -0.000 C 
BRANCH  19  20
ATOM     20  C   UNL     1      10.910  -9.600   4.985  1.00  0.00    -0.000 C 
BRANCH  20  21
ATOM     21  C   UNL     1       9.378  -9.435   5.037  1.00  0.00    -0.000 C 
BRANCH  21  22
ATOM     22  C   UNL     1       8.875  -8.131   5.688  1.00  0.00    -0.000 C 
BRANCH  22  23
ATOM     23  C   UNL     1       8.037  -7.223   4.769  1.00  0.00    -0.000 C 
BRANCH  23  24
ATOM     24  C   UNL     1       6.777  -7.920   4.229  1.00  0.00    -0.000 C 
BRANCH  24  25
ATOM     25  C   UNL     1       6.150  -8.879   5.253  1.00  0.00    -0.003 C 
ATOM     26  C   UNL     1       4.686  -9.198   4.951  1.00  0.00     0.004 C 
ENDBRANCH  24  25
ENDBRANCH  23  24
ENDBRANCH  22  23
ENDBRANCH  21  22
ENDBRANCH  20  21
ENDBRANCH  19  20
ENDBRANCH  18  19
ENDBRANCH  17  18
ENDBRANCH  16  17
ENDBRANCH  15  16
ENDBRANCH   1  15
TORSDOF 22
ENDMDL
MODEL 7
REMARK VINA RESULT:    -0.970      2.013      3.628
REMARK INTER + INTRA:          -3.828
REMARK INTER:                  -5.671
REMARK INTRA:                   1.843
REMARK UNBOUND:                -1.612
REMARK SMILES CCCCCCCCCCCCCCCCCCCCCCCC(=O)[O-]
REMARK SMILES IDX 13 1 14 2 15 3 16 4 17 5 18 6 19 7 20 8 21 9 22 10 23 11
REMARK SMILES IDX 24 12 25 13 26 14 12 15 11 16 10 17 9 18 8 19 7 20 6 21 5 22
REMARK SMILES IDX 4 23 3 24 2 25 1 26
REMARK H PARENT
REMARK Flexibility Score: inf
ROOT
ATOM      1  C   UNL     1      17.038  -6.982   7.943  1.00  0.00     0.000 C 
ENDROOT
BRANCH   1   2
ATOM      2  C   UNL     1      18.568  -7.174   7.998  1.00  0.00     0.000 C 
BRANCH   2   3
ATOM      3  C   UNL     1      19.221  -7.345   6.615  1.00  0.00     0.000 C 
BRANCH   3   4
ATOM      4  C   UNL     1      18.397  -6.721   5.480  1.00  0.00     0.000 C 
BRANCH   4   5
ATOM      5  C   UNL     1      19.136  -6.834   4.139  1.00  0.00     0.000 C 
BRANCH   5   6
ATOM      6  C   UNL     1      20.117  -5.671   3.904  1.00  0.00     0.000 C 
BRANCH   6   7
ATOM      7  C   UNL     1      21.354  -5.675   4.824  1.00  0.00     0.000 C 
BRANCH   7   8
ATOM      8  C   UNL     1      22.374  -6.785   4.488  1.00  0.00     0.000 C 
BRANCH   8   9
ATOM      9  C   UNL     1      22.049  -8.107   5.206  1.00  0.00     0.000 C 
BRANCH   9  10
ATOM     10  C   UNL     1      22.242  -9.333   4.300  1.00  0.00     0.006 C 
BRANCH  10  11
ATOM     11  C   UNL     1      20.908  -9.962   3.876  1.00  0.00     0.053 C 
BRANCH  11  12
ATOM     12  C   UNL     1      19.981 -10.057   5.046  1.00  0.00     0.041 C 
ATOM     13  O   UNL     1      20.441 -10.120   6.216  1.00  0.00    -0.550 OA
ATOM     14  O   UNL     1      18.609 -10.124   4.842  1.00  0.00    -0.550 OA
ENDBRANCH  11  12
ENDBRANCH  10  11
ENDBRANCH   9  10
ENDBRANCH   8   9
ENDBRANCH   7   8
ENDBRANCH   6   7
ENDBRANCH   5   6
ENDBRANCH   4   5
ENDBRANCH   3   4
ENDBRANCH   2   3
ENDBRANCH   1   2
BRANCH   1  15
ATOM     15  C   UNL     1      16.456  -7.311   6.559  1.00  0.00     0.000 C 
BRANCH  15  16
ATOM     16  C   UNL     1      15.294  -8.306   6.675  1.00  0.00     0.000 C 
BRANCH  16  17
ATOM     17  C   UNL     1      14.186  -8.060   5.633  1.00  0.00     0.000 C 
BRANCH  17  18
ATOM     18  C   UNL     1      13.604  -9.329   4.983  1.00  0.00    -0.000 C 
BRANCH  18  19
ATOM     19  C   UNL     1      12.554  -9.021   3.901  1.00  0.00    -0.000 C 
BRANCH  19  20
ATOM     20  C   UNL     1      11.108  -9.142   4.415  1.00  0.00    -0.000 C 
BRANCH  20  21
ATOM     21  C   UNL     1      10.783  -8.303   5.668  1.00  0.00    -0.000 C 
BRANCH  21  22
ATOM     22  C   UNL     1       9.628  -8.836   6.539  1.00  0.00    -0.000 C 
BRANCH  22  23
ATOM     23  C   UNL     1       8.342  -9.195   5.770  1.00  0.00    -0.000 C 
BRANCH  23  24
ATOM     24  C   UNL     1       7.063  -8.783   6.519  1.00  0.00    -0.000 C 
BRANCH  24  25
ATOM     25  C   UNL     1       6.423  -7.513   5.936  1.00  0.00    -0.003 C 
ATOM     26  C   UNL     1       5.234  -7.812   5.025  1.00  0.00     0.004 C 
ENDBRANCH  24  25
ENDBRANCH  23  24
ENDBRANCH  22  23
ENDBRANCH  21  22
ENDBRANCH  20  21
ENDBRANCH  19  20
ENDBRANCH  18  19
ENDBRANCH  17  18
ENDBRANCH  16  17
ENDBRANCH  15  16
ENDBRANCH   1  15
TORSDOF 22
ENDMDL
MODEL 8
REMARK VINA RESULT:    -0.967      4.067     10.715
REMARK INTER + INTRA:          -3.823
REMARK INTER:                  -3.415
REMARK INTRA:                  -0.408
REMARK UNBOUND:                -1.612
REMARK SMILES CCCCCCCCCCCCCCCCCCCCCCCC(=O)[O-]
REMARK SMILES IDX 13 1 14 2 15 3 16 4 17 5 18 6 19 7 20 8 21 9 22 10 23 11
REMARK SMILES IDX 24 12 25 13 26 14 12 15 11 16 10 17 9 18 8 19 7 20 6 21 5 22
REMARK SMILES IDX 4 23 3 24 2 25 1 26
REMARK H PARENT
REMARK Flexibility Score: inf
ROOT
ATOM      1  C   UNL     1      15.360  -8.015   7.959  1.00  0.00     0.000 C 
ENDROOT
BRANCH   1   2
ATOM      2  C   UNL     1      13.923  -7.767   7.456  1.00  0.00     0.000 C 
BRANCH   2   3
ATOM      3  C   UNL     1      13.316  -8.961   6.697  1.00  0.00     0.000 C 
BRANCH   3   4
ATOM      4  C   UNL     1      13.604  -8.923   5.190  1.00  0.00     0.000 C 
BRANCH   4   5
ATOM      5  C   UNL     1      12.319  -8.660   4.393  1.00  0.00     0.000 C 
BRANCH   5   6
ATOM      6  C   UNL     1      11.666  -9.954   3.875  1.00  0.00     0.000 C 
BRANCH   6   7
ATOM      7  C   UNL     1      10.131  -9.999   4.004  1.00  0.00     0.000 C 
BRANCH   7   8
ATOM      8  C   UNL     1       9.484  -8.611   4.208  1.00  0.00     0.000 C 
BRANCH   8   9
ATOM      9  C   UNL     1       9.361  -8.243   5.697  1.00  0.00     0.000 C 
BRANCH   9  10
ATOM     10  C   UNL     1       8.345  -9.126   6.439  1.00  0.00     0.006 C 
BRANCH  10  11
ATOM     11  C   UNL     1       7.040  -8.381   6.751  1.00  0.00     0.053 C 
BRANCH  11  12
ATOM     12  C   UNL     1       6.208  -8.248   5.515  1.00  0.00     0.041 C 
ATOM     13  O   UNL     1       5.305  -7.374   5.450  1.00  0.00    -0.550 OA
ATOM     14  O   UNL     1       6.398  -9.120   4.451  1.00  0.00    -0.550 OA
ENDBRANCH  11  12
ENDBRANCH  10  11
ENDBRANCH   9  10
ENDBRANCH   8   9
ENDBRANCH   7   8
ENDBRANCH   6   7
ENDBRANCH   5   6
ENDBRANCH   4   5
ENDBRANCH   3   4
ENDBRANCH   2   3
ENDBRANCH   1   2
BRANCH   1  15
ATOM     15  C   UNL     1      16.367  -7.015   7.369  1.00  0.00     0.000 C 
BRANCH  15  16
ATOM     16  C   UNL     1      17.199  -7.666   6.256  1.00  0.00     0.000 C 
BRANCH  16  17
ATOM     17  C   UNL     1      16.903  -9.168   6.085  1.00  0.00     0.000 C 
BRANCH  17  18
ATOM     18  C   UNL     1      16.566  -9.610   4.649  1.00  0.00    -0.000 C 
BRANCH  18  19
ATOM     19  C   UNL     1      17.793 -10.125   3.876  1.00  0.00    -0.000 C 
BRANCH  19  20
ATOM     20  C   UNL     1      18.965  -9.127   3.876  1.00  0.00    -0.000 C 
BRANCH  20  21
ATOM     21  C   UNL     1      20.342  -9.729   4.218  1.00  0.00    -0.000 C 
BRANCH  21  22
ATOM     22  C   UNL     1      21.178  -8.930   5.239  1.00  0.00    -0.000 C 
BRANCH  22  23
ATOM     23  C   UNL     1      20.360  -8.078   6.227  1.00  0.00    -0.000 C 
BRANCH  23  24
ATOM     24  C   UNL     1      20.063  -6.666   5.695  1.00  0.00    -0.000 C 
BRANCH  24  25
ATOM     25  C   UNL     1      21.263  -6.050   4.958  1.00  0.00    -0.003 C 
ATOM     26  C   UNL     1      20.966  -4.661   4.396  1.00  0.00     0.004 C 
ENDBRANCH  24  25
ENDBRANCH  23  24
ENDBRANCH  22  23
ENDBRANCH  21  22
ENDBRANCH  20  21
ENDBRANCH  19  20
ENDBRANCH  18  19
ENDBRANCH  17  18
ENDBRANCH  16  17
ENDBRANCH  15  16
ENDBRANCH   1  15
TORSDOF 22
ENDMDL
MODEL 9
REMARK VINA RESULT:    -0.858      1.926      3.481
REMARK INTER + INTRA:          -3.573
REMARK INTER:                  -2.522
REMARK INTRA:                  -1.052
REMARK UNBOUND:                -1.612
REMARK SMILES CCCCCCCCCCCCCCCCCCCCCCCC(=O)[O-]
REMARK SMILES IDX 13 1 14 2 15 3 16 4 17 5 18 6 19 7 20 8 21 9 22 10 23 11
REMARK SMILES IDX 24 12 25 13 26 14 12 15 11 16 10 17 9 18 8 19 7 20 6 21 5 22
REMARK SMILES IDX 4 23 3 24 2 25 1 26
REMARK H PARENT
REMARK Flexibility Score: inf
ROOT
ATOM      1  C   UNL     1      11.214  -7.371   5.195  1.00  0.00     0.000 C 
ENDROOT
BRANCH   1   2
ATOM      2  C   UNL     1      11.382  -7.907   6.632  1.00  0.00     0.000 C 
BRANCH   2   3
ATOM      3  C   UNL     1      12.424  -9.033   6.756  1.00  0.00     0.000 C 
BRANCH   3   4
ATOM      4  C   UNL     1      13.863  -8.547   6.536  1.00  0.00     0.000 C 
BRANCH   4   5
ATOM      5  C   UNL     1      14.421  -9.068   5.204  1.00  0.00     0.000 C 
BRANCH   5   6
ATOM      6  C   UNL     1      15.817  -8.505   4.885  1.00  0.00     0.000 C 
BRANCH   6   7
ATOM      7  C   UNL     1      16.868  -8.722   5.992  1.00  0.00     0.000 C 
BRANCH   7   8
ATOM      8  C   UNL     1      17.494  -7.411   6.519  1.00  0.00     0.000 C 
BRANCH   8   9
ATOM      9  C   UNL     1      18.775  -7.667   7.332  1.00  0.00     0.000 C 
BRANCH   9  10
ATOM     10  C   UNL     1      19.953  -6.800   6.863  1.00  0.00     0.006 C 
BRANCH  10  11
ATOM     11  C   UNL     1      20.390  -7.132   5.430  1.00  0.00     0.053 C 
BRANCH  11  12
ATOM     12  C   UNL     1      21.173  -5.999   4.847  1.00  0.00     0.041 C 
ATOM     13  O   UNL     1      20.928  -4.814   5.194  1.00  0.00    -0.550 OA
ATOM     14  O   UNL     1      22.144  -6.247   3.885  1.00  0.00    -0.550 OA
ENDBRANCH  11  12
ENDBRANCH  10  11
ENDBRANCH   9  10
ENDBRANCH   8   9
ENDBRANCH   7   8
ENDBRANCH   6   7
ENDBRANCH   5   6
ENDBRANCH   4   5
ENDBRANCH   3   4
ENDBRANCH   2   3
ENDBRANCH   1   2
BRANCH   1  15
ATOM     15  C   UNL     1       9.820  -7.669   4.620  1.00  0.00     0.000 C 
BRANCH  15  16
ATOM     16  C   UNL     1       8.743  -7.565   5.709  1.00  0.00     0.000 C 
BRANCH  16  17
ATOM     17  C   UNL     1       7.792  -8.777   5.731  1.00  0.00     0.000 C 
BRANCH  17  18
ATOM     18  C   UNL     1       6.641  -8.725   4.709  1.00  0.00    -0.000 C 
BRANCH  18  19
ATOM     19  C   UNL     1       6.021 -10.107   4.433  1.00  0.00    -0.000 C 
BRANCH  19  20
ATOM     20  C   UNL     1       4.493 -10.125   4.610  1.00  0.00    -0.000 C 
BRANCH  20  21
ATOM     21  C   UNL     1       3.863  -8.781   5.030  1.00  0.00    -0.000 C 
BRANCH  21  22
ATOM     22  C   UNL     1       3.564  -7.802   3.876  1.00  0.00    -0.000 C 
BRANCH  22  23
ATOM     23  C   UNL     1       4.409  -6.515   3.875  1.00  0.00    -0.000 C 
BRANCH  23  24
ATOM     24  C   UNL     1       3.555  -5.239   3.966  1.00  0.00    -0.000 C 
BRANCH  24  25
ATOM     25  C   UNL     1       3.243  -4.843   5.417  1.00  0.00    -0.003 C 
ATOM     26  C   UNL     1       4.457  -4.949   6.338  1.00  0.00     0.004 C 
ENDBRANCH  24  25
ENDBRANCH  23  24
ENDBRANCH  22  23
ENDBRANCH  21  22
ENDBRANCH  20  21
ENDBRANCH  19  20
ENDBRANCH  18  19
ENDBRANCH  17  18
ENDBRANCH  16  17
ENDBRANCH  15  16
ENDBRANCH   1  15
TORSDOF 22
ENDMDL
