MODEL 1
REMARK VINA RESULT:    -2.803      0.000      0.000
REMARK INTER + INTRA:         -13.163
REMARK INTER:                  -7.064
REMARK INTRA:                  -6.099
REMARK UNBOUND:                -6.099
REMARK SMILES CCCCCCCCCCCCCCCCCCCCCCCCCCCC(=O)[O-]
REMARK SMILES IDX 15 1 16 2 17 3 18 4 19 5 20 6 21 7 22 8 23 9 24 10 25 11
REMARK SMILES IDX 26 12 27 13 28 14 29 15 30 16 14 17 13 18 12 19 11 20 10 21
REMARK SMILES IDX 9 22 8 23 7 24 6 25 5 26 4 27 3 28 2 29 1 30
REMARK H PARENT
REMARK Flexibility Score: inf
ROOT
ATOM      1  C   UNL     1     167.460 165.722 142.439  1.00  0.00     0.000 C 
ENDROOT
BRANCH   1   2
ATOM      2  C   UNL     1     168.255 167.021 142.645  1.00  0.00     0.000 C 
BRANCH   2   3
ATOM      3  C   UNL     1     169.541 167.065 141.807  1.00  0.00     0.000 C 
BRANCH   3   4
ATOM      4  C   UNL     1     170.780 167.189 142.701  1.00  0.00     0.000 C 
BRANCH   4   5
ATOM      5  C   UNL     1     171.989 166.489 142.060  1.00  0.00     0.000 C 
BRANCH   5   6
ATOM      6  C   UNL     1     173.105 166.185 143.072  1.00  0.00     0.000 C 
BRANCH   6   7
ATOM      7  C   UNL     1     172.702 166.530 144.518  1.00  0.00     0.000 C 
BRANCH   7   8
ATOM      8  C   UNL     1     173.003 165.392 145.505  1.00  0.00     0.000 C 
BRANCH   8   9
ATOM      9  C   UNL     1     171.882 165.194 146.540  1.00  0.00     0.000 C 
BRANCH   9  10
ATOM     10  C   UNL     1     170.482 165.306 145.915  1.00  0.00     0.000 C 
BRANCH  10  11
ATOM     11  C   UNL     1     169.550 166.229 146.712  1.00  0.00     0.000 C 
BRANCH  11  12
ATOM     12  C   UNL     1     169.426 167.602 146.039  1.00  0.00     0.006 C 
BRANCH  12  13
ATOM     13  C   UNL     1     169.469 168.729 147.075  1.00  0.00     0.053 C 
BRANCH  13  14
ATOM     14  C   UNL     1     170.751 168.693 147.844  1.00  0.00     0.041 C 
ATOM     15  O   UNL     1     170.736 168.602 149.100  1.00  0.00    -0.550 OA
ATOM     16  O   UNL     1     171.966 168.799 147.176  1.00  0.00    -0.550 OA
ENDBRANCH  13  14
ENDBRANCH  12  13
ENDBRANCH  11  12
ENDBRANCH  10  11
ENDBRANCH   9  10
ENDBRANCH   8   9
ENDBRANCH   7   8
ENDBRANCH   6   7
ENDBRANCH   5   6
ENDBRANCH   4   5
ENDBRANCH   3   4
ENDBRANCH   2   3
ENDBRANCH   1   2
BRANCH   1  17
ATOM     17  C   UNL     1     167.847 164.625 143.446  1.00  0.00     0.000 C 
BRANCH  17  18
ATOM     18  C   UNL     1     168.352 163.340 142.766  1.00  0.00     0.000 C 
BRANCH  18  19
ATOM     19  C   UNL     1     169.795 163.413 142.220  1.00  0.00     0.000 C 
BRANCH  19  20
ATOM     20  C   UNL     1     170.906 163.216 143.267  1.00  0.00     0.000 C 
BRANCH  20  21
ATOM     21  C   UNL     1     172.181 162.589 142.677  1.00  0.00     0.000 C 
BRANCH  21  22
ATOM     22  C   UNL     1     172.795 161.525 143.602  1.00  0.00    -0.000 C 
BRANCH  22  23
ATOM     23  C   UNL     1     172.514 161.798 145.090  1.00  0.00    -0.000 C 
BRANCH  23  24
ATOM     24  C   UNL     1     172.184 160.516 145.873  1.00  0.00    -0.000 C 
BRANCH  24  25
ATOM     25  C   UNL     1     170.674 160.261 145.992  1.00  0.00    -0.000 C 
BRANCH  25  26
ATOM     26  C   UNL     1     169.906 161.585 146.121  1.00  0.00    -0.000 C 
BRANCH  26  27
ATOM     27  C   UNL     1     169.703 162.012 147.584  1.00  0.00    -0.000 C 
BRANCH  27  28
ATOM     28  C   UNL     1     168.247 162.391 147.890  1.00  0.00    -0.000 C 
BRANCH  28  29
ATOM     29  C   UNL     1     167.572 163.007 146.659  1.00  0.00    -0.003 C 
ATOM     30  C   UNL     1     166.547 164.063 147.063  1.00  0.00     0.004 C 
ENDBRANCH  28  29
ENDBRANCH  27  28
ENDBRANCH  26  27
ENDBRANCH  25  26
ENDBRANCH  24  25
ENDBRANCH  23  24
ENDBRANCH  22  23
ENDBRANCH  21  22
ENDBRANCH  20  21
ENDBRANCH  19  20
ENDBRANCH  18  19
ENDBRANCH  17  18
ENDBRANCH   1  17
TORSDOF 26
ENDMDL
MODEL 2
REMARK VINA RESULT:    -2.783      2.510      5.760
REMARK INTER + INTRA:         -13.112
REMARK INTER:                  -7.113
REMARK INTRA:                  -5.999
REMARK UNBOUND:                -6.099
REMARK SMILES CCCCCCCCCCCCCCCCCCCCCCCCCCCC(=O)[O-]
REMARK SMILES IDX 15 1 16 2 17 3 18 4 19 5 20 6 21 7 22 8 23 9 24 10 25 11
REMARK SMILES IDX 26 12 27 13 28 14 29 15 30 16 14 17 13 18 12 19 11 20 10 21
REMARK SMILES IDX 9 22 8 23 7 24 6 25 5 26 4 27 3 28 2 29 1 30
REMARK H PARENT
REMARK Flexibility Score: inf
ROOT
ATOM      1  C   UNL     1     173.040 163.633 144.112  1.00  0.00     0.000 C 
ENDROOT
BRANCH   1   2
ATOM      2  C   UNL     1     172.858 162.114 143.970  1.00  0.00     0.000 C 
BRANCH   2   3
ATOM      3  C   UNL     1     172.717 161.406 145.325  1.00  0.00     0.000 C 
BRANCH   3   4
ATOM      4  C   UNL     1     171.884 160.126 145.198  1.00  0.00     0.000 C 
BRANCH   4   5
ATOM      5  C   UNL     1     170.451 160.354 145.704  1.00  0.00     0.000 C 
BRANCH   5   6
ATOM      6  C   UNL     1     170.409 160.997 147.099  1.00  0.00     0.000 C 
BRANCH   6   7
ATOM      7  C   UNL     1     169.474 162.219 147.159  1.00  0.00     0.000 C 
BRANCH   7   8
ATOM      8  C   UNL     1     170.213 163.545 146.919  1.00  0.00     0.000 C 
BRANCH   8   9
ATOM      9  C   UNL     1     169.772 164.242 145.621  1.00  0.00     0.000 C 
BRANCH   9  10
ATOM     10  C   UNL     1     168.369 164.861 145.737  1.00  0.00     0.000 C 
BRANCH  10  11
ATOM     11  C   UNL     1     168.407 166.389 145.885  1.00  0.00     0.000 C 
BRANCH  11  12
ATOM     12  C   UNL     1     167.679 167.073 144.721  1.00  0.00     0.006 C 
BRANCH  12  13
ATOM     13  C   UNL     1     166.568 166.178 144.164  1.00  0.00     0.053 C 
BRANCH  13  14
ATOM     14  C   UNL     1     165.223 166.679 144.586  1.00  0.00     0.041 C 
ATOM     15  O   UNL     1     164.988 166.924 145.799  1.00  0.00    -0.550 OA
ATOM     16  O   UNL     1     164.214 166.841 143.643  1.00  0.00    -0.550 OA
ENDBRANCH  13  14
ENDBRANCH  12  13
ENDBRANCH  11  12
ENDBRANCH  10  11
ENDBRANCH   9  10
ENDBRANCH   8   9
ENDBRANCH   7   8
ENDBRANCH   6   7
ENDBRANCH   5   6
ENDBRANCH   4   5
ENDBRANCH   3   4
ENDBRANCH   2   3
ENDBRANCH   1   2
BRANCH   1  17
ATOM     17  C   UNL     1     172.803 164.384 142.791  1.00  0.00     0.000 C 
BRANCH  17  18
ATOM     18  C   UNL     1     172.957 165.909 142.934  1.00  0.00     0.000 C 
BRANCH  18  19
ATOM     19  C   UNL     1     172.175 166.538 144.108  1.00  0.00     0.000 C 
BRANCH  19  20
ATOM     20  C   UNL     1     171.328 167.772 143.749  1.00  0.00     0.000 C 
BRANCH  20  21
ATOM     21  C   UNL     1     171.068 167.901 142.238  1.00  0.00     0.000 C 
BRANCH  21  22
ATOM     22  C   UNL     1     169.603 168.249 141.922  1.00  0.00    -0.000 C 
BRANCH  22  23
ATOM     23  C   UNL     1     168.880 167.129 141.152  1.00  0.00    -0.000 C 
BRANCH  23  24
ATOM     24  C   UNL     1     169.694 165.825 141.106  1.00  0.00    -0.000 C 
BRANCH  24  25
ATOM     25  C   UNL     1     169.173 164.761 142.083  1.00  0.00    -0.000 C 
BRANCH  25  26
ATOM     26  C   UNL     1     169.355 163.351 141.502  1.00  0.00    -0.000 C 
BRANCH  26  27
ATOM     27  C   UNL     1     169.550 162.283 142.590  1.00  0.00    -0.000 C 
BRANCH  27  28
ATOM     28  C   UNL     1     168.339 161.348 142.720  1.00  0.00    -0.000 C 
BRANCH  28  29
ATOM     29  C   UNL     1     167.441 161.773 143.886  1.00  0.00    -0.003 C 
ATOM     30  C   UNL     1     166.223 162.548 143.391  1.00  0.00     0.004 C 
ENDBRANCH  28  29
ENDBRANCH  27  28
ENDBRANCH  26  27
ENDBRANCH  25  26
ENDBRANCH  24  25
ENDBRANCH  23  24
ENDBRANCH  22  23
ENDBRANCH  21  22
ENDBRANCH  20  21
ENDBRANCH  19  20
ENDBRANCH  18  19
ENDBRANCH  17  18
ENDBRANCH   1  17
TORSDOF 26
ENDMDL
MODEL 3
REMARK VINA RESULT:    -2.710      1.991      6.014
REMARK INTER + INTRA:         -12.929
REMARK INTER:                  -7.341
REMARK INTRA:                  -5.588
REMARK UNBOUND:                -6.099
REMARK SMILES CCCCCCCCCCCCCCCCCCCCCCCCCCCC(=O)[O-]
REMARK SMILES IDX 15 1 16 2 17 3 18 4 19 5 20 6 21 7 22 8 23 9 24 10 25 11
REMARK SMILES IDX 26 12 27 13 28 14 29 15 30 16 14 17 13 18 12 19 11 20 10 21
REMARK SMILES IDX 9 22 8 23 7 24 6 25 5 26 4 27 3 28 2 29 1 30
REMARK H PARENT
REMARK Flexibility Score: inf
ROOT
ATOM      1  C   UNL     1     171.848 162.148 142.794  1.00  0.00     0.000 C 
ENDROOT
BRANCH   1   2
ATOM      2  C   UNL     1     172.096 160.632 142.749  1.00  0.00     0.000 C 
BRANCH   2   3
ATOM      3  C   UNL     1     171.920 159.964 144.121  1.00  0.00     0.000 C 
BRANCH   3   4
ATOM      4  C   UNL     1     170.494 159.430 144.297  1.00  0.00     0.000 C 
BRANCH   4   5
ATOM      5  C   UNL     1     169.849 160.005 145.568  1.00  0.00     0.000 C 
BRANCH   5   6
ATOM      6  C   UNL     1     170.879 160.598 146.542  1.00  0.00     0.000 C 
BRANCH   6   7
ATOM      7  C   UNL     1     170.281 160.889 147.931  1.00  0.00     0.000 C 
BRANCH   7   8
ATOM      8  C   UNL     1     169.532 162.229 147.986  1.00  0.00     0.000 C 
BRANCH   8   9
ATOM      9  C   UNL     1     168.004 162.053 148.012  1.00  0.00     0.000 C 
BRANCH   9  10
ATOM     10  C   UNL     1     167.296 162.922 146.960  1.00  0.00     0.000 C 
BRANCH  10  11
ATOM     11  C   UNL     1     168.207 163.275 145.775  1.00  0.00     0.000 C 
BRANCH  11  12
ATOM     12  C   UNL     1     167.633 164.448 144.971  1.00  0.00     0.006 C 
BRANCH  12  13
ATOM     13  C   UNL     1     167.561 165.718 145.824  1.00  0.00     0.053 C 
BRANCH  13  14
ATOM     14  C   UNL     1     167.326 166.920 144.965  1.00  0.00     0.041 C 
ATOM     15  O   UNL     1     166.239 167.053 144.343  1.00  0.00    -0.550 OA
ATOM     16  O   UNL     1     168.323 167.878 144.820  1.00  0.00    -0.550 OA
ENDBRANCH  13  14
ENDBRANCH  12  13
ENDBRANCH  11  12
ENDBRANCH  10  11
ENDBRANCH   9  10
ENDBRANCH   8   9
ENDBRANCH   7   8
ENDBRANCH   6   7
ENDBRANCH   5   6
ENDBRANCH   4   5
ENDBRANCH   3   4
ENDBRANCH   2   3
ENDBRANCH   1   2
BRANCH   1  17
ATOM     17  C   UNL     1     173.122 162.946 143.124  1.00  0.00     0.000 C 
BRANCH  17  18
ATOM     18  C   UNL     1     173.070 163.604 144.515  1.00  0.00     0.000 C 
BRANCH  18  19
ATOM     19  C   UNL     1     171.656 163.758 145.115  1.00  0.00     0.000 C 
BRANCH  19  20
ATOM     20  C   UNL     1     171.550 164.713 146.317  1.00  0.00     0.000 C 
BRANCH  20  21
ATOM     21  C   UNL     1     171.187 166.151 145.909  1.00  0.00     0.000 C 
BRANCH  21  22
ATOM     22  C   UNL     1     172.406 167.089 145.914  1.00  0.00    -0.000 C 
BRANCH  22  23
ATOM     23  C   UNL     1     172.629 167.780 144.557  1.00  0.00    -0.000 C 
BRANCH  23  24
ATOM     24  C   UNL     1     171.672 167.266 143.469  1.00  0.00    -0.000 C 
BRANCH  24  25
ATOM     25  C   UNL     1     172.399 166.528 142.336  1.00  0.00    -0.000 C 
BRANCH  25  26
ATOM     26  C   UNL     1     171.423 165.639 141.550  1.00  0.00    -0.000 C 
BRANCH  26  27
ATOM     27  C   UNL     1     170.027 165.583 142.189  1.00  0.00    -0.000 C 
BRANCH  27  28
ATOM     28  C   UNL     1     168.905 165.499 141.145  1.00  0.00    -0.000 C 
BRANCH  28  29
ATOM     29  C   UNL     1     167.905 166.646 141.321  1.00  0.00    -0.003 C 
ATOM     30  C   UNL     1     168.603 168.002 141.262  1.00  0.00     0.004 C 
ENDBRANCH  28  29
ENDBRANCH  27  28
ENDBRANCH  26  27
ENDBRANCH  25  26
ENDBRANCH  24  25
ENDBRANCH  23  24
ENDBRANCH  22  23
ENDBRANCH  21  22
ENDBRANCH  20  21
ENDBRANCH  19  20
ENDBRANCH  18  19
ENDBRANCH  17  18
ENDBRANCH   1  17
TORSDOF 26
ENDMDL
MODEL 4
REMARK VINA RESULT:    -2.641      3.403      5.947
REMARK INTER + INTRA:         -12.753
REMARK INTER:                  -7.458
REMARK INTRA:                  -5.295
REMARK UNBOUND:                -6.099
REMARK SMILES CCCCCCCCCCCCCCCCCCCCCCCCCCCC(=O)[O-]
REMARK SMILES IDX 15 1 16 2 17 3 18 4 19 5 20 6 21 7 22 8 23 9 24 10 25 11
REMARK SMILES IDX 26 12 27 13 28 14 29 15 30 16 14 17 13 18 12 19 11 20 10 21
REMARK SMILES IDX 9 22 8 23 7 24 6 25 5 26 4 27 3 28 2 29 1 30
REMARK H PARENT
REMARK Flexibility Score: inf
ROOT
ATOM      1  C   UNL     1     170.746 167.391 141.142  1.00  0.00     0.000 C 
ENDROOT
BRANCH   1   2
ATOM      2  C   UNL     1     171.281 166.157 140.398  1.00  0.00     0.000 C 
BRANCH   2   3
ATOM      3  C   UNL     1     172.762 165.883 140.698  1.00  0.00     0.000 C 
BRANCH   3   4
ATOM      4  C   UNL     1     172.993 164.405 141.033  1.00  0.00     0.000 C 
BRANCH   4   5
ATOM      5  C   UNL     1     173.065 164.194 142.554  1.00  0.00     0.000 C 
BRANCH   5   6
ATOM      6  C   UNL     1     171.882 163.377 143.097  1.00  0.00     0.000 C 
BRANCH   6   7
ATOM      7  C   UNL     1     171.031 162.752 141.977  1.00  0.00     0.000 C 
BRANCH   7   8
ATOM      8  C   UNL     1     169.525 162.988 142.173  1.00  0.00     0.000 C 
BRANCH   8   9
ATOM      9  C   UNL     1     169.225 164.286 142.940  1.00  0.00     0.000 C 
BRANCH   9  10
ATOM     10  C   UNL     1     168.037 165.058 142.343  1.00  0.00     0.000 C 
BRANCH  10  11
ATOM     11  C   UNL     1     167.499 164.414 141.057  1.00  0.00     0.000 C 
BRANCH  11  12
ATOM     12  C   UNL     1     167.769 165.306 139.839  1.00  0.00     0.006 C 
BRANCH  12  13
ATOM     13  C   UNL     1     167.801 164.481 138.549  1.00  0.00     0.053 C 
BRANCH  13  14
ATOM     14  C   UNL     1     169.211 164.233 138.114  1.00  0.00     0.041 C 
ATOM     15  O   UNL     1     169.756 164.989 137.267  1.00  0.00    -0.550 OA
ATOM     16  O   UNL     1     169.912 163.143 138.616  1.00  0.00    -0.550 OA
ENDBRANCH  13  14
ENDBRANCH  12  13
ENDBRANCH  11  12
ENDBRANCH  10  11
ENDBRANCH   9  10
ENDBRANCH   8   9
ENDBRANCH   7   8
ENDBRANCH   6   7
ENDBRANCH   5   6
ENDBRANCH   4   5
ENDBRANCH   3   4
ENDBRANCH   2   3
ENDBRANCH   1   2
BRANCH   1  17
ATOM     17  C   UNL     1     171.084 167.368 142.643  1.00  0.00     0.000 C 
BRANCH  17  18
ATOM     18  C   UNL     1     172.040 168.501 143.057  1.00  0.00     0.000 C 
BRANCH  18  19
ATOM     19  C   UNL     1     172.611 168.386 144.487  1.00  0.00     0.000 C 
BRANCH  19  20
ATOM     20  C   UNL     1     172.972 166.959 144.939  1.00  0.00     0.000 C 
BRANCH  20  21
ATOM     21  C   UNL     1     172.347 166.584 146.294  1.00  0.00     0.000 C 
BRANCH  21  22
ATOM     22  C   UNL     1     172.145 165.067 146.448  1.00  0.00    -0.000 C 
BRANCH  22  23
ATOM     23  C   UNL     1     170.665 164.654 146.361  1.00  0.00    -0.000 C 
BRANCH  23  24
ATOM     24  C   UNL     1     170.392 163.293 147.023  1.00  0.00    -0.000 C 
BRANCH  24  25
ATOM     25  C   UNL     1     170.155 162.170 146.002  1.00  0.00    -0.000 C 
BRANCH  25  26
ATOM     26  C   UNL     1     170.762 160.848 146.495  1.00  0.00    -0.000 C 
BRANCH  26  27
ATOM     27  C   UNL     1     171.999 160.426 145.686  1.00  0.00    -0.000 C 
BRANCH  27  28
ATOM     28  C   UNL     1     171.778 159.118 144.912  1.00  0.00    -0.000 C 
BRANCH  28  29
ATOM     29  C   UNL     1     171.590 159.392 143.416  1.00  0.00    -0.003 C 
ATOM     30  C   UNL     1     170.125 159.256 143.010  1.00  0.00     0.004 C 
ENDBRANCH  28  29
ENDBRANCH  27  28
ENDBRANCH  26  27
ENDBRANCH  25  26
ENDBRANCH  24  25
ENDBRANCH  23  24
ENDBRANCH  22  23
ENDBRANCH  21  22
ENDBRANCH  20  21
ENDBRANCH  19  20
ENDBRANCH  18  19
ENDBRANCH  17  18
ENDBRANCH   1  17
TORSDOF 26
ENDMDL
MODEL 5
REMARK VINA RESULT:    -2.638      1.386      5.368
REMARK INTER + INTRA:         -12.745
REMARK INTER:                  -7.513
REMARK INTRA:                  -5.232
REMARK UNBOUND:                -6.099
REMARK SMILES CCCCCCCCCCCCCCCCCCCCCCCCCCCC(=O)[O-]
REMARK SMILES IDX 15 1 16 2 17 3 18 4 19 5 20 6 21 7 22 8 23 9 24 10 25 11
REMARK SMILES IDX 26 12 27 13 28 14 29 15 30 16 14 17 13 18 12 19 11 20 10 21
REMARK SMILES IDX 9 22 8 23 7 24 6 25 5 26 4 27 3 28 2 29 1 30
REMARK H PARENT
REMARK Flexibility Score: inf
ROOT
ATOM      1  C   UNL     1     172.348 164.143 143.668  1.00  0.00     0.000 C 
ENDROOT
BRANCH   1   2
ATOM      2  C   UNL     1     172.684 162.677 143.353  1.00  0.00     0.000 C 
BRANCH   2   3
ATOM      3  C   UNL     1     173.047 161.872 144.609  1.00  0.00     0.000 C 
BRANCH   3   4
ATOM      4  C   UNL     1     172.091 160.690 144.805  1.00  0.00     0.000 C 
BRANCH   4   5
ATOM      5  C   UNL     1     171.595 160.623 146.258  1.00  0.00     0.000 C 
BRANCH   5   6
ATOM      6  C   UNL     1     170.147 161.114 146.415  1.00  0.00     0.000 C 
BRANCH   6   7
ATOM      7  C   UNL     1     170.037 162.349 147.329  1.00  0.00     0.000 C 
BRANCH   7   8
ATOM      8  C   UNL     1     170.609 163.620 146.682  1.00  0.00     0.000 C 
BRANCH   8   9
ATOM      9  C   UNL     1     169.520 164.649 146.335  1.00  0.00     0.000 C 
BRANCH   9  10
ATOM     10  C   UNL     1     169.966 166.092 146.624  1.00  0.00     0.000 C 
BRANCH  10  11
ATOM     11  C   UNL     1     168.783 167.063 146.748  1.00  0.00     0.000 C 
BRANCH  11  12
ATOM     12  C   UNL     1     169.266 168.518 146.784  1.00  0.00     0.006 C 
BRANCH  12  13
ATOM     13  C   UNL     1     170.766 168.608 146.487  1.00  0.00     0.053 C 
BRANCH  13  14
ATOM     14  C   UNL     1     171.460 169.444 147.515  1.00  0.00     0.041 C 
ATOM     15  O   UNL     1     171.646 168.997 148.677  1.00  0.00    -0.550 OA
ATOM     16  O   UNL     1     171.869 170.735 147.201  1.00  0.00    -0.550 OA
ENDBRANCH  13  14
ENDBRANCH  12  13
ENDBRANCH  11  12
ENDBRANCH  10  11
ENDBRANCH   9  10
ENDBRANCH   8   9
ENDBRANCH   7   8
ENDBRANCH   6   7
ENDBRANCH   5   6
ENDBRANCH   4   5
ENDBRANCH   3   4
ENDBRANCH   2   3
ENDBRANCH   1   2
BRANCH   1  17
ATOM     17  C   UNL     1     172.782 165.104 142.547  1.00  0.00     0.000 C 
BRANCH  17  18
ATOM     18  C   UNL     1     172.874 166.567 143.016  1.00  0.00     0.000 C 
BRANCH  18  19
ATOM     19  C   UNL     1     171.523 167.309 143.113  1.00  0.00     0.000 C 
BRANCH  19  20
ATOM     20  C   UNL     1     170.946 167.805 141.775  1.00  0.00     0.000 C 
BRANCH  20  21
ATOM     21  C   UNL     1     169.457 168.180 141.867  1.00  0.00     0.000 C 
BRANCH  21  22
ATOM     22  C   UNL     1     168.797 167.655 143.154  1.00  0.00    -0.000 C 
BRANCH  22  23
ATOM     23  C   UNL     1     167.786 166.526 142.884  1.00  0.00    -0.000 C 
BRANCH  23  24
ATOM     24  C   UNL     1     167.428 166.398 141.394  1.00  0.00    -0.000 C 
BRANCH  24  25
ATOM     25  C   UNL     1     167.678 164.988 140.840  1.00  0.00    -0.000 C 
BRANCH  25  26
ATOM     26  C   UNL     1     169.184 164.696 140.751  1.00  0.00    -0.000 C 
BRANCH  26  27
ATOM     27  C   UNL     1     169.561 163.338 141.362  1.00  0.00    -0.000 C 
BRANCH  27  28
ATOM     28  C   UNL     1     169.006 163.157 142.782  1.00  0.00    -0.000 C 
BRANCH  28  29
ATOM     29  C   UNL     1     168.794 161.673 143.102  1.00  0.00    -0.003 C 
ATOM     30  C   UNL     1     169.571 160.783 142.137  1.00  0.00     0.004 C 
ENDBRANCH  28  29
ENDBRANCH  27  28
ENDBRANCH  26  27
ENDBRANCH  25  26
ENDBRANCH  24  25
ENDBRANCH  23  24
ENDBRANCH  22  23
ENDBRANCH  21  22
ENDBRANCH  20  21
ENDBRANCH  19  20
ENDBRANCH  18  19
ENDBRANCH  17  18
ENDBRANCH   1  17
TORSDOF 26
ENDMDL
MODEL 6
REMARK VINA RESULT:    -2.635      2.374      3.612
REMARK INTER + INTRA:         -12.739
REMARK INTER:                  -7.218
REMARK INTRA:                  -5.521
REMARK UNBOUND:                -6.099
REMARK SMILES CCCCCCCCCCCCCCCCCCCCCCCCCCCC(=O)[O-]
REMARK SMILES IDX 15 1 16 2 17 3 18 4 19 5 20 6 21 7 22 8 23 9 24 10 25 11
REMARK SMILES IDX 26 12 27 13 28 14 29 15 30 16 14 17 13 18 12 19 11 20 10 21
REMARK SMILES IDX 9 22 8 23 7 24 6 25 5 26 4 27 3 28 2 29 1 30
REMARK H PARENT
REMARK Flexibility Score: inf
ROOT
ATOM      1  C   UNL     1     169.850 167.815 142.742  1.00  0.00     0.000 C 
ENDROOT
BRANCH   1   2
ATOM      2  C   UNL     1     171.340 168.192 142.717  1.00  0.00     0.000 C 
BRANCH   2   3
ATOM      3  C   UNL     1     172.122 167.591 143.894  1.00  0.00     0.000 C 
BRANCH   3   4
ATOM      4  C   UNL     1     173.124 166.536 143.412  1.00  0.00     0.000 C 
BRANCH   4   5
ATOM      5  C   UNL     1     172.979 165.236 144.218  1.00  0.00     0.000 C 
BRANCH   5   6
ATOM      6  C   UNL     1     173.125 165.456 145.732  1.00  0.00     0.000 C 
BRANCH   6   7
ATOM      7  C   UNL     1     171.853 165.072 146.511  1.00  0.00     0.000 C 
BRANCH   7   8
ATOM      8  C   UNL     1     170.715 164.598 145.594  1.00  0.00     0.000 C 
BRANCH   8   9
ATOM      9  C   UNL     1     169.352 165.190 145.989  1.00  0.00     0.000 C 
BRANCH   9  10
ATOM     10  C   UNL     1     169.451 166.669 146.396  1.00  0.00     0.000 C 
BRANCH  10  11
ATOM     11  C   UNL     1     168.185 167.465 146.048  1.00  0.00     0.000 C 
BRANCH  11  12
ATOM     12  C   UNL     1     167.188 166.600 145.267  1.00  0.00     0.006 C 
BRANCH  12  13
ATOM     13  C   UNL     1     165.744 166.968 145.622  1.00  0.00     0.053 C 
BRANCH  13  14
ATOM     14  C   UNL     1     164.985 165.760 146.072  1.00  0.00     0.041 C 
ATOM     15  O   UNL     1     163.739 165.694 145.903  1.00  0.00    -0.550 OA
ATOM     16  O   UNL     1     165.648 164.721 146.714  1.00  0.00    -0.550 OA
ENDBRANCH  13  14
ENDBRANCH  12  13
ENDBRANCH  11  12
ENDBRANCH  10  11
ENDBRANCH   9  10
ENDBRANCH   8   9
ENDBRANCH   7   8
ENDBRANCH   6   7
ENDBRANCH   5   6
ENDBRANCH   4   5
ENDBRANCH   3   4
ENDBRANCH   2   3
ENDBRANCH   1   2
BRANCH   1  17
ATOM     17  C   UNL     1     169.263 167.631 141.332  1.00  0.00     0.000 C 
BRANCH  17  18
ATOM     18  C   UNL     1     168.355 166.393 141.221  1.00  0.00     0.000 C 
BRANCH  18  19
ATOM     19  C   UNL     1     168.605 165.300 142.282  1.00  0.00     0.000 C 
BRANCH  19  20
ATOM     20  C   UNL     1     169.124 163.957 141.736  1.00  0.00     0.000 C 
BRANCH  20  21
ATOM     21  C   UNL     1     170.650 163.807 141.866  1.00  0.00     0.000 C 
BRANCH  21  22
ATOM     22  C   UNL     1     171.089 162.337 141.966  1.00  0.00    -0.000 C 
BRANCH  22  23
ATOM     23  C   UNL     1     172.515 162.180 142.524  1.00  0.00    -0.000 C 
BRANCH  23  24
ATOM     24  C   UNL     1     172.628 161.030 143.539  1.00  0.00    -0.000 C 
BRANCH  24  25
ATOM     25  C   UNL     1     172.634 161.518 144.995  1.00  0.00    -0.000 C 
BRANCH  25  26
ATOM     26  C   UNL     1     172.020 160.462 145.926  1.00  0.00    -0.000 C 
BRANCH  26  27
ATOM     27  C   UNL     1     170.715 160.938 146.583  1.00  0.00    -0.000 C 
BRANCH  27  28
ATOM     28  C   UNL     1     169.467 160.446 145.837  1.00  0.00    -0.000 C 
BRANCH  28  29
ATOM     29  C   UNL     1     168.914 161.537 144.914  1.00  0.00    -0.003 C 
ATOM     30  C   UNL     1     168.084 160.936 143.783  1.00  0.00     0.004 C 
ENDBRANCH  28  29
ENDBRANCH  27  28
ENDBRANCH  26  27
ENDBRANCH  25  26
ENDBRANCH  24  25
ENDBRANCH  23  24
ENDBRANCH  22  23
ENDBRANCH  21  22
ENDBRANCH  20  21
ENDBRANCH  19  20
ENDBRANCH  18  19
ENDBRANCH  17  18
ENDBRANCH   1  17
TORSDOF 26
ENDMDL
MODEL 7
REMARK VINA RESULT:    -2.589      2.862      4.570
REMARK INTER + INTRA:         -12.623
REMARK INTER:                  -6.968
REMARK INTRA:                  -5.655
REMARK UNBOUND:                -6.099
REMARK SMILES CCCCCCCCCCCCCCCCCCCCCCCCCCCC(=O)[O-]
REMARK SMILES IDX 15 1 16 2 17 3 18 4 19 5 20 6 21 7 22 8 23 9 24 10 25 11
REMARK SMILES IDX 26 12 27 13 28 14 29 15 30 16 14 17 13 18 12 19 11 20 10 21
REMARK SMILES IDX 9 22 8 23 7 24 6 25 5 26 4 27 3 28 2 29 1 30
REMARK H PARENT
REMARK Flexibility Score: inf
ROOT
ATOM      1  C   UNL     1     169.988 164.688 144.485  1.00  0.00     0.000 C 
ENDROOT
BRANCH   1   2
ATOM      2  C   UNL     1     168.998 163.538 144.243  1.00  0.00     0.000 C 
BRANCH   2   3
ATOM      3  C   UNL     1     169.339 162.720 142.988  1.00  0.00     0.000 C 
BRANCH   3   4
ATOM      4  C   UNL     1     169.563 163.632 141.777  1.00  0.00     0.000 C 
BRANCH   4   5
ATOM      5  C   UNL     1     170.936 163.366 141.139  1.00  0.00     0.000 C 
BRANCH   5   6
ATOM      6  C   UNL     1     171.463 164.568 140.340  1.00  0.00     0.000 C 
BRANCH   6   7
ATOM      7  C   UNL     1     171.801 165.773 141.238  1.00  0.00     0.000 C 
BRANCH   7   8
ATOM      8  C   UNL     1     171.002 167.032 140.868  1.00  0.00     0.000 C 
BRANCH   8   9
ATOM      9  C   UNL     1     170.005 167.444 141.963  1.00  0.00     0.000 C 
BRANCH   9  10
ATOM     10  C   UNL     1     168.616 167.780 141.395  1.00  0.00     0.000 C 
BRANCH  10  11
ATOM     11  C   UNL     1     167.667 166.573 141.400  1.00  0.00     0.000 C 
BRANCH  11  12
ATOM     12  C   UNL     1     166.945 166.446 142.747  1.00  0.00     0.006 C 
BRANCH  12  13
ATOM     13  C   UNL     1     166.028 165.220 142.767  1.00  0.00     0.053 C 
BRANCH  13  14
ATOM     14  C   UNL     1     164.632 165.608 143.140  1.00  0.00     0.041 C 
ATOM     15  O   UNL     1     164.365 166.802 143.441  1.00  0.00    -0.550 OA
ATOM     16  O   UNL     1     163.632 164.644 143.193  1.00  0.00    -0.550 OA
ENDBRANCH  13  14
ENDBRANCH  12  13
ENDBRANCH  11  12
ENDBRANCH  10  11
ENDBRANCH   9  10
ENDBRANCH   8   9
ENDBRANCH   7   8
ENDBRANCH   6   7
ENDBRANCH   5   6
ENDBRANCH   4   5
ENDBRANCH   3   4
ENDBRANCH   2   3
ENDBRANCH   1   2
BRANCH   1  17
ATOM     17  C   UNL     1     170.634 164.629 145.880  1.00  0.00     0.000 C 
BRANCH  17  18
ATOM     18  C   UNL     1     172.149 164.363 145.827  1.00  0.00     0.000 C 
BRANCH  18  19
ATOM     19  C   UNL     1     172.732 164.183 144.408  1.00  0.00     0.000 C 
BRANCH  19  20
ATOM     20  C   UNL     1     173.125 162.742 144.036  1.00  0.00     0.000 C 
BRANCH  20  21
ATOM     21  C   UNL     1     172.763 161.721 145.128  1.00  0.00     0.000 C 
BRANCH  21  22
ATOM     22  C   UNL     1     171.750 160.672 144.639  1.00  0.00    -0.000 C 
BRANCH  22  23
ATOM     23  C   UNL     1     170.581 160.473 145.620  1.00  0.00    -0.000 C 
BRANCH  23  24
ATOM     24  C   UNL     1     171.007 160.643 147.088  1.00  0.00    -0.000 C 
BRANCH  24  25
ATOM     25  C   UNL     1     170.188 161.712 147.826  1.00  0.00    -0.000 C 
BRANCH  25  26
ATOM     26  C   UNL     1     169.261 161.066 148.867  1.00  0.00    -0.000 C 
BRANCH  26  27
ATOM     27  C   UNL     1     167.794 161.491 148.699  1.00  0.00    -0.000 C 
BRANCH  27  28
ATOM     28  C   UNL     1     167.508 162.082 147.311  1.00  0.00    -0.000 C 
BRANCH  28  29
ATOM     29  C   UNL     1     166.836 163.454 147.428  1.00  0.00    -0.003 C 
ATOM     30  C   UNL     1     165.873 163.699 146.269  1.00  0.00     0.004 C 
ENDBRANCH  28  29
ENDBRANCH  27  28
ENDBRANCH  26  27
ENDBRANCH  25  26
ENDBRANCH  24  25
ENDBRANCH  23  24
ENDBRANCH  22  23
ENDBRANCH  21  22
ENDBRANCH  20  21
ENDBRANCH  19  20
ENDBRANCH  18  19
ENDBRANCH  17  18
ENDBRANCH   1  17
TORSDOF 26
ENDMDL
MODEL 8
REMARK VINA RESULT:    -2.547      1.859      4.256
REMARK INTER + INTRA:         -12.518
REMARK INTER:                  -7.340
REMARK INTRA:                  -5.178
REMARK UNBOUND:                -6.099
REMARK SMILES CCCCCCCCCCCCCCCCCCCCCCCCCCCC(=O)[O-]
REMARK SMILES IDX 15 1 16 2 17 3 18 4 19 5 20 6 21 7 22 8 23 9 24 10 25 11
REMARK SMILES IDX 26 12 27 13 28 14 29 15 30 16 14 17 13 18 12 19 11 20 10 21
REMARK SMILES IDX 9 22 8 23 7 24 6 25 5 26 4 27 3 28 2 29 1 30
REMARK H PARENT
REMARK Flexibility Score: inf
ROOT
ATOM      1  C   UNL     1     171.221 168.300 142.095  1.00  0.00     0.000 C 
ENDROOT
BRANCH   1   2
ATOM      2  C   UNL     1     172.314 167.488 142.806  1.00  0.00     0.000 C 
BRANCH   2   3
ATOM      3  C   UNL     1     172.791 166.286 141.977  1.00  0.00     0.000 C 
BRANCH   3   4
ATOM      4  C   UNL     1     172.649 164.978 142.765  1.00  0.00     0.000 C 
BRANCH   4   5
ATOM      5  C   UNL     1     171.168 164.633 142.988  1.00  0.00     0.000 C 
BRANCH   5   6
ATOM      6  C   UNL     1     170.742 164.764 144.458  1.00  0.00     0.000 C 
BRANCH   6   7
ATOM      7  C   UNL     1     171.943 164.828 145.419  1.00  0.00     0.000 C 
BRANCH   7   8
ATOM      8  C   UNL     1     171.737 165.833 146.562  1.00  0.00     0.000 C 
BRANCH   8   9
ATOM      9  C   UNL     1     170.388 166.566 146.470  1.00  0.00     0.000 C 
BRANCH   9  10
ATOM     10  C   UNL     1     170.550 168.095 146.473  1.00  0.00     0.000 C 
BRANCH  10  11
ATOM     11  C   UNL     1     169.219 168.831 146.678  1.00  0.00     0.000 C 
BRANCH  11  12
ATOM     12  C   UNL     1     168.833 168.869 148.161  1.00  0.00     0.006 C 
BRANCH  12  13
ATOM     13  C   UNL     1     167.344 169.184 148.335  1.00  0.00     0.053 C 
BRANCH  13  14
ATOM     14  C   UNL     1     167.016 169.414 149.777  1.00  0.00     0.041 C 
ATOM     15  O   UNL     1     167.696 170.224 150.460  1.00  0.00    -0.550 OA
ATOM     16  O   UNL     1     165.983 168.705 150.377  1.00  0.00    -0.550 OA
ENDBRANCH  13  14
ENDBRANCH  12  13
ENDBRANCH  11  12
ENDBRANCH  10  11
ENDBRANCH   9  10
ENDBRANCH   8   9
ENDBRANCH   7   8
ENDBRANCH   6   7
ENDBRANCH   5   6
ENDBRANCH   4   5
ENDBRANCH   3   4
ENDBRANCH   2   3
ENDBRANCH   1   2
BRANCH   1  17
ATOM     17  C   UNL     1     169.838 168.128 142.747  1.00  0.00     0.000 C 
BRANCH  17  18
ATOM     18  C   UNL     1     168.833 167.401 141.834  1.00  0.00     0.000 C 
BRANCH  18  19
ATOM     19  C   UNL     1     167.681 166.683 142.571  1.00  0.00     0.000 C 
BRANCH  19  20
ATOM     20  C   UNL     1     167.589 166.963 144.081  1.00  0.00     0.000 C 
BRANCH  20  21
ATOM     21  C   UNL     1     166.280 166.452 144.707  1.00  0.00     0.000 C 
BRANCH  21  22
ATOM     22  C   UNL     1     166.410 166.198 146.218  1.00  0.00    -0.000 C 
BRANCH  22  23
ATOM     23  C   UNL     1     167.279 164.969 146.541  1.00  0.00    -0.000 C 
BRANCH  23  24
ATOM     24  C   UNL     1     167.007 163.789 145.593  1.00  0.00    -0.000 C 
BRANCH  24  25
ATOM     25  C   UNL     1     167.623 162.473 146.088  1.00  0.00    -0.000 C 
BRANCH  25  26
ATOM     26  C   UNL     1     168.433 162.699 147.374  1.00  0.00    -0.000 C 
BRANCH  26  27
ATOM     27  C   UNL     1     169.939 162.467 147.173  1.00  0.00    -0.000 C 
BRANCH  27  28
ATOM     28  C   UNL     1     170.359 161.023 147.484  1.00  0.00    -0.000 C 
BRANCH  28  29
ATOM     29  C   UNL     1     171.278 160.473 146.387  1.00  0.00    -0.003 C 
ATOM     30  C   UNL     1     171.085 161.227 145.075  1.00  0.00     0.004 C 
ENDBRANCH  28  29
ENDBRANCH  27  28
ENDBRANCH  26  27
ENDBRANCH  25  26
ENDBRANCH  24  25
ENDBRANCH  23  24
ENDBRANCH  22  23
ENDBRANCH  21  22
ENDBRANCH  20  21
ENDBRANCH  19  20
ENDBRANCH  18  19
ENDBRANCH  17  18
ENDBRANCH   1  17
TORSDOF 26
ENDMDL
MODEL 9
REMARK VINA RESULT:    -2.528      2.860      5.524
REMARK INTER + INTRA:         -12.469
REMARK INTER:                  -6.420
REMARK INTRA:                  -6.048
REMARK UNBOUND:                -6.099
REMARK SMILES CCCCCCCCCCCCCCCCCCCCCCCCCCCC(=O)[O-]
REMARK SMILES IDX 15 1 16 2 17 3 18 4 19 5 20 6 21 7 22 8 23 9 24 10 25 11
REMARK SMILES IDX 26 12 27 13 28 14 29 15 30 16 14 17 13 18 12 19 11 20 10 21
REMARK SMILES IDX 9 22 8 23 7 24 6 25 5 26 4 27 3 28 2 29 1 30
REMARK H PARENT
REMARK Flexibility Score: inf
ROOT
ATOM      1  C   UNL     1     170.669 162.299 144.537  1.00  0.00     0.000 C 
ENDROOT
BRANCH   1   2
ATOM      2  C   UNL     1     169.633 163.357 144.128  1.00  0.00     0.000 C 
BRANCH   2   3
ATOM      3  C   UNL     1     170.161 164.316 143.050  1.00  0.00     0.000 C 
BRANCH   3   4
ATOM      4  C   UNL     1     171.118 163.597 142.092  1.00  0.00     0.000 C 
BRANCH   4   5
ATOM      5  C   UNL     1     172.420 164.396 141.919  1.00  0.00     0.000 C 
BRANCH   5   6
ATOM      6  C   UNL     1     172.777 165.227 143.162  1.00  0.00     0.000 C 
BRANCH   6   7
ATOM      7  C   UNL     1     173.004 166.714 142.834  1.00  0.00     0.000 C 
BRANCH   7   8
ATOM      8  C   UNL     1     171.745 167.568 143.046  1.00  0.00     0.000 C 
BRANCH   8   9
ATOM      9  C   UNL     1     171.213 168.173 141.736  1.00  0.00     0.000 C 
BRANCH   9  10
ATOM     10  C   UNL     1     170.075 167.338 141.126  1.00  0.00     0.000 C 
BRANCH  10  11
ATOM     11  C   UNL     1     168.685 167.840 141.539  1.00  0.00     0.000 C 
BRANCH  11  12
ATOM     12  C   UNL     1     167.622 166.754 141.329  1.00  0.00     0.006 C 
BRANCH  12  13
ATOM     13  C   UNL     1     168.094 165.710 140.314  1.00  0.00     0.053 C 
BRANCH  13  14
ATOM     14  C   UNL     1     167.509 164.368 140.623  1.00  0.00     0.041 C 
ATOM     15  O   UNL     1     166.761 164.218 141.625  1.00  0.00    -0.550 OA
ATOM     16  O   UNL     1     167.819 163.273 139.825  1.00  0.00    -0.550 OA
ENDBRANCH  13  14
ENDBRANCH  12  13
ENDBRANCH  11  12
ENDBRANCH  10  11
ENDBRANCH   9  10
ENDBRANCH   8   9
ENDBRANCH   7   8
ENDBRANCH   6   7
ENDBRANCH   5   6
ENDBRANCH   4   5
ENDBRANCH   3   4
ENDBRANCH   2   3
ENDBRANCH   1   2
BRANCH   1  17
ATOM     17  C   UNL     1     171.458 162.699 145.796  1.00  0.00     0.000 C 
BRANCH  17  18
ATOM     18  C   UNL     1     170.835 163.897 146.535  1.00  0.00     0.000 C 
BRANCH  18  19
ATOM     19  C   UNL     1     171.743 165.142 146.644  1.00  0.00     0.000 C 
BRANCH  19  20
ATOM     20  C   UNL     1     171.025 166.496 146.502  1.00  0.00     0.000 C 
BRANCH  20  21
ATOM     21  C   UNL     1     169.494 166.358 146.442  1.00  0.00     0.000 C 
BRANCH  21  22
ATOM     22  C   UNL     1     168.899 166.968 145.161  1.00  0.00    -0.000 C 
BRANCH  22  23
ATOM     23  C   UNL     1     167.364 167.070 145.210  1.00  0.00    -0.000 C 
BRANCH  23  24
ATOM     24  C   UNL     1     166.744 166.136 146.261  1.00  0.00    -0.000 C 
BRANCH  24  25
ATOM     25  C   UNL     1     165.925 164.996 145.637  1.00  0.00    -0.000 C 
BRANCH  25  26
ATOM     26  C   UNL     1     166.636 163.647 145.826  1.00  0.00    -0.000 C 
BRANCH  26  27
ATOM     27  C   UNL     1     167.190 163.464 147.248  1.00  0.00    -0.000 C 
BRANCH  27  28
ATOM     28  C   UNL     1     167.126 162.004 147.720  1.00  0.00    -0.000 C 
BRANCH  28  29
ATOM     29  C   UNL     1     168.343 161.215 147.225  1.00  0.00    -0.003 C 
ATOM     30  C   UNL     1     167.944 160.197 146.159  1.00  0.00     0.004 C 
ENDBRANCH  28  29
ENDBRANCH  27  28
ENDBRANCH  26  27
ENDBRANCH  25  26
ENDBRANCH  24  25
ENDBRANCH  23  24
ENDBRANCH  22  23
ENDBRANCH  21  22
ENDBRANCH  20  21
ENDBRANCH  19  20
ENDBRANCH  18  19
ENDBRANCH  17  18
ENDBRANCH   1  17
TORSDOF 26
ENDMDL
