MODEL 1
REMARK VINA RESULT:    -4.814      0.000      0.000
REMARK INTER + INTRA:         -16.074
REMARK INTER:                 -12.131
REMARK INTRA:                  -3.944
REMARK UNBOUND:                -3.944
REMARK SMILES CCCCCCCCCCCCCCCCCCCCCCCCCCCC(=O)[O-]
REMARK SMILES IDX 15 1 16 2 17 3 18 4 19 5 20 6 21 7 22 8 23 9 24 10 25 11
REMARK SMILES IDX 26 12 27 13 28 14 29 15 30 16 14 17 13 18 12 19 11 20 10 21
REMARK SMILES IDX 9 22 8 23 7 24 6 25 5 26 4 27 3 28 2 29 1 30
REMARK H PARENT
REMARK Flexibility Score: inf
ROOT
ATOM      1  C   UNL     1     138.286 130.993 128.084  1.00  0.00     0.000 C 
ENDROOT
BRANCH   1   2
ATOM      2  C   UNL     1     136.877 131.259 127.523  1.00  0.00     0.000 C 
BRANCH   2   3
ATOM      3  C   UNL     1     136.871 132.347 126.438  1.00  0.00     0.000 C 
BRANCH   3   4
ATOM      4  C   UNL     1     136.230 133.662 126.915  1.00  0.00     0.000 C 
BRANCH   4   5
ATOM      5  C   UNL     1     136.075 133.708 128.451  1.00  0.00     0.000 C 
BRANCH   5   6
ATOM      6  C   UNL     1     134.878 134.548 128.923  1.00  0.00     0.000 C 
BRANCH   6   7
ATOM      7  C   UNL     1     135.264 135.591 129.982  1.00  0.00     0.000 C 
BRANCH   7   8
ATOM      8  C   UNL     1     134.433 136.884 129.882  1.00  0.00     0.000 C 
BRANCH   8   9
ATOM      9  C   UNL     1     135.286 138.170 129.879  1.00  0.00     0.000 C 
BRANCH   9  10
ATOM     10  C   UNL     1     136.575 138.006 130.704  1.00  0.00     0.000 C 
BRANCH  10  11
ATOM     11  C   UNL     1     137.813 138.569 129.988  1.00  0.00     0.000 C 
BRANCH  11  12
ATOM     12  C   UNL     1     139.099 137.757 130.266  1.00  0.00     0.006 C 
BRANCH  12  13
ATOM     13  C   UNL     1     138.789 136.304 130.647  1.00  0.00     0.053 C 
BRANCH  13  14
ATOM     14  C   UNL     1     139.690 135.357 129.919  1.00  0.00     0.041 C 
ATOM     15  O   UNL     1     140.804 135.036 130.412  1.00  0.00    -0.550 OA
ATOM     16  O   UNL     1     139.303 134.830 128.691  1.00  0.00    -0.550 OA
ENDBRANCH  13  14
ENDBRANCH  12  13
ENDBRANCH  11  12
ENDBRANCH  10  11
ENDBRANCH   9  10
ENDBRANCH   8   9
ENDBRANCH   7   8
ENDBRANCH   6   7
ENDBRANCH   5   6
ENDBRANCH   4   5
ENDBRANCH   3   4
ENDBRANCH   2   3
ENDBRANCH   1   2
BRANCH   1  17
ATOM     17  C   UNL     1     138.293 129.912 129.178  1.00  0.00     0.000 C 
BRANCH  17  18
ATOM     18  C   UNL     1     139.250 130.243 130.334  1.00  0.00     0.000 C 
BRANCH  18  19
ATOM     19  C   UNL     1     139.384 131.763 130.517  1.00  0.00     0.000 C 
BRANCH  19  20
ATOM     20  C   UNL     1     138.648 132.282 131.763  1.00  0.00     0.000 C 
BRANCH  20  21
ATOM     21  C   UNL     1     137.120 132.423 131.607  1.00  0.00     0.000 C 
BRANCH  21  22
ATOM     22  C   UNL     1     136.379 132.727 132.926  1.00  0.00    -0.000 C 
BRANCH  22  23
ATOM     23  C   UNL     1     134.862 132.479 132.825  1.00  0.00    -0.000 C 
BRANCH  23  24
ATOM     24  C   UNL     1     134.388 132.380 131.359  1.00  0.00    -0.000 C 
BRANCH  24  25
ATOM     25  C   UNL     1     133.348 131.272 131.123  1.00  0.00    -0.000 C 
BRANCH  25  26
ATOM     26  C   UNL     1     133.586 130.496 129.820  1.00  0.00    -0.000 C 
BRANCH  26  27
ATOM     27  C   UNL     1     134.896 129.696 129.891  1.00  0.00    -0.000 C 
BRANCH  27  28
ATOM     28  C   UNL     1     134.680 128.241 130.332  1.00  0.00    -0.000 C 
BRANCH  28  29
ATOM     29  C   UNL     1     135.996 127.457 130.452  1.00  0.00    -0.003 C 
ATOM     30  C   UNL     1     135.733 125.964 130.623  1.00  0.00     0.004 C 
ENDBRANCH  28  29
ENDBRANCH  27  28
ENDBRANCH  26  27
ENDBRANCH  25  26
ENDBRANCH  24  25
ENDBRANCH  23  24
ENDBRANCH  22  23
ENDBRANCH  21  22
ENDBRANCH  20  21
ENDBRANCH  19  20
ENDBRANCH  18  19
ENDBRANCH  17  18
ENDBRANCH   1  17
TORSDOF 26
ENDMDL
MODEL 2
REMARK VINA RESULT:    -4.773      1.831      4.213
REMARK INTER + INTRA:         -15.970
REMARK INTER:                 -11.861
REMARK INTRA:                  -4.109
REMARK UNBOUND:                -3.944
REMARK SMILES CCCCCCCCCCCCCCCCCCCCCCCCCCCC(=O)[O-]
REMARK SMILES IDX 15 1 16 2 17 3 18 4 19 5 20 6 21 7 22 8 23 9 24 10 25 11
REMARK SMILES IDX 26 12 27 13 28 14 29 15 30 16 14 17 13 18 12 19 11 20 10 21
REMARK SMILES IDX 9 22 8 23 7 24 6 25 5 26 4 27 3 28 2 29 1 30
REMARK H PARENT
REMARK Flexibility Score: inf
ROOT
ATOM      1  C   UNL     1     136.860 131.587 127.660  1.00  0.00     0.000 C 
ENDROOT
BRANCH   1   2
ATOM      2  C   UNL     1     138.275 131.037 127.913  1.00  0.00     0.000 C 
BRANCH   2   3
ATOM      3  C   UNL     1     138.284 129.871 128.913  1.00  0.00     0.000 C 
BRANCH   3   4
ATOM      4  C   UNL     1     139.000 130.218 130.230  1.00  0.00     0.000 C 
BRANCH   4   5
ATOM      5  C   UNL     1     138.044 130.865 131.255  1.00  0.00     0.000 C 
BRANCH   5   6
ATOM      6  C   UNL     1     138.402 132.321 131.595  1.00  0.00     0.000 C 
BRANCH   6   7
ATOM      7  C   UNL     1     139.692 132.793 130.907  1.00  0.00     0.000 C 
BRANCH   7   8
ATOM      8  C   UNL     1     140.430 133.886 131.700  1.00  0.00     0.000 C 
BRANCH   8   9
ATOM      9  C   UNL     1     140.415 135.268 131.012  1.00  0.00     0.000 C 
BRANCH   9  10
ATOM     10  C   UNL     1     139.666 135.231 129.668  1.00  0.00     0.000 C 
BRANCH  10  11
ATOM     11  C   UNL     1     139.236 136.627 129.190  1.00  0.00     0.000 C 
BRANCH  11  12
ATOM     12  C   UNL     1     138.667 137.510 130.323  1.00  0.00     0.006 C 
BRANCH  12  13
ATOM     13  C   UNL     1     137.271 137.051 130.762  1.00  0.00     0.053 C 
BRANCH  13  14
ATOM     14  C   UNL     1     136.227 138.039 130.345  1.00  0.00     0.041 C 
ATOM     15  O   UNL     1     135.089 137.642 129.978  1.00  0.00    -0.550 OA
ATOM     16  O   UNL     1     136.511 139.400 130.353  1.00  0.00    -0.550 OA
ENDBRANCH  13  14
ENDBRANCH  12  13
ENDBRANCH  11  12
ENDBRANCH  10  11
ENDBRANCH   9  10
ENDBRANCH   8   9
ENDBRANCH   7   8
ENDBRANCH   6   7
ENDBRANCH   5   6
ENDBRANCH   4   5
ENDBRANCH   3   4
ENDBRANCH   2   3
ENDBRANCH   1   2
BRANCH   1  17
ATOM     17  C   UNL     1     136.806 133.124 127.696  1.00  0.00     0.000 C 
BRANCH  17  18
ATOM     18  C   UNL     1     136.348 133.671 129.057  1.00  0.00     0.000 C 
BRANCH  18  19
ATOM     19  C   UNL     1     134.914 134.217 128.973  1.00  0.00     0.000 C 
BRANCH  19  20
ATOM     20  C   UNL     1     134.096 133.945 130.246  1.00  0.00     0.000 C 
BRANCH  20  21
ATOM     21  C   UNL     1     134.662 132.842 131.163  1.00  0.00     0.000 C 
BRANCH  21  22
ATOM     22  C   UNL     1     133.747 131.607 131.300  1.00  0.00    -0.000 C 
BRANCH  22  23
ATOM     23  C   UNL     1     133.614 130.819 129.983  1.00  0.00    -0.000 C 
BRANCH  23  24
ATOM     24  C   UNL     1     134.816 129.879 129.745  1.00  0.00    -0.000 C 
BRANCH  24  25
ATOM     25  C   UNL     1     134.520 128.407 130.076  1.00  0.00    -0.000 C 
BRANCH  25  26
ATOM     26  C   UNL     1     135.792 127.573 130.283  1.00  0.00    -0.000 C 
BRANCH  26  27
ATOM     27  C   UNL     1     135.442 126.132 130.685  1.00  0.00    -0.000 C 
BRANCH  27  28
ATOM     28  C   UNL     1     136.668 125.207 130.708  1.00  0.00    -0.000 C 
BRANCH  28  29
ATOM     29  C   UNL     1     136.397 123.881 131.434  1.00  0.00    -0.003 C 
ATOM     30  C   UNL     1     137.648 123.009 131.471  1.00  0.00     0.004 C 
ENDBRANCH  28  29
ENDBRANCH  27  28
ENDBRANCH  26  27
ENDBRANCH  25  26
ENDBRANCH  24  25
ENDBRANCH  23  24
ENDBRANCH  22  23
ENDBRANCH  21  22
ENDBRANCH  20  21
ENDBRANCH  19  20
ENDBRANCH  18  19
ENDBRANCH  17  18
ENDBRANCH   1  17
TORSDOF 26
ENDMDL
MODEL 3
REMARK VINA RESULT:    -4.410      1.736      3.794
REMARK INTER + INTRA:         -15.057
REMARK INTER:                 -10.163
REMARK INTRA:                  -4.895
REMARK UNBOUND:                -3.944
REMARK SMILES CCCCCCCCCCCCCCCCCCCCCCCCCCCC(=O)[O-]
REMARK SMILES IDX 15 1 16 2 17 3 18 4 19 5 20 6 21 7 22 8 23 9 24 10 25 11
REMARK SMILES IDX 26 12 27 13 28 14 29 15 30 16 14 17 13 18 12 19 11 20 10 21
REMARK SMILES IDX 9 22 8 23 7 24 6 25 5 26 4 27 3 28 2 29 1 30
REMARK H PARENT
REMARK Flexibility Score: inf
ROOT
ATOM      1  C   UNL     1     137.666 130.859 127.021  1.00  0.00     0.000 C 
ENDROOT
BRANCH   1   2
ATOM      2  C   UNL     1     138.723 131.009 128.128  1.00  0.00     0.000 C 
BRANCH   2   3
ATOM      3  C   UNL     1     138.587 129.939 129.223  1.00  0.00     0.000 C 
BRANCH   3   4
ATOM      4  C   UNL     1     138.876 130.486 130.632  1.00  0.00     0.000 C 
BRANCH   4   5
ATOM      5  C   UNL     1     137.698 131.319 131.183  1.00  0.00     0.000 C 
BRANCH   5   6
ATOM      6  C   UNL     1     138.132 132.646 131.826  1.00  0.00     0.000 C 
BRANCH   6   7
ATOM      7  C   UNL     1     139.656 132.759 131.986  1.00  0.00     0.000 C 
BRANCH   7   8
ATOM      8  C   UNL     1     140.264 133.899 131.149  1.00  0.00     0.000 C 
BRANCH   8   9
ATOM      9  C   UNL     1     139.662 134.017 129.733  1.00  0.00     0.000 C 
BRANCH   9  10
ATOM     10  C   UNL     1     139.382 135.481 129.349  1.00  0.00     0.000 C 
BRANCH  10  11
ATOM     11  C   UNL     1     139.860 136.476 130.418  1.00  0.00     0.000 C 
BRANCH  11  12
ATOM     12  C   UNL     1     138.732 137.393 130.944  1.00  0.00     0.006 C 
BRANCH  12  13
ATOM     13  C   UNL     1     137.341 136.823 130.641  1.00  0.00     0.053 C 
BRANCH  13  14
ATOM     14  C   UNL     1     136.369 137.918 130.335  1.00  0.00     0.041 C 
ATOM     15  O   UNL     1     136.757 139.117 130.293  1.00  0.00    -0.550 OA
ATOM     16  O   UNL     1     135.031 137.620 130.100  1.00  0.00    -0.550 OA
ENDBRANCH  13  14
ENDBRANCH  12  13
ENDBRANCH  11  12
ENDBRANCH  10  11
ENDBRANCH   9  10
ENDBRANCH   8   9
ENDBRANCH   7   8
ENDBRANCH   6   7
ENDBRANCH   5   6
ENDBRANCH   4   5
ENDBRANCH   3   4
ENDBRANCH   2   3
ENDBRANCH   1   2
BRANCH   1  17
ATOM     17  C   UNL     1     136.432 131.746 127.256  1.00  0.00     0.000 C 
BRANCH  17  18
ATOM     18  C   UNL     1     136.576 133.143 126.632  1.00  0.00     0.000 C 
BRANCH  18  19
ATOM     19  C   UNL     1     136.666 134.223 127.721  1.00  0.00     0.000 C 
BRANCH  19  20
ATOM     20  C   UNL     1     135.954 133.821 129.023  1.00  0.00     0.000 C 
BRANCH  20  21
ATOM     21  C   UNL     1     134.586 134.493 129.254  1.00  0.00     0.000 C 
BRANCH  21  22
ATOM     22  C   UNL     1     133.643 133.698 130.183  1.00  0.00    -0.000 C 
BRANCH  22  23
ATOM     23  C   UNL     1     134.406 132.881 131.242  1.00  0.00    -0.000 C 
BRANCH  23  24
ATOM     24  C   UNL     1     133.749 131.508 131.499  1.00  0.00    -0.000 C 
BRANCH  24  25
ATOM     25  C   UNL     1     133.404 130.740 130.212  1.00  0.00    -0.000 C 
BRANCH  25  26
ATOM     26  C   UNL     1     134.632 130.106 129.546  1.00  0.00    -0.000 C 
BRANCH  26  27
ATOM     27  C   UNL     1     134.661 128.589 129.782  1.00  0.00    -0.000 C 
BRANCH  27  28
ATOM     28  C   UNL     1     135.861 128.141 130.630  1.00  0.00    -0.000 C 
BRANCH  28  29
ATOM     29  C   UNL     1     136.019 126.614 130.673  1.00  0.00    -0.003 C 
ATOM     30  C   UNL     1     134.684 125.916 130.427  1.00  0.00     0.004 C 
ENDBRANCH  28  29
ENDBRANCH  27  28
ENDBRANCH  26  27
ENDBRANCH  25  26
ENDBRANCH  24  25
ENDBRANCH  23  24
ENDBRANCH  22  23
ENDBRANCH  21  22
ENDBRANCH  20  21
ENDBRANCH  19  20
ENDBRANCH  18  19
ENDBRANCH  17  18
ENDBRANCH   1  17
TORSDOF 26
ENDMDL
MODEL 4
REMARK VINA RESULT:    -4.372      1.270      2.359
REMARK INTER + INTRA:         -14.961
REMARK INTER:                 -11.180
REMARK INTRA:                  -3.781
REMARK UNBOUND:                -3.944
REMARK SMILES CCCCCCCCCCCCCCCCCCCCCCCCCCCC(=O)[O-]
REMARK SMILES IDX 15 1 16 2 17 3 18 4 19 5 20 6 21 7 22 8 23 9 24 10 25 11
REMARK SMILES IDX 26 12 27 13 28 14 29 15 30 16 14 17 13 18 12 19 11 20 10 21
REMARK SMILES IDX 9 22 8 23 7 24 6 25 5 26 4 27 3 28 2 29 1 30
REMARK H PARENT
REMARK Flexibility Score: inf
ROOT
ATOM      1  C   UNL     1     137.010 132.095 126.827  1.00  0.00     0.000 C 
ENDROOT
BRANCH   1   2
ATOM      2  C   UNL     1     136.492 133.520 127.089  1.00  0.00     0.000 C 
BRANCH   2   3
ATOM      3  C   UNL     1     136.088 133.740 128.556  1.00  0.00     0.000 C 
BRANCH   3   4
ATOM      4  C   UNL     1     134.861 134.655 128.706  1.00  0.00     0.000 C 
BRANCH   4   5
ATOM      5  C   UNL     1     134.950 135.542 129.967  1.00  0.00     0.000 C 
BRANCH   5   6
ATOM      6  C   UNL     1     134.438 136.975 129.747  1.00  0.00     0.000 C 
BRANCH   6   7
ATOM      7  C   UNL     1     135.529 138.035 129.960  1.00  0.00     0.000 C 
BRANCH   7   8
ATOM      8  C   UNL     1     136.785 137.475 130.652  1.00  0.00     0.000 C 
BRANCH   8   9
ATOM      9  C   UNL     1     138.094 138.166 130.215  1.00  0.00     0.000 C 
BRANCH   9  10
ATOM     10  C   UNL     1     139.333 137.322 130.563  1.00  0.00     0.000 C 
BRANCH  10  11
ATOM     11  C   UNL     1     139.173 135.844 130.172  1.00  0.00     0.000 C 
BRANCH  11  12
ATOM     12  C   UNL     1     140.475 135.028 130.329  1.00  0.00     0.006 C 
BRANCH  12  13
ATOM     13  C   UNL     1     140.365 133.981 131.444  1.00  0.00     0.053 C 
BRANCH  13  14
ATOM     14  C   UNL     1     141.178 134.381 132.636  1.00  0.00     0.041 C 
ATOM     15  O   UNL     1     141.524 133.518 133.486  1.00  0.00    -0.550 OA
ATOM     16  O   UNL     1     141.550 135.709 132.812  1.00  0.00    -0.550 OA
ENDBRANCH  13  14
ENDBRANCH  12  13
ENDBRANCH  11  12
ENDBRANCH  10  11
ENDBRANCH   9  10
ENDBRANCH   8   9
ENDBRANCH   7   8
ENDBRANCH   6   7
ENDBRANCH   5   6
ENDBRANCH   4   5
ENDBRANCH   3   4
ENDBRANCH   2   3
ENDBRANCH   1   2
BRANCH   1  17
ATOM     17  C   UNL     1     136.946 131.202 128.077  1.00  0.00     0.000 C 
BRANCH  17  18
ATOM     18  C   UNL     1     138.258 130.445 128.336  1.00  0.00     0.000 C 
BRANCH  18  19
ATOM     19  C   UNL     1     139.179 131.248 129.269  1.00  0.00     0.000 C 
BRANCH  19  20
ATOM     20  C   UNL     1     138.854 131.038 130.756  1.00  0.00     0.000 C 
BRANCH  20  21
ATOM     21  C   UNL     1     137.517 131.647 131.225  1.00  0.00     0.000 C 
BRANCH  21  22
ATOM     22  C   UNL     1     137.444 131.909 132.744  1.00  0.00    -0.000 C 
BRANCH  22  23
ATOM     23  C   UNL     1     136.146 132.627 133.160  1.00  0.00    -0.000 C 
BRANCH  23  24
ATOM     24  C   UNL     1     135.242 132.939 131.948  1.00  0.00    -0.000 C 
BRANCH  24  25
ATOM     25  C   UNL     1     134.039 131.990 131.817  1.00  0.00    -0.000 C 
BRANCH  25  26
ATOM     26  C   UNL     1     133.806 131.515 130.377  1.00  0.00    -0.000 C 
BRANCH  26  27
ATOM     27  C   UNL     1     133.602 129.993 130.329  1.00  0.00    -0.000 C 
BRANCH  27  28
ATOM     28  C   UNL     1     134.744 129.263 129.606  1.00  0.00    -0.000 C 
BRANCH  28  29
ATOM     29  C   UNL     1     135.649 128.479 130.569  1.00  0.00    -0.003 C 
ATOM     30  C   UNL     1     135.326 126.988 130.535  1.00  0.00     0.004 C 
ENDBRANCH  28  29
ENDBRANCH  27  28
ENDBRANCH  26  27
ENDBRANCH  25  26
ENDBRANCH  24  25
ENDBRANCH  23  24
ENDBRANCH  22  23
ENDBRANCH  21  22
ENDBRANCH  20  21
ENDBRANCH  19  20
ENDBRANCH  18  19
ENDBRANCH  17  18
ENDBRANCH   1  17
TORSDOF 26
ENDMDL
MODEL 5
REMARK VINA RESULT:    -4.319      3.624      7.953
REMARK INTER + INTRA:         -14.828
REMARK INTER:                 -10.847
REMARK INTRA:                  -3.981
REMARK UNBOUND:                -3.944
REMARK SMILES CCCCCCCCCCCCCCCCCCCCCCCCCCCC(=O)[O-]
REMARK SMILES IDX 15 1 16 2 17 3 18 4 19 5 20 6 21 7 22 8 23 9 24 10 25 11
REMARK SMILES IDX 26 12 27 13 28 14 29 15 30 16 14 17 13 18 12 19 11 20 10 21
REMARK SMILES IDX 9 22 8 23 7 24 6 25 5 26 4 27 3 28 2 29 1 30
REMARK H PARENT
REMARK Flexibility Score: inf
ROOT
ATOM      1  C   UNL     1     134.892 137.348 129.661  1.00  0.00     0.000 C 
ENDROOT
BRANCH   1   2
ATOM      2  C   UNL     1     134.933 135.913 130.215  1.00  0.00     0.000 C 
BRANCH   2   3
ATOM      3  C   UNL     1     134.624 134.858 129.142  1.00  0.00     0.000 C 
BRANCH   3   4
ATOM      4  C   UNL     1     133.995 133.580 129.724  1.00  0.00     0.000 C 
BRANCH   4   5
ATOM      5  C   UNL     1     134.795 133.038 130.929  1.00  0.00     0.000 C 
BRANCH   5   6
ATOM      6  C   UNL     1     135.201 131.562 130.782  1.00  0.00     0.000 C 
BRANCH   6   7
ATOM      7  C   UNL     1     134.399 130.830 129.696  1.00  0.00     0.000 C 
BRANCH   7   8
ATOM      8  C   UNL     1     134.175 129.341 130.017  1.00  0.00     0.000 C 
BRANCH   8   9
ATOM      9  C   UNL     1     135.463 128.493 129.950  1.00  0.00     0.000 C 
BRANCH   9  10
ATOM     10  C   UNL     1     135.280 127.117 130.616  1.00  0.00     0.000 C 
BRANCH  10  11
ATOM     11  C   UNL     1     136.356 126.105 130.192  1.00  0.00     0.000 C 
BRANCH  11  12
ATOM     12  C   UNL     1     136.258 124.760 130.945  1.00  0.00     0.006 C 
BRANCH  12  13
ATOM     13  C   UNL     1     137.609 124.036 131.007  1.00  0.00     0.053 C 
BRANCH  13  14
ATOM     14  C   UNL     1     137.527 122.824 131.881  1.00  0.00     0.041 C 
ATOM     15  O   UNL     1     138.414 122.607 132.749  1.00  0.00    -0.550 OA
ATOM     16  O   UNL     1     136.474 121.927 131.734  1.00  0.00    -0.550 OA
ENDBRANCH  13  14
ENDBRANCH  12  13
ENDBRANCH  11  12
ENDBRANCH  10  11
ENDBRANCH   9  10
ENDBRANCH   8   9
ENDBRANCH   7   8
ENDBRANCH   6   7
ENDBRANCH   5   6
ENDBRANCH   4   5
ENDBRANCH   3   4
ENDBRANCH   2   3
ENDBRANCH   1   2
BRANCH   1  17
ATOM     17  C   UNL     1     136.042 138.221 130.191  1.00  0.00     0.000 C 
BRANCH  17  18
ATOM     18  C   UNL     1     137.094 137.413 130.966  1.00  0.00     0.000 C 
BRANCH  18  19
ATOM     19  C   UNL     1     138.508 137.707 130.441  1.00  0.00     0.000 C 
BRANCH  19  20
ATOM     20  C   UNL     1     139.501 136.570 130.729  1.00  0.00     0.000 C 
BRANCH  20  21
ATOM     21  C   UNL     1     139.754 135.610 129.550  1.00  0.00     0.000 C 
BRANCH  21  22
ATOM     22  C   UNL     1     138.619 134.590 129.315  1.00  0.00    -0.000 C 
BRANCH  22  23
ATOM     23  C   UNL     1     138.211 133.850 130.603  1.00  0.00    -0.000 C 
BRANCH  23  24
ATOM     24  C   UNL     1     139.363 132.993 131.169  1.00  0.00    -0.000 C 
BRANCH  24  25
ATOM     25  C   UNL     1     139.700 131.767 130.304  1.00  0.00    -0.000 C 
BRANCH  25  26
ATOM     26  C   UNL     1     138.716 130.606 130.502  1.00  0.00    -0.000 C 
BRANCH  26  27
ATOM     27  C   UNL     1     138.415 129.909 129.167  1.00  0.00    -0.000 C 
BRANCH  27  28
ATOM     28  C   UNL     1     138.467 130.870 127.970  1.00  0.00    -0.000 C 
BRANCH  28  29
ATOM     29  C   UNL     1     137.089 131.091 127.328  1.00  0.00    -0.003 C 
ATOM     30  C   UNL     1     136.743 132.576 127.267  1.00  0.00     0.004 C 
ENDBRANCH  28  29
ENDBRANCH  27  28
ENDBRANCH  26  27
ENDBRANCH  25  26
ENDBRANCH  24  25
ENDBRANCH  23  24
ENDBRANCH  22  23
ENDBRANCH  21  22
ENDBRANCH  20  21
ENDBRANCH  19  20
ENDBRANCH  18  19
ENDBRANCH  17  18
ENDBRANCH   1  17
TORSDOF 26
ENDMDL
MODEL 6
REMARK VINA RESULT:    -4.250      2.865      6.810
REMARK INTER + INTRA:         -14.655
REMARK INTER:                 -10.912
REMARK INTRA:                  -3.743
REMARK UNBOUND:                -3.944
REMARK SMILES CCCCCCCCCCCCCCCCCCCCCCCCCCCC(=O)[O-]
REMARK SMILES IDX 15 1 16 2 17 3 18 4 19 5 20 6 21 7 22 8 23 9 24 10 25 11
REMARK SMILES IDX 26 12 27 13 28 14 29 15 30 16 14 17 13 18 12 19 11 20 10 21
REMARK SMILES IDX 9 22 8 23 7 24 6 25 5 26 4 27 3 28 2 29 1 30
REMARK H PARENT
REMARK Flexibility Score: inf
ROOT
ATOM      1  C   UNL     1     137.300 138.991 130.248  1.00  0.00     0.000 C 
ENDROOT
BRANCH   1   2
ATOM      2  C   UNL     1     135.764 138.951 130.330  1.00  0.00     0.000 C 
BRANCH   2   3
ATOM      3  C   UNL     1     135.155 137.846 129.453  1.00  0.00     0.000 C 
BRANCH   3   4
ATOM      4  C   UNL     1     134.651 136.644 130.270  1.00  0.00     0.000 C 
BRANCH   4   5
ATOM      5  C   UNL     1     134.839 135.311 129.515  1.00  0.00     0.000 C 
BRANCH   5   6
ATOM      6  C   UNL     1     133.997 134.158 130.085  1.00  0.00     0.000 C 
BRANCH   6   7
ATOM      7  C   UNL     1     134.854 132.980 130.574  1.00  0.00     0.000 C 
BRANCH   7   8
ATOM      8  C   UNL     1     134.167 132.154 131.676  1.00  0.00     0.000 C 
BRANCH   8   9
ATOM      9  C   UNL     1     133.369 130.947 131.138  1.00  0.00     0.000 C 
BRANCH   9  10
ATOM     10  C   UNL     1     133.724 130.630 129.675  1.00  0.00     0.000 C 
BRANCH  10  11
ATOM     11  C   UNL     1     134.919 129.670 129.549  1.00  0.00     0.000 C 
BRANCH  11  12
ATOM     12  C   UNL     1     134.680 128.307 130.237  1.00  0.00     0.006 C 
BRANCH  12  13
ATOM     13  C   UNL     1     135.942 127.436 130.240  1.00  0.00     0.053 C 
BRANCH  13  14
ATOM     14  C   UNL     1     135.611 126.015 130.573  1.00  0.00     0.041 C 
ATOM     15  O   UNL     1     136.522 125.219 130.925  1.00  0.00    -0.550 OA
ATOM     16  O   UNL     1     134.298 125.567 130.490  1.00  0.00    -0.550 OA
ENDBRANCH  13  14
ENDBRANCH  12  13
ENDBRANCH  11  12
ENDBRANCH  10  11
ENDBRANCH   9  10
ENDBRANCH   8   9
ENDBRANCH   7   8
ENDBRANCH   6   7
ENDBRANCH   5   6
ENDBRANCH   4   5
ENDBRANCH   3   4
ENDBRANCH   2   3
ENDBRANCH   1   2
BRANCH   1  17
ATOM     17  C   UNL     1     137.959 137.747 130.868  1.00  0.00     0.000 C 
BRANCH  17  18
ATOM     18  C   UNL     1     139.182 137.263 130.074  1.00  0.00     0.000 C 
BRANCH  18  19
ATOM     19  C   UNL     1     138.862 135.968 129.311  1.00  0.00     0.000 C 
BRANCH  19  20
ATOM     20  C   UNL     1     139.967 134.908 129.443  1.00  0.00     0.000 C 
BRANCH  20  21
ATOM     21  C   UNL     1     140.587 134.782 130.850  1.00  0.00     0.000 C 
BRANCH  21  22
ATOM     22  C   UNL     1     139.972 133.658 131.710  1.00  0.00    -0.000 C 
BRANCH  22  23
ATOM     23  C   UNL     1     138.633 133.146 131.147  1.00  0.00    -0.000 C 
BRANCH  23  24
ATOM     24  C   UNL     1     138.261 131.757 131.709  1.00  0.00    -0.000 C 
BRANCH  24  25
ATOM     25  C   UNL     1     137.694 130.797 130.650  1.00  0.00    -0.000 C 
BRANCH  25  26
ATOM     26  C   UNL     1     138.767 130.260 129.693  1.00  0.00    -0.000 C 
BRANCH  26  27
ATOM     27  C   UNL     1     138.589 130.848 128.285  1.00  0.00    -0.000 C 
BRANCH  27  28
ATOM     28  C   UNL     1     137.222 131.520 128.090  1.00  0.00    -0.000 C 
BRANCH  28  29
ATOM     29  C   UNL     1     137.339 133.005 127.716  1.00  0.00    -0.003 C 
ATOM     30  C   UNL     1     136.172 133.444 126.836  1.00  0.00     0.004 C 
ENDBRANCH  28  29
ENDBRANCH  27  28
ENDBRANCH  26  27
ENDBRANCH  25  26
ENDBRANCH  24  25
ENDBRANCH  23  24
ENDBRANCH  22  23
ENDBRANCH  21  22
ENDBRANCH  20  21
ENDBRANCH  19  20
ENDBRANCH  18  19
ENDBRANCH  17  18
ENDBRANCH   1  17
TORSDOF 26
ENDMDL
MODEL 7
REMARK VINA RESULT:    -4.198      1.856      3.783
REMARK INTER + INTRA:         -14.523
REMARK INTER:                 -10.415
REMARK INTRA:                  -4.109
REMARK UNBOUND:                -3.944
REMARK SMILES CCCCCCCCCCCCCCCCCCCCCCCCCCCC(=O)[O-]
REMARK SMILES IDX 15 1 16 2 17 3 18 4 19 5 20 6 21 7 22 8 23 9 24 10 25 11
REMARK SMILES IDX 26 12 27 13 28 14 29 15 30 16 14 17 13 18 12 19 11 20 10 21
REMARK SMILES IDX 9 22 8 23 7 24 6 25 5 26 4 27 3 28 2 29 1 30
REMARK H PARENT
REMARK Flexibility Score: inf
ROOT
ATOM      1  C   UNL     1     135.786 133.349 131.676  1.00  0.00     0.000 C 
ENDROOT
BRANCH   1   2
ATOM      2  C   UNL     1     134.374 133.017 131.162  1.00  0.00     0.000 C 
BRANCH   2   3
ATOM      3  C   UNL     1     134.026 133.768 129.867  1.00  0.00     0.000 C 
BRANCH   3   4
ATOM      4  C   UNL     1     135.210 134.579 129.311  1.00  0.00     0.000 C 
BRANCH   4   5
ATOM      5  C   UNL     1     135.753 133.983 127.994  1.00  0.00     0.000 C 
BRANCH   5   6
ATOM      6  C   UNL     1     137.281 134.085 127.858  1.00  0.00     0.000 C 
BRANCH   6   7
ATOM      7  C   UNL     1     137.966 134.525 129.161  1.00  0.00     0.000 C 
BRANCH   7   8
ATOM      8  C   UNL     1     139.458 134.855 128.973  1.00  0.00     0.000 C 
BRANCH   8   9
ATOM      9  C   UNL     1     140.176 135.245 130.282  1.00  0.00     0.000 C 
BRANCH   9  10
ATOM     10  C   UNL     1     139.506 136.448 130.968  1.00  0.00     0.000 C 
BRANCH  10  11
ATOM     11  C   UNL     1     139.501 137.706 130.085  1.00  0.00     0.000 C 
BRANCH  11  12
ATOM     12  C   UNL     1     138.201 138.532 130.209  1.00  0.00     0.006 C 
BRANCH  12  13
ATOM     13  C   UNL     1     136.999 137.658 130.586  1.00  0.00     0.053 C 
BRANCH  13  14
ATOM     14  C   UNL     1     135.715 138.306 130.171  1.00  0.00     0.041 C 
ATOM     15  O   UNL     1     134.680 137.608 129.997  1.00  0.00    -0.550 OA
ATOM     16  O   UNL     1     135.660 139.681 129.970  1.00  0.00    -0.550 OA
ENDBRANCH  13  14
ENDBRANCH  12  13
ENDBRANCH  11  12
ENDBRANCH  10  11
ENDBRANCH   9  10
ENDBRANCH   8   9
ENDBRANCH   7   8
ENDBRANCH   6   7
ENDBRANCH   5   6
ENDBRANCH   4   5
ENDBRANCH   3   4
ENDBRANCH   2   3
ENDBRANCH   1   2
BRANCH   1  17
ATOM     17  C   UNL     1     136.214 132.454 132.851  1.00  0.00     0.000 C 
BRANCH  17  18
ATOM     18  C   UNL     1     137.682 132.011 132.756  1.00  0.00     0.000 C 
BRANCH  18  19
ATOM     19  C   UNL     1     138.263 132.329 131.370  1.00  0.00     0.000 C 
BRANCH  19  20
ATOM     20  C   UNL     1     139.677 131.761 131.169  1.00  0.00     0.000 C 
BRANCH  20  21
ATOM     21  C   UNL     1     139.880 130.960 129.866  1.00  0.00     0.000 C 
BRANCH  21  22
ATOM     22  C   UNL     1     138.647 130.137 129.436  1.00  0.00    -0.000 C 
BRANCH  22  23
ATOM     23  C   UNL     1     138.010 130.660 128.135  1.00  0.00    -0.000 C 
BRANCH  23  24
ATOM     24  C   UNL     1     136.483 130.849 128.272  1.00  0.00    -0.000 C 
BRANCH  24  25
ATOM     25  C   UNL     1     135.934 130.443 129.650  1.00  0.00    -0.000 C 
BRANCH  25  26
ATOM     26  C   UNL     1     134.568 129.749 129.568  1.00  0.00    -0.000 C 
BRANCH  26  27
ATOM     27  C   UNL     1     134.639 128.329 130.150  1.00  0.00    -0.000 C 
BRANCH  27  28
ATOM     28  C   UNL     1     136.049 127.953 130.628  1.00  0.00    -0.000 C 
BRANCH  28  29
ATOM     29  C   UNL     1     136.386 126.475 130.375  1.00  0.00    -0.003 C 
ATOM     30  C   UNL     1     135.198 125.576 130.706  1.00  0.00     0.004 C 
ENDBRANCH  28  29
ENDBRANCH  27  28
ENDBRANCH  26  27
ENDBRANCH  25  26
ENDBRANCH  24  25
ENDBRANCH  23  24
ENDBRANCH  22  23
ENDBRANCH  21  22
ENDBRANCH  20  21
ENDBRANCH  19  20
ENDBRANCH  18  19
ENDBRANCH  17  18
ENDBRANCH   1  17
TORSDOF 26
ENDMDL
MODEL 8
REMARK VINA RESULT:    -4.170      1.822      6.517
REMARK INTER + INTRA:         -14.451
REMARK INTER:                 -10.268
REMARK INTRA:                  -4.183
REMARK UNBOUND:                -3.944
REMARK SMILES CCCCCCCCCCCCCCCCCCCCCCCCCCCC(=O)[O-]
REMARK SMILES IDX 15 1 16 2 17 3 18 4 19 5 20 6 21 7 22 8 23 9 24 10 25 11
REMARK SMILES IDX 26 12 27 13 28 14 29 15 30 16 14 17 13 18 12 19 11 20 10 21
REMARK SMILES IDX 9 22 8 23 7 24 6 25 5 26 4 27 3 28 2 29 1 30
REMARK H PARENT
REMARK Flexibility Score: inf
ROOT
ATOM      1  C   UNL     1     136.508 133.004 126.855  1.00  0.00     0.000 C 
ENDROOT
BRANCH   1   2
ATOM      2  C   UNL     1     136.967 131.642 127.406  1.00  0.00     0.000 C 
BRANCH   2   3
ATOM      3  C   UNL     1     137.927 131.780 128.597  1.00  0.00     0.000 C 
BRANCH   3   4
ATOM      4  C   UNL     1     138.911 130.603 128.712  1.00  0.00     0.000 C 
BRANCH   4   5
ATOM      5  C   UNL     1     138.718 129.812 130.024  1.00  0.00     0.000 C 
BRANCH   5   6
ATOM      6  C   UNL     1     137.551 128.813 129.973  1.00  0.00     0.000 C 
BRANCH   6   7
ATOM      7  C   UNL     1     136.273 129.357 130.630  1.00  0.00     0.000 C 
BRANCH   7   8
ATOM      8  C   UNL     1     134.996 128.994 129.851  1.00  0.00     0.000 C 
BRANCH   8   9
ATOM      9  C   UNL     1     134.014 130.174 129.686  1.00  0.00     0.000 C 
BRANCH   9  10
ATOM     10  C   UNL     1     134.620 131.498 130.184  1.00  0.00     0.000 C 
BRANCH  10  11
ATOM     11  C   UNL     1     133.895 132.054 131.421  1.00  0.00     0.000 C 
BRANCH  11  12
ATOM     12  C   UNL     1     134.855 132.668 132.464  1.00  0.00     0.006 C 
BRANCH  12  13
ATOM     13  C   UNL     1     136.285 132.798 131.923  1.00  0.00     0.053 C 
BRANCH  13  14
ATOM     14  C   UNL     1     137.278 132.247 132.897  1.00  0.00     0.041 C 
ATOM     15  O   UNL     1     138.435 131.929 132.511  1.00  0.00    -0.550 OA
ATOM     16  O   UNL     1     136.927 132.077 134.232  1.00  0.00    -0.550 OA
ENDBRANCH  13  14
ENDBRANCH  12  13
ENDBRANCH  11  12
ENDBRANCH  10  11
ENDBRANCH   9  10
ENDBRANCH   8   9
ENDBRANCH   7   8
ENDBRANCH   6   7
ENDBRANCH   5   6
ENDBRANCH   4   5
ENDBRANCH   3   4
ENDBRANCH   2   3
ENDBRANCH   1   2
BRANCH   1  17
ATOM     17  C   UNL     1     136.506 134.106 127.928  1.00  0.00     0.000 C 
BRANCH  17  18
ATOM     18  C   UNL     1     135.116 134.338 128.539  1.00  0.00     0.000 C 
BRANCH  18  19
ATOM     19  C   UNL     1     135.212 135.196 129.810  1.00  0.00     0.000 C 
BRANCH  19  20
ATOM     20  C   UNL     1     134.279 136.417 129.780  1.00  0.00     0.000 C 
BRANCH  20  21
ATOM     21  C   UNL     1     134.993 137.784 129.796  1.00  0.00     0.000 C 
BRANCH  21  22
ATOM     22  C   UNL     1     136.295 137.804 130.625  1.00  0.00    -0.000 C 
BRANCH  22  23
ATOM     23  C   UNL     1     137.236 138.955 130.221  1.00  0.00    -0.000 C 
BRANCH  23  24
ATOM     24  C   UNL     1     138.644 138.448 129.844  1.00  0.00    -0.000 C 
BRANCH  24  25
ATOM     25  C   UNL     1     139.145 137.300 130.737  1.00  0.00    -0.000 C 
BRANCH  25  26
ATOM     26  C   UNL     1     139.838 136.184 129.944  1.00  0.00    -0.000 C 
BRANCH  26  27
ATOM     27  C   UNL     1     139.255 134.810 130.308  1.00  0.00    -0.000 C 
BRANCH  27  28
ATOM     28  C   UNL     1     140.266 133.907 131.027  1.00  0.00    -0.000 C 
BRANCH  28  29
ATOM     29  C   UNL     1     141.149 134.679 132.020  1.00  0.00    -0.003 C 
ATOM     30  C   UNL     1     141.424 133.849 133.271  1.00  0.00     0.004 C 
ENDBRANCH  28  29
ENDBRANCH  27  28
ENDBRANCH  26  27
ENDBRANCH  25  26
ENDBRANCH  24  25
ENDBRANCH  23  24
ENDBRANCH  22  23
ENDBRANCH  21  22
ENDBRANCH  20  21
ENDBRANCH  19  20
ENDBRANCH  18  19
ENDBRANCH  17  18
ENDBRANCH   1  17
TORSDOF 26
ENDMDL
MODEL 9
REMARK VINA RESULT:    -4.079      2.841      6.758
REMARK INTER + INTRA:         -14.222
REMARK INTER:                 -10.393
REMARK INTRA:                  -3.829
REMARK UNBOUND:                -3.944
REMARK SMILES CCCCCCCCCCCCCCCCCCCCCCCCCCCC(=O)[O-]
REMARK SMILES IDX 15 1 16 2 17 3 18 4 19 5 20 6 21 7 22 8 23 9 24 10 25 11
REMARK SMILES IDX 26 12 27 13 28 14 29 15 30 16 14 17 13 18 12 19 11 20 10 21
REMARK SMILES IDX 9 22 8 23 7 24 6 25 5 26 4 27 3 28 2 29 1 30
REMARK H PARENT
REMARK Flexibility Score: inf
ROOT
ATOM      1  C   UNL     1     138.349 137.791 130.942  1.00  0.00     0.000 C 
ENDROOT
BRANCH   1   2
ATOM      2  C   UNL     1     137.511 138.859 130.215  1.00  0.00     0.000 C 
BRANCH   2   3
ATOM      3  C   UNL     1     136.020 138.492 130.147  1.00  0.00     0.000 C 
BRANCH   3   4
ATOM      4  C   UNL     1     135.758 137.003 130.429  1.00  0.00     0.000 C 
BRANCH   4   5
ATOM      5  C   UNL     1     134.457 136.507 129.762  1.00  0.00     0.000 C 
BRANCH   5   6
ATOM      6  C   UNL     1     134.411 134.984 129.561  1.00  0.00     0.000 C 
BRANCH   6   7
ATOM      7  C   UNL     1     133.525 134.273 130.596  1.00  0.00     0.000 C 
BRANCH   7   8
ATOM      8  C   UNL     1     134.077 132.899 131.016  1.00  0.00     0.000 C 
BRANCH   8   9
ATOM      9  C   UNL     1     134.503 132.012 129.827  1.00  0.00     0.000 C 
BRANCH   9  10
ATOM     10  C   UNL     1     133.855 130.618 129.889  1.00  0.00     0.000 C 
BRANCH  10  11
ATOM     11  C   UNL     1     134.830 129.493 129.508  1.00  0.00     0.000 C 
BRANCH  11  12
ATOM     12  C   UNL     1     134.644 128.213 130.353  1.00  0.00     0.006 C 
BRANCH  12  13
ATOM     13  C   UNL     1     135.967 127.466 130.562  1.00  0.00     0.053 C 
BRANCH  13  14
ATOM     14  C   UNL     1     135.752 125.985 130.559  1.00  0.00     0.041 C 
ATOM     15  O   UNL     1     134.582 125.515 130.549  1.00  0.00    -0.550 OA
ATOM     16  O   UNL     1     136.841 125.121 130.573  1.00  0.00    -0.550 OA
ENDBRANCH  13  14
ENDBRANCH  12  13
ENDBRANCH  11  12
ENDBRANCH  10  11
ENDBRANCH   9  10
ENDBRANCH   8   9
ENDBRANCH   7   8
ENDBRANCH   6   7
ENDBRANCH   5   6
ENDBRANCH   4   5
ENDBRANCH   3   4
ENDBRANCH   2   3
ENDBRANCH   1   2
BRANCH   1  17
ATOM     17  C   UNL     1     139.625 137.413 130.170  1.00  0.00     0.000 C 
BRANCH  17  18
ATOM     18  C   UNL     1     140.019 135.941 130.360  1.00  0.00     0.000 C 
BRANCH  18  19
ATOM     19  C   UNL     1     138.798 135.021 130.204  1.00  0.00     0.000 C 
BRANCH  19  20
ATOM     20  C   UNL     1     138.530 134.625 128.743  1.00  0.00     0.000 C 
BRANCH  20  21
ATOM     21  C   UNL     1     137.229 133.831 128.510  1.00  0.00     0.000 C 
BRANCH  21  22
ATOM     22  C   UNL     1     137.007 133.403 127.044  1.00  0.00    -0.000 C 
BRANCH  22  23
ATOM     23  C   UNL     1     136.725 131.896 126.902  1.00  0.00    -0.000 C 
BRANCH  23  24
ATOM     24  C   UNL     1     137.914 131.035 127.381  1.00  0.00    -0.000 C 
BRANCH  24  25
ATOM     25  C   UNL     1     137.695 130.397 128.763  1.00  0.00    -0.000 C 
BRANCH  25  26
ATOM     26  C   UNL     1     139.008 130.073 129.487  1.00  0.00    -0.000 C 
BRANCH  26  27
ATOM     27  C   UNL     1     139.247 131.048 130.650  1.00  0.00    -0.000 C 
BRANCH  27  28
ATOM     28  C   UNL     1     137.954 131.718 131.139  1.00  0.00    -0.000 C 
BRANCH  28  29
ATOM     29  C   UNL     1     138.069 132.250 132.575  1.00  0.00    -0.003 C 
ATOM     30  C   UNL     1     136.718 132.213 133.285  1.00  0.00     0.004 C 
ENDBRANCH  28  29
ENDBRANCH  27  28
ENDBRANCH  26  27
ENDBRANCH  25  26
ENDBRANCH  24  25
ENDBRANCH  23  24
ENDBRANCH  22  23
ENDBRANCH  21  22
ENDBRANCH  20  21
ENDBRANCH  19  20
ENDBRANCH  18  19
ENDBRANCH  17  18
ENDBRANCH   1  17
TORSDOF 26
ENDMDL
