MODEL 1
REMARK VINA RESULT:    -4.969      0.000      0.000
REMARK INTER + INTRA:         -16.826
REMARK INTER:                 -12.521
REMARK INTRA:                  -4.306
REMARK UNBOUND:                -4.306
REMARK SMILES CCCCCCCCCCCCCCCCCCCCCCCCCCCC(=O)[O-]
REMARK SMILES IDX 15 1 16 2 17 3 18 4 19 5 20 6 21 7 22 8 23 9 24 10 25 11
REMARK SMILES IDX 26 12 27 13 28 14 29 15 30 16 14 17 13 18 12 19 11 20 10 21
REMARK SMILES IDX 9 22 8 23 7 24 6 25 5 26 4 27 3 28 2 29 1 30
REMARK H PARENT
REMARK Flexibility Score: inf
ROOT
ATOM      1  C   UNL     1      -5.354   6.400  16.694  1.00  0.00     0.000 C 
ENDROOT
BRANCH   1   2
ATOM      2  C   UNL     1      -5.702   4.976  17.176  1.00  0.00     0.000 C 
BRANCH   2   3
ATOM      3  C   UNL     1      -4.730   3.917  16.628  1.00  0.00     0.000 C 
BRANCH   3   4
ATOM      4  C   UNL     1      -3.566   4.524  15.828  1.00  0.00     0.000 C 
BRANCH   4   5
ATOM      5  C   UNL     1      -2.424   3.532  15.532  1.00  0.00     0.000 C 
BRANCH   5   6
ATOM      6  C   UNL     1      -1.161   3.820  16.366  1.00  0.00     0.000 C 
BRANCH   6   7
ATOM      7  C   UNL     1      -1.212   5.204  17.046  1.00  0.00     0.000 C 
BRANCH   7   8
ATOM      8  C   UNL     1       0.168   5.774  17.410  1.00  0.00     0.000 C 
BRANCH   8   9
ATOM      9  C   UNL     1       0.320   7.256  17.033  1.00  0.00     0.000 C 
BRANCH   9  10
ATOM     10  C   UNL     1       1.295   8.016  17.953  1.00  0.00     0.000 C 
BRANCH  10  11
ATOM     11  C   UNL     1       0.705   8.465  19.303  1.00  0.00     0.000 C 
BRANCH  11  12
ATOM     12  C   UNL     1       1.049   7.511  20.460  1.00  0.00     0.006 C 
BRANCH  12  13
ATOM     13  C   UNL     1      -0.202   6.869  21.076  1.00  0.00     0.053 C 
BRANCH  13  14
ATOM     14  C   UNL     1      -0.034   6.628  22.545  1.00  0.00     0.041 C 
ATOM     15  O   UNL     1       1.115   6.606  23.057  1.00  0.00    -0.550 OA
ATOM     16  O   UNL     1      -1.149   6.450  23.352  1.00  0.00    -0.550 OA
ENDBRANCH  13  14
ENDBRANCH  12  13
ENDBRANCH  11  12
ENDBRANCH  10  11
ENDBRANCH   9  10
ENDBRANCH   8   9
ENDBRANCH   7   8
ENDBRANCH   6   7
ENDBRANCH   5   6
ENDBRANCH   4   5
ENDBRANCH   3   4
ENDBRANCH   2   3
ENDBRANCH   1   2
BRANCH   1  17
ATOM     17  C   UNL     1      -6.534   7.153  16.049  1.00  0.00     0.000 C 
BRANCH  17  18
ATOM     18  C   UNL     1      -7.751   6.263  15.719  1.00  0.00     0.000 C 
BRANCH  18  19
ATOM     19  C   UNL     1      -8.141   6.272  14.226  1.00  0.00     0.000 C 
BRANCH  19  20
ATOM     20  C   UNL     1      -8.114   4.885  13.550  1.00  0.00     0.000 C 
BRANCH  20  21
ATOM     21  C   UNL     1      -6.738   4.196  13.501  1.00  0.00     0.000 C 
BRANCH  21  22
ATOM     22  C   UNL     1      -6.088   4.239  12.106  1.00  0.00    -0.000 C 
BRANCH  22  23
ATOM     23  C   UNL     1      -7.124   4.372  10.981  1.00  0.00    -0.000 C 
BRANCH  23  24
ATOM     24  C   UNL     1      -6.855   5.580  10.064  1.00  0.00    -0.000 C 
BRANCH  24  25
ATOM     25  C   UNL     1      -7.777   6.774  10.391  1.00  0.00    -0.000 C 
BRANCH  25  26
ATOM     26  C   UNL     1      -7.041   7.973  11.020  1.00  0.00    -0.000 C 
BRANCH  26  27
ATOM     27  C   UNL     1      -5.528   7.776  11.217  1.00  0.00    -0.000 C 
BRANCH  27  28
ATOM     28  C   UNL     1      -5.082   8.018  12.669  1.00  0.00    -0.000 C 
BRANCH  28  29
ATOM     29  C   UNL     1      -4.062   6.974  13.149  1.00  0.00    -0.003 C 
ATOM     30  C   UNL     1      -2.719   7.595  13.539  1.00  0.00     0.004 C 
ENDBRANCH  28  29
ENDBRANCH  27  28
ENDBRANCH  26  27
ENDBRANCH  25  26
ENDBRANCH  24  25
ENDBRANCH  23  24
ENDBRANCH  22  23
ENDBRANCH  21  22
ENDBRANCH  20  21
ENDBRANCH  19  20
ENDBRANCH  18  19
ENDBRANCH  17  18
ENDBRANCH   1  17
TORSDOF 26
ENDMDL
MODEL 2
REMARK VINA RESULT:    -4.954      0.936      1.507
REMARK INTER + INTRA:         -16.790
REMARK INTER:                 -12.680
REMARK INTRA:                  -4.110
REMARK UNBOUND:                -4.306
REMARK SMILES CCCCCCCCCCCCCCCCCCCCCCCCCCCC(=O)[O-]
REMARK SMILES IDX 15 1 16 2 17 3 18 4 19 5 20 6 21 7 22 8 23 9 24 10 25 11
REMARK SMILES IDX 26 12 27 13 28 14 29 15 30 16 14 17 13 18 12 19 11 20 10 21
REMARK SMILES IDX 9 22 8 23 7 24 6 25 5 26 4 27 3 28 2 29 1 30
REMARK H PARENT
REMARK Flexibility Score: inf
ROOT
ATOM      1  C   UNL     1      -4.789   5.922  16.058  1.00  0.00     0.000 C 
ENDROOT
BRANCH   1   2
ATOM      2  C   UNL     1      -5.433   4.816  16.920  1.00  0.00     0.000 C 
BRANCH   2   3
ATOM      3  C   UNL     1      -4.618   3.512  16.907  1.00  0.00     0.000 C 
BRANCH   3   4
ATOM      4  C   UNL     1      -3.599   3.449  15.756  1.00  0.00     0.000 C 
BRANCH   4   5
ATOM      5  C   UNL     1      -2.175   3.062  16.201  1.00  0.00     0.000 C 
BRANCH   5   6
ATOM      6  C   UNL     1      -1.154   4.188  15.955  1.00  0.00     0.000 C 
BRANCH   6   7
ATOM      7  C   UNL     1      -1.203   5.273  17.051  1.00  0.00     0.000 C 
BRANCH   7   8
ATOM      8  C   UNL     1       0.176   5.818  17.456  1.00  0.00     0.000 C 
BRANCH   8   9
ATOM      9  C   UNL     1       0.422   7.250  16.954  1.00  0.00     0.000 C 
BRANCH   9  10
ATOM     10  C   UNL     1       1.240   8.103  17.943  1.00  0.00     0.000 C 
BRANCH  10  11
ATOM     11  C   UNL     1       0.543   8.399  19.285  1.00  0.00     0.000 C 
BRANCH  11  12
ATOM     12  C   UNL     1       0.871   7.365  20.376  1.00  0.00     0.006 C 
BRANCH  12  13
ATOM     13  C   UNL     1      -0.382   6.899  21.130  1.00  0.00     0.053 C 
BRANCH  13  14
ATOM     14  C   UNL     1      -0.087   6.615  22.572  1.00  0.00     0.041 C 
ATOM     15  O   UNL     1      -1.016   6.294  23.357  1.00  0.00    -0.550 OA
ATOM     16  O   UNL     1       1.217   6.683  23.041  1.00  0.00    -0.550 OA
ENDBRANCH  13  14
ENDBRANCH  12  13
ENDBRANCH  11  12
ENDBRANCH  10  11
ENDBRANCH   9  10
ENDBRANCH   8   9
ENDBRANCH   7   8
ENDBRANCH   6   7
ENDBRANCH   5   6
ENDBRANCH   4   5
ENDBRANCH   3   4
ENDBRANCH   2   3
ENDBRANCH   1   2
BRANCH   1  17
ATOM     17  C   UNL     1      -5.560   7.257  16.066  1.00  0.00     0.000 C 
BRANCH  17  18
ATOM     18  C   UNL     1      -6.991   7.160  16.636  1.00  0.00     0.000 C 
BRANCH  18  19
ATOM     19  C   UNL     1      -8.089   7.125  15.553  1.00  0.00     0.000 C 
BRANCH  19  20
ATOM     20  C   UNL     1      -8.542   5.707  15.146  1.00  0.00     0.000 C 
BRANCH  20  21
ATOM     21  C   UNL     1      -9.028   5.556  13.692  1.00  0.00     0.000 C 
BRANCH  21  22
ATOM     22  C   UNL     1      -8.217   4.525  12.886  1.00  0.00    -0.000 C 
BRANCH  22  23
ATOM     23  C   UNL     1      -6.909   4.130  13.588  1.00  0.00    -0.000 C 
BRANCH  23  24
ATOM     24  C   UNL     1      -5.658   4.505  12.772  1.00  0.00    -0.000 C 
BRANCH  24  25
ATOM     25  C   UNL     1      -6.022   5.086  11.389  1.00  0.00    -0.000 C 
BRANCH  25  26
ATOM     26  C   UNL     1      -5.514   6.524  11.167  1.00  0.00    -0.000 C 
BRANCH  26  27
ATOM     27  C   UNL     1      -5.721   7.477  12.357  1.00  0.00    -0.000 C 
BRANCH  27  28
ATOM     28  C   UNL     1      -4.594   8.515  12.490  1.00  0.00    -0.000 C 
BRANCH  28  29
ATOM     29  C   UNL     1      -3.199   7.883  12.359  1.00  0.00    -0.003 C 
ATOM     30  C   UNL     1      -2.470   7.778  13.700  1.00  0.00     0.004 C 
ENDBRANCH  28  29
ENDBRANCH  27  28
ENDBRANCH  26  27
ENDBRANCH  25  26
ENDBRANCH  24  25
ENDBRANCH  23  24
ENDBRANCH  22  23
ENDBRANCH  21  22
ENDBRANCH  20  21
ENDBRANCH  19  20
ENDBRANCH  18  19
ENDBRANCH  17  18
ENDBRANCH   1  17
TORSDOF 26
ENDMDL
MODEL 3
REMARK VINA RESULT:    -4.851      1.092      1.741
REMARK INTER + INTRA:         -16.529
REMARK INTER:                 -12.522
REMARK INTRA:                  -4.007
REMARK UNBOUND:                -4.306
REMARK SMILES CCCCCCCCCCCCCCCCCCCCCCCCCCCC(=O)[O-]
REMARK SMILES IDX 15 1 16 2 17 3 18 4 19 5 20 6 21 7 22 8 23 9 24 10 25 11
REMARK SMILES IDX 26 12 27 13 28 14 29 15 30 16 14 17 13 18 12 19 11 20 10 21
REMARK SMILES IDX 9 22 8 23 7 24 6 25 5 26 4 27 3 28 2 29 1 30
REMARK H PARENT
REMARK Flexibility Score: inf
ROOT
ATOM      1  C   UNL     1      -6.109   7.026  17.005  1.00  0.00     0.000 C 
ENDROOT
BRANCH   1   2
ATOM      2  C   UNL     1      -5.341   5.688  17.032  1.00  0.00     0.000 C 
BRANCH   2   3
ATOM      3  C   UNL     1      -5.179   5.076  15.630  1.00  0.00     0.000 C 
BRANCH   3   4
ATOM      4  C   UNL     1      -5.071   3.541  15.652  1.00  0.00     0.000 C 
BRANCH   4   5
ATOM      5  C   UNL     1      -4.471   2.974  16.953  1.00  0.00     0.000 C 
BRANCH   5   6
ATOM      6  C   UNL     1      -2.989   2.583  16.798  1.00  0.00     0.000 C 
BRANCH   6   7
ATOM      7  C   UNL     1      -2.244   3.495  15.801  1.00  0.00     0.000 C 
BRANCH   7   8
ATOM      8  C   UNL     1      -0.938   4.089  16.353  1.00  0.00     0.000 C 
BRANCH   8   9
ATOM      9  C   UNL     1      -1.128   5.490  16.956  1.00  0.00     0.000 C 
BRANCH   9  10
ATOM     10  C   UNL     1      -0.181   5.771  18.139  1.00  0.00     0.000 C 
BRANCH  10  11
ATOM     11  C   UNL     1       0.365   7.209  18.214  1.00  0.00     0.000 C 
BRANCH  11  12
ATOM     12  C   UNL     1       0.611   7.688  19.655  1.00  0.00     0.006 C 
BRANCH  12  13
ATOM     13  C   UNL     1      -0.091   6.799  20.691  1.00  0.00     0.053 C 
BRANCH  13  14
ATOM     14  C   UNL     1       0.661   6.758  21.986  1.00  0.00     0.041 C 
ATOM     15  O   UNL     1       1.900   6.980  22.007  1.00  0.00    -0.550 OA
ATOM     16  O   UNL     1      -0.010   6.499  23.173  1.00  0.00    -0.550 OA
ENDBRANCH  13  14
ENDBRANCH  12  13
ENDBRANCH  11  12
ENDBRANCH  10  11
ENDBRANCH   9  10
ENDBRANCH   8   9
ENDBRANCH   7   8
ENDBRANCH   6   7
ENDBRANCH   5   6
ENDBRANCH   4   5
ENDBRANCH   3   4
ENDBRANCH   2   3
ENDBRANCH   1   2
BRANCH   1  17
ATOM     17  C   UNL     1      -6.040   7.765  15.653  1.00  0.00     0.000 C 
BRANCH  17  18
ATOM     18  C   UNL     1      -7.404   7.926  14.948  1.00  0.00     0.000 C 
BRANCH  18  19
ATOM     19  C   UNL     1      -8.456   6.886  15.386  1.00  0.00     0.000 C 
BRANCH  19  20
ATOM     20  C   UNL     1      -9.014   6.018  14.239  1.00  0.00     0.000 C 
BRANCH  20  21
ATOM     21  C   UNL     1      -8.234   4.723  13.945  1.00  0.00     0.000 C 
BRANCH  21  22
ATOM     22  C   UNL     1      -7.888   4.549  12.456  1.00  0.00    -0.000 C 
BRANCH  22  23
ATOM     23  C   UNL     1      -6.427   4.127  12.238  1.00  0.00    -0.000 C 
BRANCH  23  24
ATOM     24  C   UNL     1      -5.497   5.322  11.959  1.00  0.00    -0.000 C 
BRANCH  24  25
ATOM     25  C   UNL     1      -6.285   6.591  11.570  1.00  0.00    -0.000 C 
BRANCH  25  26
ATOM     26  C   UNL     1      -5.391   7.817  11.296  1.00  0.00    -0.000 C 
BRANCH  26  27
ATOM     27  C   UNL     1      -3.887   7.514  11.192  1.00  0.00    -0.000 C 
BRANCH  27  28
ATOM     28  C   UNL     1      -3.015   8.593  11.856  1.00  0.00    -0.000 C 
BRANCH  28  29
ATOM     29  C   UNL     1      -3.060   8.517  13.390  1.00  0.00    -0.003 C 
ATOM     30  C   UNL     1      -2.800   7.106  13.919  1.00  0.00     0.004 C 
ENDBRANCH  28  29
ENDBRANCH  27  28
ENDBRANCH  26  27
ENDBRANCH  25  26
ENDBRANCH  24  25
ENDBRANCH  23  24
ENDBRANCH  22  23
ENDBRANCH  21  22
ENDBRANCH  20  21
ENDBRANCH  19  20
ENDBRANCH  18  19
ENDBRANCH  17  18
ENDBRANCH   1  17
TORSDOF 26
ENDMDL
MODEL 4
REMARK VINA RESULT:    -4.825      2.887      7.577
REMARK INTER + INTRA:         -16.464
REMARK INTER:                 -12.477
REMARK INTRA:                  -3.987
REMARK UNBOUND:                -4.306
REMARK SMILES CCCCCCCCCCCCCCCCCCCCCCCCCCCC(=O)[O-]
REMARK SMILES IDX 15 1 16 2 17 3 18 4 19 5 20 6 21 7 22 8 23 9 24 10 25 11
REMARK SMILES IDX 26 12 27 13 28 14 29 15 30 16 14 17 13 18 12 19 11 20 10 21
REMARK SMILES IDX 9 22 8 23 7 24 6 25 5 26 4 27 3 28 2 29 1 30
REMARK H PARENT
REMARK Flexibility Score: inf
ROOT
ATOM      1  C   UNL     1      -6.043   7.845  16.111  1.00  0.00     0.000 C 
ENDROOT
BRANCH   1   2
ATOM      2  C   UNL     1      -7.124   7.914  15.011  1.00  0.00     0.000 C 
BRANCH   2   3
ATOM      3  C   UNL     1      -8.422   7.196  15.418  1.00  0.00     0.000 C 
BRANCH   3   4
ATOM      4  C   UNL     1      -8.733   5.971  14.542  1.00  0.00     0.000 C 
BRANCH   4   5
ATOM      5  C   UNL     1      -7.659   4.866  14.605  1.00  0.00     0.000 C 
BRANCH   5   6
ATOM      6  C   UNL     1      -7.443   4.175  13.245  1.00  0.00     0.000 C 
BRANCH   6   7
ATOM      7  C   UNL     1      -5.953   4.117  12.848  1.00  0.00     0.000 C 
BRANCH   7   8
ATOM      8  C   UNL     1      -5.216   5.459  12.983  1.00  0.00     0.000 C 
BRANCH   8   9
ATOM      9  C   UNL     1      -5.560   6.444  11.854  1.00  0.00     0.000 C 
BRANCH   9  10
ATOM     10  C   UNL     1      -4.831   6.126  10.534  1.00  0.00     0.000 C 
BRANCH  10  11
ATOM     11  C   UNL     1      -3.992   7.281   9.955  1.00  0.00     0.000 C 
BRANCH  11  12
ATOM     12  C   UNL     1      -3.877   8.482  10.910  1.00  0.00     0.006 C 
BRANCH  12  13
ATOM     13  C   UNL     1      -2.513   8.539  11.611  1.00  0.00     0.053 C 
BRANCH  13  14
ATOM     14  C   UNL     1      -2.659   8.592  13.102  1.00  0.00     0.041 C 
ATOM     15  O   UNL     1      -2.537   7.544  13.788  1.00  0.00    -0.550 OA
ATOM     16  O   UNL     1      -2.908   9.802  13.733  1.00  0.00    -0.550 OA
ENDBRANCH  13  14
ENDBRANCH  12  13
ENDBRANCH  11  12
ENDBRANCH  10  11
ENDBRANCH   9  10
ENDBRANCH   8   9
ENDBRANCH   7   8
ENDBRANCH   6   7
ENDBRANCH   5   6
ENDBRANCH   4   5
ENDBRANCH   3   4
ENDBRANCH   2   3
ENDBRANCH   1   2
BRANCH   1  17
ATOM     17  C   UNL     1      -6.589   7.493  17.509  1.00  0.00     0.000 C 
BRANCH  17  18
ATOM     18  C   UNL     1      -6.034   6.177  18.094  1.00  0.00     0.000 C 
BRANCH  18  19
ATOM     19  C   UNL     1      -5.016   5.469  17.175  1.00  0.00     0.000 C 
BRANCH  19  20
ATOM     20  C   UNL     1      -5.307   3.974  16.929  1.00  0.00     0.000 C 
BRANCH  20  21
ATOM     21  C   UNL     1      -4.234   3.210  16.131  1.00  0.00     0.000 C 
BRANCH  21  22
ATOM     22  C   UNL     1      -3.143   2.591  17.023  1.00  0.00    -0.000 C 
BRANCH  22  23
ATOM     23  C   UNL     1      -1.726   2.967  16.564  1.00  0.00    -0.000 C 
BRANCH  23  24
ATOM     24  C   UNL     1      -1.716   4.142  15.568  1.00  0.00    -0.000 C 
BRANCH  24  25
ATOM     25  C   UNL     1      -1.136   5.428  16.194  1.00  0.00    -0.000 C 
BRANCH  25  26
ATOM     26  C   UNL     1      -0.170   5.167  17.366  1.00  0.00    -0.000 C 
BRANCH  26  27
ATOM     27  C   UNL     1      -0.385   6.064  18.597  1.00  0.00    -0.000 C 
BRANCH  27  28
ATOM     28  C   UNL     1       0.546   7.289  18.610  1.00  0.00    -0.000 C 
BRANCH  28  29
ATOM     29  C   UNL     1       0.599   7.967  19.987  1.00  0.00    -0.003 C 
ATOM     30  C   UNL     1       1.044   7.014  21.098  1.00  0.00     0.004 C 
ENDBRANCH  28  29
ENDBRANCH  27  28
ENDBRANCH  26  27
ENDBRANCH  25  26
ENDBRANCH  24  25
ENDBRANCH  23  24
ENDBRANCH  22  23
ENDBRANCH  21  22
ENDBRANCH  20  21
ENDBRANCH  19  20
ENDBRANCH  18  19
ENDBRANCH  17  18
ENDBRANCH   1  17
TORSDOF 26
ENDMDL
MODEL 5
REMARK VINA RESULT:    -4.809      1.154      2.754
REMARK INTER + INTRA:         -16.423
REMARK INTER:                 -11.661
REMARK INTRA:                  -4.762
REMARK UNBOUND:                -4.306
REMARK SMILES CCCCCCCCCCCCCCCCCCCCCCCCCCCC(=O)[O-]
REMARK SMILES IDX 15 1 16 2 17 3 18 4 19 5 20 6 21 7 22 8 23 9 24 10 25 11
REMARK SMILES IDX 26 12 27 13 28 14 29 15 30 16 14 17 13 18 12 19 11 20 10 21
REMARK SMILES IDX 9 22 8 23 7 24 6 25 5 26 4 27 3 28 2 29 1 30
REMARK H PARENT
REMARK Flexibility Score: inf
ROOT
ATOM      1  C   UNL     1      -7.898   5.978  15.473  1.00  0.00     0.000 C 
ENDROOT
BRANCH   1   2
ATOM      2  C   UNL     1      -6.766   7.023  15.550  1.00  0.00     0.000 C 
BRANCH   2   3
ATOM      3  C   UNL     1      -5.427   6.406  15.990  1.00  0.00     0.000 C 
BRANCH   3   4
ATOM      4  C   UNL     1      -5.562   5.484  17.214  1.00  0.00     0.000 C 
BRANCH   4   5
ATOM      5  C   UNL     1      -4.983   4.071  17.000  1.00  0.00     0.000 C 
BRANCH   5   6
ATOM      6  C   UNL     1      -4.668   3.780  15.521  1.00  0.00     0.000 C 
BRANCH   6   7
ATOM      7  C   UNL     1      -3.151   3.719  15.246  1.00  0.00     0.000 C 
BRANCH   7   8
ATOM      8  C   UNL     1      -2.362   2.886  16.270  1.00  0.00     0.000 C 
BRANCH   8   9
ATOM      9  C   UNL     1      -1.327   3.718  17.044  1.00  0.00     0.000 C 
BRANCH   9  10
ATOM     10  C   UNL     1      -1.247   5.180  16.563  1.00  0.00     0.000 C 
BRANCH  10  11
ATOM     11  C   UNL     1      -0.164   6.036  17.247  1.00  0.00     0.000 C 
BRANCH  11  12
ATOM     12  C   UNL     1      -0.148   5.880  18.778  1.00  0.00     0.006 C 
BRANCH  12  13
ATOM     13  C   UNL     1       0.350   7.148  19.486  1.00  0.00     0.053 C 
BRANCH  13  14
ATOM     14  C   UNL     1       0.519   6.928  20.958  1.00  0.00     0.041 C 
ATOM     15  O   UNL     1      -0.469   6.611  21.670  1.00  0.00    -0.550 OA
ATOM     16  O   UNL     1       1.773   7.051  21.540  1.00  0.00    -0.550 OA
ENDBRANCH  13  14
ENDBRANCH  12  13
ENDBRANCH  11  12
ENDBRANCH  10  11
ENDBRANCH   9  10
ENDBRANCH   8   9
ENDBRANCH   7   8
ENDBRANCH   6   7
ENDBRANCH   5   6
ENDBRANCH   4   5
ENDBRANCH   3   4
ENDBRANCH   2   3
ENDBRANCH   1   2
BRANCH   1  17
ATOM     17  C   UNL     1      -8.922   6.239  14.350  1.00  0.00     0.000 C 
BRANCH  17  18
ATOM     18  C   UNL     1      -8.750   5.335  13.111  1.00  0.00     0.000 C 
BRANCH  18  19
ATOM     19  C   UNL     1      -7.650   4.265  13.272  1.00  0.00     0.000 C 
BRANCH  19  20
ATOM     20  C   UNL     1      -6.590   4.263  12.150  1.00  0.00     0.000 C 
BRANCH  20  21
ATOM     21  C   UNL     1      -5.419   5.246  12.340  1.00  0.00     0.000 C 
BRANCH  21  22
ATOM     22  C   UNL     1      -5.066   6.022  11.058  1.00  0.00    -0.000 C 
BRANCH  22  23
ATOM     23  C   UNL     1      -6.296   6.679  10.413  1.00  0.00    -0.000 C 
BRANCH  23  24
ATOM     24  C   UNL     1      -6.382   8.190  10.700  1.00  0.00    -0.000 C 
BRANCH  24  25
ATOM     25  C   UNL     1      -7.075   8.486  12.047  1.00  0.00    -0.000 C 
BRANCH  25  26
ATOM     26  C   UNL     1      -6.386   9.591  12.871  1.00  0.00    -0.000 C 
BRANCH  26  27
ATOM     27  C   UNL     1      -4.859   9.672  12.699  1.00  0.00    -0.000 C 
BRANCH  27  28
ATOM     28  C   UNL     1      -4.094   9.036  13.872  1.00  0.00    -0.000 C 
BRANCH  28  29
ATOM     29  C   UNL     1      -3.084   7.977  13.405  1.00  0.00    -0.003 C 
ATOM     30  C   UNL     1      -2.484   8.297  12.035  1.00  0.00     0.004 C 
ENDBRANCH  28  29
ENDBRANCH  27  28
ENDBRANCH  26  27
ENDBRANCH  25  26
ENDBRANCH  24  25
ENDBRANCH  23  24
ENDBRANCH  22  23
ENDBRANCH  21  22
ENDBRANCH  20  21
ENDBRANCH  19  20
ENDBRANCH  18  19
ENDBRANCH  17  18
ENDBRANCH   1  17
TORSDOF 26
ENDMDL
MODEL 6
REMARK VINA RESULT:    -4.694      1.125      3.398
REMARK INTER + INTRA:         -16.135
REMARK INTER:                 -12.623
REMARK INTRA:                  -3.512
REMARK UNBOUND:                -4.306
REMARK SMILES CCCCCCCCCCCCCCCCCCCCCCCCCCCC(=O)[O-]
REMARK SMILES IDX 15 1 16 2 17 3 18 4 19 5 20 6 21 7 22 8 23 9 24 10 25 11
REMARK SMILES IDX 26 12 27 13 28 14 29 15 30 16 14 17 13 18 12 19 11 20 10 21
REMARK SMILES IDX 9 22 8 23 7 24 6 25 5 26 4 27 3 28 2 29 1 30
REMARK H PARENT
REMARK Flexibility Score: inf
ROOT
ATOM      1  C   UNL     1      -5.333   4.184  13.692  1.00  0.00     0.000 C 
ENDROOT
BRANCH   1   2
ATOM      2  C   UNL     1      -5.513   4.166  15.224  1.00  0.00     0.000 C 
BRANCH   2   3
ATOM      3  C   UNL     1      -4.445   3.311  15.930  1.00  0.00     0.000 C 
BRANCH   3   4
ATOM      4  C   UNL     1      -3.008   3.714  15.558  1.00  0.00     0.000 C 
BRANCH   4   5
ATOM      5  C   UNL     1      -2.346   4.675  16.564  1.00  0.00     0.000 C 
BRANCH   5   6
ATOM      6  C   UNL     1      -0.810   4.678  16.453  1.00  0.00     0.000 C 
BRANCH   6   7
ATOM      7  C   UNL     1      -0.157   5.722  17.383  1.00  0.00     0.000 C 
BRANCH   7   8
ATOM      8  C   UNL     1       0.945   6.557  16.711  1.00  0.00     0.000 C 
BRANCH   8   9
ATOM      9  C   UNL     1       0.781   8.066  16.955  1.00  0.00     0.000 C 
BRANCH   9  10
ATOM     10  C   UNL     1       1.472   8.547  18.245  1.00  0.00     0.000 C 
BRANCH  10  11
ATOM     11  C   UNL     1       0.594   8.512  19.510  1.00  0.00     0.000 C 
BRANCH  11  12
ATOM     12  C   UNL     1       1.007   7.410  20.502  1.00  0.00     0.006 C 
BRANCH  12  13
ATOM     13  C   UNL     1      -0.205   6.735  21.159  1.00  0.00     0.053 C 
BRANCH  13  14
ATOM     14  C   UNL     1      -0.021   6.586  22.638  1.00  0.00     0.041 C 
ATOM     15  O   UNL     1      -1.019   6.590  23.405  1.00  0.00    -0.550 OA
ATOM     16  O   UNL     1       1.251   6.420  23.167  1.00  0.00    -0.550 OA
ENDBRANCH  13  14
ENDBRANCH  12  13
ENDBRANCH  11  12
ENDBRANCH  10  11
ENDBRANCH   9  10
ENDBRANCH   8   9
ENDBRANCH   7   8
ENDBRANCH   6   7
ENDBRANCH   5   6
ENDBRANCH   4   5
ENDBRANCH   3   4
ENDBRANCH   2   3
ENDBRANCH   1   2
BRANCH   1  17
ATOM     17  C   UNL     1      -6.658   4.206  12.902  1.00  0.00     0.000 C 
BRANCH  17  18
ATOM     18  C   UNL     1      -6.486   4.402  11.381  1.00  0.00     0.000 C 
BRANCH  18  19
ATOM     19  C   UNL     1      -6.062   5.831  10.982  1.00  0.00     0.000 C 
BRANCH  19  20
ATOM     20  C   UNL     1      -4.577   5.971  10.588  1.00  0.00     0.000 C 
BRANCH  20  21
ATOM     21  C   UNL     1      -4.002   7.398  10.663  1.00  0.00     0.000 C 
BRANCH  21  22
ATOM     22  C   UNL     1      -4.498   8.188  11.887  1.00  0.00    -0.000 C 
BRANCH  22  23
ATOM     23  C   UNL     1      -3.932   7.640  13.206  1.00  0.00    -0.000 C 
BRANCH  23  24
ATOM     24  C   UNL     1      -4.962   7.666  14.352  1.00  0.00    -0.000 C 
BRANCH  24  25
ATOM     25  C   UNL     1      -6.222   8.477  13.981  1.00  0.00    -0.000 C 
BRANCH  25  26
ATOM     26  C   UNL     1      -7.492   7.617  13.833  1.00  0.00    -0.000 C 
BRANCH  26  27
ATOM     27  C   UNL     1      -8.408   7.594  15.069  1.00  0.00    -0.000 C 
BRANCH  27  28
ATOM     28  C   UNL     1      -8.016   6.502  16.078  1.00  0.00    -0.000 C 
BRANCH  28  29
ATOM     29  C   UNL     1      -7.517   7.088  17.408  1.00  0.00    -0.003 C 
ATOM     30  C   UNL     1      -6.068   6.706  17.715  1.00  0.00     0.004 C 
ENDBRANCH  28  29
ENDBRANCH  27  28
ENDBRANCH  26  27
ENDBRANCH  25  26
ENDBRANCH  24  25
ENDBRANCH  23  24
ENDBRANCH  22  23
ENDBRANCH  21  22
ENDBRANCH  20  21
ENDBRANCH  19  20
ENDBRANCH  18  19
ENDBRANCH  17  18
ENDBRANCH   1  17
TORSDOF 26
ENDMDL
MODEL 7
REMARK VINA RESULT:    -4.680      2.262      8.436
REMARK INTER + INTRA:         -16.099
REMARK INTER:                 -12.446
REMARK INTRA:                  -3.653
REMARK UNBOUND:                -4.306
REMARK SMILES CCCCCCCCCCCCCCCCCCCCCCCCCCCC(=O)[O-]
REMARK SMILES IDX 15 1 16 2 17 3 18 4 19 5 20 6 21 7 22 8 23 9 24 10 25 11
REMARK SMILES IDX 26 12 27 13 28 14 29 15 30 16 14 17 13 18 12 19 11 20 10 21
REMARK SMILES IDX 9 22 8 23 7 24 6 25 5 26 4 27 3 28 2 29 1 30
REMARK H PARENT
REMARK Flexibility Score: inf
ROOT
ATOM      1  C   UNL     1      -5.860   3.818  15.021  1.00  0.00     0.000 C 
ENDROOT
BRANCH   1   2
ATOM      2  C   UNL     1      -5.147   3.710  13.657  1.00  0.00     0.000 C 
BRANCH   2   3
ATOM      3  C   UNL     1      -6.119   3.857  12.473  1.00  0.00     0.000 C 
BRANCH   3   4
ATOM      4  C   UNL     1      -7.327   4.753  12.794  1.00  0.00     0.000 C 
BRANCH   4   5
ATOM      5  C   UNL     1      -7.631   5.808  11.711  1.00  0.00     0.000 C 
BRANCH   5   6
ATOM      6  C   UNL     1      -6.958   5.480  10.365  1.00  0.00     0.000 C 
BRANCH   6   7
ATOM      7  C   UNL     1      -6.041   6.621   9.876  1.00  0.00     0.000 C 
BRANCH   7   8
ATOM      8  C   UNL     1      -4.586   6.506  10.361  1.00  0.00     0.000 C 
BRANCH   8   9
ATOM      9  C   UNL     1      -4.217   7.578  11.398  1.00  0.00     0.000 C 
BRANCH   9  10
ATOM     10  C   UNL     1      -4.298   7.066  12.850  1.00  0.00     0.000 C 
BRANCH  10  11
ATOM     11  C   UNL     1      -5.236   7.866  13.775  1.00  0.00     0.000 C 
BRANCH  11  12
ATOM     12  C   UNL     1      -5.210   7.374  15.232  1.00  0.00     0.006 C 
BRANCH  12  13
ATOM     13  C   UNL     1      -6.618   7.259  15.832  1.00  0.00     0.053 C 
BRANCH  13  14
ATOM     14  C   UNL     1      -6.572   7.014  17.310  1.00  0.00     0.041 C 
ATOM     15  O   UNL     1      -5.501   6.647  17.858  1.00  0.00    -0.550 OA
ATOM     16  O   UNL     1      -7.706   7.216  18.083  1.00  0.00    -0.550 OA
ENDBRANCH  13  14
ENDBRANCH  12  13
ENDBRANCH  11  12
ENDBRANCH  10  11
ENDBRANCH   9  10
ENDBRANCH   8   9
ENDBRANCH   7   8
ENDBRANCH   6   7
ENDBRANCH   5   6
ENDBRANCH   4   5
ENDBRANCH   3   4
ENDBRANCH   2   3
ENDBRANCH   1   2
BRANCH   1  17
ATOM     17  C   UNL     1      -4.927   3.644  16.236  1.00  0.00     0.000 C 
BRANCH  17  18
ATOM     18  C   UNL     1      -3.523   4.257  16.051  1.00  0.00     0.000 C 
BRANCH  18  19
ATOM     19  C   UNL     1      -2.372   3.254  16.277  1.00  0.00     0.000 C 
BRANCH  19  20
ATOM     20  C   UNL     1      -1.018   3.903  16.633  1.00  0.00     0.000 C 
BRANCH  20  21
ATOM     21  C   UNL     1      -1.072   5.400  16.990  1.00  0.00     0.000 C 
BRANCH  21  22
ATOM     22  C   UNL     1       0.256   5.936  17.554  1.00  0.00    -0.000 C 
BRANCH  22  23
ATOM     23  C   UNL     1       0.796   7.129  16.750  1.00  0.00    -0.000 C 
BRANCH  23  24
ATOM     24  C   UNL     1       1.300   8.273  17.648  1.00  0.00    -0.000 C 
BRANCH  24  25
ATOM     25  C   UNL     1       0.548   8.327  18.995  1.00  0.00    -0.000 C 
BRANCH  25  26
ATOM     26  C   UNL     1       1.475   8.307  20.226  1.00  0.00    -0.000 C 
BRANCH  26  27
ATOM     27  C   UNL     1       1.344   7.060  21.117  1.00  0.00    -0.000 C 
BRANCH  27  28
ATOM     28  C   UNL     1      -0.088   6.849  21.638  1.00  0.00    -0.000 C 
BRANCH  28  29
ATOM     29  C   UNL     1      -0.124   6.546  23.143  1.00  0.00    -0.003 C 
ATOM     30  C   UNL     1      -1.548   6.429  23.689  1.00  0.00     0.004 C 
ENDBRANCH  28  29
ENDBRANCH  27  28
ENDBRANCH  26  27
ENDBRANCH  25  26
ENDBRANCH  24  25
ENDBRANCH  23  24
ENDBRANCH  22  23
ENDBRANCH  21  22
ENDBRANCH  20  21
ENDBRANCH  19  20
ENDBRANCH  18  19
ENDBRANCH  17  18
ENDBRANCH   1  17
TORSDOF 26
ENDMDL
MODEL 8
REMARK VINA RESULT:    -4.610      1.338      2.887
REMARK INTER + INTRA:         -15.923
REMARK INTER:                 -12.075
REMARK INTRA:                  -3.848
REMARK UNBOUND:                -4.306
REMARK SMILES CCCCCCCCCCCCCCCCCCCCCCCCCCCC(=O)[O-]
REMARK SMILES IDX 15 1 16 2 17 3 18 4 19 5 20 6 21 7 22 8 23 9 24 10 25 11
REMARK SMILES IDX 26 12 27 13 28 14 29 15 30 16 14 17 13 18 12 19 11 20 10 21
REMARK SMILES IDX 9 22 8 23 7 24 6 25 5 26 4 27 3 28 2 29 1 30
REMARK H PARENT
REMARK Flexibility Score: inf
ROOT
ATOM      1  C   UNL     1      -6.080   7.389  16.367  1.00  0.00     0.000 C 
ENDROOT
BRANCH   1   2
ATOM      2  C   UNL     1      -4.991   6.300  16.466  1.00  0.00     0.000 C 
BRANCH   2   3
ATOM      3  C   UNL     1      -4.517   5.815  15.085  1.00  0.00     0.000 C 
BRANCH   3   4
ATOM      4  C   UNL     1      -4.345   4.288  15.010  1.00  0.00     0.000 C 
BRANCH   4   5
ATOM      5  C   UNL     1      -4.670   3.555  16.327  1.00  0.00     0.000 C 
BRANCH   5   6
ATOM      6  C   UNL     1      -3.527   2.629  16.783  1.00  0.00     0.000 C 
BRANCH   6   7
ATOM      7  C   UNL     1      -2.192   2.956  16.081  1.00  0.00     0.000 C 
BRANCH   7   8
ATOM      8  C   UNL     1      -1.220   3.783  16.937  1.00  0.00     0.000 C 
BRANCH   8   9
ATOM      9  C   UNL     1      -1.028   5.213  16.409  1.00  0.00     0.000 C 
BRANCH   9  10
ATOM     10  C   UNL     1      -0.041   6.041  17.254  1.00  0.00     0.000 C 
BRANCH  10  11
ATOM     11  C   UNL     1      -0.106   5.788  18.772  1.00  0.00     0.000 C 
BRANCH  11  12
ATOM     12  C   UNL     1       0.289   7.017  19.608  1.00  0.00     0.006 C 
BRANCH  12  13
ATOM     13  C   UNL     1      -0.155   6.893  21.072  1.00  0.00     0.053 C 
BRANCH  13  14
ATOM     14  C   UNL     1       1.015   6.896  22.008  1.00  0.00     0.041 C 
ATOM     15  O   UNL     1       0.907   6.402  23.160  1.00  0.00    -0.550 OA
ATOM     16  O   UNL     1       2.232   7.423  21.598  1.00  0.00    -0.550 OA
ENDBRANCH  13  14
ENDBRANCH  12  13
ENDBRANCH  11  12
ENDBRANCH  10  11
ENDBRANCH   9  10
ENDBRANCH   8   9
ENDBRANCH   7   8
ENDBRANCH   6   7
ENDBRANCH   5   6
ENDBRANCH   4   5
ENDBRANCH   3   4
ENDBRANCH   2   3
ENDBRANCH   1   2
BRANCH   1  17
ATOM     17  C   UNL     1      -7.446   6.968  16.943  1.00  0.00     0.000 C 
BRANCH  17  18
ATOM     18  C   UNL     1      -8.576   6.877  15.896  1.00  0.00     0.000 C 
BRANCH  18  19
ATOM     19  C   UNL     1      -8.125   6.283  14.545  1.00  0.00     0.000 C 
BRANCH  19  20
ATOM     20  C   UNL     1      -9.088   6.556  13.371  1.00  0.00     0.000 C 
BRANCH  20  21
ATOM     21  C   UNL     1      -8.560   7.515  12.287  1.00  0.00     0.000 C 
BRANCH  21  22
ATOM     22  C   UNL     1      -7.952   8.805  12.864  1.00  0.00    -0.000 C 
BRANCH  22  23
ATOM     23  C   UNL     1      -6.781   9.330  12.020  1.00  0.00    -0.000 C 
BRANCH  23  24
ATOM     24  C   UNL     1      -5.408   8.911  12.581  1.00  0.00    -0.000 C 
BRANCH  24  25
ATOM     25  C   UNL     1      -4.338   8.803  11.474  1.00  0.00    -0.000 C 
BRANCH  25  26
ATOM     26  C   UNL     1      -3.762   7.384  11.304  1.00  0.00    -0.000 C 
BRANCH  26  27
ATOM     27  C   UNL     1      -4.261   6.625  10.062  1.00  0.00    -0.000 C 
BRANCH  27  28
ATOM     28  C   UNL     1      -5.602   5.911  10.301  1.00  0.00    -0.000 C 
BRANCH  28  29
ATOM     29  C   UNL     1      -5.721   5.355  11.729  1.00  0.00    -0.003 C 
ATOM     30  C   UNL     1      -6.603   4.107  11.805  1.00  0.00     0.004 C 
ENDBRANCH  28  29
ENDBRANCH  27  28
ENDBRANCH  26  27
ENDBRANCH  25  26
ENDBRANCH  24  25
ENDBRANCH  23  24
ENDBRANCH  22  23
ENDBRANCH  21  22
ENDBRANCH  20  21
ENDBRANCH  19  20
ENDBRANCH  18  19
ENDBRANCH  17  18
ENDBRANCH   1  17
TORSDOF 26
ENDMDL
MODEL 9
REMARK VINA RESULT:    -4.578      1.133      2.973
REMARK INTER + INTRA:         -15.842
REMARK INTER:                 -12.410
REMARK INTRA:                  -3.432
REMARK UNBOUND:                -4.306
REMARK SMILES CCCCCCCCCCCCCCCCCCCCCCCCCCCC(=O)[O-]
REMARK SMILES IDX 15 1 16 2 17 3 18 4 19 5 20 6 21 7 22 8 23 9 24 10 25 11
REMARK SMILES IDX 26 12 27 13 28 14 29 15 30 16 14 17 13 18 12 19 11 20 10 21
REMARK SMILES IDX 9 22 8 23 7 24 6 25 5 26 4 27 3 28 2 29 1 30
REMARK H PARENT
REMARK Flexibility Score: inf
ROOT
ATOM      1  C   UNL     1      -5.066   3.410  15.379  1.00  0.00     0.000 C 
ENDROOT
BRANCH   1   2
ATOM      2  C   UNL     1      -5.019   2.652  16.723  1.00  0.00     0.000 C 
BRANCH   2   3
ATOM      3  C   UNL     1      -3.587   2.518  17.271  1.00  0.00     0.000 C 
BRANCH   3   4
ATOM      4  C   UNL     1      -2.508   2.745  16.199  1.00  0.00     0.000 C 
BRANCH   4   5
ATOM      5  C   UNL     1      -1.216   3.390  16.738  1.00  0.00     0.000 C 
BRANCH   5   6
ATOM      6  C   UNL     1      -1.315   4.925  16.825  1.00  0.00     0.000 C 
BRANCH   6   7
ATOM      7  C   UNL     1       0.069   5.594  16.959  1.00  0.00     0.000 C 
BRANCH   7   8
ATOM      8  C   UNL     1       0.081   7.087  16.592  1.00  0.00     0.000 C 
BRANCH   8   9
ATOM      9  C   UNL     1       1.497   7.683  16.561  1.00  0.00     0.000 C 
BRANCH   9  10
ATOM     10  C   UNL     1       1.834   8.505  17.820  1.00  0.00     0.000 C 
BRANCH  10  11
ATOM     11  C   UNL     1       0.706   8.590  18.867  1.00  0.00     0.000 C 
BRANCH  11  12
ATOM     12  C   UNL     1       1.098   7.984  20.226  1.00  0.00     0.006 C 
BRANCH  12  13
ATOM     13  C   UNL     1       0.077   6.947  20.715  1.00  0.00     0.053 C 
BRANCH  13  14
ATOM     14  C   UNL     1       0.215   6.686  22.184  1.00  0.00     0.041 C 
ATOM     15  O   UNL     1      -0.804   6.444  22.882  1.00  0.00    -0.550 OA
ATOM     16  O   UNL     1       1.470   6.686  22.776  1.00  0.00    -0.550 OA
ENDBRANCH  13  14
ENDBRANCH  12  13
ENDBRANCH  11  12
ENDBRANCH  10  11
ENDBRANCH   9  10
ENDBRANCH   8   9
ENDBRANCH   7   8
ENDBRANCH   6   7
ENDBRANCH   5   6
ENDBRANCH   4   5
ENDBRANCH   3   4
ENDBRANCH   2   3
ENDBRANCH   1   2
BRANCH   1  17
ATOM     17  C   UNL     1      -5.264   4.933  15.521  1.00  0.00     0.000 C 
BRANCH  17  18
ATOM     18  C   UNL     1      -6.198   5.346  16.677  1.00  0.00     0.000 C 
BRANCH  18  19
ATOM     19  C   UNL     1      -6.710   6.798  16.573  1.00  0.00     0.000 C 
BRANCH  19  20
ATOM     20  C   UNL     1      -8.089   6.944  15.896  1.00  0.00     0.000 C 
BRANCH  20  21
ATOM     21  C   UNL     1      -8.072   7.534  14.473  1.00  0.00     0.000 C 
BRANCH  21  22
ATOM     22  C   UNL     1      -6.906   8.511  14.237  1.00  0.00    -0.000 C 
BRANCH  22  23
ATOM     23  C   UNL     1      -6.239   8.309  12.868  1.00  0.00    -0.000 C 
BRANCH  23  24
ATOM     24  C   UNL     1      -4.979   7.427  12.945  1.00  0.00    -0.000 C 
BRANCH  24  25
ATOM     25  C   UNL     1      -4.515   6.956  11.550  1.00  0.00    -0.000 C 
BRANCH  25  26
ATOM     26  C   UNL     1      -5.343   5.787  10.982  1.00  0.00    -0.000 C 
BRANCH  26  27
ATOM     27  C   UNL     1      -5.913   4.822  12.036  1.00  0.00    -0.000 C 
BRANCH  27  28
ATOM     28  C   UNL     1      -7.451   4.804  12.054  1.00  0.00    -0.000 C 
BRANCH  28  29
ATOM     29  C   UNL     1      -8.057   5.400  10.774  1.00  0.00    -0.003 C 
ATOM     30  C   UNL     1      -9.016   6.558  11.059  1.00  0.00     0.004 C 
ENDBRANCH  28  29
ENDBRANCH  27  28
ENDBRANCH  26  27
ENDBRANCH  25  26
ENDBRANCH  24  25
ENDBRANCH  23  24
ENDBRANCH  22  23
ENDBRANCH  21  22
ENDBRANCH  20  21
ENDBRANCH  19  20
ENDBRANCH  18  19
ENDBRANCH  17  18
ENDBRANCH   1  17
TORSDOF 26
ENDMDL
