MODEL 1
REMARK VINA RESULT:    -4.586      0.000      0.000
REMARK INTER + INTRA:         -14.387
REMARK INTER:                 -10.485
REMARK INTRA:                  -3.902
REMARK UNBOUND:                -3.902
REMARK SMILES CCCCCCCCCCCCCCCCCCCCCCCC(=O)[O-]
REMARK SMILES IDX 13 1 14 2 15 3 16 4 17 5 18 6 19 7 20 8 21 9 22 10 23 11
REMARK SMILES IDX 24 12 25 13 26 14 12 15 11 16 10 17 9 18 8 19 7 20 6 21 5 22
REMARK SMILES IDX 4 23 3 24 2 25 1 26
REMARK H PARENT
REMARK Flexibility Score: inf
ROOT
ATOM      1  C   UNL     1       3.295  50.791   0.908  1.00  0.00     0.000 C 
ENDROOT
BRANCH   1   2
ATOM      2  C   UNL     1       3.895  52.118   1.421  1.00  0.00     0.000 C 
BRANCH   2   3
ATOM      3  C   UNL     1       5.434  52.106   1.390  1.00  0.00     0.000 C 
BRANCH   3   4
ATOM      4  C   UNL     1       6.002  52.467   0.010  1.00  0.00     0.000 C 
BRANCH   4   5
ATOM      5  C   UNL     1       7.035  53.604   0.073  1.00  0.00     0.000 C 
BRANCH   5   6
ATOM      6  C   UNL     1       7.974  53.563  -1.139  1.00  0.00     0.000 C 
BRANCH   6   7
ATOM      7  C   UNL     1       8.104  52.134  -1.686  1.00  0.00     0.000 C 
BRANCH   7   8
ATOM      8  C   UNL     1       9.401  51.433  -1.240  1.00  0.00     0.000 C 
BRANCH   8   9
ATOM      9  C   UNL     1      10.642  52.343  -1.168  1.00  0.00     0.000 C 
BRANCH   9  10
ATOM     10  C   UNL     1      11.322  52.324   0.212  1.00  0.00     0.006 C 
BRANCH  10  11
ATOM     11  C   UNL     1      10.518  51.521   1.243  1.00  0.00     0.053 C 
BRANCH  11  12
ATOM     12  C   UNL     1      10.126  52.359   2.421  1.00  0.00     0.041 C 
ATOM     13  O   UNL     1      10.206  51.890   3.587  1.00  0.00    -0.550 OA
ATOM     14  O   UNL     1       9.685  53.664   2.234  1.00  0.00    -0.550 OA
ENDBRANCH  11  12
ENDBRANCH  10  11
ENDBRANCH   9  10
ENDBRANCH   8   9
ENDBRANCH   7   8
ENDBRANCH   6   7
ENDBRANCH   5   6
ENDBRANCH   4   5
ENDBRANCH   3   4
ENDBRANCH   2   3
ENDBRANCH   1   2
BRANCH   1  15
ATOM     15  C   UNL     1       1.910  50.954   0.257  1.00  0.00     0.000 C 
BRANCH  15  16
ATOM     16  C   UNL     1       1.969  51.659  -1.109  1.00  0.00     0.000 C 
BRANCH  16  17
ATOM     17  C   UNL     1       2.251  50.683  -2.272  1.00  0.00     0.000 C 
BRANCH  17  18
ATOM     18  C   UNL     1       2.320  51.361  -3.655  1.00  0.00    -0.000 C 
BRANCH  18  19
ATOM     19  C   UNL     1       3.716  51.387  -4.305  1.00  0.00    -0.000 C 
BRANCH  19  20
ATOM     20  C   UNL     1       4.844  51.956  -3.421  1.00  0.00    -0.000 C 
BRANCH  20  21
ATOM     21  C   UNL     1       5.647  53.109  -4.047  1.00  0.00    -0.000 C 
BRANCH  21  22
ATOM     22  C   UNL     1       5.251  54.486  -3.493  1.00  0.00    -0.000 C 
BRANCH  22  23
ATOM     23  C   UNL     1       4.158  54.348  -2.425  1.00  0.00    -0.000 C 
BRANCH  23  24
ATOM     24  C   UNL     1       4.196  55.525  -1.438  1.00  0.00    -0.000 C 
BRANCH  24  25
ATOM     25  C   UNL     1       3.387  55.251  -0.160  1.00  0.00    -0.003 C 
ATOM     26  C   UNL     1       1.881  55.184  -0.413  1.00  0.00     0.004 C 
ENDBRANCH  24  25
ENDBRANCH  23  24
ENDBRANCH  22  23
ENDBRANCH  21  22
ENDBRANCH  20  21
ENDBRANCH  19  20
ENDBRANCH  18  19
ENDBRANCH  17  18
ENDBRANCH  16  17
ENDBRANCH  15  16
ENDBRANCH   1  15
TORSDOF 22
ENDMDL
MODEL 2
REMARK VINA RESULT:    -4.561      2.199      7.015
REMARK INTER + INTRA:         -14.330
REMARK INTER:                  -9.990
REMARK INTRA:                  -4.340
REMARK UNBOUND:                -3.902
REMARK SMILES CCCCCCCCCCCCCCCCCCCCCCCC(=O)[O-]
REMARK SMILES IDX 13 1 14 2 15 3 16 4 17 5 18 6 19 7 20 8 21 9 22 10 23 11
REMARK SMILES IDX 24 12 25 13 26 14 12 15 11 16 10 17 9 18 8 19 7 20 6 21 5 22
REMARK SMILES IDX 4 23 3 24 2 25 1 26
REMARK H PARENT
REMARK Flexibility Score: inf
ROOT
ATOM      1  C   UNL     1       7.482  51.867  -1.758  1.00  0.00     0.000 C 
ENDROOT
BRANCH   1   2
ATOM      2  C   UNL     1       6.849  53.244  -2.055  1.00  0.00     0.000 C 
BRANCH   2   3
ATOM      3  C   UNL     1       5.492  53.113  -2.770  1.00  0.00     0.000 C 
BRANCH   3   4
ATOM      4  C   UNL     1       5.395  51.844  -3.629  1.00  0.00     0.000 C 
BRANCH   4   5
ATOM      5  C   UNL     1       3.943  51.426  -3.910  1.00  0.00     0.000 C 
BRANCH   5   6
ATOM      6  C   UNL     1       2.985  52.035  -2.878  1.00  0.00     0.000 C 
BRANCH   6   7
ATOM      7  C   UNL     1       2.334  50.941  -2.020  1.00  0.00     0.000 C 
BRANCH   7   8
ATOM      8  C   UNL     1       2.075  51.389  -0.568  1.00  0.00     0.000 C 
BRANCH   8   9
ATOM      9  C   UNL     1       3.154  50.969   0.446  1.00  0.00     0.000 C 
BRANCH   9  10
ATOM     10  C   UNL     1       4.307  51.983   0.552  1.00  0.00     0.006 C 
BRANCH  10  11
ATOM     11  C   UNL     1       3.960  53.160   1.473  1.00  0.00     0.053 C 
BRANCH  11  12
ATOM     12  C   UNL     1       3.953  54.463   0.735  1.00  0.00     0.041 C 
ATOM     13  O   UNL     1       3.267  54.594  -0.312  1.00  0.00    -0.550 OA
ATOM     14  O   UNL     1       4.693  55.539   1.213  1.00  0.00    -0.550 OA
ENDBRANCH  11  12
ENDBRANCH  10  11
ENDBRANCH   9  10
ENDBRANCH   8   9
ENDBRANCH   7   8
ENDBRANCH   6   7
ENDBRANCH   5   6
ENDBRANCH   4   5
ENDBRANCH   3   4
ENDBRANCH   2   3
ENDBRANCH   1   2
BRANCH   1  15
ATOM     15  C   UNL     1       8.979  51.941  -1.409  1.00  0.00     0.000 C 
BRANCH  15  16
ATOM     16  C   UNL     1       9.550  53.365  -1.521  1.00  0.00     0.000 C 
BRANCH  16  17
ATOM     17  C   UNL     1      10.980  53.481  -0.949  1.00  0.00     0.000 C 
BRANCH  17  18
ATOM     18  C   UNL     1      11.420  52.264  -0.112  1.00  0.00    -0.000 C 
BRANCH  18  19
ATOM     19  C   UNL     1      11.811  52.576   1.346  1.00  0.00    -0.000 C 
BRANCH  19  20
ATOM     20  C   UNL     1      11.457  51.481   2.372  1.00  0.00    -0.000 C 
BRANCH  20  21
ATOM     21  C   UNL     1       9.987  51.028   2.364  1.00  0.00    -0.000 C 
BRANCH  21  22
ATOM     22  C   UNL     1       9.034  52.074   2.961  1.00  0.00    -0.000 C 
BRANCH  22  23
ATOM     23  C   UNL     1       7.786  52.236   2.083  1.00  0.00    -0.000 C 
BRANCH  23  24
ATOM     24  C   UNL     1       7.622  53.691   1.616  1.00  0.00    -0.000 C 
BRANCH  24  25
ATOM     25  C   UNL     1       8.765  54.598   2.097  1.00  0.00    -0.003 C 
ATOM     26  C   UNL     1       8.950  55.836   1.221  1.00  0.00     0.004 C 
ENDBRANCH  24  25
ENDBRANCH  23  24
ENDBRANCH  22  23
ENDBRANCH  21  22
ENDBRANCH  20  21
ENDBRANCH  19  20
ENDBRANCH  18  19
ENDBRANCH  17  18
ENDBRANCH  16  17
ENDBRANCH  15  16
ENDBRANCH   1  15
TORSDOF 22
ENDMDL
MODEL 3
REMARK VINA RESULT:    -4.509      2.294      6.091
REMARK INTER + INTRA:         -14.209
REMARK INTER:                 -10.099
REMARK INTRA:                  -4.110
REMARK UNBOUND:                -3.902
REMARK SMILES CCCCCCCCCCCCCCCCCCCCCCCC(=O)[O-]
REMARK SMILES IDX 13 1 14 2 15 3 16 4 17 5 18 6 19 7 20 8 21 9 22 10 23 11
REMARK SMILES IDX 24 12 25 13 26 14 12 15 11 16 10 17 9 18 8 19 7 20 6 21 5 22
REMARK SMILES IDX 4 23 3 24 2 25 1 26
REMARK H PARENT
REMARK Flexibility Score: inf
ROOT
ATOM      1  C   UNL     1       2.551  52.325  -0.062  1.00  0.00     0.000 C 
ENDROOT
BRANCH   1   2
ATOM      2  C   UNL     1       1.921  52.277  -1.471  1.00  0.00     0.000 C 
BRANCH   2   3
ATOM      3  C   UNL     1       2.272  50.977  -2.216  1.00  0.00     0.000 C 
BRANCH   3   4
ATOM      4  C   UNL     1       2.350  51.168  -3.737  1.00  0.00     0.000 C 
BRANCH   4   5
ATOM      5  C   UNL     1       3.468  52.135  -4.158  1.00  0.00     0.000 C 
BRANCH   5   6
ATOM      6  C   UNL     1       4.842  51.458  -4.077  1.00  0.00     0.000 C 
BRANCH   6   7
ATOM      7  C   UNL     1       5.677  52.043  -2.929  1.00  0.00     0.000 C 
BRANCH   7   8
ATOM      8  C   UNL     1       6.329  53.393  -3.284  1.00  0.00     0.000 C 
BRANCH   8   9
ATOM      9  C   UNL     1       6.230  54.473  -2.191  1.00  0.00     0.000 C 
BRANCH   9  10
ATOM     10  C   UNL     1       4.866  55.184  -2.169  1.00  0.00     0.006 C 
BRANCH  10  11
ATOM     11  C   UNL     1       4.288  55.286  -0.751  1.00  0.00     0.053 C 
BRANCH  11  12
ATOM     12  C   UNL     1       4.460  56.657  -0.175  1.00  0.00     0.041 C 
ATOM     13  O   UNL     1       3.471  57.270   0.308  1.00  0.00    -0.550 OA
ATOM     14  O   UNL     1       5.716  57.254  -0.156  1.00  0.00    -0.550 OA
ENDBRANCH  11  12
ENDBRANCH  10  11
ENDBRANCH   9  10
ENDBRANCH   8   9
ENDBRANCH   7   8
ENDBRANCH   6   7
ENDBRANCH   5   6
ENDBRANCH   4   5
ENDBRANCH   3   4
ENDBRANCH   2   3
ENDBRANCH   1   2
BRANCH   1  15
ATOM     15  C   UNL     1       3.582  51.210   0.189  1.00  0.00     0.000 C 
BRANCH  15  16
ATOM     16  C   UNL     1       4.617  51.582   1.264  1.00  0.00     0.000 C 
BRANCH  16  17
ATOM     17  C   UNL     1       5.885  52.235   0.672  1.00  0.00     0.000 C 
BRANCH  17  18
ATOM     18  C   UNL     1       6.821  52.856   1.727  1.00  0.00    -0.000 C 
BRANCH  18  19
ATOM     19  C   UNL     1       7.166  54.341   1.506  1.00  0.00    -0.000 C 
BRANCH  19  20
ATOM     20  C   UNL     1       8.672  54.672   1.486  1.00  0.00    -0.000 C 
BRANCH  20  21
ATOM     21  C   UNL     1       9.232  55.086   0.115  1.00  0.00    -0.000 C 
BRANCH  21  22
ATOM     22  C   UNL     1      10.734  54.802  -0.030  1.00  0.00    -0.000 C 
BRANCH  22  23
ATOM     23  C   UNL     1      10.975  53.627  -0.988  1.00  0.00    -0.000 C 
BRANCH  23  24
ATOM     24  C   UNL     1      11.197  52.317  -0.215  1.00  0.00    -0.000 C 
BRANCH  24  25
ATOM     25  C   UNL     1       9.919  51.471  -0.106  1.00  0.00    -0.003 C 
ATOM     26  C   UNL     1       9.043  51.554  -1.356  1.00  0.00     0.004 C 
ENDBRANCH  24  25
ENDBRANCH  23  24
ENDBRANCH  22  23
ENDBRANCH  21  22
ENDBRANCH  20  21
ENDBRANCH  19  20
ENDBRANCH  18  19
ENDBRANCH  17  18
ENDBRANCH  16  17
ENDBRANCH  15  16
ENDBRANCH   1  15
TORSDOF 22
ENDMDL
MODEL 4
REMARK VINA RESULT:    -4.475      2.149      3.289
REMARK INTER + INTRA:         -14.132
REMARK INTER:                 -10.201
REMARK INTRA:                  -3.931
REMARK UNBOUND:                -3.902
REMARK SMILES CCCCCCCCCCCCCCCCCCCCCCCC(=O)[O-]
REMARK SMILES IDX 13 1 14 2 15 3 16 4 17 5 18 6 19 7 20 8 21 9 22 10 23 11
REMARK SMILES IDX 24 12 25 13 26 14 12 15 11 16 10 17 9 18 8 19 7 20 6 21 5 22
REMARK SMILES IDX 4 23 3 24 2 25 1 26
REMARK H PARENT
REMARK Flexibility Score: inf
ROOT
ATOM      1  C   UNL     1       3.746  52.667   1.172  1.00  0.00     0.000 C 
ENDROOT
BRANCH   1   2
ATOM      2  C   UNL     1       5.174  53.249   1.100  1.00  0.00     0.000 C 
BRANCH   2   3
ATOM      3  C   UNL     1       6.240  52.210   1.494  1.00  0.00     0.000 C 
BRANCH   3   4
ATOM      4  C   UNL     1       7.672  52.750   1.360  1.00  0.00     0.000 C 
BRANCH   4   5
ATOM      5  C   UNL     1       8.638  52.130   2.381  1.00  0.00     0.000 C 
BRANCH   5   6
ATOM      6  C   UNL     1       9.936  51.672   1.705  1.00  0.00     0.000 C 
BRANCH   6   7
ATOM      7  C   UNL     1       9.767  51.602   0.180  1.00  0.00     0.000 C 
BRANCH   7   8
ATOM      8  C   UNL     1      10.998  52.121  -0.587  1.00  0.00     0.000 C 
BRANCH   8   9
ATOM      9  C   UNL     1      10.818  53.498  -1.253  1.00  0.00     0.000 C 
BRANCH   9  10
ATOM     10  C   UNL     1      11.131  54.670  -0.306  1.00  0.00     0.006 C 
BRANCH  10  11
ATOM     11  C   UNL     1       9.859  55.361   0.200  1.00  0.00     0.053 C 
BRANCH  11  12
ATOM     12  C   UNL     1       9.795  56.796  -0.224  1.00  0.00     0.041 C 
ATOM     13  O   UNL     1       9.855  57.714   0.636  1.00  0.00    -0.550 OA
ATOM     14  O   UNL     1       9.685  57.121  -1.571  1.00  0.00    -0.550 OA
ENDBRANCH  11  12
ENDBRANCH  10  11
ENDBRANCH   9  10
ENDBRANCH   8   9
ENDBRANCH   7   8
ENDBRANCH   6   7
ENDBRANCH   5   6
ENDBRANCH   4   5
ENDBRANCH   3   4
ENDBRANCH   2   3
ENDBRANCH   1   2
BRANCH   1  15
ATOM     15  C   UNL     1       3.712  51.134   1.299  1.00  0.00     0.000 C 
BRANCH  15  16
ATOM     16  C   UNL     1       2.562  50.492   0.504  1.00  0.00     0.000 C 
BRANCH  16  17
ATOM     17  C   UNL     1       2.089  51.370  -0.675  1.00  0.00     0.000 C 
BRANCH  17  18
ATOM     18  C   UNL     1       2.197  50.683  -2.050  1.00  0.00    -0.000 C 
BRANCH  18  19
ATOM     19  C   UNL     1       2.976  51.472  -3.119  1.00  0.00    -0.000 C 
BRANCH  19  20
ATOM     20  C   UNL     1       4.134  52.339  -2.586  1.00  0.00    -0.000 C 
BRANCH  20  21
ATOM     21  C   UNL     1       5.514  52.033  -3.194  1.00  0.00    -0.000 C 
BRANCH  21  22
ATOM     22  C   UNL     1       6.644  52.046  -2.155  1.00  0.00    -0.000 C 
BRANCH  22  23
ATOM     23  C   UNL     1       7.548  53.270  -2.351  1.00  0.00    -0.000 C 
BRANCH  23  24
ATOM     24  C   UNL     1       6.894  54.539  -1.783  1.00  0.00    -0.000 C 
BRANCH  24  25
ATOM     25  C   UNL     1       6.660  55.614  -2.856  1.00  0.00    -0.003 C 
ATOM     26  C   UNL     1       7.492  55.385  -4.118  1.00  0.00     0.004 C 
ENDBRANCH  24  25
ENDBRANCH  23  24
ENDBRANCH  22  23
ENDBRANCH  21  22
ENDBRANCH  20  21
ENDBRANCH  19  20
ENDBRANCH  18  19
ENDBRANCH  17  18
ENDBRANCH  16  17
ENDBRANCH  15  16
ENDBRANCH   1  15
TORSDOF 22
ENDMDL
MODEL 5
REMARK VINA RESULT:    -4.444      2.491      5.615
REMARK INTER + INTRA:         -14.061
REMARK INTER:                 -10.351
REMARK INTRA:                  -3.709
REMARK UNBOUND:                -3.902
REMARK SMILES CCCCCCCCCCCCCCCCCCCCCCCC(=O)[O-]
REMARK SMILES IDX 13 1 14 2 15 3 16 4 17 5 18 6 19 7 20 8 21 9 22 10 23 11
REMARK SMILES IDX 24 12 25 13 26 14 12 15 11 16 10 17 9 18 8 19 7 20 6 21 5 22
REMARK SMILES IDX 4 23 3 24 2 25 1 26
REMARK H PARENT
REMARK Flexibility Score: inf
ROOT
ATOM      1  C   UNL     1       2.252  50.975  -2.203  1.00  0.00     0.000 C 
ENDROOT
BRANCH   1   2
ATOM      2  C   UNL     1       2.410  51.129  -3.731  1.00  0.00     0.000 C 
BRANCH   2   3
ATOM      3  C   UNL     1       3.886  51.246  -4.150  1.00  0.00     0.000 C 
BRANCH   3   4
ATOM      4  C   UNL     1       4.351  52.704  -4.283  1.00  0.00     0.000 C 
BRANCH   4   5
ATOM      5  C   UNL     1       5.295  53.132  -3.149  1.00  0.00     0.000 C 
BRANCH   5   6
ATOM      6  C   UNL     1       6.078  51.933  -2.600  1.00  0.00     0.000 C 
BRANCH   6   7
ATOM      7  C   UNL     1       7.415  52.381  -1.992  1.00  0.00     0.000 C 
BRANCH   7   8
ATOM      8  C   UNL     1       7.404  53.850  -1.529  1.00  0.00     0.000 C 
BRANCH   8   9
ATOM      9  C   UNL     1       8.444  54.757  -2.213  1.00  0.00     0.000 C 
BRANCH   9  10
ATOM     10  C   UNL     1       9.070  55.785  -1.254  1.00  0.00     0.006 C 
BRANCH  10  11
ATOM     11  C   UNL     1       8.190  57.031  -1.087  1.00  0.00     0.053 C 
BRANCH  11  12
ATOM     12  C   UNL     1       8.989  58.295  -1.168  1.00  0.00     0.041 C 
ATOM     13  O   UNL     1       9.999  58.358  -1.918  1.00  0.00    -0.550 OA
ATOM     14  O   UNL     1       8.611  59.409  -0.428  1.00  0.00    -0.550 OA
ENDBRANCH  11  12
ENDBRANCH  10  11
ENDBRANCH   9  10
ENDBRANCH   8   9
ENDBRANCH   7   8
ENDBRANCH   6   7
ENDBRANCH   5   6
ENDBRANCH   4   5
ENDBRANCH   3   4
ENDBRANCH   2   3
ENDBRANCH   1   2
BRANCH   1  15
ATOM     15  C   UNL     1       1.884  52.287  -1.488  1.00  0.00     0.000 C 
BRANCH  15  16
ATOM     16  C   UNL     1       2.678  52.503  -0.188  1.00  0.00     0.000 C 
BRANCH  16  17
ATOM     17  C   UNL     1       2.889  51.196   0.607  1.00  0.00     0.000 C 
BRANCH  17  18
ATOM     18  C   UNL     1       4.132  51.211   1.518  1.00  0.00    -0.000 C 
BRANCH  18  19
ATOM     19  C   UNL     1       5.291  52.102   1.033  1.00  0.00    -0.000 C 
BRANCH  19  20
ATOM     20  C   UNL     1       6.561  52.066   1.908  1.00  0.00    -0.000 C 
BRANCH  20  21
ATOM     21  C   UNL     1       7.323  53.398   2.010  1.00  0.00    -0.000 C 
BRANCH  21  22
ATOM     22  C   UNL     1       8.831  53.248   1.761  1.00  0.00    -0.000 C 
BRANCH  22  23
ATOM     23  C   UNL     1       9.235  51.768   1.756  1.00  0.00    -0.000 C 
BRANCH  23  24
ATOM     24  C   UNL     1      10.158  51.449   0.568  1.00  0.00    -0.000 C 
BRANCH  24  25
ATOM     25  C   UNL     1      10.742  52.713  -0.082  1.00  0.00    -0.003 C 
ATOM     26  C   UNL     1      11.421  52.433  -1.422  1.00  0.00     0.004 C 
ENDBRANCH  24  25
ENDBRANCH  23  24
ENDBRANCH  22  23
ENDBRANCH  21  22
ENDBRANCH  20  21
ENDBRANCH  19  20
ENDBRANCH  18  19
ENDBRANCH  17  18
ENDBRANCH  16  17
ENDBRANCH  15  16
ENDBRANCH   1  15
TORSDOF 22
ENDMDL
MODEL 6
REMARK VINA RESULT:    -4.405      2.428      5.001
REMARK INTER + INTRA:         -13.973
REMARK INTER:                 -10.250
REMARK INTRA:                  -3.723
REMARK UNBOUND:                -3.902
REMARK SMILES CCCCCCCCCCCCCCCCCCCCCCCC(=O)[O-]
REMARK SMILES IDX 13 1 14 2 15 3 16 4 17 5 18 6 19 7 20 8 21 9 22 10 23 11
REMARK SMILES IDX 24 12 25 13 26 14 12 15 11 16 10 17 9 18 8 19 7 20 6 21 5 22
REMARK SMILES IDX 4 23 3 24 2 25 1 26
REMARK H PARENT
REMARK Flexibility Score: inf
ROOT
ATOM      1  C   UNL     1       2.000  51.475  -1.160  1.00  0.00     0.000 C 
ENDROOT
BRANCH   1   2
ATOM      2  C   UNL     1       2.338  50.547   0.027  1.00  0.00     0.000 C 
BRANCH   2   3
ATOM      3  C   UNL     1       3.229  51.246   1.069  1.00  0.00     0.000 C 
BRANCH   3   4
ATOM      4  C   UNL     1       3.426  52.740   0.775  1.00  0.00     0.000 C 
BRANCH   4   5
ATOM      5  C   UNL     1       4.840  53.232   1.120  1.00  0.00     0.000 C 
BRANCH   5   6
ATOM      6  C   UNL     1       5.772  52.056   1.435  1.00  0.00     0.000 C 
BRANCH   6   7
ATOM      7  C   UNL     1       7.054  52.540   2.129  1.00  0.00     0.000 C 
BRANCH   7   8
ATOM      8  C   UNL     1       7.053  54.055   2.408  1.00  0.00     0.000 C 
BRANCH   8   9
ATOM      9  C   UNL     1       8.359  54.785   2.047  1.00  0.00     0.000 C 
BRANCH   9  10
ATOM     10  C   UNL     1       8.124  56.199   1.488  1.00  0.00     0.006 C 
BRANCH  10  11
ATOM     11  C   UNL     1       6.860  56.276   0.621  1.00  0.00     0.053 C 
BRANCH  11  12
ATOM     12  C   UNL     1       5.994  57.439   0.996  1.00  0.00     0.041 C 
ATOM     13  O   UNL     1       4.891  57.619   0.418  1.00  0.00    -0.550 OA
ATOM     14  O   UNL     1       6.399  58.316   1.996  1.00  0.00    -0.550 OA
ENDBRANCH  11  12
ENDBRANCH  10  11
ENDBRANCH   9  10
ENDBRANCH   8   9
ENDBRANCH   7   8
ENDBRANCH   6   7
ENDBRANCH   5   6
ENDBRANCH   4   5
ENDBRANCH   3   4
ENDBRANCH   2   3
ENDBRANCH   1   2
BRANCH   1  15
ATOM     15  C   UNL     1       2.055  50.770  -2.527  1.00  0.00     0.000 C 
BRANCH  15  16
ATOM     16  C   UNL     1       2.652  51.655  -3.634  1.00  0.00     0.000 C 
BRANCH  16  17
ATOM     17  C   UNL     1       4.009  51.130  -4.151  1.00  0.00     0.000 C 
BRANCH  17  18
ATOM     18  C   UNL     1       5.167  52.136  -4.004  1.00  0.00    -0.000 C 
BRANCH  18  19
ATOM     19  C   UNL     1       5.543  52.498  -2.554  1.00  0.00    -0.000 C 
BRANCH  19  20
ATOM     20  C   UNL     1       6.484  53.710  -2.401  1.00  0.00    -0.000 C 
BRANCH  20  21
ATOM     21  C   UNL     1       7.669  53.499  -1.443  1.00  0.00    -0.000 C 
BRANCH  21  22
ATOM     22  C   UNL     1       8.206  52.061  -1.459  1.00  0.00    -0.000 C 
BRANCH  22  23
ATOM     23  C   UNL     1       9.481  51.947  -0.612  1.00  0.00    -0.000 C 
BRANCH  23  24
ATOM     24  C   UNL     1      10.730  51.841  -1.501  1.00  0.00    -0.000 C 
BRANCH  24  25
ATOM     25  C   UNL     1      11.633  53.081  -1.401  1.00  0.00    -0.003 C 
ATOM     26  C   UNL     1      11.144  54.090  -0.362  1.00  0.00     0.004 C 
ENDBRANCH  24  25
ENDBRANCH  23  24
ENDBRANCH  22  23
ENDBRANCH  21  22
ENDBRANCH  20  21
ENDBRANCH  19  20
ENDBRANCH  18  19
ENDBRANCH  17  18
ENDBRANCH  16  17
ENDBRANCH  15  16
ENDBRANCH   1  15
TORSDOF 22
ENDMDL
MODEL 7
REMARK VINA RESULT:    -4.379      2.136      5.633
REMARK INTER + INTRA:         -13.913
REMARK INTER:                  -9.727
REMARK INTRA:                  -4.186
REMARK UNBOUND:                -3.902
REMARK SMILES CCCCCCCCCCCCCCCCCCCCCCCC(=O)[O-]
REMARK SMILES IDX 13 1 14 2 15 3 16 4 17 5 18 6 19 7 20 8 21 9 22 10 23 11
REMARK SMILES IDX 24 12 25 13 26 14 12 15 11 16 10 17 9 18 8 19 7 20 6 21 5 22
REMARK SMILES IDX 4 23 3 24 2 25 1 26
REMARK H PARENT
REMARK Flexibility Score: inf
ROOT
ATOM      1  C   UNL     1       4.386  51.986  -3.190  1.00  0.00     0.000 C 
ENDROOT
BRANCH   1   2
ATOM      2  C   UNL     1       3.756  53.252  -2.570  1.00  0.00     0.000 C 
BRANCH   2   3
ATOM      3  C   UNL     1       2.260  53.059  -2.263  1.00  0.00     0.000 C 
BRANCH   3   4
ATOM      4  C   UNL     1       1.965  51.724  -1.564  1.00  0.00     0.000 C 
BRANCH   4   5
ATOM      5  C   UNL     1       2.095  51.812  -0.035  1.00  0.00     0.000 C 
BRANCH   5   6
ATOM      6  C   UNL     1       3.367  51.108   0.452  1.00  0.00     0.000 C 
BRANCH   6   7
ATOM      7  C   UNL     1       4.333  52.106   1.106  1.00  0.00     0.000 C 
BRANCH   7   8
ATOM      8  C   UNL     1       3.810  53.555   1.082  1.00  0.00     0.000 C 
BRANCH   8   9
ATOM      9  C   UNL     1       4.685  54.577   1.831  1.00  0.00     0.000 C 
BRANCH   9  10
ATOM     10  C   UNL     1       5.780  55.196   0.945  1.00  0.00     0.006 C 
BRANCH  10  11
ATOM     11  C   UNL     1       7.173  55.073   1.576  1.00  0.00     0.053 C 
BRANCH  11  12
ATOM     12  C   UNL     1       7.552  56.303   2.340  1.00  0.00     0.041 C 
ATOM     13  O   UNL     1       7.934  57.336   1.729  1.00  0.00    -0.550 OA
ATOM     14  O   UNL     1       7.468  56.317   3.728  1.00  0.00    -0.550 OA
ENDBRANCH  11  12
ENDBRANCH  10  11
ENDBRANCH   9  10
ENDBRANCH   8   9
ENDBRANCH   7   8
ENDBRANCH   6   7
ENDBRANCH   5   6
ENDBRANCH   4   5
ENDBRANCH   3   4
ENDBRANCH   2   3
ENDBRANCH   1   2
BRANCH   1  15
ATOM     15  C   UNL     1       5.910  51.900  -2.996  1.00  0.00     0.000 C 
BRANCH  15  16
ATOM     16  C   UNL     1       6.445  52.937  -1.993  1.00  0.00     0.000 C 
BRANCH  16  17
ATOM     17  C   UNL     1       7.373  52.313  -0.928  1.00  0.00     0.000 C 
BRANCH  17  18
ATOM     18  C   UNL     1       8.754  51.894  -1.468  1.00  0.00    -0.000 C 
BRANCH  18  19
ATOM     19  C   UNL     1       9.792  51.516  -0.393  1.00  0.00    -0.000 C 
BRANCH  19  20
ATOM     20  C   UNL     1      11.149  52.241  -0.505  1.00  0.00    -0.000 C 
BRANCH  20  21
ATOM     21  C   UNL     1      11.086  53.657  -1.103  1.00  0.00    -0.000 C 
BRANCH  21  22
ATOM     22  C   UNL     1      10.894  54.749  -0.041  1.00  0.00    -0.000 C 
BRANCH  22  23
ATOM     23  C   UNL     1      10.224  55.988  -0.651  1.00  0.00    -0.000 C 
BRANCH  23  24
ATOM     24  C   UNL     1       9.020  55.596  -1.522  1.00  0.00    -0.000 C 
BRANCH  24  25
ATOM     25  C   UNL     1       8.089  56.783  -1.812  1.00  0.00    -0.003 C 
ATOM     26  C   UNL     1       6.986  56.443  -2.814  1.00  0.00     0.004 C 
ENDBRANCH  24  25
ENDBRANCH  23  24
ENDBRANCH  22  23
ENDBRANCH  21  22
ENDBRANCH  20  21
ENDBRANCH  19  20
ENDBRANCH  18  19
ENDBRANCH  17  18
ENDBRANCH  16  17
ENDBRANCH  15  16
ENDBRANCH   1  15
TORSDOF 22
ENDMDL
MODEL 8
REMARK VINA RESULT:    -4.377      1.703      2.461
REMARK INTER + INTRA:         -13.909
REMARK INTER:                 -10.073
REMARK INTRA:                  -3.836
REMARK UNBOUND:                -3.902
REMARK SMILES CCCCCCCCCCCCCCCCCCCCCCCC(=O)[O-]
REMARK SMILES IDX 13 1 14 2 15 3 16 4 17 5 18 6 19 7 20 8 21 9 22 10 23 11
REMARK SMILES IDX 24 12 25 13 26 14 12 15 11 16 10 17 9 18 8 19 7 20 6 21 5 22
REMARK SMILES IDX 4 23 3 24 2 25 1 26
REMARK H PARENT
REMARK Flexibility Score: inf
ROOT
ATOM      1  C   UNL     1       3.361  50.755   1.548  1.00  0.00     0.000 C 
ENDROOT
BRANCH   1   2
ATOM      2  C   UNL     1       4.150  52.061   1.306  1.00  0.00     0.000 C 
BRANCH   2   3
ATOM      3  C   UNL     1       5.653  51.886   1.585  1.00  0.00     0.000 C 
BRANCH   3   4
ATOM      4  C   UNL     1       6.393  53.227   1.706  1.00  0.00     0.000 C 
BRANCH   4   5
ATOM      5  C   UNL     1       7.912  53.085   1.521  1.00  0.00     0.000 C 
BRANCH   5   6
ATOM      6  C   UNL     1       8.501  52.094   2.532  1.00  0.00     0.000 C 
BRANCH   6   7
ATOM      7  C   UNL     1       9.719  51.366   1.944  1.00  0.00     0.000 C 
BRANCH   7   8
ATOM      8  C   UNL     1       9.907  51.627   0.437  1.00  0.00     0.000 C 
BRANCH   8   9
ATOM      9  C   UNL     1      11.328  52.050   0.022  1.00  0.00     0.000 C 
BRANCH   9  10
ATOM     10  C   UNL     1      11.342  53.042  -1.155  1.00  0.00     0.006 C 
BRANCH  10  11
ATOM     11  C   UNL     1      10.111  53.958  -1.153  1.00  0.00     0.053 C 
BRANCH  11  12
ATOM     12  C   UNL     1      10.420  55.307  -0.579  1.00  0.00     0.041 C 
ATOM     13  O   UNL     1       9.892  56.339  -1.069  1.00  0.00    -0.550 OA
ATOM     14  O   UNL     1      11.279  55.423   0.508  1.00  0.00    -0.550 OA
ENDBRANCH  11  12
ENDBRANCH  10  11
ENDBRANCH   9  10
ENDBRANCH   8   9
ENDBRANCH   7   8
ENDBRANCH   6   7
ENDBRANCH   5   6
ENDBRANCH   4   5
ENDBRANCH   3   4
ENDBRANCH   2   3
ENDBRANCH   1   2
BRANCH   1  15
ATOM     15  C   UNL     1       2.348  50.434   0.436  1.00  0.00     0.000 C 
BRANCH  15  16
ATOM     16  C   UNL     1       2.002  51.658  -0.430  1.00  0.00     0.000 C 
BRANCH  16  17
ATOM     17  C   UNL     1       2.444  51.491  -1.901  1.00  0.00     0.000 C 
BRANCH  17  18
ATOM     18  C   UNL     1       3.521  52.498  -2.348  1.00  0.00    -0.000 C 
BRANCH  18  19
ATOM     19  C   UNL     1       4.861  51.875  -2.786  1.00  0.00    -0.000 C 
BRANCH  19  20
ATOM     20  C   UNL     1       6.105  52.398  -2.040  1.00  0.00    -0.000 C 
BRANCH  20  21
ATOM     21  C   UNL     1       6.657  53.740  -2.551  1.00  0.00    -0.000 C 
BRANCH  21  22
ATOM     22  C   UNL     1       6.582  54.858  -1.502  1.00  0.00    -0.000 C 
BRANCH  22  23
ATOM     23  C   UNL     1       5.309  55.694  -1.689  1.00  0.00    -0.000 C 
BRANCH  23  24
ATOM     24  C   UNL     1       4.903  56.388  -0.379  1.00  0.00    -0.000 C 
BRANCH  24  25
ATOM     25  C   UNL     1       3.891  55.568   0.436  1.00  0.00    -0.003 C 
ATOM     26  C   UNL     1       2.566  55.361  -0.297  1.00  0.00     0.004 C 
ENDBRANCH  24  25
ENDBRANCH  23  24
ENDBRANCH  22  23
ENDBRANCH  21  22
ENDBRANCH  20  21
ENDBRANCH  19  20
ENDBRANCH  18  19
ENDBRANCH  17  18
ENDBRANCH  16  17
ENDBRANCH  15  16
ENDBRANCH   1  15
TORSDOF 22
ENDMDL
MODEL 9
REMARK VINA RESULT:    -4.357      3.227      5.587
REMARK INTER + INTRA:         -13.862
REMARK INTER:                  -9.943
REMARK INTRA:                  -3.919
REMARK UNBOUND:                -3.902
REMARK SMILES CCCCCCCCCCCCCCCCCCCCCCCC(=O)[O-]
REMARK SMILES IDX 13 1 14 2 15 3 16 4 17 5 18 6 19 7 20 8 21 9 22 10 23 11
REMARK SMILES IDX 24 12 25 13 26 14 12 15 11 16 10 17 9 18 8 19 7 20 6 21 5 22
REMARK SMILES IDX 4 23 3 24 2 25 1 26
REMARK H PARENT
REMARK Flexibility Score: inf
ROOT
ATOM      1  C   UNL     1       3.979  51.292   1.496  1.00  0.00     0.000 C 
ENDROOT
BRANCH   1   2
ATOM      2  C   UNL     1       5.139  51.871   0.657  1.00  0.00     0.000 C 
BRANCH   2   3
ATOM      3  C   UNL     1       5.487  53.312   1.071  1.00  0.00     0.000 C 
BRANCH   3   4
ATOM      4  C   UNL     1       4.247  54.139   1.440  1.00  0.00     0.000 C 
BRANCH   4   5
ATOM      5  C   UNL     1       4.117  55.420   0.601  1.00  0.00     0.000 C 
BRANCH   5   6
ATOM      6  C   UNL     1       5.127  55.429  -0.553  1.00  0.00     0.000 C 
BRANCH   6   7
ATOM      7  C   UNL     1       4.438  55.758  -1.885  1.00  0.00     0.000 C 
BRANCH   7   8
ATOM      8  C   UNL     1       5.390  56.396  -2.915  1.00  0.00     0.000 C 
BRANCH   8   9
ATOM      9  C   UNL     1       6.851  56.541  -2.450  1.00  0.00     0.000 C 
BRANCH   9  10
ATOM     10  C   UNL     1       7.849  56.629  -3.617  1.00  0.00     0.006 C 
BRANCH  10  11
ATOM     11  C   UNL     1       7.531  55.620  -4.728  1.00  0.00     0.053 C 
BRANCH  11  12
ATOM     12  C   UNL     1       7.365  56.286  -6.059  1.00  0.00     0.041 C 
ATOM     13  O   UNL     1       6.967  55.625  -7.053  1.00  0.00    -0.550 OA
ATOM     14  O   UNL     1       7.635  57.643  -6.198  1.00  0.00    -0.550 OA
ENDBRANCH  11  12
ENDBRANCH  10  11
ENDBRANCH   9  10
ENDBRANCH   8   9
ENDBRANCH   7   8
ENDBRANCH   6   7
ENDBRANCH   5   6
ENDBRANCH   4   5
ENDBRANCH   3   4
ENDBRANCH   2   3
ENDBRANCH   1   2
BRANCH   1  15
ATOM     15  C   UNL     1       2.807  50.770   0.648  1.00  0.00     0.000 C 
BRANCH  15  16
ATOM     16  C   UNL     1       2.490  51.672  -0.557  1.00  0.00     0.000 C 
BRANCH  16  17
ATOM     17  C   UNL     1       2.109  50.870  -1.820  1.00  0.00     0.000 C 
BRANCH  17  18
ATOM     18  C   UNL     1       2.969  51.201  -3.055  1.00  0.00    -0.000 C 
BRANCH  18  19
ATOM     19  C   UNL     1       4.056  52.270  -2.831  1.00  0.00    -0.000 C 
BRANCH  19  20
ATOM     20  C   UNL     1       5.506  51.791  -3.048  1.00  0.00    -0.000 C 
BRANCH  20  21
ATOM     21  C   UNL     1       6.591  52.847  -2.778  1.00  0.00    -0.000 C 
BRANCH  21  22
ATOM     22  C   UNL     1       7.749  52.313  -1.922  1.00  0.00    -0.000 C 
BRANCH  22  23
ATOM     23  C   UNL     1       8.394  53.445  -1.112  1.00  0.00    -0.000 C 
BRANCH  23  24
ATOM     24  C   UNL     1       9.437  52.898  -0.125  1.00  0.00    -0.000 C 
BRANCH  24  25
ATOM     25  C   UNL     1      10.405  51.900  -0.782  1.00  0.00    -0.003 C 
ATOM     26  C   UNL     1      11.512  52.585  -1.582  1.00  0.00     0.004 C 
ENDBRANCH  24  25
ENDBRANCH  23  24
ENDBRANCH  22  23
ENDBRANCH  21  22
ENDBRANCH  20  21
ENDBRANCH  19  20
ENDBRANCH  18  19
ENDBRANCH  17  18
ENDBRANCH  16  17
ENDBRANCH  15  16
ENDBRANCH   1  15
TORSDOF 22
ENDMDL
