MODEL 1
REMARK VINA RESULT:    -4.414      0.000      0.000
REMARK INTER + INTRA:         -17.249
REMARK INTER:                 -11.638
REMARK INTRA:                  -5.611
REMARK UNBOUND:                -5.611
REMARK SMILES CCCCCCCCCCCCCCCCCCCCCCCCCCCCCC(=O)[O-]
REMARK SMILES IDX 16 1 17 2 18 3 19 4 20 5 21 6 22 7 23 8 24 9 25 10 26 11
REMARK SMILES IDX 27 12 28 13 29 14 30 15 31 16 32 17 15 18 14 19 13 20 12 21
REMARK SMILES IDX 11 22 10 23 9 24 8 25 7 26 6 27 5 28 4 29 3 30 2 31 1 32
REMARK H PARENT
REMARK Flexibility Score: inf
ROOT
ATOM      1  C   UNL     1      15.477 -19.243  39.222  1.00  0.00     0.000 C 
ENDROOT
BRANCH   1   2
ATOM      2  C   UNL     1      14.268 -19.141  40.166  1.00  0.00     0.000 C 
BRANCH   2   3
ATOM      3  C   UNL     1      13.971 -20.494  40.828  1.00  0.00     0.000 C 
BRANCH   3   4
ATOM      4  C   UNL     1      12.464 -20.778  40.939  1.00  0.00     0.000 C 
BRANCH   4   5
ATOM      5  C   UNL     1      11.605 -19.659  40.325  1.00  0.00     0.000 C 
BRANCH   5   6
ATOM      6  C   UNL     1      10.906 -20.089  39.022  1.00  0.00     0.000 C 
BRANCH   6   7
ATOM      7  C   UNL     1      11.628 -19.671  37.728  1.00  0.00     0.000 C 
BRANCH   7   8
ATOM      8  C   UNL     1      12.400 -20.832  37.074  1.00  0.00     0.000 C 
BRANCH   8   9
ATOM      9  C   UNL     1      11.774 -22.207  37.375  1.00  0.00     0.000 C 
BRANCH   9  10
ATOM     10  C   UNL     1      12.714 -23.198  38.090  1.00  0.00     0.000 C 
BRANCH  10  11
ATOM     11  C   UNL     1      14.202 -22.916  37.819  1.00  0.00     0.000 C 
BRANCH  11  12
ATOM     12  C   UNL     1      15.101 -23.344  38.998  1.00  0.00     0.000 C 
BRANCH  12  13
ATOM     13  C   UNL     1      15.520 -24.825  38.951  1.00  0.00     0.006 C 
BRANCH  13  14
ATOM     14  C   UNL     1      16.124 -25.263  37.608  1.00  0.00     0.053 C 
BRANCH  14  15
ATOM     15  C   UNL     1      17.607 -25.046  37.552  1.00  0.00     0.041 C 
ATOM     16  O   UNL     1      18.167 -24.756  36.462  1.00  0.00    -0.550 OA
ATOM     17  O   UNL     1      18.368 -25.146  38.710  1.00  0.00    -0.550 OA
ENDBRANCH  14  15
ENDBRANCH  13  14
ENDBRANCH  12  13
ENDBRANCH  11  12
ENDBRANCH  10  11
ENDBRANCH   9  10
ENDBRANCH   8   9
ENDBRANCH   7   8
ENDBRANCH   6   7
ENDBRANCH   5   6
ENDBRANCH   4   5
ENDBRANCH   3   4
ENDBRANCH   2   3
ENDBRANCH   1   2
BRANCH   1  18
ATOM     18  C   UNL     1      15.694 -17.969  38.382  1.00  0.00     0.000 C 
BRANCH  18  19
ATOM     19  C   UNL     1      14.520 -17.583  37.463  1.00  0.00     0.000 C 
BRANCH  19  20
ATOM     20  C   UNL     1      14.970 -16.825  36.201  1.00  0.00     0.000 C 
BRANCH  20  21
ATOM     21  C   UNL     1      16.492 -16.617  36.145  1.00  0.00     0.000 C 
BRANCH  21  22
ATOM     22  C   UNL     1      16.897 -15.390  35.309  1.00  0.00     0.000 C 
BRANCH  22  23
ATOM     23  C   UNL     1      17.662 -14.338  36.131  1.00  0.00     0.000 C 
BRANCH  23  24
ATOM     24  C   UNL     1      17.019 -13.962  37.482  1.00  0.00    -0.000 C 
BRANCH  24  25
ATOM     25  C   UNL     1      15.705 -13.166  37.380  1.00  0.00    -0.000 C 
BRANCH  25  26
ATOM     26  C   UNL     1      14.691 -13.543  38.471  1.00  0.00    -0.000 C 
BRANCH  26  27
ATOM     27  C   UNL     1      15.344 -14.417  39.552  1.00  0.00    -0.000 C 
BRANCH  27  28
ATOM     28  C   UNL     1      14.347 -15.381  40.217  1.00  0.00    -0.000 C 
BRANCH  28  29
ATOM     29  C   UNL     1      12.886 -15.050  39.869  1.00  0.00    -0.000 C 
BRANCH  29  30
ATOM     30  C   UNL     1      12.014 -16.305  39.686  1.00  0.00    -0.000 C 
BRANCH  30  31
ATOM     31  C   UNL     1      10.846 -16.144  38.695  1.00  0.00    -0.003 C 
ATOM     32  C   UNL     1      11.309 -15.961  37.250  1.00  0.00     0.004 C 
ENDBRANCH  30  31
ENDBRANCH  29  30
ENDBRANCH  28  29
ENDBRANCH  27  28
ENDBRANCH  26  27
ENDBRANCH  25  26
ENDBRANCH  24  25
ENDBRANCH  23  24
ENDBRANCH  22  23
ENDBRANCH  21  22
ENDBRANCH  20  21
ENDBRANCH  19  20
ENDBRANCH  18  19
ENDBRANCH   1  18
TORSDOF 28
ENDMDL
MODEL 2
REMARK VINA RESULT:    -4.360      1.075      2.039
REMARK INTER + INTRA:         -17.109
REMARK INTER:                 -11.398
REMARK INTRA:                  -5.711
REMARK UNBOUND:                -5.611
REMARK SMILES CCCCCCCCCCCCCCCCCCCCCCCCCCCCCC(=O)[O-]
REMARK SMILES IDX 16 1 17 2 18 3 19 4 20 5 21 6 22 7 23 8 24 9 25 10 26 11
REMARK SMILES IDX 27 12 28 13 29 14 30 15 31 16 32 17 15 18 14 19 13 20 12 21
REMARK SMILES IDX 11 22 10 23 9 24 8 25 7 26 6 27 5 28 4 29 3 30 2 31 1 32
REMARK H PARENT
REMARK Flexibility Score: inf
ROOT
ATOM      1  C   UNL     1      14.045 -19.878  40.553  1.00  0.00     0.000 C 
ENDROOT
BRANCH   1   2
ATOM      2  C   UNL     1      12.569 -19.651  40.915  1.00  0.00     0.000 C 
BRANCH   2   3
ATOM      3  C   UNL     1      11.890 -18.718  39.902  1.00  0.00     0.000 C 
BRANCH   3   4
ATOM      4  C   UNL     1      10.480 -19.194  39.515  1.00  0.00     0.000 C 
BRANCH   4   5
ATOM      5  C   UNL     1      10.296 -19.325  37.994  1.00  0.00     0.000 C 
BRANCH   5   6
ATOM      6  C   UNL     1      11.509 -18.810  37.198  1.00  0.00     0.000 C 
BRANCH   6   7
ATOM      7  C   UNL     1      12.176 -19.853  36.283  1.00  0.00     0.000 C 
BRANCH   7   8
ATOM      8  C   UNL     1      11.783 -21.299  36.639  1.00  0.00     0.000 C 
BRANCH   8   9
ATOM      9  C   UNL     1      12.848 -22.011  37.495  1.00  0.00     0.000 C 
BRANCH   9  10
ATOM     10  C   UNL     1      12.296 -22.724  38.745  1.00  0.00     0.000 C 
BRANCH  10  11
ATOM     11  C   UNL     1      13.400 -23.343  39.619  1.00  0.00     0.000 C 
BRANCH  11  12
ATOM     12  C   UNL     1      13.581 -24.852  39.348  1.00  0.00     0.000 C 
BRANCH  12  13
ATOM     13  C   UNL     1      14.986 -25.379  39.693  1.00  0.00     0.006 C 
BRANCH  13  14
ATOM     14  C   UNL     1      16.132 -24.533  39.118  1.00  0.00     0.053 C 
BRANCH  14  15
ATOM     15  C   UNL     1      17.245 -25.377  38.573  1.00  0.00     0.041 C 
ATOM     16  O   UNL     1      18.446 -25.035  38.745  1.00  0.00    -0.550 OA
ATOM     17  O   UNL     1      16.957 -26.551  37.890  1.00  0.00    -0.550 OA
ENDBRANCH  14  15
ENDBRANCH  13  14
ENDBRANCH  12  13
ENDBRANCH  11  12
ENDBRANCH  10  11
ENDBRANCH   9  10
ENDBRANCH   8   9
ENDBRANCH   7   8
ENDBRANCH   6   7
ENDBRANCH   5   6
ENDBRANCH   4   5
ENDBRANCH   3   4
ENDBRANCH   2   3
ENDBRANCH   1   2
BRANCH   1  18
ATOM     18  C   UNL     1      14.446 -19.219  39.219  1.00  0.00     0.000 C 
BRANCH  18  19
ATOM     19  C   UNL     1      15.800 -18.484  39.233  1.00  0.00     0.000 C 
BRANCH  19  20
ATOM     20  C   UNL     1      16.070 -17.699  37.937  1.00  0.00     0.000 C 
BRANCH  20  21
ATOM     21  C   UNL     1      14.784 -17.385  37.155  1.00  0.00     0.000 C 
BRANCH  21  22
ATOM     22  C   UNL     1      15.055 -16.668  35.821  1.00  0.00     0.000 C 
BRANCH  22  23
ATOM     23  C   UNL     1      16.505 -16.166  35.700  1.00  0.00     0.000 C 
BRANCH  23  24
ATOM     24  C   UNL     1      16.658 -14.696  35.261  1.00  0.00    -0.000 C 
BRANCH  24  25
ATOM     25  C   UNL     1      16.994 -13.707  36.393  1.00  0.00    -0.000 C 
BRANCH  25  26
ATOM     26  C   UNL     1      17.516 -14.404  37.659  1.00  0.00    -0.000 C 
BRANCH  26  27
ATOM     27  C   UNL     1      16.782 -13.895  38.910  1.00  0.00    -0.000 C 
BRANCH  27  28
ATOM     28  C   UNL     1      15.265 -14.139  38.847  1.00  0.00    -0.000 C 
BRANCH  28  29
ATOM     29  C   UNL     1      14.762 -15.021  40.002  1.00  0.00    -0.000 C 
BRANCH  29  30
ATOM     30  C   UNL     1      13.276 -15.398  39.865  1.00  0.00    -0.000 C 
BRANCH  30  31
ATOM     31  C   UNL     1      12.550 -14.750  38.672  1.00  0.00    -0.003 C 
ATOM     32  C   UNL     1      11.188 -15.384  38.384  1.00  0.00     0.004 C 
ENDBRANCH  30  31
ENDBRANCH  29  30
ENDBRANCH  28  29
ENDBRANCH  27  28
ENDBRANCH  26  27
ENDBRANCH  25  26
ENDBRANCH  24  25
ENDBRANCH  23  24
ENDBRANCH  22  23
ENDBRANCH  21  22
ENDBRANCH  20  21
ENDBRANCH  19  20
ENDBRANCH  18  19
ENDBRANCH   1  18
TORSDOF 28
ENDMDL
MODEL 3
REMARK VINA RESULT:    -4.338      1.646      4.360
REMARK INTER + INTRA:         -17.048
REMARK INTER:                 -11.028
REMARK INTRA:                  -6.021
REMARK UNBOUND:                -5.611
REMARK SMILES CCCCCCCCCCCCCCCCCCCCCCCCCCCCCC(=O)[O-]
REMARK SMILES IDX 16 1 17 2 18 3 19 4 20 5 21 6 22 7 23 8 24 9 25 10 26 11
REMARK SMILES IDX 27 12 28 13 29 14 30 15 31 16 32 17 15 18 14 19 13 20 12 21
REMARK SMILES IDX 11 22 10 23 9 24 8 25 7 26 6 27 5 28 4 29 3 30 2 31 1 32
REMARK H PARENT
REMARK Flexibility Score: inf
ROOT
ATOM      1  C   UNL     1      15.111 -16.725  39.845  1.00  0.00     0.000 C 
ENDROOT
BRANCH   1   2
ATOM      2  C   UNL     1      14.175 -17.941  39.928  1.00  0.00     0.000 C 
BRANCH   2   3
ATOM      3  C   UNL     1      14.868 -19.206  39.399  1.00  0.00     0.000 C 
BRANCH   3   4
ATOM      4  C   UNL     1      14.517 -20.458  40.220  1.00  0.00     0.000 C 
BRANCH   4   5
ATOM      5  C   UNL     1      13.290 -20.247  41.124  1.00  0.00     0.000 C 
BRANCH   5   6
ATOM      6  C   UNL     1      12.321 -21.443  41.107  1.00  0.00     0.000 C 
BRANCH   6   7
ATOM      7  C   UNL     1      10.903 -21.123  40.600  1.00  0.00     0.000 C 
BRANCH   7   8
ATOM      8  C   UNL     1      10.787 -19.707  40.006  1.00  0.00     0.000 C 
BRANCH   8   9
ATOM      9  C   UNL     1      10.227 -19.709  38.570  1.00  0.00     0.000 C 
BRANCH   9  10
ATOM     10  C   UNL     1      10.386 -21.047  37.820  1.00  0.00     0.000 C 
BRANCH  10  11
ATOM     11  C   UNL     1      11.356 -20.955  36.630  1.00  0.00     0.000 C 
BRANCH  11  12
ATOM     12  C   UNL     1      12.803 -21.321  37.028  1.00  0.00     0.000 C 
BRANCH  12  13
ATOM     13  C   UNL     1      12.927 -22.696  37.711  1.00  0.00     0.006 C 
BRANCH  13  14
ATOM     14  C   UNL     1      14.278 -23.391  37.480  1.00  0.00     0.053 C 
BRANCH  14  15
ATOM     15  C   UNL     1      14.172 -24.884  37.568  1.00  0.00     0.041 C 
ATOM     16  O   UNL     1      14.122 -25.581  36.519  1.00  0.00    -0.550 OA
ATOM     17  O   UNL     1      14.147 -25.508  38.808  1.00  0.00    -0.550 OA
ENDBRANCH  14  15
ENDBRANCH  13  14
ENDBRANCH  12  13
ENDBRANCH  11  12
ENDBRANCH  10  11
ENDBRANCH   9  10
ENDBRANCH   8   9
ENDBRANCH   7   8
ENDBRANCH   6   7
ENDBRANCH   5   6
ENDBRANCH   4   5
ENDBRANCH   3   4
ENDBRANCH   2   3
ENDBRANCH   1   2
BRANCH   1  18
ATOM     18  C   UNL     1      14.421 -15.406  40.246  1.00  0.00     0.000 C 
BRANCH  18  19
ATOM     19  C   UNL     1      14.388 -14.325  39.149  1.00  0.00     0.000 C 
BRANCH  19  20
ATOM     20  C   UNL     1      12.962 -13.996  38.675  1.00  0.00     0.000 C 
BRANCH  20  21
ATOM     21  C   UNL     1      11.892 -14.852  39.371  1.00  0.00     0.000 C 
BRANCH  21  22
ATOM     22  C   UNL     1      11.350 -15.979  38.473  1.00  0.00     0.000 C 
BRANCH  22  23
ATOM     23  C   UNL     1      12.078 -16.062  37.120  1.00  0.00     0.000 C 
BRANCH  23  24
ATOM     24  C   UNL     1      12.359 -17.491  36.611  1.00  0.00    -0.000 C 
BRANCH  24  25
ATOM     25  C   UNL     1      13.831 -17.784  36.265  1.00  0.00    -0.000 C 
BRANCH  25  26
ATOM     26  C   UNL     1      14.677 -16.509  36.122  1.00  0.00    -0.000 C 
BRANCH  26  27
ATOM     27  C   UNL     1      16.118 -16.847  35.713  1.00  0.00    -0.000 C 
BRANCH  27  28
ATOM     28  C   UNL     1      17.118 -16.678  36.870  1.00  0.00    -0.000 C 
BRANCH  28  29
ATOM     29  C   UNL     1      17.184 -15.230  37.384  1.00  0.00    -0.000 C 
BRANCH  29  30
ATOM     30  C   UNL     1      18.153 -14.349  36.574  1.00  0.00    -0.000 C 
BRANCH  30  31
ATOM     31  C   UNL     1      17.485 -13.462  35.508  1.00  0.00    -0.003 C 
ATOM     32  C   UNL     1      16.079 -13.009  35.901  1.00  0.00     0.004 C 
ENDBRANCH  30  31
ENDBRANCH  29  30
ENDBRANCH  28  29
ENDBRANCH  27  28
ENDBRANCH  26  27
ENDBRANCH  25  26
ENDBRANCH  24  25
ENDBRANCH  23  24
ENDBRANCH  22  23
ENDBRANCH  21  22
ENDBRANCH  20  21
ENDBRANCH  19  20
ENDBRANCH  18  19
ENDBRANCH   1  18
TORSDOF 28
ENDMDL
MODEL 4
REMARK VINA RESULT:    -4.285      1.224      3.992
REMARK INTER + INTRA:         -16.910
REMARK INTER:                 -11.738
REMARK INTRA:                  -5.172
REMARK UNBOUND:                -5.611
REMARK SMILES CCCCCCCCCCCCCCCCCCCCCCCCCCCCCC(=O)[O-]
REMARK SMILES IDX 16 1 17 2 18 3 19 4 20 5 21 6 22 7 23 8 24 9 25 10 26 11
REMARK SMILES IDX 27 12 28 13 29 14 30 15 31 16 32 17 15 18 14 19 13 20 12 21
REMARK SMILES IDX 11 22 10 23 9 24 8 25 7 26 6 27 5 28 4 29 3 30 2 31 1 32
REMARK H PARENT
REMARK Flexibility Score: inf
ROOT
ATOM      1  C   UNL     1      16.615 -17.234  36.347  1.00  0.00     0.000 C 
ENDROOT
BRANCH   1   2
ATOM      2  C   UNL     1      15.199 -16.641  36.298  1.00  0.00     0.000 C 
BRANCH   2   3
ATOM      3  C   UNL     1      14.232 -17.583  35.565  1.00  0.00     0.000 C 
BRANCH   3   4
ATOM      4  C   UNL     1      12.939 -17.834  36.358  1.00  0.00     0.000 C 
BRANCH   4   5
ATOM      5  C   UNL     1      12.510 -19.311  36.337  1.00  0.00     0.000 C 
BRANCH   5   6
ATOM      6  C   UNL     1      11.091 -19.530  36.894  1.00  0.00     0.000 C 
BRANCH   6   7
ATOM      7  C   UNL     1      10.820 -20.943  37.442  1.00  0.00     0.000 C 
BRANCH   7   8
ATOM      8  C   UNL     1      11.142 -21.073  38.942  1.00  0.00     0.000 C 
BRANCH   8   9
ATOM      9  C   UNL     1      12.269 -22.085  39.223  1.00  0.00     0.000 C 
BRANCH   9  10
ATOM     10  C   UNL     1      13.110 -22.470  37.990  1.00  0.00     0.000 C 
BRANCH  10  11
ATOM     11  C   UNL     1      14.614 -22.564  38.296  1.00  0.00     0.000 C 
BRANCH  11  12
ATOM     12  C   UNL     1      14.917 -23.564  39.433  1.00  0.00     0.000 C 
BRANCH  12  13
ATOM     13  C   UNL     1      15.997 -24.601  39.074  1.00  0.00     0.006 C 
BRANCH  13  14
ATOM     14  C   UNL     1      16.130 -24.873  37.568  1.00  0.00     0.053 C 
BRANCH  14  15
ATOM     15  C   UNL     1      17.415 -25.566  37.226  1.00  0.00     0.041 C 
ATOM     16  O   UNL     1      17.415 -26.565  36.458  1.00  0.00    -0.550 OA
ATOM     17  O   UNL     1      18.617 -25.097  37.741  1.00  0.00    -0.550 OA
ENDBRANCH  14  15
ENDBRANCH  13  14
ENDBRANCH  12  13
ENDBRANCH  11  12
ENDBRANCH  10  11
ENDBRANCH   9  10
ENDBRANCH   8   9
ENDBRANCH   7   8
ENDBRANCH   6   7
ENDBRANCH   5   6
ENDBRANCH   4   5
ENDBRANCH   3   4
ENDBRANCH   2   3
ENDBRANCH   1   2
BRANCH   1  18
ATOM     18  C   UNL     1      16.993 -17.777  37.739  1.00  0.00     0.000 C 
BRANCH  18  19
ATOM     19  C   UNL     1      15.910 -17.613  38.822  1.00  0.00     0.000 C 
BRANCH  19  20
ATOM     20  C   UNL     1      15.210 -18.938  39.175  1.00  0.00     0.000 C 
BRANCH  20  21
ATOM     21  C   UNL     1      13.814 -18.727  39.784  1.00  0.00     0.000 C 
BRANCH  21  22
ATOM     22  C   UNL     1      13.426 -17.243  39.892  1.00  0.00     0.000 C 
BRANCH  22  23
ATOM     23  C   UNL     1      11.905 -17.020  39.829  1.00  0.00     0.000 C 
BRANCH  23  24
ATOM     24  C   UNL     1      11.462 -15.649  39.276  1.00  0.00    -0.000 C 
BRANCH  24  25
ATOM     25  C   UNL     1      12.425 -15.015  38.255  1.00  0.00    -0.000 C 
BRANCH  25  26
ATOM     26  C   UNL     1      12.567 -13.496  38.430  1.00  0.00    -0.000 C 
BRANCH  26  27
ATOM     27  C   UNL     1      14.043 -13.072  38.382  1.00  0.00    -0.000 C 
BRANCH  27  28
ATOM     28  C   UNL     1      14.986 -14.143  38.954  1.00  0.00    -0.000 C 
BRANCH  28  29
ATOM     29  C   UNL     1      16.460 -13.880  38.603  1.00  0.00    -0.000 C 
BRANCH  29  30
ATOM     30  C   UNL     1      16.674 -13.570  37.111  1.00  0.00    -0.000 C 
BRANCH  30  31
ATOM     31  C   UNL     1      18.013 -14.064  36.532  1.00  0.00    -0.003 C 
ATOM     32  C   UNL     1      18.166 -13.766  35.040  1.00  0.00     0.004 C 
ENDBRANCH  30  31
ENDBRANCH  29  30
ENDBRANCH  28  29
ENDBRANCH  27  28
ENDBRANCH  26  27
ENDBRANCH  25  26
ENDBRANCH  24  25
ENDBRANCH  23  24
ENDBRANCH  22  23
ENDBRANCH  21  22
ENDBRANCH  20  21
ENDBRANCH  19  20
ENDBRANCH  18  19
ENDBRANCH   1  18
TORSDOF 28
ENDMDL
MODEL 5
REMARK VINA RESULT:    -4.264      1.328      4.285
REMARK INTER + INTRA:         -16.855
REMARK INTER:                 -11.596
REMARK INTRA:                  -5.259
REMARK UNBOUND:                -5.611
REMARK SMILES CCCCCCCCCCCCCCCCCCCCCCCCCCCCCC(=O)[O-]
REMARK SMILES IDX 16 1 17 2 18 3 19 4 20 5 21 6 22 7 23 8 24 9 25 10 26 11
REMARK SMILES IDX 27 12 28 13 29 14 30 15 31 16 32 17 15 18 14 19 13 20 12 21
REMARK SMILES IDX 11 22 10 23 9 24 8 25 7 26 6 27 5 28 4 29 3 30 2 31 1 32
REMARK H PARENT
REMARK Flexibility Score: inf
ROOT
ATOM      1  C   UNL     1      15.158 -16.614  39.778  1.00  0.00     0.000 C 
ENDROOT
BRANCH   1   2
ATOM      2  C   UNL     1      14.278 -17.869  39.665  1.00  0.00     0.000 C 
BRANCH   2   3
ATOM      3  C   UNL     1      15.137 -19.133  39.514  1.00  0.00     0.000 C 
BRANCH   3   4
ATOM      4  C   UNL     1      14.572 -20.327  40.301  1.00  0.00     0.000 C 
BRANCH   4   5
ATOM      5  C   UNL     1      13.052 -20.230  40.511  1.00  0.00     0.000 C 
BRANCH   5   6
ATOM      6  C   UNL     1      12.399 -21.594  40.801  1.00  0.00     0.000 C 
BRANCH   6   7
ATOM      7  C   UNL     1      11.721 -22.260  39.591  1.00  0.00     0.000 C 
BRANCH   7   8
ATOM      8  C   UNL     1      11.717 -21.363  38.339  1.00  0.00     0.000 C 
BRANCH   8   9
ATOM      9  C   UNL     1      12.658 -21.879  37.234  1.00  0.00     0.000 C 
BRANCH   9  10
ATOM     10  C   UNL     1      13.285 -23.259  37.517  1.00  0.00     0.000 C 
BRANCH  10  11
ATOM     11  C   UNL     1      14.797 -23.185  37.791  1.00  0.00     0.000 C 
BRANCH  11  12
ATOM     12  C   UNL     1      15.158 -23.679  39.209  1.00  0.00     0.000 C 
BRANCH  12  13
ATOM     13  C   UNL     1      14.751 -25.140  39.477  1.00  0.00     0.006 C 
BRANCH  13  14
ATOM     14  C   UNL     1      15.938 -26.098  39.661  1.00  0.00     0.053 C 
BRANCH  14  15
ATOM     15  C   UNL     1      16.620 -26.415  38.364  1.00  0.00     0.041 C 
ATOM     16  O   UNL     1      17.867 -26.590  38.326  1.00  0.00    -0.550 OA
ATOM     17  O   UNL     1      15.875 -26.533  37.197  1.00  0.00    -0.550 OA
ENDBRANCH  14  15
ENDBRANCH  13  14
ENDBRANCH  12  13
ENDBRANCH  11  12
ENDBRANCH  10  11
ENDBRANCH   9  10
ENDBRANCH   8   9
ENDBRANCH   7   8
ENDBRANCH   6   7
ENDBRANCH   5   6
ENDBRANCH   4   5
ENDBRANCH   3   4
ENDBRANCH   2   3
ENDBRANCH   1   2
BRANCH   1  18
ATOM     18  C   UNL     1      14.344 -15.326  40.010  1.00  0.00     0.000 C 
BRANCH  18  19
ATOM     19  C   UNL     1      14.159 -14.436  38.767  1.00  0.00     0.000 C 
BRANCH  19  20
ATOM     20  C   UNL     1      12.705 -14.405  38.263  1.00  0.00     0.000 C 
BRANCH  20  21
ATOM     21  C   UNL     1      11.721 -15.057  39.248  1.00  0.00     0.000 C 
BRANCH  21  22
ATOM     22  C   UNL     1      11.089 -16.346  38.697  1.00  0.00     0.000 C 
BRANCH  22  23
ATOM     23  C   UNL     1      11.483 -16.624  37.236  1.00  0.00     0.000 C 
BRANCH  23  24
ATOM     24  C   UNL     1      11.892 -18.079  36.929  1.00  0.00    -0.000 C 
BRANCH  24  25
ATOM     25  C   UNL     1      13.308 -18.251  36.349  1.00  0.00    -0.000 C 
BRANCH  25  26
ATOM     26  C   UNL     1      13.969 -16.915  35.979  1.00  0.00    -0.000 C 
BRANCH  26  27
ATOM     27  C   UNL     1      15.496 -16.995  36.132  1.00  0.00    -0.000 C 
BRANCH  27  28
ATOM     28  C   UNL     1      16.169 -15.613  36.078  1.00  0.00    -0.000 C 
BRANCH  28  29
ATOM     29  C   UNL     1      17.358 -15.498  37.047  1.00  0.00    -0.000 C 
BRANCH  29  30
ATOM     30  C   UNL     1      18.306 -14.337  36.698  1.00  0.00    -0.000 C 
BRANCH  30  31
ATOM     31  C   UNL     1      17.880 -13.495  35.482  1.00  0.00    -0.003 C 
ATOM     32  C   UNL     1      18.920 -13.492  34.362  1.00  0.00     0.004 C 
ENDBRANCH  30  31
ENDBRANCH  29  30
ENDBRANCH  28  29
ENDBRANCH  27  28
ENDBRANCH  26  27
ENDBRANCH  25  26
ENDBRANCH  24  25
ENDBRANCH  23  24
ENDBRANCH  22  23
ENDBRANCH  21  22
ENDBRANCH  20  21
ENDBRANCH  19  20
ENDBRANCH  18  19
ENDBRANCH   1  18
TORSDOF 28
ENDMDL
MODEL 6
REMARK VINA RESULT:    -4.223      1.659      4.507
REMARK INTER + INTRA:         -16.746
REMARK INTER:                 -11.228
REMARK INTRA:                  -5.518
REMARK UNBOUND:                -5.611
REMARK SMILES CCCCCCCCCCCCCCCCCCCCCCCCCCCCCC(=O)[O-]
REMARK SMILES IDX 16 1 17 2 18 3 19 4 20 5 21 6 22 7 23 8 24 9 25 10 26 11
REMARK SMILES IDX 27 12 28 13 29 14 30 15 31 16 32 17 15 18 14 19 13 20 12 21
REMARK SMILES IDX 11 22 10 23 9 24 8 25 7 26 6 27 5 28 4 29 3 30 2 31 1 32
REMARK H PARENT
REMARK Flexibility Score: inf
ROOT
ATOM      1  C   UNL     1      16.455 -18.029  38.199  1.00  0.00     0.000 C 
ENDROOT
BRANCH   1   2
ATOM      2  C   UNL     1      15.798 -16.776  37.598  1.00  0.00     0.000 C 
BRANCH   2   3
ATOM      3  C   UNL     1      15.708 -16.881  36.068  1.00  0.00     0.000 C 
BRANCH   3   4
ATOM      4  C   UNL     1      14.337 -17.388  35.592  1.00  0.00     0.000 C 
BRANCH   4   5
ATOM      5  C   UNL     1      13.215 -17.098  36.604  1.00  0.00     0.000 C 
BRANCH   5   6
ATOM      6  C   UNL     1      12.100 -18.159  36.582  1.00  0.00     0.000 C 
BRANCH   6   7
ATOM      7  C   UNL     1      12.589 -19.613  36.446  1.00  0.00     0.000 C 
BRANCH   7   8
ATOM      8  C   UNL     1      11.453 -20.641  36.599  1.00  0.00     0.000 C 
BRANCH   8   9
ATOM      9  C   UNL     1      10.554 -20.358  37.817  1.00  0.00     0.000 C 
BRANCH   9  10
ATOM     10  C   UNL     1      10.619 -21.426  38.926  1.00  0.00     0.000 C 
BRANCH  10  11
ATOM     11  C   UNL     1      11.004 -22.818  38.397  1.00  0.00     0.000 C 
BRANCH  11  12
ATOM     12  C   UNL     1      12.317 -23.337  39.023  1.00  0.00     0.000 C 
BRANCH  12  13
ATOM     13  C   UNL     1      13.269 -22.217  39.483  1.00  0.00     0.006 C 
BRANCH  13  14
ATOM     14  C   UNL     1      14.759 -22.571  39.361  1.00  0.00     0.053 C 
BRANCH  14  15
ATOM     15  C   UNL     1      14.976 -23.907  38.716  1.00  0.00     0.041 C 
ATOM     16  O   UNL     1      15.166 -23.990  37.474  1.00  0.00    -0.550 OA
ATOM     17  O   UNL     1      14.986 -25.060  39.491  1.00  0.00    -0.550 OA
ENDBRANCH  14  15
ENDBRANCH  13  14
ENDBRANCH  12  13
ENDBRANCH  11  12
ENDBRANCH  10  11
ENDBRANCH   9  10
ENDBRANCH   8   9
ENDBRANCH   7   8
ENDBRANCH   6   7
ENDBRANCH   5   6
ENDBRANCH   4   5
ENDBRANCH   3   4
ENDBRANCH   2   3
ENDBRANCH   1   2
BRANCH   1  18
ATOM     18  C   UNL     1      15.471 -18.895  39.009  1.00  0.00     0.000 C 
BRANCH  18  19
ATOM     19  C   UNL     1      14.499 -18.112  39.912  1.00  0.00     0.000 C 
BRANCH  19  20
ATOM     20  C   UNL     1      13.149 -18.825  40.101  1.00  0.00     0.000 C 
BRANCH  20  21
ATOM     21  C   UNL     1      11.975 -17.843  40.252  1.00  0.00     0.000 C 
BRANCH  21  22
ATOM     22  C   UNL     1      12.395 -16.375  40.067  1.00  0.00     0.000 C 
BRANCH  22  23
ATOM     23  C   UNL     1      11.193 -15.430  39.896  1.00  0.00     0.000 C 
BRANCH  23  24
ATOM     24  C   UNL     1      10.744 -15.194  38.439  1.00  0.00    -0.000 C 
BRANCH  24  25
ATOM     25  C   UNL     1      11.451 -14.031  37.718  1.00  0.00    -0.000 C 
BRANCH  25  26
ATOM     26  C   UNL     1      11.933 -12.935  38.681  1.00  0.00    -0.000 C 
BRANCH  26  27
ATOM     27  C   UNL     1      13.350 -12.466  38.317  1.00  0.00    -0.000 C 
BRANCH  27  28
ATOM     28  C   UNL     1      14.212 -13.593  37.723  1.00  0.00    -0.000 C 
BRANCH  28  29
ATOM     29  C   UNL     1      15.667 -13.157  37.480  1.00  0.00    -0.000 C 
BRANCH  29  30
ATOM     30  C   UNL     1      16.021 -13.055  35.986  1.00  0.00    -0.000 C 
BRANCH  30  31
ATOM     31  C   UNL     1      17.385 -13.655  35.601  1.00  0.00    -0.003 C 
ATOM     32  C   UNL     1      18.167 -14.185  36.803  1.00  0.00     0.004 C 
ENDBRANCH  30  31
ENDBRANCH  29  30
ENDBRANCH  28  29
ENDBRANCH  27  28
ENDBRANCH  26  27
ENDBRANCH  25  26
ENDBRANCH  24  25
ENDBRANCH  23  24
ENDBRANCH  22  23
ENDBRANCH  21  22
ENDBRANCH  20  21
ENDBRANCH  19  20
ENDBRANCH  18  19
ENDBRANCH   1  18
TORSDOF 28
ENDMDL
MODEL 7
REMARK VINA RESULT:    -4.124      2.897      8.807
REMARK INTER + INTRA:         -16.486
REMARK INTER:                 -11.481
REMARK INTRA:                  -5.005
REMARK UNBOUND:                -5.611
REMARK SMILES CCCCCCCCCCCCCCCCCCCCCCCCCCCCCC(=O)[O-]
REMARK SMILES IDX 16 1 17 2 18 3 19 4 20 5 21 6 22 7 23 8 24 9 25 10 26 11
REMARK SMILES IDX 27 12 28 13 29 14 30 15 31 16 32 17 15 18 14 19 13 20 12 21
REMARK SMILES IDX 11 22 10 23 9 24 8 25 7 26 6 27 5 28 4 29 3 30 2 31 1 32
REMARK H PARENT
REMARK Flexibility Score: inf
ROOT
ATOM      1  C   UNL     1      15.399 -18.767  39.268  1.00  0.00     0.000 C 
ENDROOT
BRANCH   1   2
ATOM      2  C   UNL     1      15.500 -17.323  38.753  1.00  0.00     0.000 C 
BRANCH   2   3
ATOM      3  C   UNL     1      15.677 -17.292  37.228  1.00  0.00     0.000 C 
BRANCH   3   4
ATOM      4  C   UNL     1      14.443 -16.731  36.503  1.00  0.00     0.000 C 
BRANCH   4   5
ATOM      5  C   UNL     1      13.207 -17.636  36.650  1.00  0.00     0.000 C 
BRANCH   5   6
ATOM      6  C   UNL     1      11.943 -16.861  37.063  1.00  0.00     0.000 C 
BRANCH   6   7
ATOM      7  C   UNL     1      11.595 -16.936  38.561  1.00  0.00     0.000 C 
BRANCH   7   8
ATOM      8  C   UNL     1      12.187 -15.768  39.371  1.00  0.00     0.000 C 
BRANCH   8   9
ATOM      9  C   UNL     1      11.639 -14.398  38.926  1.00  0.00     0.000 C 
BRANCH   9  10
ATOM     10  C   UNL     1      12.699 -13.438  38.353  1.00  0.00     0.000 C 
BRANCH  10  11
ATOM     11  C   UNL     1      14.140 -13.897  38.636  1.00  0.00     0.000 C 
BRANCH  11  12
ATOM     12  C   UNL     1      15.169 -12.773  38.388  1.00  0.00     0.000 C 
BRANCH  12  13
ATOM     13  C   UNL     1      15.865 -12.863  37.017  1.00  0.00     0.006 C 
BRANCH  13  14
ATOM     14  C   UNL     1      17.007 -13.890  36.959  1.00  0.00     0.053 C 
BRANCH  14  15
ATOM     15  C   UNL     1      17.510 -14.103  35.563  1.00  0.00     0.041 C 
ATOM     16  O   UNL     1      17.054 -15.042  34.858  1.00  0.00    -0.550 OA
ATOM     17  O   UNL     1      18.473 -13.254  35.033  1.00  0.00    -0.550 OA
ENDBRANCH  14  15
ENDBRANCH  13  14
ENDBRANCH  12  13
ENDBRANCH  11  12
ENDBRANCH  10  11
ENDBRANCH   9  10
ENDBRANCH   8   9
ENDBRANCH   7   8
ENDBRANCH   6   7
ENDBRANCH   5   6
ENDBRANCH   4   5
ENDBRANCH   3   4
ENDBRANCH   2   3
ENDBRANCH   1   2
BRANCH   1  18
ATOM     18  C   UNL     1      14.125 -19.024  40.096  1.00  0.00     0.000 C 
BRANCH  18  19
ATOM     19  C   UNL     1      14.067 -20.393  40.800  1.00  0.00     0.000 C 
BRANCH  19  20
ATOM     20  C   UNL     1      12.682 -21.057  40.707  1.00  0.00     0.000 C 
BRANCH  20  21
ATOM     21  C   UNL     1      11.833 -20.501  39.553  1.00  0.00     0.000 C 
BRANCH  21  22
ATOM     22  C   UNL     1      11.607 -21.526  38.428  1.00  0.00     0.000 C 
BRANCH  22  23
ATOM     23  C   UNL     1      12.795 -21.610  37.454  1.00  0.00     0.000 C 
BRANCH  23  24
ATOM     24  C   UNL     1      13.548 -22.956  37.448  1.00  0.00    -0.000 C 
BRANCH  24  25
ATOM     25  C   UNL     1      14.948 -22.924  38.089  1.00  0.00    -0.000 C 
BRANCH  25  26
ATOM     26  C   UNL     1      14.992 -23.607  39.464  1.00  0.00    -0.000 C 
BRANCH  26  27
ATOM     27  C   UNL     1      14.111 -24.866  39.483  1.00  0.00    -0.000 C 
BRANCH  27  28
ATOM     28  C   UNL     1      14.842 -26.108  38.947  1.00  0.00    -0.000 C 
BRANCH  28  29
ATOM     29  C   UNL     1      16.135 -26.412  39.723  1.00  0.00    -0.000 C 
BRANCH  29  30
ATOM     30  C   UNL     1      17.352 -26.620  38.803  1.00  0.00    -0.000 C 
BRANCH  30  31
ATOM     31  C   UNL     1      18.061 -25.326  38.365  1.00  0.00    -0.003 C 
ATOM     32  C   UNL     1      17.843 -24.994  36.888  1.00  0.00     0.004 C 
ENDBRANCH  30  31
ENDBRANCH  29  30
ENDBRANCH  28  29
ENDBRANCH  27  28
ENDBRANCH  26  27
ENDBRANCH  25  26
ENDBRANCH  24  25
ENDBRANCH  23  24
ENDBRANCH  22  23
ENDBRANCH  21  22
ENDBRANCH  20  21
ENDBRANCH  19  20
ENDBRANCH  18  19
ENDBRANCH   1  18
TORSDOF 28
ENDMDL
MODEL 8
REMARK VINA RESULT:    -4.105      1.411      3.958
REMARK INTER + INTRA:         -16.436
REMARK INTER:                 -11.765
REMARK INTRA:                  -4.671
REMARK UNBOUND:                -5.611
REMARK SMILES CCCCCCCCCCCCCCCCCCCCCCCCCCCCCC(=O)[O-]
REMARK SMILES IDX 16 1 17 2 18 3 19 4 20 5 21 6 22 7 23 8 24 9 25 10 26 11
REMARK SMILES IDX 27 12 28 13 29 14 30 15 31 16 32 17 15 18 14 19 13 20 12 21
REMARK SMILES IDX 11 22 10 23 9 24 8 25 7 26 6 27 5 28 4 29 3 30 2 31 1 32
REMARK H PARENT
REMARK Flexibility Score: inf
ROOT
ATOM      1  C   UNL     1      16.397 -17.223  37.187  1.00  0.00     0.000 C 
ENDROOT
BRANCH   1   2
ATOM      2  C   UNL     1      15.720 -16.898  38.527  1.00  0.00     0.000 C 
BRANCH   2   3
ATOM      3  C   UNL     1      15.436 -18.179  39.325  1.00  0.00     0.000 C 
BRANCH   3   4
ATOM      4  C   UNL     1      14.049 -18.164  39.989  1.00  0.00     0.000 C 
BRANCH   4   5
ATOM      5  C   UNL     1      13.603 -19.560  40.458  1.00  0.00     0.000 C 
BRANCH   5   6
ATOM      6  C   UNL     1      14.719 -20.614  40.346  1.00  0.00     0.000 C 
BRANCH   6   7
ATOM      7  C   UNL     1      14.353 -21.864  39.525  1.00  0.00     0.000 C 
BRANCH   7   8
ATOM      8  C   UNL     1      13.486 -21.538  38.295  1.00  0.00     0.000 C 
BRANCH   8   9
ATOM      9  C   UNL     1      13.390 -22.715  37.306  1.00  0.00     0.000 C 
BRANCH   9  10
ATOM     10  C   UNL     1      12.925 -24.044  37.932  1.00  0.00     0.000 C 
BRANCH  10  11
ATOM     11  C   UNL     1      13.800 -25.240  37.520  1.00  0.00     0.000 C 
BRANCH  11  12
ATOM     12  C   UNL     1      15.287 -24.851  37.374  1.00  0.00     0.000 C 
BRANCH  12  13
ATOM     13  C   UNL     1      16.212 -26.043  37.065  1.00  0.00     0.006 C 
BRANCH  13  14
ATOM     14  C   UNL     1      16.996 -26.560  38.281  1.00  0.00     0.053 C 
BRANCH  14  15
ATOM     15  C   UNL     1      17.829 -25.489  38.919  1.00  0.00     0.041 C 
ATOM     16  O   UNL     1      17.522 -25.034  40.053  1.00  0.00    -0.550 OA
ATOM     17  O   UNL     1      18.956 -25.004  38.267  1.00  0.00    -0.550 OA
ENDBRANCH  14  15
ENDBRANCH  13  14
ENDBRANCH  12  13
ENDBRANCH  11  12
ENDBRANCH  10  11
ENDBRANCH   9  10
ENDBRANCH   8   9
ENDBRANCH   7   8
ENDBRANCH   6   7
ENDBRANCH   5   6
ENDBRANCH   4   5
ENDBRANCH   3   4
ENDBRANCH   2   3
ENDBRANCH   1   2
BRANCH   1  18
ATOM     18  C   UNL     1      15.472 -17.004  35.974  1.00  0.00     0.000 C 
BRANCH  18  19
ATOM     19  C   UNL     1      13.969 -16.921  36.304  1.00  0.00     0.000 C 
BRANCH  19  20
ATOM     20  C   UNL     1      13.269 -18.291  36.260  1.00  0.00     0.000 C 
BRANCH  20  21
ATOM     21  C   UNL     1      11.920 -18.293  36.996  1.00  0.00     0.000 C 
BRANCH  21  22
ATOM     22  C   UNL     1      11.466 -16.884  37.417  1.00  0.00     0.000 C 
BRANCH  22  23
ATOM     23  C   UNL     1      10.831 -16.859  38.818  1.00  0.00     0.000 C 
BRANCH  23  24
ATOM     24  C   UNL     1      11.237 -15.662  39.703  1.00  0.00    -0.000 C 
BRANCH  24  25
ATOM     25  C   UNL     1      12.439 -14.848  39.190  1.00  0.00    -0.000 C 
BRANCH  25  26
ATOM     26  C   UNL     1      12.023 -13.569  38.448  1.00  0.00    -0.000 C 
BRANCH  26  27
ATOM     27  C   UNL     1      13.236 -12.896  37.787  1.00  0.00    -0.000 C 
BRANCH  27  28
ATOM     28  C   UNL     1      14.540 -13.681  38.005  1.00  0.00    -0.000 C 
BRANCH  28  29
ATOM     29  C   UNL     1      15.760 -12.983  37.380  1.00  0.00    -0.000 C 
BRANCH  29  30
ATOM     30  C   UNL     1      15.958 -13.337  35.895  1.00  0.00    -0.000 C 
BRANCH  30  31
ATOM     31  C   UNL     1      17.382 -13.784  35.519  1.00  0.00    -0.003 C 
ATOM     32  C   UNL     1      18.217 -14.203  36.730  1.00  0.00     0.004 C 
ENDBRANCH  30  31
ENDBRANCH  29  30
ENDBRANCH  28  29
ENDBRANCH  27  28
ENDBRANCH  26  27
ENDBRANCH  25  26
ENDBRANCH  24  25
ENDBRANCH  23  24
ENDBRANCH  22  23
ENDBRANCH  21  22
ENDBRANCH  20  21
ENDBRANCH  19  20
ENDBRANCH  18  19
ENDBRANCH   1  18
TORSDOF 28
ENDMDL
MODEL 9
REMARK VINA RESULT:    -4.102      1.198      4.052
REMARK INTER + INTRA:         -16.427
REMARK INTER:                 -10.829
REMARK INTRA:                  -5.597
REMARK UNBOUND:                -5.611
REMARK SMILES CCCCCCCCCCCCCCCCCCCCCCCCCCCCCC(=O)[O-]
REMARK SMILES IDX 16 1 17 2 18 3 19 4 20 5 21 6 22 7 23 8 24 9 25 10 26 11
REMARK SMILES IDX 27 12 28 13 29 14 30 15 31 16 32 17 15 18 14 19 13 20 12 21
REMARK SMILES IDX 11 22 10 23 9 24 8 25 7 26 6 27 5 28 4 29 3 30 2 31 1 32
REMARK H PARENT
REMARK Flexibility Score: inf
ROOT
ATOM      1  C   UNL     1      16.639 -16.698  36.123  1.00  0.00     0.000 C 
ENDROOT
BRANCH   1   2
ATOM      2  C   UNL     1      15.178 -16.283  35.889  1.00  0.00     0.000 C 
BRANCH   2   3
ATOM      3  C   UNL     1      14.306 -17.500  35.551  1.00  0.00     0.000 C 
BRANCH   3   4
ATOM      4  C   UNL     1      13.114 -17.657  36.510  1.00  0.00     0.000 C 
BRANCH   4   5
ATOM      5  C   UNL     1      12.667 -19.121  36.662  1.00  0.00     0.000 C 
BRANCH   5   6
ATOM      6  C   UNL     1      11.144 -19.299  36.521  1.00  0.00     0.000 C 
BRANCH   6   7
ATOM      7  C   UNL     1      10.647 -20.751  36.633  1.00  0.00     0.000 C 
BRANCH   7   8
ATOM      8  C   UNL     1      10.911 -21.368  38.019  1.00  0.00     0.000 C 
BRANCH   8   9
ATOM      9  C   UNL     1      11.602 -22.742  37.936  1.00  0.00     0.000 C 
BRANCH   9  10
ATOM     10  C   UNL     1      13.137 -22.683  37.808  1.00  0.00     0.000 C 
BRANCH  10  11
ATOM     11  C   UNL     1      13.863 -23.319  39.006  1.00  0.00     0.000 C 
BRANCH  11  12
ATOM     12  C   UNL     1      15.349 -23.607  38.700  1.00  0.00     0.000 C 
BRANCH  12  13
ATOM     13  C   UNL     1      15.814 -25.004  39.153  1.00  0.00     0.006 C 
BRANCH  13  14
ATOM     14  C   UNL     1      16.491 -25.828  38.048  1.00  0.00     0.053 C 
BRANCH  14  15
ATOM     15  C   UNL     1      17.813 -25.252  37.636  1.00  0.00     0.041 C 
ATOM     16  O   UNL     1      17.970 -24.787  36.475  1.00  0.00    -0.550 OA
ATOM     17  O   UNL     1      18.867 -25.212  38.539  1.00  0.00    -0.550 OA
ENDBRANCH  14  15
ENDBRANCH  13  14
ENDBRANCH  12  13
ENDBRANCH  11  12
ENDBRANCH  10  11
ENDBRANCH   9  10
ENDBRANCH   8   9
ENDBRANCH   7   8
ENDBRANCH   6   7
ENDBRANCH   5   6
ENDBRANCH   4   5
ENDBRANCH   3   4
ENDBRANCH   2   3
ENDBRANCH   1   2
BRANCH   1  18
ATOM     18  C   UNL     1      16.962 -16.954  37.608  1.00  0.00     0.000 C 
BRANCH  18  19
ATOM     19  C   UNL     1      16.637 -18.372  38.114  1.00  0.00     0.000 C 
BRANCH  19  20
ATOM     20  C   UNL     1      15.513 -18.391  39.164  1.00  0.00     0.000 C 
BRANCH  20  21
ATOM     21  C   UNL     1      15.089 -19.817  39.554  1.00  0.00     0.000 C 
BRANCH  21  22
ATOM     22  C   UNL     1      13.773 -19.853  40.351  1.00  0.00     0.000 C 
BRANCH  22  23
ATOM     23  C   UNL     1      13.014 -18.515  40.305  1.00  0.00     0.000 C 
BRANCH  23  24
ATOM     24  C   UNL     1      11.476 -18.632  40.305  1.00  0.00    -0.000 C 
BRANCH  24  25
ATOM     25  C   UNL     1      10.726 -17.376  39.824  1.00  0.00    -0.000 C 
BRANCH  25  26
ATOM     26  C   UNL     1      10.704 -16.253  40.873  1.00  0.00    -0.000 C 
BRANCH  26  27
ATOM     27  C   UNL     1      11.506 -15.035  40.392  1.00  0.00    -0.000 C 
BRANCH  27  28
ATOM     28  C   UNL     1      11.821 -15.090  38.887  1.00  0.00    -0.000 C 
BRANCH  28  29
ATOM     29  C   UNL     1      13.246 -14.608  38.565  1.00  0.00    -0.000 C 
BRANCH  29  30
ATOM     30  C   UNL     1      14.289 -15.094  39.588  1.00  0.00    -0.000 C 
BRANCH  30  31
ATOM     31  C   UNL     1      15.595 -14.280  39.617  1.00  0.00    -0.003 C 
ATOM     32  C   UNL     1      15.841 -13.495  38.328  1.00  0.00     0.004 C 
ENDBRANCH  30  31
ENDBRANCH  29  30
ENDBRANCH  28  29
ENDBRANCH  27  28
ENDBRANCH  26  27
ENDBRANCH  25  26
ENDBRANCH  24  25
ENDBRANCH  23  24
ENDBRANCH  22  23
ENDBRANCH  21  22
ENDBRANCH  20  21
ENDBRANCH  19  20
ENDBRANCH  18  19
ENDBRANCH   1  18
TORSDOF 28
ENDMDL
