MODEL 1
REMARK VINA RESULT:    -4.754      0.000      0.000
REMARK INTER + INTRA:          -6.050
REMARK INTER:                  -5.726
REMARK INTRA:                  -0.323
REMARK UNBOUND:                -0.323
REMARK SMILES O=c1c(O)c(-c2ccc(O)c(O)c2)oc2cc(O)cc(O)c12
REMARK SMILES IDX 5 1 3 2 2 3 1 4 22 5 20 6 19 7 17 8 16 9 15 10 14 11 6 12
REMARK SMILES IDX 7 13 8 14 9 15 13 16 11 17 10 18 12 20 4 22 21 24 18 26
REMARK H PARENT 10 19 12 21 4 23 21 25 18 27
REMARK Flexibility Score: inf
ROOT
ATOM      1  C   UNL     1       4.499  25.919  24.508  1.00  0.00     0.180 A 
ATOM      2  C   UNL     1       5.747  25.360  24.832  1.00  0.00     0.208 A 
ATOM      3  C   UNL     1       6.835  26.215  25.071  1.00  0.00     0.238 A 
ATOM      4  O   UNL     1       7.935  25.711  25.414  1.00  0.00    -0.285 OA
ATOM      5  C   UNL     1       6.664  27.617  24.966  1.00  0.00     0.111 A 
ATOM      6  C   UNL     1       7.707  28.575  25.148  1.00  0.00     0.134 A 
ATOM      7  C   UNL     1       7.397  29.940  25.150  1.00  0.00     0.093 A 
ATOM      8  C   UNL     1       6.094  30.384  24.912  1.00  0.00     0.123 A 
ATOM      9  C   UNL     1       5.081  29.457  24.676  1.00  0.00     0.094 A 
ATOM     10  C   UNL     1       5.352  28.088  24.703  1.00  0.00     0.146 A 
ATOM     11  O   UNL     1       4.356  27.239  24.482  1.00  0.00    -0.452 OA
ENDROOT
BRANCH   1  12
ATOM     12  C   UNL     1       3.312  25.082  24.218  1.00  0.00     0.025 A 
ATOM     13  C   UNL     1       2.976  24.721  22.904  1.00  0.00     0.016 A 
ATOM     14  C   UNL     1       1.838  23.951  22.653  1.00  0.00     0.051 A 
ATOM     15  C   UNL     1       1.009  23.538  23.702  1.00  0.00     0.157 A 
ATOM     16  C   UNL     1       2.471  24.688  25.270  1.00  0.00     0.062 A 
ATOM     17  C   UNL     1       1.328  23.915  25.028  1.00  0.00     0.158 A 
BRANCH  15  18
ATOM     18  O   UNL     1      -0.111  22.766  23.384  1.00  0.00    -0.504 OA
ATOM     19  H   UNL     1      -1.005  23.153  23.117  1.00  0.00     0.293 HD
ENDBRANCH  15  18
BRANCH  17  20
ATOM     20  O   UNL     1       0.544  23.549  26.125  1.00  0.00    -0.504 OA
ATOM     21  H   UNL     1       0.256  22.601  26.322  1.00  0.00     0.293 HD
ENDBRANCH  17  20
ENDBRANCH   1  12
BRANCH   2  22
ATOM     22  O   UNL     1       5.887  23.974  24.951  1.00  0.00    -0.502 OA
ATOM     23  H   UNL     1       5.595  23.467  25.778  1.00  0.00     0.293 HD
ENDBRANCH   2  22
BRANCH   6  24
ATOM     24  O   UNL     1       9.056  28.241  25.301  1.00  0.00    -0.507 OA
ATOM     25  H   UNL     1       9.751  28.835  25.728  1.00  0.00     0.293 HD
ENDBRANCH   6  24
BRANCH   8  26
ATOM     26  O   UNL     1       5.796  31.745  24.901  1.00  0.00    -0.508 OA
ATOM     27  H   UNL     1       6.350  32.404  24.366  1.00  0.00     0.293 HD
ENDBRANCH   8  26
TORSDOF 6
ENDMDL
MODEL 2
REMARK VINA RESULT:    -4.674      3.293      6.894
REMARK INTER + INTRA:          -5.954
REMARK INTER:                  -5.822
REMARK INTRA:                  -0.131
REMARK UNBOUND:                -0.323
REMARK SMILES O=c1c(O)c(-c2ccc(O)c(O)c2)oc2cc(O)cc(O)c12
REMARK SMILES IDX 5 1 3 2 2 3 1 4 22 5 20 6 19 7 17 8 16 9 15 10 14 11 6 12
REMARK SMILES IDX 7 13 8 14 9 15 13 16 11 17 10 18 12 20 4 22 21 24 18 26
REMARK H PARENT 10 19 12 21 4 23 21 25 18 27
REMARK Flexibility Score: inf
ROOT
ATOM      1  C   UNL     1       6.015  29.826  24.153  1.00  0.00     0.180 A 
ATOM      2  C   UNL     1       5.062  28.797  24.251  1.00  0.00     0.208 A 
ATOM      3  C   UNL     1       5.477  27.521  24.664  1.00  0.00     0.238 A 
ATOM      4  O   UNL     1       4.611  26.620  24.802  1.00  0.00    -0.285 OA
ATOM      5  C   UNL     1       6.842  27.286  24.958  1.00  0.00     0.111 A 
ATOM      6  C   UNL     1       7.381  26.022  25.346  1.00  0.00     0.134 A 
ATOM      7  C   UNL     1       8.721  25.935  25.739  1.00  0.00     0.093 A 
ATOM      8  C   UNL     1       9.560  27.051  25.695  1.00  0.00     0.123 A 
ATOM      9  C   UNL     1       9.057  28.276  25.261  1.00  0.00     0.094 A 
ATOM     10  C   UNL     1       7.715  28.403  24.897  1.00  0.00     0.146 A 
ATOM     11  O   UNL     1       7.275  29.590  24.498  1.00  0.00    -0.452 OA
ENDROOT
BRANCH   1  12
ATOM     12  C   UNL     1       5.658  31.190  23.701  1.00  0.00     0.025 A 
ATOM     13  C   UNL     1       5.083  31.415  22.440  1.00  0.00     0.016 A 
ATOM     14  C   UNL     1       4.777  32.713  22.026  1.00  0.00     0.051 A 
ATOM     15  C   UNL     1       5.049  33.810  22.851  1.00  0.00     0.157 A 
ATOM     16  C   UNL     1       5.952  32.290  24.522  1.00  0.00     0.062 A 
ATOM     17  C   UNL     1       5.648  33.596  24.115  1.00  0.00     0.158 A 
BRANCH  15  18
ATOM     18  O   UNL     1       4.715  35.081  22.379  1.00  0.00    -0.504 OA
ATOM     19  H   UNL     1       4.707  35.911  22.953  1.00  0.00     0.293 HD
ENDBRANCH  15  18
BRANCH  17  20
ATOM     20  O   UNL     1       5.958  34.639  24.989  1.00  0.00    -0.504 OA
ATOM     21  H   UNL     1       6.571  34.546  25.787  1.00  0.00     0.293 HD
ENDBRANCH  17  20
ENDBRANCH   1  12
BRANCH   2  22
ATOM     22  O   UNL     1       3.716  29.058  23.976  1.00  0.00    -0.502 OA
ATOM     23  H   UNL     1       2.971  28.795  24.611  1.00  0.00     0.293 HD
ENDBRANCH   2  22
BRANCH   6  24
ATOM     24  O   UNL     1       6.654  24.828  25.337  1.00  0.00    -0.507 OA
ATOM     25  H   UNL     1       7.003  23.945  24.995  1.00  0.00     0.293 HD
ENDBRANCH   6  24
BRANCH   8  26
ATOM     26  O   UNL     1      10.897  26.953  26.073  1.00  0.00    -0.508 OA
ATOM     27  H   UNL     1      11.446  27.775  26.298  1.00  0.00     0.293 HD
ENDBRANCH   8  26
TORSDOF 6
ENDMDL
MODEL 3
REMARK VINA RESULT:    -4.456      2.695      4.556
REMARK INTER + INTRA:          -5.691
REMARK INTER:                  -5.388
REMARK INTRA:                  -0.303
REMARK UNBOUND:                -0.323
REMARK SMILES O=c1c(O)c(-c2ccc(O)c(O)c2)oc2cc(O)cc(O)c12
REMARK SMILES IDX 5 1 3 2 2 3 1 4 22 5 20 6 19 7 17 8 16 9 15 10 14 11 6 12
REMARK SMILES IDX 7 13 8 14 9 15 13 16 11 17 10 18 12 20 4 22 21 24 18 26
REMARK H PARENT 10 19 12 21 4 23 21 25 18 27
REMARK Flexibility Score: inf
ROOT
ATOM      1  C   UNL     1       4.967  27.888  23.934  1.00  0.00     0.180 A 
ATOM      2  C   UNL     1       5.415  28.974  24.706  1.00  0.00     0.208 A 
ATOM      3  C   UNL     1       5.164  30.280  24.257  1.00  0.00     0.238 A 
ATOM      4  O   UNL     1       5.519  31.246  24.979  1.00  0.00    -0.285 OA
ATOM      5  C   UNL     1       4.481  30.483  23.033  1.00  0.00     0.111 A 
ATOM      6  C   UNL     1       4.208  31.763  22.461  1.00  0.00     0.134 A 
ATOM      7  C   UNL     1       3.412  31.850  21.313  1.00  0.00     0.093 A 
ATOM      8  C   UNL     1       2.934  30.701  20.678  1.00  0.00     0.123 A 
ATOM      9  C   UNL     1       3.245  29.445  21.196  1.00  0.00     0.094 A 
ATOM     10  C   UNL     1       4.008  29.328  22.360  1.00  0.00     0.146 A 
ATOM     11  O   UNL     1       4.273  28.113  22.825  1.00  0.00    -0.452 OA
ENDROOT
BRANCH   1  12
ATOM     12  C   UNL     1       5.216  26.483  24.330  1.00  0.00     0.025 A 
ATOM     13  C   UNL     1       6.466  25.877  24.125  1.00  0.00     0.016 A 
ATOM     14  C   UNL     1       6.670  24.544  24.485  1.00  0.00     0.051 A 
ATOM     15  C   UNL     1       5.634  23.786  25.041  1.00  0.00     0.157 A 
ATOM     16  C   UNL     1       4.169  25.720  24.868  1.00  0.00     0.062 A 
ATOM     17  C   UNL     1       4.364  24.382  25.232  1.00  0.00     0.158 A 
BRANCH  15  18
ATOM     18  O   UNL     1       5.905  22.459  25.383  1.00  0.00    -0.504 OA
ATOM     19  H   UNL     1       5.996  22.129  26.332  1.00  0.00     0.293 HD
ENDBRANCH  15  18
BRANCH  17  20
ATOM     20  O   UNL     1       3.279  23.688  25.772  1.00  0.00    -0.504 OA
ATOM     21  H   UNL     1       2.478  23.386  25.237  1.00  0.00     0.293 HD
ENDBRANCH  17  20
ENDBRANCH   1  12
BRANCH   2  22
ATOM     22  O   UNL     1       6.068  28.749  25.922  1.00  0.00    -0.502 OA
ATOM     23  H   UNL     1       6.966  28.283  25.979  1.00  0.00     0.293 HD
ENDBRANCH   2  22
BRANCH   6  24
ATOM     24  O   UNL     1       4.713  32.966  22.963  1.00  0.00    -0.507 OA
ATOM     25  H   UNL     1       4.168  33.656  23.458  1.00  0.00     0.293 HD
ENDBRANCH   6  24
BRANCH   8  26
ATOM     26  O   UNL     1       2.155  30.795  19.527  1.00  0.00    -0.508 OA
ATOM     27  H   UNL     1       1.922  29.977  18.977  1.00  0.00     0.293 HD
ENDBRANCH   8  26
TORSDOF 6
ENDMDL
MODEL 4
REMARK VINA RESULT:    -4.412      2.000      3.109
REMARK INTER + INTRA:          -5.638
REMARK INTER:                  -5.335
REMARK INTRA:                  -0.303
REMARK UNBOUND:                -0.323
REMARK SMILES O=c1c(O)c(-c2ccc(O)c(O)c2)oc2cc(O)cc(O)c12
REMARK SMILES IDX 5 1 3 2 2 3 1 4 22 5 20 6 19 7 17 8 16 9 15 10 14 11 6 12
REMARK SMILES IDX 7 13 8 14 9 15 13 16 11 17 10 18 12 20 4 22 21 24 18 26
REMARK H PARENT 10 19 12 21 4 23 21 25 18 27
REMARK Flexibility Score: inf
ROOT
ATOM      1  C   UNL     1       5.237  27.634  24.253  1.00  0.00     0.180 A 
ATOM      2  C   UNL     1       6.340  28.122  24.974  1.00  0.00     0.208 A 
ATOM      3  C   UNL     1       6.681  29.479  24.862  1.00  0.00     0.238 A 
ATOM      4  O   UNL     1       7.635  29.922  25.552  1.00  0.00    -0.285 OA
ATOM      5  C   UNL     1       5.925  30.327  24.017  1.00  0.00     0.111 A 
ATOM      6  C   UNL     1       6.205  31.710  23.796  1.00  0.00     0.134 A 
ATOM      7  C   UNL     1       5.313  32.482  23.043  1.00  0.00     0.093 A 
ATOM      8  C   UNL     1       4.187  31.909  22.448  1.00  0.00     0.123 A 
ATOM      9  C   UNL     1       3.937  30.548  22.609  1.00  0.00     0.094 A 
ATOM     10  C   UNL     1       4.789  29.758  23.385  1.00  0.00     0.146 A 
ATOM     11  O   UNL     1       4.509  28.468  23.521  1.00  0.00    -0.452 OA
ENDROOT
BRANCH   1  12
ATOM     12  C   UNL     1       4.831  26.210  24.301  1.00  0.00     0.025 A 
ATOM     13  C   UNL     1       5.514  25.231  23.563  1.00  0.00     0.016 A 
ATOM     14  C   UNL     1       5.099  23.898  23.605  1.00  0.00     0.051 A 
ATOM     15  C   UNL     1       3.991  23.519  24.371  1.00  0.00     0.157 A 
ATOM     16  C   UNL     1       3.707  25.836  25.053  1.00  0.00     0.062 A 
ATOM     17  C   UNL     1       3.283  24.502  25.102  1.00  0.00     0.158 A 
BRANCH  15  18
ATOM     18  O   UNL     1       3.630  22.169  24.374  1.00  0.00    -0.504 OA
ATOM     19  H   UNL     1       2.725  21.829  24.663  1.00  0.00     0.293 HD
ENDBRANCH  15  18
BRANCH  17  20
ATOM     20  O   UNL     1       2.163  24.202  25.881  1.00  0.00    -0.504 OA
ATOM     21  H   UNL     1       1.668  23.323  25.844  1.00  0.00     0.293 HD
ENDBRANCH  17  20
ENDBRANCH   1  12
BRANCH   2  22
ATOM     22  O   UNL     1       7.059  27.271  25.820  1.00  0.00    -0.502 OA
ATOM     23  H   UNL     1       7.348  27.547  26.751  1.00  0.00     0.293 HD
ENDBRANCH   2  22
BRANCH   6  24
ATOM     24  O   UNL     1       7.350  32.359  24.268  1.00  0.00    -0.507 OA
ATOM     25  H   UNL     1       7.439  32.774  25.183  1.00  0.00     0.293 HD
ENDBRANCH   6  24
BRANCH   8  26
ATOM     26  O   UNL     1       3.313  32.682  21.686  1.00  0.00    -0.508 OA
ATOM     27  H   UNL     1       3.421  33.687  21.613  1.00  0.00     0.293 HD
ENDBRANCH   8  26
TORSDOF 6
ENDMDL
MODEL 5
REMARK VINA RESULT:    -4.394      2.091      6.428
REMARK INTER + INTRA:          -5.616
REMARK INTER:                  -5.325
REMARK INTRA:                  -0.291
REMARK UNBOUND:                -0.323
REMARK SMILES O=c1c(O)c(-c2ccc(O)c(O)c2)oc2cc(O)cc(O)c12
REMARK SMILES IDX 5 1 3 2 2 3 1 4 22 5 20 6 19 7 17 8 16 9 15 10 14 11 6 12
REMARK SMILES IDX 7 13 8 14 9 15 13 16 11 17 10 18 12 20 4 22 21 24 18 26
REMARK H PARENT 10 19 12 21 4 23 21 25 18 27
REMARK Flexibility Score: inf
ROOT
ATOM      1  C   UNL     1       5.766  28.541  24.027  1.00  0.00     0.180 A 
ATOM      2  C   UNL     1       7.062  28.025  23.849  1.00  0.00     0.208 A 
ATOM      3  C   UNL     1       7.302  26.673  24.138  1.00  0.00     0.238 A 
ATOM      4  O   UNL     1       8.450  26.204  23.925  1.00  0.00    -0.285 OA
ATOM      5  C   UNL     1       6.248  25.858  24.617  1.00  0.00     0.111 A 
ATOM      6  C   UNL     1       6.387  24.483  24.981  1.00  0.00     0.134 A 
ATOM      7  C   UNL     1       5.250  23.740  25.317  1.00  0.00     0.093 A 
ATOM      8  C   UNL     1       3.988  24.336  25.367  1.00  0.00     0.123 A 
ATOM      9  C   UNL     1       3.851  25.691  25.071  1.00  0.00     0.094 A 
ATOM     10  C   UNL     1       4.962  26.450  24.698  1.00  0.00     0.146 A 
ATOM     11  O   UNL     1       4.785  27.735  24.415  1.00  0.00    -0.452 OA
ENDROOT
BRANCH   1  12
ATOM     12  C   UNL     1       5.442  29.963  23.767  1.00  0.00     0.025 A 
ATOM     13  C   UNL     1       5.798  30.971  24.676  1.00  0.00     0.016 A 
ATOM     14  C   UNL     1       5.460  32.302  24.420  1.00  0.00     0.051 A 
ATOM     15  C   UNL     1       4.751  32.651  23.265  1.00  0.00     0.157 A 
ATOM     16  C   UNL     1       4.712  30.306  22.618  1.00  0.00     0.062 A 
ATOM     17  C   UNL     1       4.369  31.638  22.354  1.00  0.00     0.158 A 
BRANCH  15  18
ATOM     18  O   UNL     1       4.448  34.000  23.068  1.00  0.00    -0.504 OA
ATOM     19  H   UNL     1       4.984  34.616  22.473  1.00  0.00     0.293 HD
ENDBRANCH  15  18
BRANCH  17  20
ATOM     20  O   UNL     1       3.653  31.907  21.185  1.00  0.00    -0.504 OA
ATOM     21  H   UNL     1       2.669  32.132  21.165  1.00  0.00     0.293 HD
ENDBRANCH  17  20
ENDBRANCH   1  12
BRANCH   2  22
ATOM     22  O   UNL     1       8.082  28.843  23.355  1.00  0.00    -0.502 OA
ATOM     23  H   UNL     1       8.085  29.195  22.404  1.00  0.00     0.293 HD
ENDBRANCH   2  22
BRANCH   6  24
ATOM     24  O   UNL     1       7.614  23.816  25.052  1.00  0.00    -0.507 OA
ATOM     25  H   UNL     1       8.454  24.199  25.459  1.00  0.00     0.293 HD
ENDBRANCH   6  24
BRANCH   8  26
ATOM     26  O   UNL     1       2.863  23.593  25.718  1.00  0.00    -0.508 OA
ATOM     27  H   UNL     1       2.170  23.324  25.029  1.00  0.00     0.293 HD
ENDBRANCH   8  26
TORSDOF 6
ENDMDL
MODEL 6
REMARK VINA RESULT:    -4.316      2.482      4.131
REMARK INTER + INTRA:          -5.523
REMARK INTER:                  -5.532
REMARK INTRA:                   0.010
REMARK UNBOUND:                -0.323
REMARK SMILES O=c1c(O)c(-c2ccc(O)c(O)c2)oc2cc(O)cc(O)c12
REMARK SMILES IDX 5 1 3 2 2 3 1 4 22 5 20 6 19 7 17 8 16 9 15 10 14 11 6 12
REMARK SMILES IDX 7 13 8 14 9 15 13 16 11 17 10 18 12 20 4 22 21 24 18 26
REMARK H PARENT 10 19 12 21 4 23 21 25 18 27
REMARK Flexibility Score: inf
ROOT
ATOM      1  C   UNL     1       5.652  27.632  24.093  1.00  0.00     0.180 A 
ATOM      2  C   UNL     1       4.613  28.091  23.265  1.00  0.00     0.208 A 
ATOM      3  C   UNL     1       4.524  29.463  22.980  1.00  0.00     0.238 A 
ATOM      4  O   UNL     1       3.625  29.860  22.195  1.00  0.00    -0.285 OA
ATOM      5  C   UNL     1       5.466  30.360  23.540  1.00  0.00     0.111 A 
ATOM      6  C   UNL     1       5.448  31.776  23.351  1.00  0.00     0.134 A 
ATOM      7  C   UNL     1       6.503  32.551  23.844  1.00  0.00     0.093 A 
ATOM      8  C   UNL     1       7.543  31.972  24.576  1.00  0.00     0.123 A 
ATOM      9  C   UNL     1       7.539  30.599  24.815  1.00  0.00     0.094 A 
ATOM     10  C   UNL     1       6.518  29.794  24.305  1.00  0.00     0.146 A 
ATOM     11  O   UNL     1       6.557  28.490  24.548  1.00  0.00    -0.452 OA
ENDROOT
BRANCH   1  12
ATOM     12  C   UNL     1       5.796  26.204  24.458  1.00  0.00     0.025 A 
ATOM     13  C   UNL     1       7.003  25.516  24.254  1.00  0.00     0.016 A 
ATOM     14  C   UNL     1       7.108  24.164  24.584  1.00  0.00     0.051 A 
ATOM     15  C   UNL     1       6.013  23.469  25.110  1.00  0.00     0.157 A 
ATOM     16  C   UNL     1       4.691  25.505  24.966  1.00  0.00     0.062 A 
ATOM     17  C   UNL     1       4.786  24.148  25.301  1.00  0.00     0.158 A 
BRANCH  15  18
ATOM     18  O   UNL     1       6.186  22.119  25.424  1.00  0.00    -0.504 OA
ATOM     19  H   UNL     1       6.766  21.486  24.891  1.00  0.00     0.293 HD
ENDBRANCH  15  18
BRANCH  17  20
ATOM     20  O   UNL     1       3.648  23.521  25.812  1.00  0.00    -0.504 OA
ATOM     21  H   UNL     1       2.787  23.406  25.297  1.00  0.00     0.293 HD
ENDBRANCH  17  20
ENDBRANCH   1  12
BRANCH   2  22
ATOM     22  O   UNL     1       3.708  27.184  22.706  1.00  0.00    -0.502 OA
ATOM     23  H   UNL     1       3.017  26.693  23.261  1.00  0.00     0.293 HD
ENDBRANCH   2  22
BRANCH   6  24
ATOM     24  O   UNL     1       4.410  32.465  22.716  1.00  0.00    -0.507 OA
ATOM     25  H   UNL     1       4.539  33.225  22.065  1.00  0.00     0.293 HD
ENDBRANCH   6  24
BRANCH   8  26
ATOM     26  O   UNL     1       8.583  32.753  25.076  1.00  0.00    -0.508 OA
ATOM     27  H   UNL     1       8.616  33.753  24.919  1.00  0.00     0.293 HD
ENDBRANCH   8  26
TORSDOF 6
ENDMDL
MODEL 7
REMARK VINA RESULT:    -4.246      2.583      6.364
REMARK INTER + INTRA:          -5.438
REMARK INTER:                  -5.127
REMARK INTRA:                  -0.312
REMARK UNBOUND:                -0.323
REMARK SMILES O=c1c(O)c(-c2ccc(O)c(O)c2)oc2cc(O)cc(O)c12
REMARK SMILES IDX 5 1 3 2 2 3 1 4 22 5 20 6 19 7 17 8 16 9 15 10 14 11 6 12
REMARK SMILES IDX 7 13 8 14 9 15 13 16 11 17 10 18 12 20 4 22 21 24 18 26
REMARK H PARENT 10 19 12 21 4 23 21 25 18 27
REMARK Flexibility Score: inf
ROOT
ATOM      1  C   UNL     1       6.080  27.147  24.578  1.00  0.00     0.180 A 
ATOM      2  C   UNL     1       5.036  26.208  24.633  1.00  0.00     0.208 A 
ATOM      3  C   UNL     1       5.337  24.871  24.939  1.00  0.00     0.238 A 
ATOM      4  O   UNL     1       4.393  24.047  25.040  1.00  0.00    -0.285 OA
ATOM      5  C   UNL     1       6.681  24.488  25.170  1.00  0.00     0.111 A 
ATOM      6  C   UNL     1       7.106  23.153  25.448  1.00  0.00     0.134 A 
ATOM      7  C   UNL     1       8.442  22.912  25.789  1.00  0.00     0.093 A 
ATOM      8  C   UNL     1       9.382  23.945  25.798  1.00  0.00     0.123 A 
ATOM      9  C   UNL     1       8.988  25.241  25.470  1.00  0.00     0.094 A 
ATOM     10  C   UNL     1       7.655  25.519  25.161  1.00  0.00     0.146 A 
ATOM     11  O   UNL     1       7.320  26.769  24.864  1.00  0.00    -0.452 OA
ENDROOT
BRANCH   1  12
ATOM     12  C   UNL     1       5.844  28.569  24.238  1.00  0.00     0.025 A 
ATOM     13  C   UNL     1       5.661  29.538  25.236  1.00  0.00     0.016 A 
ATOM     14  C   UNL     1       5.416  30.869  24.891  1.00  0.00     0.051 A 
ATOM     15  C   UNL     1       5.336  31.256  23.548  1.00  0.00     0.157 A 
ATOM     16  C   UNL     1       5.744  28.950  22.891  1.00  0.00     0.062 A 
ATOM     17  C   UNL     1       5.499  30.282  22.534  1.00  0.00     0.158 A 
BRANCH  15  18
ATOM     18  O   UNL     1       5.093  32.603  23.271  1.00  0.00    -0.504 OA
ATOM     19  H   UNL     1       5.596  33.135  22.576  1.00  0.00     0.293 HD
ENDBRANCH  15  18
BRANCH  17  20
ATOM     20  O   UNL     1       5.423  30.590  21.174  1.00  0.00    -0.504 OA
ATOM     21  H   UNL     1       4.711  30.234  20.553  1.00  0.00     0.293 HD
ENDBRANCH  17  20
ENDBRANCH   1  12
BRANCH   2  22
ATOM     22  O   UNL     1       3.715  26.613  24.423  1.00  0.00    -0.502 OA
ATOM     23  H   UNL     1       3.161  26.279  23.642  1.00  0.00     0.293 HD
ENDBRANCH   2  22
BRANCH   6  24
ATOM     24  O   UNL     1       6.268  22.036  25.376  1.00  0.00    -0.507 OA
ATOM     25  H   UNL     1       6.287  21.350  24.638  1.00  0.00     0.293 HD
ENDBRANCH   6  24
BRANCH   8  26
ATOM     26  O   UNL     1      10.713  23.694  26.124  1.00  0.00    -0.508 OA
ATOM     27  H   UNL     1      11.411  24.429  26.105  1.00  0.00     0.293 HD
ENDBRANCH   8  26
TORSDOF 6
ENDMDL
MODEL 8
REMARK VINA RESULT:    -4.207      4.930      8.604
REMARK INTER + INTRA:          -5.391
REMARK INTER:                  -5.259
REMARK INTRA:                  -0.132
REMARK UNBOUND:                -0.323
REMARK SMILES O=c1c(O)c(-c2ccc(O)c(O)c2)oc2cc(O)cc(O)c12
REMARK SMILES IDX 5 1 3 2 2 3 1 4 22 5 20 6 19 7 17 8 16 9 15 10 14 11 6 12
REMARK SMILES IDX 7 13 8 14 9 15 13 16 11 17 10 18 12 20 4 22 21 24 18 26
REMARK H PARENT 10 19 12 21 4 23 21 25 18 27
REMARK Flexibility Score: inf
ROOT
ATOM      1  C   UNL     1       5.611  33.254  23.233  1.00  0.00     0.180 A 
ATOM      2  C   UNL     1       5.958  34.522  23.731  1.00  0.00     0.208 A 
ATOM      3  C   UNL     1       5.577  35.665  23.011  1.00  0.00     0.238 A 
ATOM      4  O   UNL     1       5.843  36.797  23.490  1.00  0.00    -0.285 OA
ATOM      5  C   UNL     1       4.869  35.525  21.793  1.00  0.00     0.111 A 
ATOM      6  C   UNL     1       4.468  36.613  20.959  1.00  0.00     0.134 A 
ATOM      7  C   UNL     1       3.658  36.367  19.845  1.00  0.00     0.093 A 
ATOM      8  C   UNL     1       3.289  35.065  19.495  1.00  0.00     0.123 A 
ATOM      9  C   UNL     1       3.725  33.992  20.269  1.00  0.00     0.094 A 
ATOM     10  C   UNL     1       4.504  34.209  21.408  1.00  0.00     0.146 A 
ATOM     11  O   UNL     1       4.890  33.159  22.123  1.00  0.00    -0.452 OA
ENDROOT
BRANCH   1  12
ATOM     12  C   UNL     1       5.999  32.003  23.923  1.00  0.00     0.025 A 
ATOM     13  C   UNL     1       7.346  31.688  24.163  1.00  0.00     0.016 A 
ATOM     14  C   UNL     1       7.688  30.491  24.795  1.00  0.00     0.051 A 
ATOM     15  C   UNL     1       6.700  29.581  25.187  1.00  0.00     0.157 A 
ATOM     16  C   UNL     1       5.007  31.083  24.296  1.00  0.00     0.062 A 
ATOM     17  C   UNL     1       5.341  29.879  24.930  1.00  0.00     0.158 A 
BRANCH  15  18
ATOM     18  O   UNL     1       7.110  28.404  25.818  1.00  0.00    -0.504 OA
ATOM     19  H   UNL     1       7.872  28.354  26.478  1.00  0.00     0.293 HD
ENDBRANCH  15  18
BRANCH  17  20
ATOM     20  O   UNL     1       4.300  29.017  25.283  1.00  0.00    -0.504 OA
ATOM     21  H   UNL     1       4.433  28.055  25.559  1.00  0.00     0.293 HD
ENDBRANCH  17  20
ENDBRANCH   1  12
BRANCH   2  22
ATOM     22  O   UNL     1       6.639  34.636  24.947  1.00  0.00    -0.502 OA
ATOM     23  H   UNL     1       6.161  34.641  25.840  1.00  0.00     0.293 HD
ENDBRANCH   2  22
BRANCH   6  24
ATOM     24  O   UNL     1       4.858  37.940  21.167  1.00  0.00    -0.507 OA
ATOM     25  H   UNL     1       4.551  38.516  21.937  1.00  0.00     0.293 HD
ENDBRANCH   6  24
BRANCH   8  26
ATOM     26  O   UNL     1       2.496  34.827  18.375  1.00  0.00    -0.508 OA
ATOM     27  H   UNL     1       2.462  33.915  17.934  1.00  0.00     0.293 HD
ENDBRANCH   8  26
TORSDOF 6
ENDMDL
MODEL 9
REMARK VINA RESULT:    -4.170      4.556      6.679
REMARK INTER + INTRA:          -5.347
REMARK INTER:                  -5.163
REMARK INTRA:                  -0.184
REMARK UNBOUND:                -0.323
REMARK SMILES O=c1c(O)c(-c2ccc(O)c(O)c2)oc2cc(O)cc(O)c12
REMARK SMILES IDX 5 1 3 2 2 3 1 4 22 5 20 6 19 7 17 8 16 9 15 10 14 11 6 12
REMARK SMILES IDX 7 13 8 14 9 15 13 16 11 17 10 18 12 20 4 22 21 24 18 26
REMARK H PARENT 10 19 12 21 4 23 21 25 18 27
REMARK Flexibility Score: inf
ROOT
ATOM      1  C   UNL     1       3.810  31.151  21.934  1.00  0.00     0.180 A 
ATOM      2  C   UNL     1       3.802  29.827  22.406  1.00  0.00     0.208 A 
ATOM      3  C   UNL     1       4.810  29.413  23.291  1.00  0.00     0.238 A 
ATOM      4  O   UNL     1       4.766  28.244  23.753  1.00  0.00    -0.285 OA
ATOM      5  C   UNL     1       5.823  30.323  23.678  1.00  0.00     0.111 A 
ATOM      6  C   UNL     1       6.916  30.000  24.538  1.00  0.00     0.134 A 
ATOM      7  C   UNL     1       7.786  31.013  24.959  1.00  0.00     0.093 A 
ATOM      8  C   UNL     1       7.641  32.325  24.500  1.00  0.00     0.123 A 
ATOM      9  C   UNL     1       6.612  32.637  23.614  1.00  0.00     0.094 A 
ATOM     10  C   UNL     1       5.707  31.655  23.204  1.00  0.00     0.146 A 
ATOM     11  O   UNL     1       4.735  31.998  22.367  1.00  0.00    -0.452 OA
ENDROOT
BRANCH   1  12
ATOM     12  C   UNL     1       2.794  31.653  20.979  1.00  0.00     0.025 A 
ATOM     13  C   UNL     1       2.687  31.126  19.683  1.00  0.00     0.016 A 
ATOM     14  C   UNL     1       1.737  31.633  18.793  1.00  0.00     0.051 A 
ATOM     15  C   UNL     1       0.889  32.679  19.171  1.00  0.00     0.157 A 
ATOM     16  C   UNL     1       1.959  32.716  21.355  1.00  0.00     0.062 A 
ATOM     17  C   UNL     1       1.003  33.231  20.469  1.00  0.00     0.158 A 
BRANCH  15  18
ATOM     18  O   UNL     1      -0.042  33.136  18.235  1.00  0.00    -0.504 OA
ATOM     19  H   UNL     1      -0.318  32.616  17.415  1.00  0.00     0.293 HD
ENDBRANCH  15  18
BRANCH  17  20
ATOM     20  O   UNL     1       0.199  34.281  20.916  1.00  0.00    -0.504 OA
ATOM     21  H   UNL     1      -0.673  34.154  21.409  1.00  0.00     0.293 HD
ENDBRANCH  17  20
ENDBRANCH   1  12
BRANCH   2  22
ATOM     22  O   UNL     1       2.779  28.952  22.027  1.00  0.00    -0.502 OA
ATOM     23  H   UNL     1       2.350  28.982  21.109  1.00  0.00     0.293 HD
ENDBRANCH   2  22
BRANCH   6  24
ATOM     24  O   UNL     1       7.205  28.706  24.981  1.00  0.00    -0.507 OA
ATOM     25  H   UNL     1       8.131  28.308  25.030  1.00  0.00     0.293 HD
ENDBRANCH   6  24
BRANCH   8  26
ATOM     26  O   UNL     1       8.520  33.325  24.912  1.00  0.00    -0.508 OA
ATOM     27  H   UNL     1       9.395  33.491  24.429  1.00  0.00     0.293 HD
ENDBRANCH   8  26
TORSDOF 6
ENDMDL
