MODEL 1
REMARK VINA RESULT:    -3.654      0.000      0.000
REMARK INTER + INTRA:         -14.534
REMARK INTER:                  -9.634
REMARK INTRA:                  -4.900
REMARK UNBOUND:                -4.900
REMARK SMILES CCCCCCCCCCCCCCCCCCCCCCCCCCCCCC(=O)[O-]
REMARK SMILES IDX 16 1 17 2 18 3 19 4 20 5 21 6 22 7 23 8 24 9 25 10 26 11
REMARK SMILES IDX 27 12 28 13 29 14 30 15 31 16 32 17 15 18 14 19 13 20 12 21
REMARK SMILES IDX 11 22 10 23 9 24 8 25 7 26 6 27 5 28 4 29 3 30 2 31 1 32
REMARK H PARENT
REMARK Flexibility Score: inf
ROOT
ATOM      1  C   UNL     1      33.862  -0.751 -37.193  1.00  0.00     0.000 C 
ENDROOT
BRANCH   1   2
ATOM      2  C   UNL     1      32.882  -0.195 -38.247  1.00  0.00     0.000 C 
BRANCH   2   3
ATOM      3  C   UNL     1      31.691  -1.111 -38.584  1.00  0.00     0.000 C 
BRANCH   3   4
ATOM      4  C   UNL     1      30.433  -0.328 -39.002  1.00  0.00     0.000 C 
BRANCH   4   5
ATOM      5  C   UNL     1      29.938   0.636 -37.908  1.00  0.00     0.000 C 
BRANCH   5   6
ATOM      6  C   UNL     1      29.713  -0.004 -36.523  1.00  0.00     0.000 C 
BRANCH   6   7
ATOM      7  C   UNL     1      29.936   0.940 -35.323  1.00  0.00     0.000 C 
BRANCH   7   8
ATOM      8  C   UNL     1      30.920   2.100 -35.577  1.00  0.00     0.000 C 
BRANCH   8   9
ATOM      9  C   UNL     1      30.969   3.170 -34.471  1.00  0.00     0.000 C 
BRANCH   9  10
ATOM     10  C   UNL     1      31.834   2.749 -33.271  1.00  0.00     0.000 C 
BRANCH  10  11
ATOM     11  C   UNL     1      33.337   2.743 -33.599  1.00  0.00     0.000 C 
BRANCH  11  12
ATOM     12  C   UNL     1      34.015   4.092 -33.316  1.00  0.00     0.000 C 
BRANCH  12  13
ATOM     13  C   UNL     1      33.129   4.973 -32.424  1.00  0.00     0.006 C 
BRANCH  13  14
ATOM     14  C   UNL     1      33.917   5.617 -31.275  1.00  0.00     0.053 C 
BRANCH  14  15
ATOM     15  C   UNL     1      34.903   6.631 -31.771  1.00  0.00     0.041 C 
ATOM     16  O   UNL     1      34.648   7.862 -31.683  1.00  0.00    -0.550 OA
ATOM     17  O   UNL     1      36.118   6.216 -32.301  1.00  0.00    -0.550 OA
ENDBRANCH  14  15
ENDBRANCH  13  14
ENDBRANCH  12  13
ENDBRANCH  11  12
ENDBRANCH  10  11
ENDBRANCH   9  10
ENDBRANCH   8   9
ENDBRANCH   7   8
ENDBRANCH   6   7
ENDBRANCH   5   6
ENDBRANCH   4   5
ENDBRANCH   3   4
ENDBRANCH   2   3
ENDBRANCH   1   2
BRANCH   1  18
ATOM     18  C   UNL     1      33.826  -0.037 -35.828  1.00  0.00     0.000 C 
BRANCH  18  19
ATOM     19  C   UNL     1      33.110  -0.813 -34.706  1.00  0.00     0.000 C 
BRANCH  19  20
ATOM     20  C   UNL     1      32.787  -2.282 -35.037  1.00  0.00     0.000 C 
BRANCH  20  21
ATOM     21  C   UNL     1      31.278  -2.568 -35.064  1.00  0.00     0.000 C 
BRANCH  21  22
ATOM     22  C   UNL     1      30.989  -3.949 -35.675  1.00  0.00     0.000 C 
BRANCH  22  23
ATOM     23  C   UNL     1      32.083  -4.405 -36.654  1.00  0.00     0.000 C 
BRANCH  23  24
ATOM     24  C   UNL     1      31.563  -5.402 -37.704  1.00  0.00    -0.000 C 
BRANCH  24  25
ATOM     25  C   UNL     1      31.057  -4.705 -38.977  1.00  0.00    -0.000 C 
BRANCH  25  26
ATOM     26  C   UNL     1      29.559  -4.936 -39.227  1.00  0.00    -0.000 C 
BRANCH  26  27
ATOM     27  C   UNL     1      28.806  -3.603 -39.299  1.00  0.00    -0.000 C 
BRANCH  27  28
ATOM     28  C   UNL     1      28.179  -3.249 -37.942  1.00  0.00    -0.000 C 
BRANCH  28  29
ATOM     29  C   UNL     1      27.574  -4.470 -37.228  1.00  0.00    -0.000 C 
BRANCH  29  30
ATOM     30  C   UNL     1      26.394  -4.154 -36.290  1.00  0.00    -0.000 C 
BRANCH  30  31
ATOM     31  C   UNL     1      26.791  -4.057 -34.802  1.00  0.00    -0.003 C 
ATOM     32  C   UNL     1      27.465  -2.728 -34.462  1.00  0.00     0.004 C 
ENDBRANCH  30  31
ENDBRANCH  29  30
ENDBRANCH  28  29
ENDBRANCH  27  28
ENDBRANCH  26  27
ENDBRANCH  25  26
ENDBRANCH  24  25
ENDBRANCH  23  24
ENDBRANCH  22  23
ENDBRANCH  21  22
ENDBRANCH  20  21
ENDBRANCH  19  20
ENDBRANCH  18  19
ENDBRANCH   1  18
TORSDOF 28
ENDMDL
MODEL 2
REMARK VINA RESULT:    -3.623      1.527      2.751
REMARK INTER + INTRA:         -14.452
REMARK INTER:                  -8.684
REMARK INTRA:                  -5.769
REMARK UNBOUND:                -4.900
REMARK SMILES CCCCCCCCCCCCCCCCCCCCCCCCCCCCCC(=O)[O-]
REMARK SMILES IDX 16 1 17 2 18 3 19 4 20 5 21 6 22 7 23 8 24 9 25 10 26 11
REMARK SMILES IDX 27 12 28 13 29 14 30 15 31 16 32 17 15 18 14 19 13 20 12 21
REMARK SMILES IDX 11 22 10 23 9 24 8 25 7 26 6 27 5 28 4 29 3 30 2 31 1 32
REMARK H PARENT
REMARK Flexibility Score: inf
ROOT
ATOM      1  C   UNL     1      31.667   0.500 -37.807  1.00  0.00     0.000 C 
ENDROOT
BRANCH   1   2
ATOM      2  C   UNL     1      30.691   0.442 -39.000  1.00  0.00     0.000 C 
BRANCH   2   3
ATOM      3  C   UNL     1      30.348   1.802 -39.636  1.00  0.00     0.000 C 
BRANCH   3   4
ATOM      4  C   UNL     1      28.869   2.189 -39.461  1.00  0.00     0.000 C 
BRANCH   4   5
ATOM      5  C   UNL     1      28.594   2.920 -38.134  1.00  0.00     0.000 C 
BRANCH   5   6
ATOM      6  C   UNL     1      27.340   2.447 -37.372  1.00  0.00     0.000 C 
BRANCH   6   7
ATOM      7  C   UNL     1      27.121   0.920 -37.359  1.00  0.00     0.000 C 
BRANCH   7   8
ATOM      8  C   UNL     1      28.142   0.119 -36.525  1.00  0.00     0.000 C 
BRANCH   8   9
ATOM      9  C   UNL     1      28.218   0.503 -35.037  1.00  0.00     0.000 C 
BRANCH   9  10
ATOM     10  C   UNL     1      29.640   0.883 -34.591  1.00  0.00     0.000 C 
BRANCH  10  11
ATOM     11  C   UNL     1      29.908   2.394 -34.697  1.00  0.00     0.000 C 
BRANCH  11  12
ATOM     12  C   UNL     1      31.404   2.730 -34.792  1.00  0.00     0.000 C 
BRANCH  12  13
ATOM     13  C   UNL     1      32.027   2.850 -33.393  1.00  0.00     0.006 C 
BRANCH  13  14
ATOM     14  C   UNL     1      33.544   3.081 -33.450  1.00  0.00     0.053 C 
BRANCH  14  15
ATOM     15  C   UNL     1      33.912   4.480 -33.061  1.00  0.00     0.041 C 
ATOM     16  O   UNL     1      33.224   5.105 -32.210  1.00  0.00    -0.550 OA
ATOM     17  O   UNL     1      35.035   5.082 -33.614  1.00  0.00    -0.550 OA
ENDBRANCH  14  15
ENDBRANCH  13  14
ENDBRANCH  12  13
ENDBRANCH  11  12
ENDBRANCH  10  11
ENDBRANCH   9  10
ENDBRANCH   8   9
ENDBRANCH   7   8
ENDBRANCH   6   7
ENDBRANCH   5   6
ENDBRANCH   4   5
ENDBRANCH   3   4
ENDBRANCH   2   3
ENDBRANCH   1   2
BRANCH   1  18
ATOM     18  C   UNL     1      33.104   0.038 -38.116  1.00  0.00     0.000 C 
BRANCH  18  19
ATOM     19  C   UNL     1      33.814  -0.695 -36.960  1.00  0.00     0.000 C 
BRANCH  19  20
ATOM     20  C   UNL     1      33.857   0.079 -35.630  1.00  0.00     0.000 C 
BRANCH  20  21
ATOM     21  C   UNL     1      33.059  -0.612 -34.514  1.00  0.00     0.000 C 
BRANCH  21  22
ATOM     22  C   UNL     1      32.685  -2.049 -34.910  1.00  0.00     0.000 C 
BRANCH  22  23
ATOM     23  C   UNL     1      31.176  -2.226 -35.145  1.00  0.00     0.000 C 
BRANCH  23  24
ATOM     24  C   UNL     1      30.770  -3.700 -35.312  1.00  0.00    -0.000 C 
BRANCH  24  25
ATOM     25  C   UNL     1      30.487  -4.070 -36.777  1.00  0.00    -0.000 C 
BRANCH  25  26
ATOM     26  C   UNL     1      29.803  -2.937 -37.555  1.00  0.00    -0.000 C 
BRANCH  26  27
ATOM     27  C   UNL     1      28.502  -3.426 -38.202  1.00  0.00    -0.000 C 
BRANCH  27  28
ATOM     28  C   UNL     1      28.061  -4.770 -37.604  1.00  0.00    -0.000 C 
BRANCH  28  29
ATOM     29  C   UNL     1      26.728  -4.675 -36.842  1.00  0.00    -0.000 C 
BRANCH  29  30
ATOM     30  C   UNL     1      26.853  -4.261 -35.364  1.00  0.00    -0.000 C 
BRANCH  30  31
ATOM     31  C   UNL     1      26.434  -2.801 -35.090  1.00  0.00    -0.003 C 
ATOM     32  C   UNL     1      25.379  -2.300 -36.076  1.00  0.00     0.004 C 
ENDBRANCH  30  31
ENDBRANCH  29  30
ENDBRANCH  28  29
ENDBRANCH  27  28
ENDBRANCH  26  27
ENDBRANCH  25  26
ENDBRANCH  24  25
ENDBRANCH  23  24
ENDBRANCH  22  23
ENDBRANCH  21  22
ENDBRANCH  20  21
ENDBRANCH  19  20
ENDBRANCH  18  19
ENDBRANCH   1  18
TORSDOF 28
ENDMDL
MODEL 3
REMARK VINA RESULT:    -3.612      4.011      8.658
REMARK INTER + INTRA:         -14.423
REMARK INTER:                  -9.474
REMARK INTRA:                  -4.950
REMARK UNBOUND:                -4.900
REMARK SMILES CCCCCCCCCCCCCCCCCCCCCCCCCCCCCC(=O)[O-]
REMARK SMILES IDX 16 1 17 2 18 3 19 4 20 5 21 6 22 7 23 8 24 9 25 10 26 11
REMARK SMILES IDX 27 12 28 13 29 14 30 15 31 16 32 17 15 18 14 19 13 20 12 21
REMARK SMILES IDX 11 22 10 23 9 24 8 25 7 26 6 27 5 28 4 29 3 30 2 31 1 32
REMARK H PARENT
REMARK Flexibility Score: inf
ROOT
ATOM      1  C   UNL     1      33.102  -0.566 -34.334  1.00  0.00     0.000 C 
ENDROOT
BRANCH   1   2
ATOM      2  C   UNL     1      32.660  -2.031 -34.528  1.00  0.00     0.000 C 
BRANCH   2   3
ATOM      3  C   UNL     1      31.138  -2.256 -34.589  1.00  0.00     0.000 C 
BRANCH   3   4
ATOM      4  C   UNL     1      30.756  -3.598 -35.237  1.00  0.00     0.000 C 
BRANCH   4   5
ATOM      5  C   UNL     1      31.919  -4.237 -36.018  1.00  0.00     0.000 C 
BRANCH   5   6
ATOM      6  C   UNL     1      31.616  -4.566 -37.494  1.00  0.00     0.000 C 
BRANCH   6   7
ATOM      7  C   UNL     1      30.867  -5.894 -37.727  1.00  0.00     0.000 C 
BRANCH   7   8
ATOM      8  C   UNL     1      29.467  -5.755 -38.360  1.00  0.00     0.000 C 
BRANCH   8   9
ATOM      9  C   UNL     1      29.031  -4.313 -38.676  1.00  0.00     0.000 C 
BRANCH   9  10
ATOM     10  C   UNL     1      27.937  -3.799 -37.726  1.00  0.00     0.000 C 
BRANCH  10  11
ATOM     11  C   UNL     1      27.163  -4.939 -37.043  1.00  0.00     0.000 C 
BRANCH  11  12
ATOM     12  C   UNL     1      26.421  -4.483 -35.777  1.00  0.00     0.000 C 
BRANCH  12  13
ATOM     13  C   UNL     1      25.617  -3.202 -36.045  1.00  0.00     0.006 C 
BRANCH  13  14
ATOM     14  C   UNL     1      24.161  -3.320 -35.574  1.00  0.00     0.053 C 
BRANCH  14  15
ATOM     15  C   UNL     1      24.040  -3.178 -34.087  1.00  0.00     0.041 C 
ATOM     16  O   UNL     1      24.608  -2.223 -33.492  1.00  0.00    -0.550 OA
ATOM     17  O   UNL     1      23.273  -4.081 -33.363  1.00  0.00    -0.550 OA
ENDBRANCH  14  15
ENDBRANCH  13  14
ENDBRANCH  12  13
ENDBRANCH  11  12
ENDBRANCH  10  11
ENDBRANCH   9  10
ENDBRANCH   8   9
ENDBRANCH   7   8
ENDBRANCH   6   7
ENDBRANCH   5   6
ENDBRANCH   4   5
ENDBRANCH   3   4
ENDBRANCH   2   3
ENDBRANCH   1   2
BRANCH   1  18
ATOM     18  C   UNL     1      33.806   0.070 -35.549  1.00  0.00     0.000 C 
BRANCH  18  19
ATOM     19  C   UNL     1      33.887  -0.830 -36.798  1.00  0.00     0.000 C 
BRANCH  19  20
ATOM     20  C   UNL     1      33.154  -0.288 -38.038  1.00  0.00     0.000 C 
BRANCH  20  21
ATOM     21  C   UNL     1      32.467  -1.393 -38.855  1.00  0.00     0.000 C 
BRANCH  21  22
ATOM     22  C   UNL     1      30.971  -1.093 -39.039  1.00  0.00     0.000 C 
BRANCH  22  23
ATOM     23  C   UNL     1      30.238  -0.890 -37.704  1.00  0.00     0.000 C 
BRANCH  23  24
ATOM     24  C   UNL     1      29.189   0.234 -37.767  1.00  0.00    -0.000 C 
BRANCH  24  25
ATOM     25  C   UNL     1      29.801   1.624 -37.538  1.00  0.00    -0.000 C 
BRANCH  25  26
ATOM     26  C   UNL     1      30.700   1.681 -36.293  1.00  0.00    -0.000 C 
BRANCH  26  27
ATOM     27  C   UNL     1      29.907   2.150 -35.068  1.00  0.00    -0.000 C 
BRANCH  27  28
ATOM     28  C   UNL     1      30.791   2.160 -33.811  1.00  0.00    -0.000 C 
BRANCH  28  29
ATOM     29  C   UNL     1      30.731   3.495 -33.050  1.00  0.00    -0.000 C 
BRANCH  29  30
ATOM     30  C   UNL     1      32.011   4.348 -33.133  1.00  0.00    -0.000 C 
BRANCH  30  31
ATOM     31  C   UNL     1      33.281   3.533 -33.455  1.00  0.00    -0.003 C 
ATOM     32  C   UNL     1      34.565   4.298 -33.130  1.00  0.00     0.004 C 
ENDBRANCH  30  31
ENDBRANCH  29  30
ENDBRANCH  28  29
ENDBRANCH  27  28
ENDBRANCH  26  27
ENDBRANCH  25  26
ENDBRANCH  24  25
ENDBRANCH  23  24
ENDBRANCH  22  23
ENDBRANCH  21  22
ENDBRANCH  20  21
ENDBRANCH  19  20
ENDBRANCH  18  19
ENDBRANCH   1  18
TORSDOF 28
ENDMDL
MODEL 4
REMARK VINA RESULT:    -3.611      4.206      8.559
REMARK INTER + INTRA:         -14.422
REMARK INTER:                  -9.002
REMARK INTRA:                  -5.420
REMARK UNBOUND:                -4.900
REMARK SMILES CCCCCCCCCCCCCCCCCCCCCCCCCCCCCC(=O)[O-]
REMARK SMILES IDX 16 1 17 2 18 3 19 4 20 5 21 6 22 7 23 8 24 9 25 10 26 11
REMARK SMILES IDX 27 12 28 13 29 14 30 15 31 16 32 17 15 18 14 19 13 20 12 21
REMARK SMILES IDX 11 22 10 23 9 24 8 25 7 26 6 27 5 28 4 29 3 30 2 31 1 32
REMARK H PARENT
REMARK Flexibility Score: inf
ROOT
ATOM      1  C   UNL     1      29.973  -1.211 -34.521  1.00  0.00     0.000 C 
ENDROOT
BRANCH   1   2
ATOM      2  C   UNL     1      29.991  -2.327 -35.586  1.00  0.00     0.000 C 
BRANCH   2   3
ATOM      3  C   UNL     1      30.590  -3.667 -35.122  1.00  0.00     0.000 C 
BRANCH   3   4
ATOM      4  C   UNL     1      31.244  -4.459 -36.269  1.00  0.00     0.000 C 
BRANCH   4   5
ATOM      5  C   UNL     1      30.873  -3.914 -37.660  1.00  0.00     0.000 C 
BRANCH   5   6
ATOM      6  C   UNL     1      30.279  -4.951 -38.634  1.00  0.00     0.000 C 
BRANCH   6   7
ATOM      7  C   UNL     1      28.940  -5.573 -38.189  1.00  0.00     0.000 C 
BRANCH   7   8
ATOM      8  C   UNL     1      27.871  -4.564 -37.723  1.00  0.00     0.000 C 
BRANCH   8   9
ATOM      9  C   UNL     1      26.838  -5.117 -36.725  1.00  0.00     0.000 C 
BRANCH   9  10
ATOM     10  C   UNL     1      25.950  -4.019 -36.115  1.00  0.00     0.000 C 
BRANCH  10  11
ATOM     11  C   UNL     1      26.596  -3.348 -34.891  1.00  0.00     0.000 C 
BRANCH  11  12
ATOM     12  C   UNL     1      26.806  -4.319 -33.719  1.00  0.00     0.000 C 
BRANCH  12  13
ATOM     13  C   UNL     1      25.468  -4.922 -33.263  1.00  0.00     0.006 C 
BRANCH  13  14
ATOM     14  C   UNL     1      24.644  -3.941 -32.419  1.00  0.00     0.053 C 
BRANCH  14  15
ATOM     15  C   UNL     1      24.681  -4.288 -30.962  1.00  0.00     0.041 C 
ATOM     16  O   UNL     1      25.784  -4.402 -30.363  1.00  0.00    -0.550 OA
ATOM     17  O   UNL     1      23.495  -4.453 -30.257  1.00  0.00    -0.550 OA
ENDBRANCH  14  15
ENDBRANCH  13  14
ENDBRANCH  12  13
ENDBRANCH  11  12
ENDBRANCH  10  11
ENDBRANCH   9  10
ENDBRANCH   8   9
ENDBRANCH   7   8
ENDBRANCH   6   7
ENDBRANCH   5   6
ENDBRANCH   4   5
ENDBRANCH   3   4
ENDBRANCH   2   3
ENDBRANCH   1   2
BRANCH   1  18
ATOM     18  C   UNL     1      29.539   0.175 -35.036  1.00  0.00     0.000 C 
BRANCH  18  19
ATOM     19  C   UNL     1      29.602   0.350 -36.567  1.00  0.00     0.000 C 
BRANCH  19  20
ATOM     20  C   UNL     1      30.517   1.488 -37.053  1.00  0.00     0.000 C 
BRANCH  20  21
ATOM     21  C   UNL     1      31.322   1.112 -38.306  1.00  0.00     0.000 C 
BRANCH  21  22
ATOM     22  C   UNL     1      31.104  -0.363 -38.680  1.00  0.00     0.000 C 
BRANCH  22  23
ATOM     23  C   UNL     1      32.422  -1.138 -38.830  1.00  0.00     0.000 C 
BRANCH  23  24
ATOM     24  C   UNL     1      33.499  -0.677 -37.833  1.00  0.00    -0.000 C 
BRANCH  24  25
ATOM     25  C   UNL     1      33.752  -1.709 -36.722  1.00  0.00    -0.000 C 
BRANCH  25  26
ATOM     26  C   UNL     1      33.421  -1.170 -35.322  1.00  0.00    -0.000 C 
BRANCH  26  27
ATOM     27  C   UNL     1      33.563   0.356 -35.276  1.00  0.00    -0.000 C 
BRANCH  27  28
ATOM     28  C   UNL     1      33.185   0.903 -33.891  1.00  0.00    -0.000 C 
BRANCH  28  29
ATOM     29  C   UNL     1      33.215   2.439 -33.827  1.00  0.00    -0.000 C 
BRANCH  29  30
ATOM     30  C   UNL     1      32.290   3.063 -32.765  1.00  0.00    -0.000 C 
BRANCH  30  31
ATOM     31  C   UNL     1      30.802   3.085 -33.172  1.00  0.00    -0.003 C 
ATOM     32  C   UNL     1      30.532   4.019 -34.352  1.00  0.00     0.004 C 
ENDBRANCH  30  31
ENDBRANCH  29  30
ENDBRANCH  28  29
ENDBRANCH  27  28
ENDBRANCH  26  27
ENDBRANCH  25  26
ENDBRANCH  24  25
ENDBRANCH  23  24
ENDBRANCH  22  23
ENDBRANCH  21  22
ENDBRANCH  20  21
ENDBRANCH  19  20
ENDBRANCH  18  19
ENDBRANCH   1  18
TORSDOF 28
ENDMDL
MODEL 5
REMARK VINA RESULT:    -3.547      1.748      3.385
REMARK INTER + INTRA:         -14.252
REMARK INTER:                  -8.528
REMARK INTRA:                  -5.725
REMARK UNBOUND:                -4.900
REMARK SMILES CCCCCCCCCCCCCCCCCCCCCCCCCCCCCC(=O)[O-]
REMARK SMILES IDX 16 1 17 2 18 3 19 4 20 5 21 6 22 7 23 8 24 9 25 10 26 11
REMARK SMILES IDX 27 12 28 13 29 14 30 15 31 16 32 17 15 18 14 19 13 20 12 21
REMARK SMILES IDX 11 22 10 23 9 24 8 25 7 26 6 27 5 28 4 29 3 30 2 31 1 32
REMARK H PARENT
REMARK Flexibility Score: inf
ROOT
ATOM      1  C   UNL     1      30.953   0.778 -38.383  1.00  0.00     0.000 C 
ENDROOT
BRANCH   1   2
ATOM      2  C   UNL     1      30.665   1.656 -39.619  1.00  0.00     0.000 C 
BRANCH   2   3
ATOM      3  C   UNL     1      29.188   2.042 -39.819  1.00  0.00     0.000 C 
BRANCH   3   4
ATOM      4  C   UNL     1      28.900   3.513 -39.467  1.00  0.00     0.000 C 
BRANCH   4   5
ATOM      5  C   UNL     1      27.819   3.667 -38.381  1.00  0.00     0.000 C 
BRANCH   5   6
ATOM      6  C   UNL     1      27.919   2.669 -37.210  1.00  0.00     0.000 C 
BRANCH   6   7
ATOM      7  C   UNL     1      29.012   2.989 -36.170  1.00  0.00     0.000 C 
BRANCH   7   8
ATOM      8  C   UNL     1      28.807   2.343 -34.785  1.00  0.00     0.000 C 
BRANCH   8   9
ATOM      9  C   UNL     1      30.100   1.998 -34.025  1.00  0.00     0.000 C 
BRANCH   9  10
ATOM     10  C   UNL     1      31.368   2.456 -34.765  1.00  0.00     0.000 C 
BRANCH  10  11
ATOM     11  C   UNL     1      32.562   1.515 -34.531  1.00  0.00     0.000 C 
BRANCH  11  12
ATOM     12  C   UNL     1      33.712   2.188 -33.768  1.00  0.00     0.000 C 
BRANCH  12  13
ATOM     13  C   UNL     1      33.339   3.625 -33.372  1.00  0.00     0.006 C 
BRANCH  13  14
ATOM     14  C   UNL     1      34.302   4.210 -32.329  1.00  0.00     0.053 C 
BRANCH  14  15
ATOM     15  C   UNL     1      34.910   5.500 -32.790  1.00  0.00     0.041 C 
ATOM     16  O   UNL     1      35.774   5.502 -33.707  1.00  0.00    -0.550 OA
ATOM     17  O   UNL     1      34.499   6.701 -32.228  1.00  0.00    -0.550 OA
ENDBRANCH  14  15
ENDBRANCH  13  14
ENDBRANCH  12  13
ENDBRANCH  11  12
ENDBRANCH  10  11
ENDBRANCH   9  10
ENDBRANCH   8   9
ENDBRANCH   7   8
ENDBRANCH   6   7
ENDBRANCH   5   6
ENDBRANCH   4   5
ENDBRANCH   3   4
ENDBRANCH   2   3
ENDBRANCH   1   2
BRANCH   1  18
ATOM     18  C   UNL     1      32.407   0.283 -38.259  1.00  0.00     0.000 C 
BRANCH  18  19
ATOM     19  C   UNL     1      32.616  -1.209 -38.587  1.00  0.00     0.000 C 
BRANCH  19  20
ATOM     20  C   UNL     1      31.343  -1.966 -39.007  1.00  0.00     0.000 C 
BRANCH  20  21
ATOM     21  C   UNL     1      31.534  -3.490 -39.020  1.00  0.00     0.000 C 
BRANCH  21  22
ATOM     22  C   UNL     1      30.754  -4.154 -37.874  1.00  0.00     0.000 C 
BRANCH  22  23
ATOM     23  C   UNL     1      31.672  -4.847 -36.855  1.00  0.00     0.000 C 
BRANCH  23  24
ATOM     24  C   UNL     1      33.158  -4.775 -37.248  1.00  0.00    -0.000 C 
BRANCH  24  25
ATOM     25  C   UNL     1      33.958  -3.820 -36.348  1.00  0.00    -0.000 C 
BRANCH  25  26
ATOM     26  C   UNL     1      33.278  -3.565 -34.995  1.00  0.00    -0.000 C 
BRANCH  26  27
ATOM     27  C   UNL     1      32.857  -2.097 -34.863  1.00  0.00    -0.000 C 
BRANCH  27  28
ATOM     28  C   UNL     1      31.390  -1.982 -34.422  1.00  0.00    -0.000 C 
BRANCH  28  29
ATOM     29  C   UNL     1      30.488  -1.368 -35.507  1.00  0.00    -0.000 C 
BRANCH  29  30
ATOM     30  C   UNL     1      29.020  -1.831 -35.469  1.00  0.00    -0.000 C 
BRANCH  30  31
ATOM     31  C   UNL     1      28.062  -0.930 -36.276  1.00  0.00    -0.003 C 
ATOM     32  C   UNL     1      28.007  -1.312 -37.755  1.00  0.00     0.004 C 
ENDBRANCH  30  31
ENDBRANCH  29  30
ENDBRANCH  28  29
ENDBRANCH  27  28
ENDBRANCH  26  27
ENDBRANCH  25  26
ENDBRANCH  24  25
ENDBRANCH  23  24
ENDBRANCH  22  23
ENDBRANCH  21  22
ENDBRANCH  20  21
ENDBRANCH  19  20
ENDBRANCH  18  19
ENDBRANCH   1  18
TORSDOF 28
ENDMDL
MODEL 6
REMARK VINA RESULT:    -3.533      4.054      6.505
REMARK INTER + INTRA:         -14.217
REMARK INTER:                  -7.587
REMARK INTRA:                  -6.629
REMARK UNBOUND:                -4.900
REMARK SMILES CCCCCCCCCCCCCCCCCCCCCCCCCCCCCC(=O)[O-]
REMARK SMILES IDX 16 1 17 2 18 3 19 4 20 5 21 6 22 7 23 8 24 9 25 10 26 11
REMARK SMILES IDX 27 12 28 13 29 14 30 15 31 16 32 17 15 18 14 19 13 20 12 21
REMARK SMILES IDX 11 22 10 23 9 24 8 25 7 26 6 27 5 28 4 29 3 30 2 31 1 32
REMARK H PARENT
REMARK Flexibility Score: inf
ROOT
ATOM      1  C   UNL     1      27.354   1.997 -37.407  1.00  0.00     0.000 C 
ENDROOT
BRANCH   1   2
ATOM      2  C   UNL     1      28.293   3.191 -37.142  1.00  0.00     0.000 C 
BRANCH   2   3
ATOM      3  C   UNL     1      29.463   2.907 -36.183  1.00  0.00     0.000 C 
BRANCH   3   4
ATOM      4  C   UNL     1      29.459   1.465 -35.645  1.00  0.00     0.000 C 
BRANCH   4   5
ATOM      5  C   UNL     1      30.481   1.245 -34.514  1.00  0.00     0.000 C 
BRANCH   5   6
ATOM      6  C   UNL     1      31.882   1.837 -34.772  1.00  0.00     0.000 C 
BRANCH   6   7
ATOM      7  C   UNL     1      33.051   1.040 -34.160  1.00  0.00     0.000 C 
BRANCH   7   8
ATOM      8  C   UNL     1      32.679   0.152 -32.955  1.00  0.00     0.000 C 
BRANCH   8   9
ATOM      9  C   UNL     1      32.851  -1.361 -33.178  1.00  0.00     0.000 C 
BRANCH   9  10
ATOM     10  C   UNL     1      33.247  -1.711 -34.622  1.00  0.00     0.000 C 
BRANCH  10  11
ATOM     11  C   UNL     1      32.322  -2.767 -35.250  1.00  0.00     0.000 C 
BRANCH  11  12
ATOM     12  C   UNL     1      30.838  -2.372 -35.188  1.00  0.00     0.000 C 
BRANCH  12  13
ATOM     13  C   UNL     1      30.006  -3.475 -34.516  1.00  0.00     0.006 C 
BRANCH  13  14
ATOM     14  C   UNL     1      29.054  -2.917 -33.450  1.00  0.00     0.053 C 
BRANCH  14  15
ATOM     15  C   UNL     1      27.913  -3.848 -33.175  1.00  0.00     0.041 C 
ATOM     16  O   UNL     1      27.673  -4.229 -31.997  1.00  0.00    -0.550 OA
ATOM     17  O   UNL     1      27.095  -4.270 -34.214  1.00  0.00    -0.550 OA
ENDBRANCH  14  15
ENDBRANCH  13  14
ENDBRANCH  12  13
ENDBRANCH  11  12
ENDBRANCH  10  11
ENDBRANCH   9  10
ENDBRANCH   8   9
ENDBRANCH   7   8
ENDBRANCH   6   7
ENDBRANCH   5   6
ENDBRANCH   4   5
ENDBRANCH   3   4
ENDBRANCH   2   3
ENDBRANCH   1   2
BRANCH   1  18
ATOM     18  C   UNL     1      27.150   1.644 -38.893  1.00  0.00     0.000 C 
BRANCH  18  19
ATOM     19  C   UNL     1      28.422   1.719 -39.760  1.00  0.00     0.000 C 
BRANCH  19  20
ATOM     20  C   UNL     1      29.533   0.726 -39.371  1.00  0.00     0.000 C 
BRANCH  20  21
ATOM     21  C   UNL     1      30.915   1.389 -39.268  1.00  0.00     0.000 C 
BRANCH  21  22
ATOM     22  C   UNL     1      31.821   0.625 -38.290  1.00  0.00     0.000 C 
BRANCH  22  23
ATOM     23  C   UNL     1      31.807  -0.893 -38.530  1.00  0.00     0.000 C 
BRANCH  23  24
ATOM     24  C   UNL     1      33.215  -1.513 -38.494  1.00  0.00    -0.000 C 
BRANCH  24  25
ATOM     25  C   UNL     1      33.196  -3.029 -38.743  1.00  0.00    -0.000 C 
BRANCH  25  26
ATOM     26  C   UNL     1      31.785  -3.570 -39.020  1.00  0.00    -0.000 C 
BRANCH  26  27
ATOM     27  C   UNL     1      31.526  -4.853 -38.222  1.00  0.00    -0.000 C 
BRANCH  27  28
ATOM     28  C   UNL     1      30.025  -5.036 -37.947  1.00  0.00    -0.000 C 
BRANCH  28  29
ATOM     29  C   UNL     1      29.173  -3.875 -38.486  1.00  0.00    -0.000 C 
BRANCH  29  30
ATOM     30  C   UNL     1      28.010  -3.445 -37.573  1.00  0.00    -0.000 C 
BRANCH  30  31
ATOM     31  C   UNL     1      27.756  -1.923 -37.564  1.00  0.00    -0.003 C 
ATOM     32  C   UNL     1      27.191  -1.431 -36.231  1.00  0.00     0.004 C 
ENDBRANCH  30  31
ENDBRANCH  29  30
ENDBRANCH  28  29
ENDBRANCH  27  28
ENDBRANCH  26  27
ENDBRANCH  25  26
ENDBRANCH  24  25
ENDBRANCH  23  24
ENDBRANCH  22  23
ENDBRANCH  21  22
ENDBRANCH  20  21
ENDBRANCH  19  20
ENDBRANCH  18  19
ENDBRANCH   1  18
TORSDOF 28
ENDMDL
MODEL 7
REMARK VINA RESULT:    -3.531      4.308      7.163
REMARK INTER + INTRA:         -14.210
REMARK INTER:                  -8.407
REMARK INTRA:                  -5.803
REMARK UNBOUND:                -4.900
REMARK SMILES CCCCCCCCCCCCCCCCCCCCCCCCCCCCCC(=O)[O-]
REMARK SMILES IDX 16 1 17 2 18 3 19 4 20 5 21 6 22 7 23 8 24 9 25 10 26 11
REMARK SMILES IDX 27 12 28 13 29 14 30 15 31 16 32 17 15 18 14 19 13 20 12 21
REMARK SMILES IDX 11 22 10 23 9 24 8 25 7 26 6 27 5 28 4 29 3 30 2 31 1 32
REMARK H PARENT
REMARK Flexibility Score: inf
ROOT
ATOM      1  C   UNL     1      32.056   0.514 -34.793  1.00  0.00     0.000 C 
ENDROOT
BRANCH   1   2
ATOM      2  C   UNL     1      31.165   1.636 -35.365  1.00  0.00     0.000 C 
BRANCH   2   3
ATOM      3  C   UNL     1      29.904   1.159 -36.108  1.00  0.00     0.000 C 
BRANCH   3   4
ATOM      4  C   UNL     1      29.033   2.321 -36.617  1.00  0.00     0.000 C 
BRANCH   4   5
ATOM      5  C   UNL     1      29.263   2.633 -38.107  1.00  0.00     0.000 C 
BRANCH   5   6
ATOM      6  C   UNL     1      28.429   1.787 -39.091  1.00  0.00     0.000 C 
BRANCH   6   7
ATOM      7  C   UNL     1      26.961   1.560 -38.676  1.00  0.00     0.000 C 
BRANCH   7   8
ATOM      8  C   UNL     1      26.389   0.170 -39.023  1.00  0.00     0.000 C 
BRANCH   8   9
ATOM      9  C   UNL     1      25.958  -0.681 -37.816  1.00  0.00     0.000 C 
BRANCH   9  10
ATOM     10  C   UNL     1      27.119  -0.984 -36.854  1.00  0.00     0.000 C 
BRANCH  10  11
ATOM     11  C   UNL     1      26.669  -1.778 -35.615  1.00  0.00     0.000 C 
BRANCH  11  12
ATOM     12  C   UNL     1      26.277  -3.226 -35.944  1.00  0.00     0.000 C 
BRANCH  12  13
ATOM     13  C   UNL     1      26.794  -4.191 -34.867  1.00  0.00     0.006 C 
BRANCH  13  14
ATOM     14  C   UNL     1      25.675  -5.066 -34.285  1.00  0.00     0.053 C 
BRANCH  14  15
ATOM     15  C   UNL     1      25.242  -4.594 -32.930  1.00  0.00     0.041 C 
ATOM     16  O   UNL     1      24.853  -5.422 -32.064  1.00  0.00    -0.550 OA
ATOM     17  O   UNL     1      25.300  -3.243 -32.614  1.00  0.00    -0.550 OA
ENDBRANCH  14  15
ENDBRANCH  13  14
ENDBRANCH  12  13
ENDBRANCH  11  12
ENDBRANCH  10  11
ENDBRANCH   9  10
ENDBRANCH   8   9
ENDBRANCH   7   8
ENDBRANCH   6   7
ENDBRANCH   5   6
ENDBRANCH   4   5
ENDBRANCH   3   4
ENDBRANCH   2   3
ENDBRANCH   1   2
BRANCH   1  18
ATOM     18  C   UNL     1      33.528   0.554 -35.245  1.00  0.00     0.000 C 
BRANCH  18  19
ATOM     19  C   UNL     1      33.883  -0.411 -36.393  1.00  0.00     0.000 C 
BRANCH  19  20
ATOM     20  C   UNL     1      33.512   0.090 -37.801  1.00  0.00     0.000 C 
BRANCH  20  21
ATOM     21  C   UNL     1      32.720  -0.945 -38.613  1.00  0.00     0.000 C 
BRANCH  21  22
ATOM     22  C   UNL     1      31.336  -0.401 -39.000  1.00  0.00     0.000 C 
BRANCH  22  23
ATOM     23  C   UNL     1      30.210  -1.420 -38.763  1.00  0.00     0.000 C 
BRANCH  23  24
ATOM     24  C   UNL     1      29.475  -1.804 -40.059  1.00  0.00    -0.000 C 
BRANCH  24  25
ATOM     25  C   UNL     1      28.999  -3.266 -40.055  1.00  0.00    -0.000 C 
BRANCH  25  26
ATOM     26  C   UNL     1      28.651  -3.774 -38.648  1.00  0.00    -0.000 C 
BRANCH  26  27
ATOM     27  C   UNL     1      29.302  -5.136 -38.382  1.00  0.00    -0.000 C 
BRANCH  27  28
ATOM     28  C   UNL     1      30.834  -5.031 -38.416  1.00  0.00    -0.000 C 
BRANCH  28  29
ATOM     29  C   UNL     1      31.472  -5.157 -37.022  1.00  0.00    -0.000 C 
BRANCH  29  30
ATOM     30  C   UNL     1      32.231  -3.906 -36.540  1.00  0.00    -0.000 C 
BRANCH  30  31
ATOM     31  C   UNL     1      31.343  -2.890 -35.793  1.00  0.00    -0.003 C 
ATOM     32  C   UNL     1      30.203  -3.561 -35.027  1.00  0.00     0.004 C 
ENDBRANCH  30  31
ENDBRANCH  29  30
ENDBRANCH  28  29
ENDBRANCH  27  28
ENDBRANCH  26  27
ENDBRANCH  25  26
ENDBRANCH  24  25
ENDBRANCH  23  24
ENDBRANCH  22  23
ENDBRANCH  21  22
ENDBRANCH  20  21
ENDBRANCH  19  20
ENDBRANCH  18  19
ENDBRANCH   1  18
TORSDOF 28
ENDMDL
MODEL 8
REMARK VINA RESULT:    -3.463      4.849      7.617
REMARK INTER + INTRA:         -14.032
REMARK INTER:                  -7.754
REMARK INTRA:                  -6.278
REMARK UNBOUND:                -4.900
REMARK SMILES CCCCCCCCCCCCCCCCCCCCCCCCCCCCCC(=O)[O-]
REMARK SMILES IDX 16 1 17 2 18 3 19 4 20 5 21 6 22 7 23 8 24 9 25 10 26 11
REMARK SMILES IDX 27 12 28 13 29 14 30 15 31 16 32 17 15 18 14 19 13 20 12 21
REMARK SMILES IDX 11 22 10 23 9 24 8 25 7 26 6 27 5 28 4 29 3 30 2 31 1 32
REMARK H PARENT
REMARK Flexibility Score: inf
ROOT
ATOM      1  C   UNL     1      31.423  -0.080 -35.558  1.00  0.00     0.000 C 
ENDROOT
BRANCH   1   2
ATOM      2  C   UNL     1      31.079  -1.544 -35.214  1.00  0.00     0.000 C 
BRANCH   2   3
ATOM      3  C   UNL     1      29.608  -1.804 -34.844  1.00  0.00     0.000 C 
BRANCH   3   4
ATOM      4  C   UNL     1      29.320  -3.284 -34.537  1.00  0.00     0.000 C 
BRANCH   4   5
ATOM      5  C   UNL     1      27.821  -3.630 -34.615  1.00  0.00     0.000 C 
BRANCH   5   6
ATOM      6  C   UNL     1      27.337  -4.148 -35.985  1.00  0.00     0.000 C 
BRANCH   6   7
ATOM      7  C   UNL     1      26.133  -3.391 -36.581  1.00  0.00     0.000 C 
BRANCH   7   8
ATOM      8  C   UNL     1      26.294  -1.859 -36.656  1.00  0.00     0.000 C 
BRANCH   8   9
ATOM      9  C   UNL     1      24.986  -1.072 -36.846  1.00  0.00     0.000 C 
BRANCH   9  10
ATOM     10  C   UNL     1      24.434  -0.504 -35.527  1.00  0.00     0.000 C 
BRANCH  10  11
ATOM     11  C   UNL     1      25.448  -0.594 -34.375  1.00  0.00     0.000 C 
BRANCH  11  12
ATOM     12  C   UNL     1      25.066  -1.649 -33.325  1.00  0.00     0.000 C 
BRANCH  12  13
ATOM     13  C   UNL     1      23.626  -2.139 -33.540  1.00  0.00     0.006 C 
BRANCH  13  14
ATOM     14  C   UNL     1      23.563  -3.638 -33.862  1.00  0.00     0.053 C 
BRANCH  14  15
ATOM     15  C   UNL     1      24.203  -4.468 -32.792  1.00  0.00     0.041 C 
ATOM     16  O   UNL     1      25.164  -5.234 -33.071  1.00  0.00    -0.550 OA
ATOM     17  O   UNL     1      23.759  -4.372 -31.479  1.00  0.00    -0.550 OA
ENDBRANCH  14  15
ENDBRANCH  13  14
ENDBRANCH  12  13
ENDBRANCH  11  12
ENDBRANCH  10  11
ENDBRANCH   9  10
ENDBRANCH   8   9
ENDBRANCH   7   8
ENDBRANCH   6   7
ENDBRANCH   5   6
ENDBRANCH   4   5
ENDBRANCH   3   4
ENDBRANCH   2   3
ENDBRANCH   1   2
BRANCH   1  18
ATOM     18  C   UNL     1      32.905   0.303 -35.379  1.00  0.00     0.000 C 
BRANCH  18  19
ATOM     19  C   UNL     1      33.847  -0.215 -36.484  1.00  0.00     0.000 C 
BRANCH  19  20
ATOM     20  C   UNL     1      33.294  -0.101 -37.916  1.00  0.00     0.000 C 
BRANCH  20  21
ATOM     21  C   UNL     1      33.302  -1.441 -38.666  1.00  0.00     0.000 C 
BRANCH  21  22
ATOM     22  C   UNL     1      33.693  -2.595 -37.730  1.00  0.00     0.000 C 
BRANCH  22  23
ATOM     23  C   UNL     1      32.597  -3.668 -37.622  1.00  0.00     0.000 C 
BRANCH  23  24
ATOM     24  C   UNL     1      31.622  -3.643 -38.811  1.00  0.00    -0.000 C 
BRANCH  24  25
ATOM     25  C   UNL     1      30.151  -3.623 -38.367  1.00  0.00    -0.000 C 
BRANCH  25  26
ATOM     26  C   UNL     1      29.536  -2.216 -38.406  1.00  0.00    -0.000 C 
BRANCH  26  27
ATOM     27  C   UNL     1      29.758  -1.560 -39.774  1.00  0.00    -0.000 C 
BRANCH  27  28
ATOM     28  C   UNL     1      29.187  -0.134 -39.801  1.00  0.00    -0.000 C 
BRANCH  28  29
ATOM     29  C   UNL     1      30.109   0.890 -39.117  1.00  0.00    -0.000 C 
BRANCH  29  30
ATOM     30  C   UNL     1      29.424   1.771 -38.055  1.00  0.00    -0.000 C 
BRANCH  30  31
ATOM     31  C   UNL     1      28.310   1.046 -37.270  1.00  0.00    -0.003 C 
ATOM     32  C   UNL     1      28.081   1.651 -35.885  1.00  0.00     0.004 C 
ENDBRANCH  30  31
ENDBRANCH  29  30
ENDBRANCH  28  29
ENDBRANCH  27  28
ENDBRANCH  26  27
ENDBRANCH  25  26
ENDBRANCH  24  25
ENDBRANCH  23  24
ENDBRANCH  22  23
ENDBRANCH  21  22
ENDBRANCH  20  21
ENDBRANCH  19  20
ENDBRANCH  18  19
ENDBRANCH   1  18
TORSDOF 28
ENDMDL
MODEL 9
REMARK VINA RESULT:    -3.453      2.057      4.109
REMARK INTER + INTRA:         -14.006
REMARK INTER:                  -7.478
REMARK INTRA:                  -6.528
REMARK UNBOUND:                -4.900
REMARK SMILES CCCCCCCCCCCCCCCCCCCCCCCCCCCCCC(=O)[O-]
REMARK SMILES IDX 16 1 17 2 18 3 19 4 20 5 21 6 22 7 23 8 24 9 25 10 26 11
REMARK SMILES IDX 27 12 28 13 29 14 30 15 31 16 32 17 15 18 14 19 13 20 12 21
REMARK SMILES IDX 11 22 10 23 9 24 8 25 7 26 6 27 5 28 4 29 3 30 2 31 1 32
REMARK H PARENT
REMARK Flexibility Score: inf
ROOT
ATOM      1  C   UNL     1      29.912  -0.709 -37.144  1.00  0.00     0.000 C 
ENDROOT
BRANCH   1   2
ATOM      2  C   UNL     1      30.268   0.684 -37.703  1.00  0.00     0.000 C 
BRANCH   2   3
ATOM      3  C   UNL     1      31.496   0.724 -38.632  1.00  0.00     0.000 C 
BRANCH   3   4
ATOM      4  C   UNL     1      32.004  -0.677 -39.015  1.00  0.00     0.000 C 
BRANCH   4   5
ATOM      5  C   UNL     1      33.459  -0.925 -38.578  1.00  0.00     0.000 C 
BRANCH   5   6
ATOM      6  C   UNL     1      33.641  -1.981 -37.469  1.00  0.00     0.000 C 
BRANCH   6   7
ATOM      7  C   UNL     1      33.704  -1.418 -36.035  1.00  0.00     0.000 C 
BRANCH   7   8
ATOM      8  C   UNL     1      33.921   0.106 -35.938  1.00  0.00     0.000 C 
BRANCH   8   9
ATOM      9  C   UNL     1      33.419   0.758 -34.638  1.00  0.00     0.000 C 
BRANCH   9  10
ATOM     10  C   UNL     1      32.258  -0.016 -33.991  1.00  0.00     0.000 C 
BRANCH  10  11
ATOM     11  C   UNL     1      31.260   0.908 -33.272  1.00  0.00     0.000 C 
BRANCH  11  12
ATOM     12  C   UNL     1      30.162   1.441 -34.205  1.00  0.00     0.000 C 
BRANCH  12  13
ATOM     13  C   UNL     1      30.423   2.909 -34.574  1.00  0.00     0.006 C 
BRANCH  13  14
ATOM     14  C   UNL     1      31.315   3.618 -33.546  1.00  0.00     0.053 C 
BRANCH  14  15
ATOM     15  C   UNL     1      30.523   4.510 -32.638  1.00  0.00     0.041 C 
ATOM     16  O   UNL     1      29.734   4.014 -31.790  1.00  0.00    -0.550 OA
ATOM     17  O   UNL     1      30.681   5.888 -32.708  1.00  0.00    -0.550 OA
ENDBRANCH  14  15
ENDBRANCH  13  14
ENDBRANCH  12  13
ENDBRANCH  11  12
ENDBRANCH  10  11
ENDBRANCH   9  10
ENDBRANCH   8   9
ENDBRANCH   7   8
ENDBRANCH   6   7
ENDBRANCH   5   6
ENDBRANCH   4   5
ENDBRANCH   3   4
ENDBRANCH   2   3
ENDBRANCH   1   2
BRANCH   1  18
ATOM     18  C   UNL     1      28.449  -1.142 -37.354  1.00  0.00     0.000 C 
BRANCH  18  19
ATOM     19  C   UNL     1      27.970  -1.127 -38.820  1.00  0.00     0.000 C 
BRANCH  19  20
ATOM     20  C   UNL     1      28.769  -2.034 -39.773  1.00  0.00     0.000 C 
BRANCH  20  21
ATOM     21  C   UNL     1      28.961  -3.455 -39.223  1.00  0.00     0.000 C 
BRANCH  21  22
ATOM     22  C   UNL     1      30.324  -4.029 -39.640  1.00  0.00     0.000 C 
BRANCH  22  23
ATOM     23  C   UNL     1      31.166  -4.488 -38.439  1.00  0.00     0.000 C 
BRANCH  23  24
ATOM     24  C   UNL     1      30.418  -4.353 -37.102  1.00  0.00    -0.000 C 
BRANCH  24  25
ATOM     25  C   UNL     1      31.370  -4.302 -35.897  1.00  0.00    -0.000 C 
BRANCH  25  26
ATOM     26  C   UNL     1      30.872  -3.369 -34.783  1.00  0.00    -0.000 C 
BRANCH  26  27
ATOM     27  C   UNL     1      29.357  -3.503 -34.594  1.00  0.00    -0.000 C 
BRANCH  27  28
ATOM     28  C   UNL     1      28.776  -2.261 -33.901  1.00  0.00    -0.000 C 
BRANCH  28  29
ATOM     29  C   UNL     1      27.253  -2.138 -34.076  1.00  0.00    -0.000 C 
BRANCH  29  30
ATOM     30  C   UNL     1      26.533  -3.450 -34.441  1.00  0.00    -0.000 C 
BRANCH  30  31
ATOM     31  C   UNL     1      26.000  -3.484 -35.889  1.00  0.00    -0.003 C 
ATOM     32  C   UNL     1      26.551  -4.666 -36.687  1.00  0.00     0.004 C 
ENDBRANCH  30  31
ENDBRANCH  29  30
ENDBRANCH  28  29
ENDBRANCH  27  28
ENDBRANCH  26  27
ENDBRANCH  25  26
ENDBRANCH  24  25
ENDBRANCH  23  24
ENDBRANCH  22  23
ENDBRANCH  21  22
ENDBRANCH  20  21
ENDBRANCH  19  20
ENDBRANCH  18  19
ENDBRANCH   1  18
TORSDOF 28
ENDMDL
