MODEL 1
REMARK VINA RESULT:    -5.010      0.000      0.000
REMARK INTER + INTRA:          -9.808
REMARK INTER:                  -8.525
REMARK INTRA:                  -1.283
REMARK UNBOUND:                -1.283
REMARK SMILES CCCCCCCCCCCCCC(=O)[O-]
REMARK SMILES IDX 8 1 9 2 10 3 11 4 12 5 13 6 14 7 15 8 16 9 7 10 6 11 5 12
REMARK SMILES IDX 4 13 3 14 2 15 1 16
REMARK H PARENT
REMARK Flexibility Score: inf
ROOT
ATOM      1  C   UNL     1      52.141  33.609  42.612  1.00  0.00     0.000 C 
ENDROOT
BRANCH   1   2
ATOM      2  C   UNL     1      52.729  34.420  43.774  1.00  0.00     0.000 C 
BRANCH   2   3
ATOM      3  C   UNL     1      52.196  35.862  43.763  1.00  0.00     0.000 C 
BRANCH   3   4
ATOM      4  C   UNL     1      52.629  36.644  42.513  1.00  0.00     0.000 C 
BRANCH   4   5
ATOM      5  C   UNL     1      53.879  37.502  42.754  1.00  0.00     0.006 C 
BRANCH   5   6
ATOM      6  C   UNL     1      55.010  37.104  41.801  1.00  0.00     0.053 C 
BRANCH   6   7
ATOM      7  C   UNL     1      55.787  35.954  42.361  1.00  0.00     0.041 C 
ATOM      8  O   UNL     1      56.598  36.139  43.307  1.00  0.00    -0.550 OA
ATOM      9  O   UNL     1      55.654  34.689  41.805  1.00  0.00    -0.550 OA
ENDBRANCH   6   7
ENDBRANCH   5   6
ENDBRANCH   4   5
ENDBRANCH   3   4
ENDBRANCH   2   3
ENDBRANCH   1   2
BRANCH   1  10
ATOM     10  C   UNL     1      50.940  32.772  43.080  1.00  0.00     0.000 C 
BRANCH  10  11
ATOM     11  C   UNL     1      50.533  31.696  42.059  1.00  0.00    -0.000 C 
BRANCH  11  12
ATOM     12  C   UNL     1      50.918  30.278  42.514  1.00  0.00    -0.000 C 
BRANCH  12  13
ATOM     13  C   UNL     1      52.355  29.892  42.116  1.00  0.00    -0.000 C 
BRANCH  13  14
ATOM     14  C   UNL     1      53.353  29.792  43.285  1.00  0.00    -0.000 C 
BRANCH  14  15
ATOM     15  C   UNL     1      54.781  30.192  42.889  1.00  0.00    -0.003 C 
ATOM     16  C   UNL     1      55.185  31.511  43.541  1.00  0.00     0.004 C 
ENDBRANCH  14  15
ENDBRANCH  13  14
ENDBRANCH  12  13
ENDBRANCH  11  12
ENDBRANCH  10  11
ENDBRANCH   1  10
TORSDOF 12
ENDMDL
MODEL 2
REMARK VINA RESULT:    -4.958      6.537     10.197
REMARK INTER + INTRA:          -9.719
REMARK INTER:                  -8.399
REMARK INTRA:                  -1.320
REMARK UNBOUND:                -1.283
REMARK SMILES CCCCCCCCCCCCCC(=O)[O-]
REMARK SMILES IDX 8 1 9 2 10 3 11 4 12 5 13 6 14 7 15 8 16 9 7 10 6 11 5 12
REMARK SMILES IDX 4 13 3 14 2 15 1 16
REMARK H PARENT
REMARK Flexibility Score: inf
ROOT
ATOM      1  C   UNL     1      59.702  38.019  37.816  1.00  0.00     0.000 C 
ENDROOT
BRANCH   1   2
ATOM      2  C   UNL     1      58.334  38.499  38.317  1.00  0.00     0.000 C 
BRANCH   2   3
ATOM      3  C   UNL     1      57.196  37.704  37.656  1.00  0.00     0.000 C 
BRANCH   3   4
ATOM      4  C   UNL     1      56.091  37.315  38.651  1.00  0.00     0.000 C 
BRANCH   4   5
ATOM      5  C   UNL     1      56.242  38.016  40.008  1.00  0.00     0.006 C 
BRANCH   5   6
ATOM      6  C   UNL     1      55.741  37.121  41.146  1.00  0.00     0.053 C 
BRANCH   6   7
ATOM      7  C   UNL     1      54.532  37.720  41.792  1.00  0.00     0.041 C 
ATOM      8  O   UNL     1      53.785  38.497  41.140  1.00  0.00    -0.550 OA
ATOM      9  O   UNL     1      54.256  37.460  43.128  1.00  0.00    -0.550 OA
ENDBRANCH   6   7
ENDBRANCH   5   6
ENDBRANCH   4   5
ENDBRANCH   3   4
ENDBRANCH   2   3
ENDBRANCH   1   2
BRANCH   1  10
ATOM     10  C   UNL     1      59.545  37.066  36.622  1.00  0.00     0.000 C 
BRANCH  10  11
ATOM     11  C   UNL     1      60.889  36.716  35.961  1.00  0.00    -0.000 C 
BRANCH  11  12
ATOM     12  C   UNL     1      61.166  37.562  34.707  1.00  0.00    -0.000 C 
BRANCH  12  13
ATOM     13  C   UNL     1      61.919  38.869  35.021  1.00  0.00    -0.000 C 
BRANCH  13  14
ATOM     14  C   UNL     1      61.145  40.162  34.706  1.00  0.00    -0.000 C 
BRANCH  14  15
ATOM     15  C   UNL     1      59.706  39.901  34.240  1.00  0.00    -0.003 C 
ATOM     16  C   UNL     1      58.696  40.544  35.186  1.00  0.00     0.004 C 
ENDBRANCH  14  15
ENDBRANCH  13  14
ENDBRANCH  12  13
ENDBRANCH  11  12
ENDBRANCH  10  11
ENDBRANCH   1  10
TORSDOF 12
ENDMDL
MODEL 3
REMARK VINA RESULT:    -4.956      6.501     10.085
REMARK INTER + INTRA:          -9.717
REMARK INTER:                  -8.390
REMARK INTRA:                  -1.327
REMARK UNBOUND:                -1.283
REMARK SMILES CCCCCCCCCCCCCC(=O)[O-]
REMARK SMILES IDX 8 1 9 2 10 3 11 4 12 5 13 6 14 7 15 8 16 9 7 10 6 11 5 12
REMARK SMILES IDX 4 13 3 14 2 15 1 16
REMARK H PARENT
REMARK Flexibility Score: inf
ROOT
ATOM      1  C   UNL     1      58.732  39.611  37.186  1.00  0.00     0.000 C 
ENDROOT
BRANCH   1   2
ATOM      2  C   UNL     1      58.350  38.482  38.151  1.00  0.00     0.000 C 
BRANCH   2   3
ATOM      3  C   UNL     1      57.233  37.606  37.559  1.00  0.00     0.000 C 
BRANCH   3   4
ATOM      4  C   UNL     1      56.111  37.316  38.568  1.00  0.00     0.000 C 
BRANCH   4   5
ATOM      5  C   UNL     1      56.368  37.955  39.940  1.00  0.00     0.006 C 
BRANCH   5   6
ATOM      6  C   UNL     1      55.066  38.092  40.734  1.00  0.00     0.053 C 
BRANCH   6   7
ATOM      7  C   UNL     1      55.033  37.111  41.863  1.00  0.00     0.041 C 
ATOM      8  O   UNL     1      54.365  37.362  42.901  1.00  0.00    -0.550 OA
ATOM      9  O   UNL     1      55.779  35.942  41.790  1.00  0.00    -0.550 OA
ENDBRANCH   6   7
ENDBRANCH   5   6
ENDBRANCH   4   5
ENDBRANCH   3   4
ENDBRANCH   2   3
ENDBRANCH   1   2
BRANCH   1  10
ATOM     10  C   UNL     1      58.230  39.311  35.765  1.00  0.00     0.000 C 
BRANCH  10  11
ATOM     11  C   UNL     1      58.805  40.278  34.716  1.00  0.00    -0.000 C 
BRANCH  11  12
ATOM     12  C   UNL     1      60.258  40.680  35.020  1.00  0.00    -0.000 C 
BRANCH  12  13
ATOM     13  C   UNL     1      61.289  39.747  34.357  1.00  0.00    -0.000 C 
BRANCH  13  14
ATOM     14  C   UNL     1      61.878  38.663  35.279  1.00  0.00    -0.000 C 
BRANCH  14  15
ATOM     15  C   UNL     1      61.361  37.254  34.955  1.00  0.00    -0.003 C 
ATOM     16  C   UNL     1      60.773  36.585  36.194  1.00  0.00     0.004 C 
ENDBRANCH  14  15
ENDBRANCH  13  14
ENDBRANCH  12  13
ENDBRANCH  11  12
ENDBRANCH  10  11
ENDBRANCH   1  10
TORSDOF 12
ENDMDL
MODEL 4
REMARK VINA RESULT:    -4.950      1.977      3.540
REMARK INTER + INTRA:          -9.706
REMARK INTER:                  -8.424
REMARK INTRA:                  -1.283
REMARK UNBOUND:                -1.283
REMARK SMILES CCCCCCCCCCCCCC(=O)[O-]
REMARK SMILES IDX 8 1 9 2 10 3 11 4 12 5 13 6 14 7 15 8 16 9 7 10 6 11 5 12
REMARK SMILES IDX 4 13 3 14 2 15 1 16
REMARK H PARENT
REMARK Flexibility Score: inf
ROOT
ATOM      1  C   UNL     1      54.109  32.662  43.584  1.00  0.00     0.000 C 
ENDROOT
BRANCH   1   2
ATOM      2  C   UNL     1      54.297  33.960  42.788  1.00  0.00     0.000 C 
BRANCH   2   3
ATOM      3  C   UNL     1      55.789  34.287  42.615  1.00  0.00     0.000 C 
BRANCH   3   4
ATOM      4  C   UNL     1      56.121  35.744  42.974  1.00  0.00     0.000 C 
BRANCH   4   5
ATOM      5  C   UNL     1      54.878  36.644  43.007  1.00  0.00     0.006 C 
BRANCH   5   6
ATOM      6  C   UNL     1      54.762  37.371  44.351  1.00  0.00     0.053 C 
BRANCH   6   7
ATOM      7  C   UNL     1      53.637  36.805  45.159  1.00  0.00     0.041 C 
ATOM      8  O   UNL     1      53.804  35.749  45.824  1.00  0.00    -0.550 OA
ATOM      9  O   UNL     1      52.390  37.416  45.137  1.00  0.00    -0.550 OA
ENDBRANCH   6   7
ENDBRANCH   5   6
ENDBRANCH   4   5
ENDBRANCH   3   4
ENDBRANCH   2   3
ENDBRANCH   1   2
BRANCH   1  10
ATOM     10  C   UNL     1      55.291  31.707  43.363  1.00  0.00     0.000 C 
BRANCH  10  11
ATOM     11  C   UNL     1      54.880  30.226  43.435  1.00  0.00    -0.000 C 
BRANCH  11  12
ATOM     12  C   UNL     1      53.667  29.909  42.545  1.00  0.00    -0.000 C 
BRANCH  12  13
ATOM     13  C   UNL     1      52.566  29.128  43.288  1.00  0.00    -0.000 C 
BRANCH  13  14
ATOM     14  C   UNL     1      51.134  29.648  43.068  1.00  0.00    -0.000 C 
BRANCH  14  15
ATOM     15  C   UNL     1      51.038  30.682  41.938  1.00  0.00    -0.003 C 
ATOM     16  C   UNL     1      50.516  32.019  42.457  1.00  0.00     0.004 C 
ENDBRANCH  14  15
ENDBRANCH  13  14
ENDBRANCH  12  13
ENDBRANCH  11  12
ENDBRANCH  10  11
ENDBRANCH   1  10
TORSDOF 12
ENDMDL
MODEL 5
REMARK VINA RESULT:    -4.941      1.384      3.214
REMARK INTER + INTRA:          -9.691
REMARK INTER:                  -8.402
REMARK INTRA:                  -1.289
REMARK UNBOUND:                -1.283
REMARK SMILES CCCCCCCCCCCCCC(=O)[O-]
REMARK SMILES IDX 8 1 9 2 10 3 11 4 12 5 13 6 14 7 15 8 16 9 7 10 6 11 5 12
REMARK SMILES IDX 4 13 3 14 2 15 1 16
REMARK H PARENT
REMARK Flexibility Score: inf
ROOT
ATOM      1  C   UNL     1      55.605  32.711  42.605  1.00  0.00     0.000 C 
ENDROOT
BRANCH   1   2
ATOM      2  C   UNL     1      54.882  34.031  42.903  1.00  0.00     0.000 C 
BRANCH   2   3
ATOM      3  C   UNL     1      54.013  33.909  44.166  1.00  0.00     0.000 C 
BRANCH   3   4
ATOM      4  C   UNL     1      52.939  35.005  44.253  1.00  0.00     0.000 C 
BRANCH   4   5
ATOM      5  C   UNL     1      52.592  35.605  42.883  1.00  0.00     0.006 C 
BRANCH   5   6
ATOM      6  C   UNL     1      52.608  37.135  42.934  1.00  0.00     0.053 C 
BRANCH   6   7
ATOM      7  C   UNL     1      54.012  37.642  43.037  1.00  0.00     0.041 C 
ATOM      8  O   UNL     1      54.433  38.124  44.121  1.00  0.00    -0.550 OA
ATOM      9  O   UNL     1      54.839  37.628  41.921  1.00  0.00    -0.550 OA
ENDBRANCH   6   7
ENDBRANCH   5   6
ENDBRANCH   4   5
ENDBRANCH   3   4
ENDBRANCH   2   3
ENDBRANCH   1   2
BRANCH   1  10
ATOM     10  C   UNL     1      55.213  31.629  43.623  1.00  0.00     0.000 C 
BRANCH  10  11
ATOM     11  C   UNL     1      55.020  30.248  42.975  1.00  0.00    -0.000 C 
BRANCH  11  12
ATOM     12  C   UNL     1      53.627  29.657  43.254  1.00  0.00    -0.000 C 
BRANCH  12  13
ATOM     13  C   UNL     1      52.573  30.095  42.221  1.00  0.00    -0.000 C 
BRANCH  13  14
ATOM     14  C   UNL     1      51.109  29.900  42.656  1.00  0.00    -0.000 C 
BRANCH  14  15
ATOM     15  C   UNL     1      50.282  31.192  42.575  1.00  0.00    -0.003 C 
ATOM     16  C   UNL     1      51.175  32.401  42.311  1.00  0.00     0.004 C 
ENDBRANCH  14  15
ENDBRANCH  13  14
ENDBRANCH  12  13
ENDBRANCH  11  12
ENDBRANCH  10  11
ENDBRANCH   1  10
TORSDOF 12
ENDMDL
MODEL 6
REMARK VINA RESULT:    -4.918      2.074      2.495
REMARK INTER + INTRA:          -9.651
REMARK INTER:                  -8.281
REMARK INTRA:                  -1.370
REMARK UNBOUND:                -1.283
REMARK SMILES CCCCCCCCCCCCCC(=O)[O-]
REMARK SMILES IDX 8 1 9 2 10 3 11 4 12 5 13 6 14 7 15 8 16 9 7 10 6 11 5 12
REMARK SMILES IDX 4 13 3 14 2 15 1 16
REMARK H PARENT
REMARK Flexibility Score: inf
ROOT
ATOM      1  C   UNL     1      51.172  33.721  43.595  1.00  0.00     0.000 C 
ENDROOT
BRANCH   1   2
ATOM      2  C   UNL     1      52.378  33.813  42.651  1.00  0.00     0.000 C 
BRANCH   2   3
ATOM      3  C   UNL     1      53.454  34.751  43.223  1.00  0.00     0.000 C 
BRANCH   3   4
ATOM      4  C   UNL     1      53.475  34.760  44.759  1.00  0.00     0.000 C 
BRANCH   4   5
ATOM      5  C   UNL     1      53.511  36.180  45.342  1.00  0.00     0.006 C 
BRANCH   5   6
ATOM      6  C   UNL     1      52.800  37.172  44.417  1.00  0.00     0.053 C 
BRANCH   6   7
ATOM      7  C   UNL     1      53.658  38.374  44.177  1.00  0.00     0.041 C 
ATOM      8  O   UNL     1      53.671  38.926  43.046  1.00  0.00    -0.550 OA
ATOM      9  O   UNL     1      54.479  38.855  45.189  1.00  0.00    -0.550 OA
ENDBRANCH   6   7
ENDBRANCH   5   6
ENDBRANCH   4   5
ENDBRANCH   3   4
ENDBRANCH   2   3
ENDBRANCH   1   2
BRANCH   1  10
ATOM     10  C   UNL     1      50.380  32.429  43.347  1.00  0.00     0.000 C 
BRANCH  10  11
ATOM     11  C   UNL     1      50.894  31.641  42.131  1.00  0.00    -0.000 C 
BRANCH  11  12
ATOM     12  C   UNL     1      50.779  30.119  42.325  1.00  0.00    -0.000 C 
BRANCH  12  13
ATOM     13  C   UNL     1      52.052  29.495  42.927  1.00  0.00    -0.000 C 
BRANCH  13  14
ATOM     14  C   UNL     1      53.378  30.048  42.372  1.00  0.00    -0.000 C 
BRANCH  14  15
ATOM     15  C   UNL     1      54.501  30.076  43.419  1.00  0.00    -0.003 C 
ATOM     16  C   UNL     1      55.209  31.427  43.429  1.00  0.00     0.004 C 
ENDBRANCH  14  15
ENDBRANCH  13  14
ENDBRANCH  12  13
ENDBRANCH  11  12
ENDBRANCH  10  11
ENDBRANCH   1  10
TORSDOF 12
ENDMDL
MODEL 7
REMARK VINA RESULT:    -4.886      2.389      3.481
REMARK INTER + INTRA:          -9.598
REMARK INTER:                  -8.270
REMARK INTRA:                  -1.327
REMARK UNBOUND:                -1.283
REMARK SMILES CCCCCCCCCCCCCC(=O)[O-]
REMARK SMILES IDX 8 1 9 2 10 3 11 4 12 5 13 6 14 7 15 8 16 9 7 10 6 11 5 12
REMARK SMILES IDX 4 13 3 14 2 15 1 16
REMARK H PARENT
REMARK Flexibility Score: inf
ROOT
ATOM      1  C   UNL     1      52.853  33.624  42.846  1.00  0.00     0.000 C 
ENDROOT
BRANCH   1   2
ATOM      2  C   UNL     1      51.637  34.085  43.660  1.00  0.00     0.000 C 
BRANCH   2   3
ATOM      3  C   UNL     1      51.974  35.333  44.493  1.00  0.00     0.000 C 
BRANCH   3   4
ATOM      4  C   UNL     1      51.897  36.630  43.673  1.00  0.00     0.000 C 
BRANCH   4   5
ATOM      5  C   UNL     1      53.275  37.263  43.434  1.00  0.00     0.006 C 
BRANCH   5   6
ATOM      6  C   UNL     1      54.104  37.276  44.722  1.00  0.00     0.053 C 
BRANCH   6   7
ATOM      7  C   UNL     1      53.634  38.361  45.639  1.00  0.00     0.041 C 
ATOM      8  O   UNL     1      53.382  38.105  46.846  1.00  0.00    -0.550 OA
ATOM      9  O   UNL     1      53.426  39.643  45.148  1.00  0.00    -0.550 OA
ENDBRANCH   6   7
ENDBRANCH   5   6
ENDBRANCH   4   5
ENDBRANCH   3   4
ENDBRANCH   2   3
ENDBRANCH   1   2
BRANCH   1  10
ATOM     10  C   UNL     1      54.123  33.620  43.711  1.00  0.00     0.000 C 
BRANCH  10  11
ATOM     11  C   UNL     1      55.238  32.739  43.123  1.00  0.00    -0.000 C 
BRANCH  11  12
ATOM     12  C   UNL     1      55.271  31.335  43.751  1.00  0.00    -0.000 C 
BRANCH  12  13
ATOM     13  C   UNL     1      54.662  30.256  42.836  1.00  0.00    -0.000 C 
BRANCH  13  14
ATOM     14  C   UNL     1      53.255  29.775  43.238  1.00  0.00    -0.000 C 
BRANCH  14  15
ATOM     15  C   UNL     1      52.330  29.555  42.033  1.00  0.00    -0.003 C 
ATOM     16  C   UNL     1      51.073  30.413  42.140  1.00  0.00     0.004 C 
ENDBRANCH  14  15
ENDBRANCH  13  14
ENDBRANCH  12  13
ENDBRANCH  11  12
ENDBRANCH  10  11
ENDBRANCH   1  10
TORSDOF 12
ENDMDL
MODEL 8
REMARK VINA RESULT:    -4.876      2.621      4.148
REMARK INTER + INTRA:          -9.580
REMARK INTER:                  -8.395
REMARK INTRA:                  -1.185
REMARK UNBOUND:                -1.283
REMARK SMILES CCCCCCCCCCCCCC(=O)[O-]
REMARK SMILES IDX 8 1 9 2 10 3 11 4 12 5 13 6 14 7 15 8 16 9 7 10 6 11 5 12
REMARK SMILES IDX 4 13 3 14 2 15 1 16
REMARK H PARENT
REMARK Flexibility Score: inf
ROOT
ATOM      1  C   UNL     1      54.387  32.626  43.245  1.00  0.00     0.000 C 
ENDROOT
BRANCH   1   2
ATOM      2  C   UNL     1      55.250  33.835  42.866  1.00  0.00     0.000 C 
BRANCH   2   3
ATOM      3  C   UNL     1      54.399  35.112  42.775  1.00  0.00     0.000 C 
BRANCH   3   4
ATOM      4  C   UNL     1      54.603  36.046  43.978  1.00  0.00     0.000 C 
BRANCH   4   5
ATOM      5  C   UNL     1      53.548  35.841  45.074  1.00  0.00     0.006 C 
BRANCH   5   6
ATOM      6  C   UNL     1      52.203  35.427  44.470  1.00  0.00     0.053 C 
BRANCH   6   7
ATOM      7  C   UNL     1      51.089  35.700  45.431  1.00  0.00     0.041 C 
ATOM      8  O   UNL     1      49.898  35.741  45.025  1.00  0.00    -0.550 OA
ATOM      9  O   UNL     1      51.371  35.957  46.766  1.00  0.00    -0.550 OA
ENDBRANCH   6   7
ENDBRANCH   5   6
ENDBRANCH   4   5
ENDBRANCH   3   4
ENDBRANCH   2   3
ENDBRANCH   1   2
BRANCH   1  10
ATOM     10  C   UNL     1      55.262  31.401  43.549  1.00  0.00     0.000 C 
BRANCH  10  11
ATOM     11  C   UNL     1      54.723  30.111  42.907  1.00  0.00    -0.000 C 
BRANCH  11  12
ATOM     12  C   UNL     1      53.248  29.851  43.258  1.00  0.00    -0.000 C 
BRANCH  12  13
ATOM     13  C   UNL     1      52.346  29.744  42.014  1.00  0.00    -0.000 C 
BRANCH  13  14
ATOM     14  C   UNL     1      50.896  30.220  42.215  1.00  0.00    -0.000 C 
BRANCH  14  15
ATOM     15  C   UNL     1      50.734  31.738  42.051  1.00  0.00    -0.003 C 
ATOM     16  C   UNL     1      50.388  32.401  43.380  1.00  0.00     0.004 C 
ENDBRANCH  14  15
ENDBRANCH  13  14
ENDBRANCH  12  13
ENDBRANCH  11  12
ENDBRANCH  10  11
ENDBRANCH   1  10
TORSDOF 12
ENDMDL
MODEL 9
REMARK VINA RESULT:    -4.863      3.376      5.231
REMARK INTER + INTRA:          -9.559
REMARK INTER:                  -7.521
REMARK INTRA:                  -2.038
REMARK UNBOUND:                -1.283
REMARK SMILES CCCCCCCCCCCCCC(=O)[O-]
REMARK SMILES IDX 8 1 9 2 10 3 11 4 12 5 13 6 14 7 15 8 16 9 7 10 6 11 5 12
REMARK SMILES IDX 4 13 3 14 2 15 1 16
REMARK H PARENT
REMARK Flexibility Score: inf
ROOT
ATOM      1  C   UNL     1      54.130  38.228  41.617  1.00  0.00     0.000 C 
ENDROOT
BRANCH   1   2
ATOM      2  C   UNL     1      52.809  37.608  42.090  1.00  0.00     0.000 C 
BRANCH   2   3
ATOM      3  C   UNL     1      52.438  38.110  43.495  1.00  0.00     0.000 C 
BRANCH   3   4
ATOM      4  C   UNL     1      53.358  39.240  43.982  1.00  0.00     0.000 C 
BRANCH   4   5
ATOM      5  C   UNL     1      54.153  38.857  45.239  1.00  0.00     0.006 C 
BRANCH   5   6
ATOM      6  C   UNL     1      53.617  37.561  45.853  1.00  0.00     0.053 C 
BRANCH   6   7
ATOM      7  C   UNL     1      53.006  37.828  47.193  1.00  0.00     0.041 C 
ATOM      8  O   UNL     1      53.411  38.795  47.891  1.00  0.00    -0.550 OA
ATOM      9  O   UNL     1      52.026  36.980  47.692  1.00  0.00    -0.550 OA
ENDBRANCH   6   7
ENDBRANCH   5   6
ENDBRANCH   4   5
ENDBRANCH   3   4
ENDBRANCH   2   3
ENDBRANCH   1   2
BRANCH   1  10
ATOM     10  C   UNL     1      55.200  37.145  41.408  1.00  0.00     0.000 C 
BRANCH  10  11
ATOM     11  C   UNL     1      55.818  36.658  42.729  1.00  0.00    -0.000 C 
BRANCH  11  12
ATOM     12  C   UNL     1      55.691  35.135  42.912  1.00  0.00    -0.000 C 
BRANCH  12  13
ATOM     13  C   UNL     1      54.399  34.726  43.643  1.00  0.00    -0.000 C 
BRANCH  13  14
ATOM     14  C   UNL     1      53.476  33.775  42.858  1.00  0.00    -0.000 C 
BRANCH  14  15
ATOM     15  C   UNL     1      51.987  34.102  43.036  1.00  0.00    -0.003 C 
ATOM     16  C   UNL     1      51.709  34.664  44.427  1.00  0.00     0.004 C 
ENDBRANCH  14  15
ENDBRANCH  13  14
ENDBRANCH  12  13
ENDBRANCH  11  12
ENDBRANCH  10  11
ENDBRANCH   1  10
TORSDOF 12
ENDMDL
