MODEL 1
REMARK VINA RESULT:    -3.699      0.000      0.000
REMARK INTER + INTRA:         -12.911
REMARK INTER:                  -8.456
REMARK INTRA:                  -4.455
REMARK UNBOUND:                -4.455
REMARK SMILES CCCCCCCCCCCCCCCCCCCCCCCC(=O)[O-]
REMARK SMILES IDX 13 1 14 2 15 3 16 4 17 5 18 6 19 7 20 8 21 9 22 10 23 11
REMARK SMILES IDX 24 12 25 13 26 14 12 15 11 16 10 17 9 18 8 19 7 20 6 21 5 22
REMARK SMILES IDX 4 23 3 24 2 25 1 26
REMARK H PARENT
REMARK Flexibility Score: inf
ROOT
ATOM      1  C   UNL     1      26.083  -0.500  10.776  1.00  0.00     0.000 C 
ENDROOT
BRANCH   1   2
ATOM      2  C   UNL     1      25.678  -1.680   9.885  1.00  0.00     0.000 C 
BRANCH   2   3
ATOM      3  C   UNL     1      24.488  -1.308   8.991  1.00  0.00     0.000 C 
BRANCH   3   4
ATOM      4  C   UNL     1      24.234  -2.336   7.873  1.00  0.00     0.000 C 
BRANCH   4   5
ATOM      5  C   UNL     1      23.951  -1.734   6.481  1.00  0.00     0.000 C 
BRANCH   5   6
ATOM      6  C   UNL     1      23.819  -0.201   6.449  1.00  0.00     0.000 C 
BRANCH   6   7
ATOM      7  C   UNL     1      22.435   0.269   5.969  1.00  0.00     0.000 C 
BRANCH   7   8
ATOM      8  C   UNL     1      21.564   0.833   7.107  1.00  0.00     0.000 C 
BRANCH   8   9
ATOM      9  C   UNL     1      20.824  -0.226   7.945  1.00  0.00     0.000 C 
BRANCH   9  10
ATOM     10  C   UNL     1      19.984  -1.189   7.094  1.00  0.00     0.006 C 
BRANCH  10  11
ATOM     11  C   UNL     1      20.490  -2.628   7.228  1.00  0.00     0.053 C 
BRANCH  11  12
ATOM     12  C   UNL     1      20.307  -3.122   8.628  1.00  0.00     0.041 C 
ATOM     13  O   UNL     1      21.270  -3.649   9.246  1.00  0.00    -0.550 OA
ATOM     14  O   UNL     1      19.059  -3.045   9.234  1.00  0.00    -0.550 OA
ENDBRANCH  11  12
ENDBRANCH  10  11
ENDBRANCH   9  10
ENDBRANCH   8   9
ENDBRANCH   7   8
ENDBRANCH   6   7
ENDBRANCH   5   6
ENDBRANCH   4   5
ENDBRANCH   3   4
ENDBRANCH   2   3
ENDBRANCH   1   2
BRANCH   1  15
ATOM     15  C   UNL     1      27.590  -0.223  10.666  1.00  0.00     0.000 C 
BRANCH  15  16
ATOM     16  C   UNL     1      28.398  -1.459  10.239  1.00  0.00     0.000 C 
BRANCH  16  17
ATOM     17  C   UNL     1      29.125  -1.327   8.887  1.00  0.00     0.000 C 
BRANCH  17  18
ATOM     18  C   UNL     1      28.934  -2.538   7.949  1.00  0.00    -0.000 C 
BRANCH  18  19
ATOM     19  C   UNL     1      27.961  -2.238   6.795  1.00  0.00    -0.000 C 
BRANCH  19  20
ATOM     20  C   UNL     1      27.448  -0.789   6.808  1.00  0.00    -0.000 C 
BRANCH  20  21
ATOM     21  C   UNL     1      27.448  -0.121   5.415  1.00  0.00    -0.000 C 
BRANCH  21  22
ATOM     22  C   UNL     1      27.953   1.328   5.467  1.00  0.00    -0.000 C 
BRANCH  22  23
ATOM     23  C   UNL     1      27.860   1.891   6.891  1.00  0.00    -0.000 C 
BRANCH  23  24
ATOM     24  C   UNL     1      26.496   2.547   7.137  1.00  0.00    -0.000 C 
BRANCH  24  25
ATOM     25  C   UNL     1      26.084   2.425   8.608  1.00  0.00    -0.003 C 
ATOM     26  C   UNL     1      24.568   2.496   8.763  1.00  0.00     0.004 C 
ENDBRANCH  24  25
ENDBRANCH  23  24
ENDBRANCH  22  23
ENDBRANCH  21  22
ENDBRANCH  20  21
ENDBRANCH  19  20
ENDBRANCH  18  19
ENDBRANCH  17  18
ENDBRANCH  16  17
ENDBRANCH  15  16
ENDBRANCH   1  15
TORSDOF 22
ENDMDL
MODEL 2
REMARK VINA RESULT:    -3.649      2.295      4.520
REMARK INTER + INTRA:         -12.798
REMARK INTER:                  -8.235
REMARK INTRA:                  -4.563
REMARK UNBOUND:                -4.455
REMARK SMILES CCCCCCCCCCCCCCCCCCCCCCCC(=O)[O-]
REMARK SMILES IDX 13 1 14 2 15 3 16 4 17 5 18 6 19 7 20 8 21 9 22 10 23 11
REMARK SMILES IDX 24 12 25 13 26 14 12 15 11 16 10 17 9 18 8 19 7 20 6 21 5 22
REMARK SMILES IDX 4 23 3 24 2 25 1 26
REMARK H PARENT
REMARK Flexibility Score: inf
ROOT
ATOM      1  C   UNL     1      27.867  -4.108   7.830  1.00  0.00     0.000 C 
ENDROOT
BRANCH   1   2
ATOM      2  C   UNL     1      29.124  -3.241   7.965  1.00  0.00     0.000 C 
BRANCH   2   3
ATOM      3  C   UNL     1      29.092  -2.427   9.265  1.00  0.00     0.000 C 
BRANCH   3   4
ATOM      4  C   UNL     1      28.578  -0.990   9.060  1.00  0.00     0.000 C 
BRANCH   4   5
ATOM      5  C   UNL     1      27.293  -0.637   9.838  1.00  0.00     0.000 C 
BRANCH   5   6
ATOM      6  C   UNL     1      26.186  -1.704   9.785  1.00  0.00     0.000 C 
BRANCH   6   7
ATOM      7  C   UNL     1      24.893  -1.189   9.132  1.00  0.00     0.000 C 
BRANCH   7   8
ATOM      8  C   UNL     1      24.251  -2.215   8.179  1.00  0.00     0.000 C 
BRANCH   8   9
ATOM      9  C   UNL     1      22.939  -1.755   7.517  1.00  0.00     0.000 C 
BRANCH   9  10
ATOM     10  C   UNL     1      23.086  -0.439   6.739  1.00  0.00     0.006 C 
BRANCH  10  11
ATOM     11  C   UNL     1      21.747  -0.001   6.138  1.00  0.00     0.053 C 
BRANCH  11  12
ATOM     12  C   UNL     1      21.944   0.548   4.760  1.00  0.00     0.041 C 
ATOM     13  O   UNL     1      20.982   0.583   3.948  1.00  0.00    -0.550 OA
ATOM     14  O   UNL     1      23.204   0.973   4.355  1.00  0.00    -0.550 OA
ENDBRANCH  11  12
ENDBRANCH  10  11
ENDBRANCH   9  10
ENDBRANCH   8   9
ENDBRANCH   7   8
ENDBRANCH   6   7
ENDBRANCH   5   6
ENDBRANCH   4   5
ENDBRANCH   3   4
ENDBRANCH   2   3
ENDBRANCH   1   2
BRANCH   1  15
ATOM     15  C   UNL     1      27.134  -3.809   6.515  1.00  0.00     0.000 C 
BRANCH  15  16
ATOM     16  C   UNL     1      27.685  -2.572   5.788  1.00  0.00     0.000 C 
BRANCH  16  17
ATOM     17  C   UNL     1      26.752  -1.346   5.788  1.00  0.00     0.000 C 
BRANCH  17  18
ATOM     18  C   UNL     1      27.493   0.008   5.734  1.00  0.00    -0.000 C 
BRANCH  18  19
ATOM     19  C   UNL     1      26.539   1.204   5.900  1.00  0.00    -0.000 C 
BRANCH  19  20
ATOM     20  C   UNL     1      27.193   2.396   6.618  1.00  0.00    -0.000 C 
BRANCH  20  21
ATOM     21  C   UNL     1      26.650   2.631   8.044  1.00  0.00    -0.000 C 
BRANCH  21  22
ATOM     22  C   UNL     1      25.162   2.273   8.163  1.00  0.00    -0.000 C 
BRANCH  22  23
ATOM     23  C   UNL     1      24.671   2.436   9.607  1.00  0.00    -0.000 C 
BRANCH  23  24
ATOM     24  C   UNL     1      23.147   2.291   9.692  1.00  0.00    -0.000 C 
BRANCH  24  25
ATOM     25  C   UNL     1      22.755   1.117  10.596  1.00  0.00    -0.003 C 
ATOM     26  C   UNL     1      21.596   0.324   9.998  1.00  0.00     0.004 C 
ENDBRANCH  24  25
ENDBRANCH  23  24
ENDBRANCH  22  23
ENDBRANCH  21  22
ENDBRANCH  20  21
ENDBRANCH  19  20
ENDBRANCH  18  19
ENDBRANCH  17  18
ENDBRANCH  16  17
ENDBRANCH  15  16
ENDBRANCH   1  15
TORSDOF 22
ENDMDL
MODEL 3
REMARK VINA RESULT:    -3.636      9.256     12.251
REMARK INTER + INTRA:         -12.767
REMARK INTER:                  -8.780
REMARK INTRA:                  -3.988
REMARK UNBOUND:                -4.455
REMARK SMILES CCCCCCCCCCCCCCCCCCCCCCCC(=O)[O-]
REMARK SMILES IDX 13 1 14 2 15 3 16 4 17 5 18 6 19 7 20 8 21 9 22 10 23 11
REMARK SMILES IDX 24 12 25 13 26 14 12 15 11 16 10 17 9 18 8 19 7 20 6 21 5 22
REMARK SMILES IDX 4 23 3 24 2 25 1 26
REMARK H PARENT
REMARK Flexibility Score: inf
ROOT
ATOM      1  C   UNL     1      24.859  -1.959  18.107  1.00  0.00     0.000 C 
ENDROOT
BRANCH   1   2
ATOM      2  C   UNL     1      24.673  -3.193  17.217  1.00  0.00     0.000 C 
BRANCH   2   3
ATOM      3  C   UNL     1      25.826  -4.186  17.409  1.00  0.00     0.000 C 
BRANCH   3   4
ATOM      4  C   UNL     1      25.420  -5.424  18.229  1.00  0.00     0.000 C 
BRANCH   4   5
ATOM      5  C   UNL     1      25.476  -6.763  17.464  1.00  0.00     0.000 C 
BRANCH   5   6
ATOM      6  C   UNL     1      25.081  -6.682  15.979  1.00  0.00     0.000 C 
BRANCH   6   7
ATOM      7  C   UNL     1      23.558  -6.683  15.766  1.00  0.00     0.000 C 
BRANCH   7   8
ATOM      8  C   UNL     1      22.987  -8.091  15.516  1.00  0.00     0.000 C 
BRANCH   8   9
ATOM      9  C   UNL     1      22.508  -8.832  16.779  1.00  0.00     0.000 C 
BRANCH   9  10
ATOM     10  C   UNL     1      23.043 -10.268  16.875  1.00  0.00     0.006 C 
BRANCH  10  11
ATOM     11  C   UNL     1      24.540 -10.278  17.200  1.00  0.00     0.053 C 
BRANCH  11  12
ATOM     12  C   UNL     1      25.293 -11.071  16.180  1.00  0.00     0.041 C 
ATOM     13  O   UNL     1      25.919 -12.111  16.520  1.00  0.00    -0.550 OA
ATOM     14  O   UNL     1      25.346 -10.636  14.861  1.00  0.00    -0.550 OA
ENDBRANCH  11  12
ENDBRANCH  10  11
ENDBRANCH   9  10
ENDBRANCH   8   9
ENDBRANCH   7   8
ENDBRANCH   6   7
ENDBRANCH   5   6
ENDBRANCH   4   5
ENDBRANCH   3   4
ENDBRANCH   2   3
ENDBRANCH   1   2
BRANCH   1  15
ATOM     15  C   UNL     1      23.519  -1.509  18.707  1.00  0.00     0.000 C 
BRANCH  15  16
ATOM     16  C   UNL     1      22.331  -2.356  18.224  1.00  0.00     0.000 C 
BRANCH  16  17
ATOM     17  C   UNL     1      21.110  -2.363  19.165  1.00  0.00     0.000 C 
BRANCH  17  18
ATOM     18  C   UNL     1      20.891  -3.702  19.901  1.00  0.00    -0.000 C 
BRANCH  18  19
ATOM     19  C   UNL     1      22.078  -4.666  19.729  1.00  0.00    -0.000 C 
BRANCH  19  20
ATOM     20  C   UNL     1      21.856  -5.694  18.608  1.00  0.00    -0.000 C 
BRANCH  20  21
ATOM     21  C   UNL     1      20.401  -6.203  18.515  1.00  0.00    -0.000 C 
BRANCH  21  22
ATOM     22  C   UNL     1      19.865  -6.163  17.077  1.00  0.00    -0.000 C 
BRANCH  22  23
ATOM     23  C   UNL     1      19.851  -4.729  16.534  1.00  0.00    -0.000 C 
BRANCH  23  24
ATOM     24  C   UNL     1      20.512  -4.656  15.153  1.00  0.00    -0.000 C 
BRANCH  24  25
ATOM     25  C   UNL     1      20.248  -5.934  14.348  1.00  0.00    -0.003 C 
ATOM     26  C   UNL     1      20.504  -5.711  12.861  1.00  0.00     0.004 C 
ENDBRANCH  24  25
ENDBRANCH  23  24
ENDBRANCH  22  23
ENDBRANCH  21  22
ENDBRANCH  20  21
ENDBRANCH  19  20
ENDBRANCH  18  19
ENDBRANCH  17  18
ENDBRANCH  16  17
ENDBRANCH  15  16
ENDBRANCH   1  15
TORSDOF 22
ENDMDL
MODEL 4
REMARK VINA RESULT:    -3.627      2.250      4.794
REMARK INTER + INTRA:         -12.746
REMARK INTER:                  -8.380
REMARK INTRA:                  -4.366
REMARK UNBOUND:                -4.455
REMARK SMILES CCCCCCCCCCCCCCCCCCCCCCCC(=O)[O-]
REMARK SMILES IDX 13 1 14 2 15 3 16 4 17 5 18 6 19 7 20 8 21 9 22 10 23 11
REMARK SMILES IDX 24 12 25 13 26 14 12 15 11 16 10 17 9 18 8 19 7 20 6 21 5 22
REMARK SMILES IDX 4 23 3 24 2 25 1 26
REMARK H PARENT
REMARK Flexibility Score: inf
ROOT
ATOM      1  C   UNL     1      27.852  -1.404   7.221  1.00  0.00     0.000 C 
ENDROOT
BRANCH   1   2
ATOM      2  C   UNL     1      28.181  -2.901   7.201  1.00  0.00     0.000 C 
BRANCH   2   3
ATOM      3  C   UNL     1      28.382  -3.399   5.765  1.00  0.00     0.000 C 
BRANCH   3   4
ATOM      4  C   UNL     1      27.588  -4.682   5.459  1.00  0.00     0.000 C 
BRANCH   4   5
ATOM      5  C   UNL     1      26.418  -4.507   4.467  1.00  0.00     0.000 C 
BRANCH   5   6
ATOM      6  C   UNL     1      25.015  -4.563   5.098  1.00  0.00     0.000 C 
BRANCH   6   7
ATOM      7  C   UNL     1      25.049  -4.903   6.598  1.00  0.00     0.000 C 
BRANCH   7   8
ATOM      8  C   UNL     1      24.508  -3.766   7.484  1.00  0.00     0.000 C 
BRANCH   8   9
ATOM      9  C   UNL     1      24.118  -2.482   6.727  1.00  0.00     0.000 C 
BRANCH   9  10
ATOM     10  C   UNL     1      22.707  -1.984   7.073  1.00  0.00     0.006 C 
BRANCH  10  11
ATOM     11  C   UNL     1      21.924  -1.624   5.807  1.00  0.00     0.053 C 
BRANCH  11  12
ATOM     12  C   UNL     1      21.679  -0.150   5.743  1.00  0.00     0.041 C 
ATOM     13  O   UNL     1      20.762   0.371   6.432  1.00  0.00    -0.550 OA
ATOM     14  O   UNL     1      22.430   0.643   4.883  1.00  0.00    -0.550 OA
ENDBRANCH  11  12
ENDBRANCH  10  11
ENDBRANCH   9  10
ENDBRANCH   8   9
ENDBRANCH   7   8
ENDBRANCH   6   7
ENDBRANCH   5   6
ENDBRANCH   4   5
ENDBRANCH   3   4
ENDBRANCH   2   3
ENDBRANCH   1   2
BRANCH   1  15
ATOM     15  C   UNL     1      27.170  -0.976   5.914  1.00  0.00     0.000 C 
BRANCH  15  16
ATOM     16  C   UNL     1      27.691   0.366   5.376  1.00  0.00     0.000 C 
BRANCH  16  17
ATOM     17  C   UNL     1      26.640   1.491   5.301  1.00  0.00     0.000 C 
BRANCH  17  18
ATOM     18  C   UNL     1      26.869   2.633   6.315  1.00  0.00    -0.000 C 
BRANCH  18  19
ATOM     19  C   UNL     1      26.673   2.173   7.770  1.00  0.00    -0.000 C 
BRANCH  19  20
ATOM     20  C   UNL     1      25.221   2.319   8.254  1.00  0.00    -0.000 C 
BRANCH  20  21
ATOM     21  C   UNL     1      24.439   0.987   8.271  1.00  0.00    -0.000 C 
BRANCH  21  22
ATOM     22  C   UNL     1      23.704   0.766   9.601  1.00  0.00    -0.000 C 
BRANCH  22  23
ATOM     23  C   UNL     1      24.602   0.040  10.611  1.00  0.00    -0.000 C 
BRANCH  23  24
ATOM     24  C   UNL     1      25.391  -1.088   9.937  1.00  0.00    -0.000 C 
BRANCH  24  25
ATOM     25  C   UNL     1      26.738  -1.311  10.634  1.00  0.00    -0.003 C 
ATOM     26  C   UNL     1      27.569  -0.031  10.648  1.00  0.00     0.004 C 
ENDBRANCH  24  25
ENDBRANCH  23  24
ENDBRANCH  22  23
ENDBRANCH  21  22
ENDBRANCH  20  21
ENDBRANCH  19  20
ENDBRANCH  18  19
ENDBRANCH  17  18
ENDBRANCH  16  17
ENDBRANCH  15  16
ENDBRANCH   1  15
TORSDOF 22
ENDMDL
MODEL 5
REMARK VINA RESULT:    -3.615      9.670     11.965
REMARK INTER + INTRA:         -12.718
REMARK INTER:                  -8.044
REMARK INTRA:                  -4.674
REMARK UNBOUND:                -4.455
REMARK SMILES CCCCCCCCCCCCCCCCCCCCCCCC(=O)[O-]
REMARK SMILES IDX 13 1 14 2 15 3 16 4 17 5 18 6 19 7 20 8 21 9 22 10 23 11
REMARK SMILES IDX 24 12 25 13 26 14 12 15 11 16 10 17 9 18 8 19 7 20 6 21 5 22
REMARK SMILES IDX 4 23 3 24 2 25 1 26
REMARK H PARENT
REMARK Flexibility Score: inf
ROOT
ATOM      1  C   UNL     1      22.925  -2.426  17.228  1.00  0.00     0.000 C 
ENDROOT
BRANCH   1   2
ATOM      2  C   UNL     1      24.299  -2.938  16.781  1.00  0.00     0.000 C 
BRANCH   2   3
ATOM      3  C   UNL     1      25.172  -3.294  17.991  1.00  0.00     0.000 C 
BRANCH   3   4
ATOM      4  C   UNL     1      25.828  -4.681  17.869  1.00  0.00     0.000 C 
BRANCH   4   5
ATOM      5  C   UNL     1      24.884  -5.877  18.117  1.00  0.00     0.000 C 
BRANCH   5   6
ATOM      6  C   UNL     1      25.034  -7.043  17.123  1.00  0.00     0.000 C 
BRANCH   6   7
ATOM      7  C   UNL     1      25.090  -6.575  15.660  1.00  0.00     0.000 C 
BRANCH   7   8
ATOM      8  C   UNL     1      24.206  -7.421  14.725  1.00  0.00     0.000 C 
BRANCH   8   9
ATOM      9  C   UNL     1      24.847  -8.734  14.237  1.00  0.00     0.000 C 
BRANCH   9  10
ATOM     10  C   UNL     1      23.839  -9.886  14.109  1.00  0.00     0.006 C 
BRANCH  10  11
ATOM     11  C   UNL     1      22.584  -9.616  14.945  1.00  0.00     0.053 C 
BRANCH  11  12
ATOM     12  C   UNL     1      22.597 -10.441  16.192  1.00  0.00     0.041 C 
ATOM     13  O   UNL     1      23.294 -10.086  17.180  1.00  0.00    -0.550 OA
ATOM     14  O   UNL     1      21.879 -11.630  16.248  1.00  0.00    -0.550 OA
ENDBRANCH  11  12
ENDBRANCH  10  11
ENDBRANCH   9  10
ENDBRANCH   8   9
ENDBRANCH   7   8
ENDBRANCH   6   7
ENDBRANCH   5   6
ENDBRANCH   4   5
ENDBRANCH   3   4
ENDBRANCH   2   3
ENDBRANCH   1   2
BRANCH   1  15
ATOM     15  C   UNL     1      22.852  -2.319  18.758  1.00  0.00     0.000 C 
BRANCH  15  16
ATOM     16  C   UNL     1      21.625  -3.027  19.353  1.00  0.00     0.000 C 
BRANCH  16  17
ATOM     17  C   UNL     1      21.759  -4.556  19.491  1.00  0.00     0.000 C 
BRANCH  17  18
ATOM     18  C   UNL     1      20.429  -5.279  19.799  1.00  0.00    -0.000 C 
BRANCH  18  19
ATOM     19  C   UNL     1      20.168  -6.456  18.843  1.00  0.00    -0.000 C 
BRANCH  19  20
ATOM     20  C   UNL     1      21.359  -6.751  17.917  1.00  0.00    -0.000 C 
BRANCH  20  21
ATOM     21  C   UNL     1      21.012  -6.655  16.415  1.00  0.00    -0.000 C 
BRANCH  21  22
ATOM     22  C   UNL     1      21.347  -5.275  15.831  1.00  0.00    -0.000 C 
BRANCH  22  23
ATOM     23  C   UNL     1      20.106  -4.628  15.203  1.00  0.00    -0.000 C 
BRANCH  23  24
ATOM     24  C   UNL     1      19.651  -3.409  16.013  1.00  0.00    -0.000 C 
BRANCH  24  25
ATOM     25  C   UNL     1      18.479  -3.766  16.935  1.00  0.00    -0.003 C 
ATOM     26  C   UNL     1      18.218  -2.657  17.949  1.00  0.00     0.004 C 
ENDBRANCH  24  25
ENDBRANCH  23  24
ENDBRANCH  22  23
ENDBRANCH  21  22
ENDBRANCH  20  21
ENDBRANCH  19  20
ENDBRANCH  18  19
ENDBRANCH  17  18
ENDBRANCH  16  17
ENDBRANCH  15  16
ENDBRANCH   1  15
TORSDOF 22
ENDMDL
MODEL 6
REMARK VINA RESULT:    -3.584      2.421      4.913
REMARK INTER + INTRA:         -12.650
REMARK INTER:                  -8.443
REMARK INTRA:                  -4.207
REMARK UNBOUND:                -4.455
REMARK SMILES CCCCCCCCCCCCCCCCCCCCCCCC(=O)[O-]
REMARK SMILES IDX 13 1 14 2 15 3 16 4 17 5 18 6 19 7 20 8 21 9 22 10 23 11
REMARK SMILES IDX 24 12 25 13 26 14 12 15 11 16 10 17 9 18 8 19 7 20 6 21 5 22
REMARK SMILES IDX 4 23 3 24 2 25 1 26
REMARK H PARENT
REMARK Flexibility Score: inf
ROOT
ATOM      1  C   UNL     1      22.727   1.027   8.374  1.00  0.00     0.000 C 
ENDROOT
BRANCH   1   2
ATOM      2  C   UNL     1      21.698   1.530   7.355  1.00  0.00     0.000 C 
BRANCH   2   3
ATOM      3  C   UNL     1      20.867   0.368   6.797  1.00  0.00     0.000 C 
BRANCH   3   4
ATOM      4  C   UNL     1      21.512  -0.294   5.566  1.00  0.00     0.000 C 
BRANCH   4   5
ATOM      5  C   UNL     1      22.053  -1.721   5.797  1.00  0.00     0.000 C 
BRANCH   5   6
ATOM      6  C   UNL     1      21.268  -2.556   6.824  1.00  0.00     0.000 C 
BRANCH   6   7
ATOM      7  C   UNL     1      22.181  -3.405   7.724  1.00  0.00     0.000 C 
BRANCH   7   8
ATOM      8  C   UNL     1      23.232  -2.566   8.474  1.00  0.00     0.000 C 
BRANCH   8   9
ATOM      9  C   UNL     1      24.695  -2.892   8.121  1.00  0.00     0.000 C 
BRANCH   9  10
ATOM     10  C   UNL     1      24.829  -4.017   7.084  1.00  0.00     0.006 C 
BRANCH  10  11
ATOM     11  C   UNL     1      26.221  -4.653   7.136  1.00  0.00     0.053 C 
BRANCH  11  12
ATOM     12  C   UNL     1      26.854  -4.644   5.781  1.00  0.00     0.041 C 
ATOM     13  O   UNL     1      26.328  -3.993   4.840  1.00  0.00    -0.550 OA
ATOM     14  O   UNL     1      27.999  -5.395   5.543  1.00  0.00    -0.550 OA
ENDBRANCH  11  12
ENDBRANCH  10  11
ENDBRANCH   9  10
ENDBRANCH   8   9
ENDBRANCH   7   8
ENDBRANCH   6   7
ENDBRANCH   5   6
ENDBRANCH   4   5
ENDBRANCH   3   4
ENDBRANCH   2   3
ENDBRANCH   1   2
BRANCH   1  15
ATOM     15  C   UNL     1      24.145   1.072   7.787  1.00  0.00     0.000 C 
BRANCH  15  16
ATOM     16  C   UNL     1      25.081   2.022   8.551  1.00  0.00     0.000 C 
BRANCH  16  17
ATOM     17  C   UNL     1      25.996   2.888   7.663  1.00  0.00     0.000 C 
BRANCH  17  18
ATOM     18  C   UNL     1      27.310   2.192   7.246  1.00  0.00    -0.000 C 
BRANCH  18  19
ATOM     19  C   UNL     1      27.322   1.810   5.755  1.00  0.00    -0.000 C 
BRANCH  19  20
ATOM     20  C   UNL     1      27.669   0.331   5.519  1.00  0.00    -0.000 C 
BRANCH  20  21
ATOM     21  C   UNL     1      27.119  -0.614   6.609  1.00  0.00    -0.000 C 
BRANCH  21  22
ATOM     22  C   UNL     1      28.207  -1.532   7.183  1.00  0.00    -0.000 C 
BRANCH  22  23
ATOM     23  C   UNL     1      28.706  -1.014   8.537  1.00  0.00    -0.000 C 
BRANCH  23  24
ATOM     24  C   UNL     1      27.819  -1.517   9.682  1.00  0.00    -0.000 C 
BRANCH  24  25
ATOM     25  C   UNL     1      27.164  -0.348  10.426  1.00  0.00    -0.003 C 
ATOM     26  C   UNL     1      25.740  -0.694  10.851  1.00  0.00     0.004 C 
ENDBRANCH  24  25
ENDBRANCH  23  24
ENDBRANCH  22  23
ENDBRANCH  21  22
ENDBRANCH  20  21
ENDBRANCH  19  20
ENDBRANCH  18  19
ENDBRANCH  17  18
ENDBRANCH  16  17
ENDBRANCH  15  16
ENDBRANCH   1  15
TORSDOF 22
ENDMDL
MODEL 7
REMARK VINA RESULT:    -3.568      2.295      5.179
REMARK INTER + INTRA:         -12.612
REMARK INTER:                  -8.480
REMARK INTRA:                  -4.133
REMARK UNBOUND:                -4.455
REMARK SMILES CCCCCCCCCCCCCCCCCCCCCCCC(=O)[O-]
REMARK SMILES IDX 13 1 14 2 15 3 16 4 17 5 18 6 19 7 20 8 21 9 22 10 23 11
REMARK SMILES IDX 24 12 25 13 26 14 12 15 11 16 10 17 9 18 8 19 7 20 6 21 5 22
REMARK SMILES IDX 4 23 3 24 2 25 1 26
REMARK H PARENT
REMARK Flexibility Score: inf
ROOT
ATOM      1  C   UNL     1      28.210  -2.634   8.477  1.00  0.00     0.000 C 
ENDROOT
BRANCH   1   2
ATOM      2  C   UNL     1      27.854  -1.237   7.956  1.00  0.00     0.000 C 
BRANCH   2   3
ATOM      3  C   UNL     1      27.508  -1.282   6.462  1.00  0.00     0.000 C 
BRANCH   3   4
ATOM      4  C   UNL     1      26.157  -0.616   6.140  1.00  0.00     0.000 C 
BRANCH   4   5
ATOM      5  C   UNL     1      26.253   0.771   5.471  1.00  0.00     0.000 C 
BRANCH   5   6
ATOM      6  C   UNL     1      27.651   1.415   5.505  1.00  0.00     0.000 C 
BRANCH   6   7
ATOM      7  C   UNL     1      27.868   2.302   6.742  1.00  0.00     0.000 C 
BRANCH   7   8
ATOM      8  C   UNL     1      26.550   2.736   7.409  1.00  0.00     0.000 C 
BRANCH   8   9
ATOM      9  C   UNL     1      26.304   2.141   8.808  1.00  0.00     0.000 C 
BRANCH   9  10
ATOM     10  C   UNL     1      24.824   1.837   9.082  1.00  0.00     0.006 C 
BRANCH  10  11
ATOM     11  C   UNL     1      24.595   0.334   9.269  1.00  0.00     0.053 C 
BRANCH  11  12
ATOM     12  C   UNL     1      25.020  -0.095  10.637  1.00  0.00     0.041 C 
ATOM     13  O   UNL     1      24.741   0.615  11.640  1.00  0.00    -0.550 OA
ATOM     14  O   UNL     1      25.769  -1.255  10.801  1.00  0.00    -0.550 OA
ENDBRANCH  11  12
ENDBRANCH  10  11
ENDBRANCH   9  10
ENDBRANCH   8   9
ENDBRANCH   7   8
ENDBRANCH   6   7
ENDBRANCH   5   6
ENDBRANCH   4   5
ENDBRANCH   3   4
ENDBRANCH   2   3
ENDBRANCH   1   2
BRANCH   1  15
ATOM     15  C   UNL     1      29.017  -3.419   7.434  1.00  0.00     0.000 C 
BRANCH  15  16
ATOM     16  C   UNL     1      28.646  -4.910   7.384  1.00  0.00     0.000 C 
BRANCH  16  17
ATOM     17  C   UNL     1      27.155  -5.203   7.132  1.00  0.00     0.000 C 
BRANCH  17  18
ATOM     18  C   UNL     1      26.672  -4.832   5.713  1.00  0.00    -0.000 C 
BRANCH  18  19
ATOM     19  C   UNL     1      25.274  -4.188   5.720  1.00  0.00    -0.000 C 
BRANCH  19  20
ATOM     20  C   UNL     1      24.228  -5.036   6.463  1.00  0.00    -0.000 C 
BRANCH  20  21
ATOM     21  C   UNL     1      23.690  -4.368   7.747  1.00  0.00    -0.000 C 
BRANCH  21  22
ATOM     22  C   UNL     1      23.738  -2.835   7.666  1.00  0.00    -0.000 C 
BRANCH  22  23
ATOM     23  C   UNL     1      22.384  -2.265   7.225  1.00  0.00    -0.000 C 
BRANCH  23  24
ATOM     24  C   UNL     1      22.515  -1.483   5.913  1.00  0.00    -0.000 C 
BRANCH  24  25
ATOM     25  C   UNL     1      22.243   0.009   6.132  1.00  0.00    -0.003 C 
ATOM     26  C   UNL     1      22.115   0.747   4.803  1.00  0.00     0.004 C 
ENDBRANCH  24  25
ENDBRANCH  23  24
ENDBRANCH  22  23
ENDBRANCH  21  22
ENDBRANCH  20  21
ENDBRANCH  19  20
ENDBRANCH  18  19
ENDBRANCH  17  18
ENDBRANCH  16  17
ENDBRANCH  15  16
ENDBRANCH   1  15
TORSDOF 22
ENDMDL
MODEL 8
REMARK VINA RESULT:    -3.558     10.382     13.148
REMARK INTER + INTRA:         -12.588
REMARK INTER:                  -9.171
REMARK INTRA:                  -3.417
REMARK UNBOUND:                -4.455
REMARK SMILES CCCCCCCCCCCCCCCCCCCCCCCC(=O)[O-]
REMARK SMILES IDX 13 1 14 2 15 3 16 4 17 5 18 6 19 7 20 8 21 9 22 10 23 11
REMARK SMILES IDX 24 12 25 13 26 14 12 15 11 16 10 17 9 18 8 19 7 20 6 21 5 22
REMARK SMILES IDX 4 23 3 24 2 25 1 26
REMARK H PARENT
REMARK Flexibility Score: inf
ROOT
ATOM      1  C   UNL     1      24.990  -2.260  18.221  1.00  0.00     0.000 C 
ENDROOT
BRANCH   1   2
ATOM      2  C   UNL     1      24.931  -3.364  17.159  1.00  0.00     0.000 C 
BRANCH   2   3
ATOM      3  C   UNL     1      25.774  -4.575  17.579  1.00  0.00     0.000 C 
BRANCH   3   4
ATOM      4  C   UNL     1      24.950  -5.655  18.304  1.00  0.00     0.000 C 
BRANCH   4   5
ATOM      5  C   UNL     1      23.766  -6.227  17.498  1.00  0.00     0.000 C 
BRANCH   5   6
ATOM      6  C   UNL     1      24.034  -7.581  16.817  1.00  0.00     0.000 C 
BRANCH   6   7
ATOM      7  C   UNL     1      24.260  -7.452  15.301  1.00  0.00     0.000 C 
BRANCH   7   8
ATOM      8  C   UNL     1      23.244  -8.259  14.472  1.00  0.00     0.000 C 
BRANCH   8   9
ATOM      9  C   UNL     1      23.772  -9.598  13.924  1.00  0.00     0.000 C 
BRANCH   9  10
ATOM     10  C   UNL     1      23.553 -10.773  14.888  1.00  0.00     0.006 C 
BRANCH  10  11
ATOM     11  C   UNL     1      24.803 -11.653  14.980  1.00  0.00     0.053 C 
BRANCH  11  12
ATOM     12  C   UNL     1      25.495 -11.447  16.289  1.00  0.00     0.041 C 
ATOM     13  O   UNL     1      24.895 -10.882  17.242  1.00  0.00    -0.550 OA
ATOM     14  O   UNL     1      26.821 -11.835  16.444  1.00  0.00    -0.550 OA
ENDBRANCH  11  12
ENDBRANCH  10  11
ENDBRANCH   9  10
ENDBRANCH   8   9
ENDBRANCH   7   8
ENDBRANCH   6   7
ENDBRANCH   5   6
ENDBRANCH   4   5
ENDBRANCH   3   4
ENDBRANCH   2   3
ENDBRANCH   1   2
BRANCH   1  15
ATOM     15  C   UNL     1      23.580  -1.778  18.589  1.00  0.00     0.000 C 
BRANCH  15  16
ATOM     16  C   UNL     1      22.489  -2.812  18.269  1.00  0.00     0.000 C 
BRANCH  16  17
ATOM     17  C   UNL     1      21.498  -3.091  19.416  1.00  0.00     0.000 C 
BRANCH  17  18
ATOM     18  C   UNL     1      21.613  -4.509  20.015  1.00  0.00    -0.000 C 
BRANCH  18  19
ATOM     19  C   UNL     1      20.293  -5.294  19.919  1.00  0.00    -0.000 C 
BRANCH  19  20
ATOM     20  C   UNL     1      20.354  -6.446  18.902  1.00  0.00    -0.000 C 
BRANCH  20  21
ATOM     21  C   UNL     1      20.097  -5.998  17.447  1.00  0.00    -0.000 C 
BRANCH  21  22
ATOM     22  C   UNL     1      20.251  -7.156  16.450  1.00  0.00    -0.000 C 
BRANCH  22  23
ATOM     23  C   UNL     1      19.750  -8.473  17.055  1.00  0.00    -0.000 C 
BRANCH  23  24
ATOM     24  C   UNL     1      20.784  -9.591  16.876  1.00  0.00    -0.000 C 
BRANCH  24  25
ATOM     25  C   UNL     1      20.375 -10.849  17.651  1.00  0.00    -0.003 C 
ATOM     26  C   UNL     1      20.411 -12.083  16.756  1.00  0.00     0.004 C 
ENDBRANCH  24  25
ENDBRANCH  23  24
ENDBRANCH  22  23
ENDBRANCH  21  22
ENDBRANCH  20  21
ENDBRANCH  19  20
ENDBRANCH  18  19
ENDBRANCH  17  18
ENDBRANCH  16  17
ENDBRANCH  15  16
ENDBRANCH   1  15
TORSDOF 22
ENDMDL
MODEL 9
REMARK VINA RESULT:    -3.537      2.998      5.796
REMARK INTER + INTRA:         -12.542
REMARK INTER:                  -7.718
REMARK INTRA:                  -4.825
REMARK UNBOUND:                -4.455
REMARK SMILES CCCCCCCCCCCCCCCCCCCCCCCC(=O)[O-]
REMARK SMILES IDX 13 1 14 2 15 3 16 4 17 5 18 6 19 7 20 8 21 9 22 10 23 11
REMARK SMILES IDX 24 12 25 13 26 14 12 15 11 16 10 17 9 18 8 19 7 20 6 21 5 22
REMARK SMILES IDX 4 23 3 24 2 25 1 26
REMARK H PARENT
REMARK Flexibility Score: inf
ROOT
ATOM      1  C   UNL     1      26.051  -3.509   7.454  1.00  0.00     0.000 C 
ENDROOT
BRANCH   1   2
ATOM      2  C   UNL     1      26.071  -2.308   6.503  1.00  0.00     0.000 C 
BRANCH   2   3
ATOM      3  C   UNL     1      27.503  -1.798   6.295  1.00  0.00     0.000 C 
BRANCH   3   4
ATOM      4  C   UNL     1      27.611  -0.264   6.384  1.00  0.00     0.000 C 
BRANCH   4   5
ATOM      5  C   UNL     1      28.222   0.274   7.695  1.00  0.00     0.000 C 
BRANCH   5   6
ATOM      6  C   UNL     1      29.071  -0.740   8.483  1.00  0.00     0.000 C 
BRANCH   6   7
ATOM      7  C   UNL     1      28.533  -0.994   9.901  1.00  0.00     0.000 C 
BRANCH   7   8
ATOM      8  C   UNL     1      27.195  -0.282  10.172  1.00  0.00     0.000 C 
BRANCH   8   9
ATOM      9  C   UNL     1      25.992  -1.220  10.386  1.00  0.00     0.000 C 
BRANCH   9  10
ATOM     10  C   UNL     1      24.757  -0.810   9.571  1.00  0.00     0.006 C 
BRANCH  10  11
ATOM     11  C   UNL     1      24.926   0.593   8.980  1.00  0.00     0.053 C 
BRANCH  11  12
ATOM     12  C   UNL     1      23.915   0.836   7.905  1.00  0.00     0.041 C 
ATOM     13  O   UNL     1      24.247   0.755   6.692  1.00  0.00    -0.550 OA
ATOM     14  O   UNL     1      22.617   1.201   8.241  1.00  0.00    -0.550 OA
ENDBRANCH  11  12
ENDBRANCH  10  11
ENDBRANCH   9  10
ENDBRANCH   8   9
ENDBRANCH   7   8
ENDBRANCH   6   7
ENDBRANCH   5   6
ENDBRANCH   4   5
ENDBRANCH   3   4
ENDBRANCH   2   3
ENDBRANCH   1   2
BRANCH   1  15
ATOM     15  C   UNL     1      27.474  -3.890   7.886  1.00  0.00     0.000 C 
BRANCH  15  16
ATOM     16  C   UNL     1      27.904  -5.276   7.380  1.00  0.00     0.000 C 
BRANCH  16  17
ATOM     17  C   UNL     1      26.763  -6.152   6.827  1.00  0.00     0.000 C 
BRANCH  17  18
ATOM     18  C   UNL     1      26.987  -6.637   5.378  1.00  0.00    -0.000 C 
BRANCH  18  19
ATOM     19  C   UNL     1      27.588  -5.540   4.480  1.00  0.00    -0.000 C 
BRANCH  19  20
ATOM     20  C   UNL     1      26.525  -4.790   3.661  1.00  0.00    -0.000 C 
BRANCH  20  21
ATOM     21  C   UNL     1      25.123  -5.433   3.731  1.00  0.00    -0.000 C 
BRANCH  21  22
ATOM     22  C   UNL     1      24.092  -4.504   4.388  1.00  0.00    -0.000 C 
BRANCH  22  23
ATOM     23  C   UNL     1      23.076  -5.305   5.212  1.00  0.00    -0.000 C 
BRANCH  23  24
ATOM     24  C   UNL     1      22.230  -4.380   6.094  1.00  0.00    -0.000 C 
BRANCH  24  25
ATOM     25  C   UNL     1      22.336  -2.924   5.626  1.00  0.00    -0.003 C 
ATOM     26  C   UNL     1      21.727  -1.971   6.650  1.00  0.00     0.004 C 
ENDBRANCH  24  25
ENDBRANCH  23  24
ENDBRANCH  22  23
ENDBRANCH  21  22
ENDBRANCH  20  21
ENDBRANCH  19  20
ENDBRANCH  18  19
ENDBRANCH  17  18
ENDBRANCH  16  17
ENDBRANCH  15  16
ENDBRANCH   1  15
TORSDOF 22
ENDMDL
