MODEL 1
REMARK VINA RESULT:    -4.131      0.000      0.000
REMARK INTER + INTRA:          -9.550
REMARK INTER:                  -7.995
REMARK INTRA:                  -1.555
REMARK UNBOUND:                -1.555
REMARK SMILES CCCCCCCCCCCCCCCCCC(=O)[O-]
REMARK SMILES IDX 10 1 11 2 12 3 13 4 14 5 15 6 16 7 17 8 18 9 19 10 20 11
REMARK SMILES IDX 9 12 8 13 7 14 6 15 5 16 4 17 3 18 2 19 1 20
REMARK H PARENT
REMARK Flexibility Score: inf
ROOT
ATOM      1  C   UNL     1     152.057 134.782 166.577  1.00  0.00     0.000 C 
ENDROOT
BRANCH   1   2
ATOM      2  C   UNL     1     151.402 134.231 165.298  1.00  0.00     0.000 C 
BRANCH   2   3
ATOM      3  C   UNL     1     150.843 132.812 165.480  1.00  0.00     0.000 C 
BRANCH   3   4
ATOM      4  C   UNL     1     150.728 132.089 164.131  1.00  0.00     0.000 C 
BRANCH   4   5
ATOM      5  C   UNL     1     149.945 132.897 163.083  1.00  0.00     0.000 C 
BRANCH   5   6
ATOM      6  C   UNL     1     148.433 132.588 163.065  1.00  0.00     0.000 C 
BRANCH   6   7
ATOM      7  C   UNL     1     147.642 133.604 162.222  1.00  0.00     0.006 C 
BRANCH   7   8
ATOM      8  C   UNL     1     147.010 132.962 160.980  1.00  0.00     0.053 C 
BRANCH   8   9
ATOM      9  C   UNL     1     145.540 133.238 160.898  1.00  0.00     0.041 C 
ATOM     10  O   UNL     1     145.107 134.411 161.040  1.00  0.00    -0.550 OA
ATOM     11  O   UNL     1     144.647 132.193 160.699  1.00  0.00    -0.550 OA
ENDBRANCH   8   9
ENDBRANCH   7   8
ENDBRANCH   6   7
ENDBRANCH   5   6
ENDBRANCH   4   5
ENDBRANCH   3   4
ENDBRANCH   2   3
ENDBRANCH   1   2
BRANCH   1  12
ATOM     12  C   UNL     1     153.562 134.479 166.720  1.00  0.00     0.000 C 
BRANCH  12  13
ATOM     13  C   UNL     1     154.236 133.896 165.462  1.00  0.00    -0.000 C 
BRANCH  13  14
ATOM     14  C   UNL     1     154.784 132.467 165.626  1.00  0.00    -0.000 C 
BRANCH  14  15
ATOM     15  C   UNL     1     155.472 132.245 166.983  1.00  0.00    -0.000 C 
BRANCH  15  16
ATOM     16  C   UNL     1     157.007 132.203 166.878  1.00  0.00    -0.000 C 
BRANCH  16  17
ATOM     17  C   UNL     1     157.744 133.320 167.639  1.00  0.00    -0.000 C 
BRANCH  17  18
ATOM     18  C   UNL     1     157.030 133.734 168.937  1.00  0.00    -0.000 C 
BRANCH  18  19
ATOM     19  C   UNL     1     156.544 135.191 168.903  1.00  0.00    -0.003 C 
ATOM     20  C   UNL     1     156.795 135.868 167.555  1.00  0.00     0.004 C 
ENDBRANCH  18  19
ENDBRANCH  17  18
ENDBRANCH  16  17
ENDBRANCH  15  16
ENDBRANCH  14  15
ENDBRANCH  13  14
ENDBRANCH  12  13
ENDBRANCH   1  12
TORSDOF 16
ENDMDL
MODEL 2
REMARK VINA RESULT:    -4.130      1.237      2.194
REMARK INTER + INTRA:          -9.549
REMARK INTER:                  -8.186
REMARK INTRA:                  -1.362
REMARK UNBOUND:                -1.555
REMARK SMILES CCCCCCCCCCCCCCCCCC(=O)[O-]
REMARK SMILES IDX 10 1 11 2 12 3 13 4 14 5 15 6 16 7 17 8 18 9 19 10 20 11
REMARK SMILES IDX 9 12 8 13 7 14 6 15 5 16 4 17 3 18 2 19 1 20
REMARK H PARENT
REMARK Flexibility Score: inf
ROOT
ATOM      1  C   UNL     1     153.791 132.896 166.161  1.00  0.00     0.000 C 
ENDROOT
BRANCH   1   2
ATOM      2  C   UNL     1     153.623 133.139 164.651  1.00  0.00     0.000 C 
BRANCH   2   3
ATOM      3  C   UNL     1     152.847 132.015 163.951  1.00  0.00     0.000 C 
BRANCH   3   4
ATOM      4  C   UNL     1     151.358 132.058 164.325  1.00  0.00     0.000 C 
BRANCH   4   5
ATOM      5  C   UNL     1     150.525 132.924 163.367  1.00  0.00     0.000 C 
BRANCH   5   6
ATOM      6  C   UNL     1     149.021 132.573 163.365  1.00  0.00     0.000 C 
BRANCH   6   7
ATOM      7  C   UNL     1     148.283 133.185 162.161  1.00  0.00     0.006 C 
BRANCH   7   8
ATOM      8  C   UNL     1     146.825 133.531 162.487  1.00  0.00     0.053 C 
BRANCH   8   9
ATOM      9  C   UNL     1     146.030 133.815 161.250  1.00  0.00     0.041 C 
ATOM     10  O   UNL     1     146.156 133.084 160.234  1.00  0.00    -0.550 OA
ATOM     11  O   UNL     1     145.175 134.910 161.208  1.00  0.00    -0.550 OA
ENDBRANCH   8   9
ENDBRANCH   7   8
ENDBRANCH   6   7
ENDBRANCH   5   6
ENDBRANCH   4   5
ENDBRANCH   3   4
ENDBRANCH   2   3
ENDBRANCH   1   2
BRANCH   1  12
ATOM     12  C   UNL     1     154.915 131.910 166.541  1.00  0.00     0.000 C 
BRANCH  12  13
ATOM     13  C   UNL     1     156.319 132.286 166.029  1.00  0.00    -0.000 C 
BRANCH  13  14
ATOM     14  C   UNL     1     157.470 131.947 166.992  1.00  0.00    -0.000 C 
BRANCH  14  15
ATOM     15  C   UNL     1     157.986 133.175 167.759  1.00  0.00    -0.000 C 
BRANCH  15  16
ATOM     16  C   UNL     1     157.083 133.566 168.942  1.00  0.00    -0.000 C 
BRANCH  16  17
ATOM     17  C   UNL     1     156.760 135.068 169.048  1.00  0.00    -0.000 C 
BRANCH  17  18
ATOM     18  C   UNL     1     155.520 135.475 168.235  1.00  0.00    -0.000 C 
BRANCH  18  19
ATOM     19  C   UNL     1     155.880 136.000 166.836  1.00  0.00    -0.003 C 
ATOM     20  C   UNL     1     156.369 137.449 166.855  1.00  0.00     0.004 C 
ENDBRANCH  18  19
ENDBRANCH  17  18
ENDBRANCH  16  17
ENDBRANCH  15  16
ENDBRANCH  14  15
ENDBRANCH  13  14
ENDBRANCH  12  13
ENDBRANCH   1  12
TORSDOF 16
ENDMDL
MODEL 3
REMARK VINA RESULT:    -3.959      1.884      3.852
REMARK INTER + INTRA:          -9.218
REMARK INTER:                  -6.987
REMARK INTRA:                  -2.231
REMARK UNBOUND:                -1.555
REMARK SMILES CCCCCCCCCCCCCCCCCC(=O)[O-]
REMARK SMILES IDX 10 1 11 2 12 3 13 4 14 5 15 6 16 7 17 8 18 9 19 10 20 11
REMARK SMILES IDX 9 12 8 13 7 14 6 15 5 16 4 17 3 18 2 19 1 20
REMARK H PARENT
REMARK Flexibility Score: inf
ROOT
ATOM      1  C   UNL     1     153.794 132.786 168.185  1.00  0.00     0.000 C 
ENDROOT
BRANCH   1   2
ATOM      2  C   UNL     1     153.266 132.200 166.864  1.00  0.00     0.000 C 
BRANCH   2   3
ATOM      3  C   UNL     1     154.354 132.093 165.785  1.00  0.00     0.000 C 
BRANCH   3   4
ATOM      4  C   UNL     1     153.879 132.713 164.462  1.00  0.00     0.000 C 
BRANCH   4   5
ATOM      5  C   UNL     1     152.697 131.954 163.835  1.00  0.00     0.000 C 
BRANCH   5   6
ATOM      6  C   UNL     1     151.427 132.815 163.670  1.00  0.00     0.000 C 
BRANCH   6   7
ATOM      7  C   UNL     1     150.142 131.969 163.712  1.00  0.00     0.006 C 
BRANCH   7   8
ATOM      8  C   UNL     1     148.939 132.764 164.234  1.00  0.00     0.053 C 
BRANCH   8   9
ATOM      9  C   UNL     1     147.839 132.841 163.220  1.00  0.00     0.041 C 
ATOM     10  O   UNL     1     146.684 132.433 163.507  1.00  0.00    -0.550 OA
ATOM     11  O   UNL     1     148.100 133.332 161.947  1.00  0.00    -0.550 OA
ENDBRANCH   8   9
ENDBRANCH   7   8
ENDBRANCH   6   7
ENDBRANCH   5   6
ENDBRANCH   4   5
ENDBRANCH   3   4
ENDBRANCH   2   3
ENDBRANCH   1   2
BRANCH   1  12
ATOM     12  C   UNL     1     155.314 132.635 168.403  1.00  0.00     0.000 C 
BRANCH  12  13
ATOM     13  C   UNL     1     155.868 133.332 169.661  1.00  0.00    -0.000 C 
BRANCH  13  14
ATOM     14  C   UNL     1     156.470 134.727 169.415  1.00  0.00    -0.000 C 
BRANCH  14  15
ATOM     15  C   UNL     1     156.889 134.945 167.951  1.00  0.00    -0.000 C 
BRANCH  15  16
ATOM     16  C   UNL     1     156.158 136.126 167.288  1.00  0.00    -0.000 C 
BRANCH  16  17
ATOM     17  C   UNL     1     155.076 135.732 166.265  1.00  0.00    -0.000 C 
BRANCH  17  18
ATOM     18  C   UNL     1     153.839 136.644 166.318  1.00  0.00    -0.000 C 
BRANCH  18  19
ATOM     19  C   UNL     1     152.569 135.888 166.738  1.00  0.00    -0.003 C 
ATOM     20  C   UNL     1     151.485 135.906 165.659  1.00  0.00     0.004 C 
ENDBRANCH  18  19
ENDBRANCH  17  18
ENDBRANCH  16  17
ENDBRANCH  15  16
ENDBRANCH  14  15
ENDBRANCH  13  14
ENDBRANCH  12  13
ENDBRANCH   1  12
TORSDOF 16
ENDMDL
MODEL 4
REMARK VINA RESULT:    -3.959      5.420      7.939
REMARK INTER + INTRA:          -9.217
REMARK INTER:                  -6.966
REMARK INTRA:                  -2.250
REMARK UNBOUND:                -1.555
REMARK SMILES CCCCCCCCCCCCCCCCCC(=O)[O-]
REMARK SMILES IDX 10 1 11 2 12 3 13 4 14 5 15 6 16 7 17 8 18 9 19 10 20 11
REMARK SMILES IDX 9 12 8 13 7 14 6 15 5 16 4 17 3 18 2 19 1 20
REMARK H PARENT
REMARK Flexibility Score: inf
ROOT
ATOM      1  C   UNL     1     154.288 135.925 167.562  1.00  0.00     0.000 C 
ENDROOT
BRANCH   1   2
ATOM      2  C   UNL     1     155.457 135.824 166.566  1.00  0.00     0.000 C 
BRANCH   2   3
ATOM      3  C   UNL     1     156.787 136.308 167.161  1.00  0.00     0.000 C 
BRANCH   3   4
ATOM      4  C   UNL     1     156.568 136.982 168.523  1.00  0.00     0.000 C 
BRANCH   4   5
ATOM      5  C   UNL     1     157.290 138.334 168.645  1.00  0.00     0.000 C 
BRANCH   5   6
ATOM      6  C   UNL     1     157.533 139.031 167.290  1.00  0.00     0.000 C 
BRANCH   6   7
ATOM      7  C   UNL     1     156.353 139.929 166.878  1.00  0.00     0.006 C 
BRANCH   7   8
ATOM      8  C   UNL     1     155.697 139.464 165.572  1.00  0.00     0.053 C 
BRANCH   8   9
ATOM      9  C   UNL     1     155.340 140.619 164.687  1.00  0.00     0.041 C 
ATOM     10  O   UNL     1     154.497 140.472 163.763  1.00  0.00    -0.550 OA
ATOM     11  O   UNL     1     155.964 141.848 164.860  1.00  0.00    -0.550 OA
ENDBRANCH   8   9
ENDBRANCH   7   8
ENDBRANCH   6   7
ENDBRANCH   5   6
ENDBRANCH   4   5
ENDBRANCH   3   4
ENDBRANCH   2   3
ENDBRANCH   1   2
BRANCH   1  12
ATOM     12  C   UNL     1     153.048 135.084 167.196  1.00  0.00     0.000 C 
BRANCH  12  13
ATOM     13  C   UNL     1     153.206 134.188 165.952  1.00  0.00    -0.000 C 
BRANCH  13  14
ATOM     14  C   UNL     1     153.379 132.688 166.253  1.00  0.00    -0.000 C 
BRANCH  14  15
ATOM     15  C   UNL     1     154.789 132.173 165.921  1.00  0.00    -0.000 C 
BRANCH  15  16
ATOM     16  C   UNL     1     155.747 132.233 167.124  1.00  0.00    -0.000 C 
BRANCH  16  17
ATOM     17  C   UNL     1     157.245 132.248 166.765  1.00  0.00    -0.000 C 
BRANCH  17  18
ATOM     18  C   UNL     1     158.119 132.882 167.860  1.00  0.00    -0.000 C 
BRANCH  18  19
ATOM     19  C   UNL     1     157.298 133.340 169.076  1.00  0.00    -0.003 C 
ATOM     20  C   UNL     1     157.747 132.675 170.378  1.00  0.00     0.004 C 
ENDBRANCH  18  19
ENDBRANCH  17  18
ENDBRANCH  16  17
ENDBRANCH  15  16
ENDBRANCH  14  15
ENDBRANCH  13  14
ENDBRANCH  12  13
ENDBRANCH   1  12
TORSDOF 16
ENDMDL
MODEL 5
REMARK VINA RESULT:    -3.927      1.445      3.078
REMARK INTER + INTRA:          -9.154
REMARK INTER:                  -7.285
REMARK INTRA:                  -1.869
REMARK UNBOUND:                -1.555
REMARK SMILES CCCCCCCCCCCCCCCCCC(=O)[O-]
REMARK SMILES IDX 10 1 11 2 12 3 13 4 14 5 15 6 16 7 17 8 18 9 19 10 20 11
REMARK SMILES IDX 9 12 8 13 7 14 6 15 5 16 4 17 3 18 2 19 1 20
REMARK H PARENT
REMARK Flexibility Score: inf
ROOT
ATOM      1  C   UNL     1     154.020 132.273 166.785  1.00  0.00     0.000 C 
ENDROOT
BRANCH   1   2
ATOM      2  C   UNL     1     154.459 132.369 165.313  1.00  0.00     0.000 C 
BRANCH   2   3
ATOM      3  C   UNL     1     153.277 132.556 164.351  1.00  0.00     0.000 C 
BRANCH   3   4
ATOM      4  C   UNL     1     152.189 133.439 164.981  1.00  0.00     0.000 C 
BRANCH   4   5
ATOM      5  C   UNL     1     150.810 132.760 165.011  1.00  0.00     0.000 C 
BRANCH   5   6
ATOM      6  C   UNL     1     150.324 132.283 163.626  1.00  0.00     0.000 C 
BRANCH   6   7
ATOM      7  C   UNL     1     148.793 132.353 163.491  1.00  0.00     0.006 C 
BRANCH   7   8
ATOM      8  C   UNL     1     148.352 133.240 162.320  1.00  0.00     0.053 C 
BRANCH   8   9
ATOM      9  C   UNL     1     147.020 132.823 161.776  1.00  0.00     0.041 C 
ATOM     10  O   UNL     1     146.598 133.308 160.694  1.00  0.00    -0.550 OA
ATOM     11  O   UNL     1     146.229 131.926 162.483  1.00  0.00    -0.550 OA
ENDBRANCH   8   9
ENDBRANCH   7   8
ENDBRANCH   6   7
ENDBRANCH   5   6
ENDBRANCH   4   5
ENDBRANCH   3   4
ENDBRANCH   2   3
ENDBRANCH   1   2
BRANCH   1  12
ATOM     12  C   UNL     1     155.136 132.538 167.816  1.00  0.00     0.000 C 
BRANCH  12  13
ATOM     13  C   UNL     1     156.569 132.520 167.249  1.00  0.00    -0.000 C 
BRANCH  13  14
ATOM     14  C   UNL     1     157.456 133.696 167.696  1.00  0.00    -0.000 C 
BRANCH  14  15
ATOM     15  C   UNL     1     156.641 134.888 168.225  1.00  0.00    -0.000 C 
BRANCH  15  16
ATOM     16  C   UNL     1     156.439 135.991 167.170  1.00  0.00    -0.000 C 
BRANCH  16  17
ATOM     17  C   UNL     1     155.091 135.944 166.427  1.00  0.00    -0.000 C 
BRANCH  17  18
ATOM     18  C   UNL     1     154.087 136.992 166.938  1.00  0.00    -0.000 C 
BRANCH  18  19
ATOM     19  C   UNL     1     153.406 136.564 168.247  1.00  0.00    -0.003 C 
ATOM     20  C   UNL     1     152.485 135.356 168.069  1.00  0.00     0.004 C 
ENDBRANCH  18  19
ENDBRANCH  17  18
ENDBRANCH  16  17
ENDBRANCH  15  16
ENDBRANCH  14  15
ENDBRANCH  13  14
ENDBRANCH  12  13
ENDBRANCH   1  12
TORSDOF 16
ENDMDL
MODEL 6
REMARK VINA RESULT:    -3.898      6.239      8.677
REMARK INTER + INTRA:          -9.099
REMARK INTER:                  -7.110
REMARK INTRA:                  -1.989
REMARK UNBOUND:                -1.555
REMARK SMILES CCCCCCCCCCCCCCCCCC(=O)[O-]
REMARK SMILES IDX 10 1 11 2 12 3 13 4 14 5 15 6 16 7 17 8 18 9 19 10 20 11
REMARK SMILES IDX 9 12 8 13 7 14 6 15 5 16 4 17 3 18 2 19 1 20
REMARK H PARENT
REMARK Flexibility Score: inf
ROOT
ATOM      1  C   UNL     1     154.014 134.524 166.317  1.00  0.00     0.000 C 
ENDROOT
BRANCH   1   2
ATOM      2  C   UNL     1     155.035 135.675 166.338  1.00  0.00     0.000 C 
BRANCH   2   3
ATOM      3  C   UNL     1     154.370 137.058 166.398  1.00  0.00     0.000 C 
BRANCH   3   4
ATOM      4  C   UNL     1     155.417 138.177 166.303  1.00  0.00     0.000 C 
BRANCH   4   5
ATOM      5  C   UNL     1     156.803 137.745 166.809  1.00  0.00     0.000 C 
BRANCH   5   6
ATOM      6  C   UNL     1     157.287 138.538 168.042  1.00  0.00     0.000 C 
BRANCH   6   7
ATOM      7  C   UNL     1     156.972 140.040 167.926  1.00  0.00     0.006 C 
BRANCH   7   8
ATOM      8  C   UNL     1     157.984 140.780 167.042  1.00  0.00     0.053 C 
BRANCH   8   9
ATOM      9  C   UNL     1     157.317 141.790 166.159  1.00  0.00     0.041 C 
ATOM     10  O   UNL     1     156.485 141.421 165.291  1.00  0.00    -0.550 OA
ATOM     11  O   UNL     1     157.643 143.136 166.273  1.00  0.00    -0.550 OA
ENDBRANCH   8   9
ENDBRANCH   7   8
ENDBRANCH   6   7
ENDBRANCH   5   6
ENDBRANCH   4   5
ENDBRANCH   3   4
ENDBRANCH   2   3
ENDBRANCH   1   2
BRANCH   1  12
ATOM     12  C   UNL     1     154.317 133.404 165.300  1.00  0.00     0.000 C 
BRANCH  12  13
ATOM     13  C   UNL     1     154.844 132.090 165.909  1.00  0.00    -0.000 C 
BRANCH  13  14
ATOM     14  C   UNL     1     155.695 132.262 167.180  1.00  0.00    -0.000 C 
BRANCH  14  15
ATOM     15  C   UNL     1     157.201 132.354 166.879  1.00  0.00    -0.000 C 
BRANCH  15  16
ATOM     16  C   UNL     1     157.981 133.125 167.959  1.00  0.00    -0.000 C 
BRANCH  16  17
ATOM     17  C   UNL     1     157.719 132.666 169.405  1.00  0.00    -0.000 C 
BRANCH  17  18
ATOM     18  C   UNL     1     157.282 133.815 170.330  1.00  0.00    -0.000 C 
BRANCH  18  19
ATOM     19  C   UNL     1     156.552 134.935 169.572  1.00  0.00    -0.003 C 
ATOM     20  C   UNL     1     155.081 135.060 169.971  1.00  0.00     0.004 C 
ENDBRANCH  18  19
ENDBRANCH  17  18
ENDBRANCH  16  17
ENDBRANCH  15  16
ENDBRANCH  14  15
ENDBRANCH  13  14
ENDBRANCH  12  13
ENDBRANCH   1  12
TORSDOF 16
ENDMDL
MODEL 7
REMARK VINA RESULT:    -3.870      1.717      3.781
REMARK INTER + INTRA:          -9.046
REMARK INTER:                  -7.193
REMARK INTRA:                  -1.853
REMARK UNBOUND:                -1.555
REMARK SMILES CCCCCCCCCCCCCCCCCC(=O)[O-]
REMARK SMILES IDX 10 1 11 2 12 3 13 4 14 5 15 6 16 7 17 8 18 9 19 10 20 11
REMARK SMILES IDX 9 12 8 13 7 14 6 15 5 16 4 17 3 18 2 19 1 20
REMARK H PARENT
REMARK Flexibility Score: inf
ROOT
ATOM      1  C   UNL     1     153.035 131.875 164.860  1.00  0.00     0.000 C 
ENDROOT
BRANCH   1   2
ATOM      2  C   UNL     1     152.261 132.181 163.566  1.00  0.00     0.000 C 
BRANCH   2   3
ATOM      3  C   UNL     1     150.738 132.154 163.763  1.00  0.00     0.000 C 
BRANCH   3   4
ATOM      4  C   UNL     1     150.170 133.577 163.858  1.00  0.00     0.000 C 
BRANCH   4   5
ATOM      5  C   UNL     1     148.709 133.671 163.387  1.00  0.00     0.000 C 
BRANCH   5   6
ATOM      6  C   UNL     1     148.096 132.310 162.994  1.00  0.00     0.000 C 
BRANCH   6   7
ATOM      7  C   UNL     1     146.558 132.332 163.031  1.00  0.00     0.006 C 
BRANCH   7   8
ATOM      8  C   UNL     1     145.939 132.016 161.664  1.00  0.00     0.053 C 
BRANCH   8   9
ATOM      9  C   UNL     1     145.619 133.262 160.896  1.00  0.00     0.041 C 
ATOM     10  O   UNL     1     145.756 133.287 159.645  1.00  0.00    -0.550 OA
ATOM     11  O   UNL     1     145.203 134.405 161.567  1.00  0.00    -0.550 OA
ENDBRANCH   8   9
ENDBRANCH   7   8
ENDBRANCH   6   7
ENDBRANCH   5   6
ENDBRANCH   4   5
ENDBRANCH   3   4
ENDBRANCH   2   3
ENDBRANCH   1   2
BRANCH   1  12
ATOM     12  C   UNL     1     154.258 132.779 165.116  1.00  0.00     0.000 C 
BRANCH  12  13
ATOM     13  C   UNL     1     155.234 132.272 166.196  1.00  0.00    -0.000 C 
BRANCH  13  14
ATOM     14  C   UNL     1     154.920 132.748 167.626  1.00  0.00    -0.000 C 
BRANCH  14  15
ATOM     15  C   UNL     1     154.274 134.143 167.660  1.00  0.00    -0.000 C 
BRANCH  15  16
ATOM     16  C   UNL     1     152.902 134.152 168.357  1.00  0.00    -0.000 C 
BRANCH  16  17
ATOM     17  C   UNL     1     151.693 133.984 167.419  1.00  0.00    -0.000 C 
BRANCH  17  18
ATOM     18  C   UNL     1     151.028 132.602 167.538  1.00  0.00    -0.000 C 
BRANCH  18  19
ATOM     19  C   UNL     1     149.495 132.680 167.472  1.00  0.00    -0.003 C 
ATOM     20  C   UNL     1     148.956 134.068 167.819  1.00  0.00     0.004 C 
ENDBRANCH  18  19
ENDBRANCH  17  18
ENDBRANCH  16  17
ENDBRANCH  15  16
ENDBRANCH  14  15
ENDBRANCH  13  14
ENDBRANCH  12  13
ENDBRANCH   1  12
TORSDOF 16
ENDMDL
MODEL 8
REMARK VINA RESULT:    -3.866      4.792      8.251
REMARK INTER + INTRA:          -9.037
REMARK INTER:                  -6.318
REMARK INTRA:                  -2.719
REMARK UNBOUND:                -1.555
REMARK SMILES CCCCCCCCCCCCCCCCCC(=O)[O-]
REMARK SMILES IDX 10 1 11 2 12 3 13 4 14 5 15 6 16 7 17 8 18 9 19 10 20 11
REMARK SMILES IDX 9 12 8 13 7 14 6 15 5 16 4 17 3 18 2 19 1 20
REMARK H PARENT
REMARK Flexibility Score: inf
ROOT
ATOM      1  C   UNL     1     153.802 136.541 167.298  1.00  0.00     0.000 C 
ENDROOT
BRANCH   1   2
ATOM      2  C   UNL     1     155.002 136.397 166.345  1.00  0.00     0.000 C 
BRANCH   2   3
ATOM      3  C   UNL     1     156.351 136.518 167.067  1.00  0.00     0.000 C 
BRANCH   3   4
ATOM      4  C   UNL     1     156.222 137.371 168.337  1.00  0.00     0.000 C 
BRANCH   4   5
ATOM      5  C   UNL     1     157.369 138.383 168.498  1.00  0.00     0.000 C 
BRANCH   5   6
ATOM      6  C   UNL     1     157.929 138.903 167.156  1.00  0.00     0.000 C 
BRANCH   6   7
ATOM      7  C   UNL     1     157.168 140.140 166.649  1.00  0.00     0.006 C 
BRANCH   7   8
ATOM      8  C   UNL     1     156.581 139.928 165.247  1.00  0.00     0.053 C 
BRANCH   8   9
ATOM      9  C   UNL     1     155.086 139.850 165.275  1.00  0.00     0.041 C 
ATOM     10  O   UNL     1     154.436 139.759 164.201  1.00  0.00    -0.550 OA
ATOM     11  O   UNL     1     154.408 139.912 166.486  1.00  0.00    -0.550 OA
ENDBRANCH   8   9
ENDBRANCH   7   8
ENDBRANCH   6   7
ENDBRANCH   5   6
ENDBRANCH   4   5
ENDBRANCH   3   4
ENDBRANCH   2   3
ENDBRANCH   1   2
BRANCH   1  12
ATOM     12  C   UNL     1     153.065 135.225 167.619  1.00  0.00     0.000 C 
BRANCH  12  13
ATOM     13  C   UNL     1     153.795 134.286 168.599  1.00  0.00    -0.000 C 
BRANCH  13  14
ATOM     14  C   UNL     1     154.027 132.858 168.075  1.00  0.00    -0.000 C 
BRANCH  14  15
ATOM     15  C   UNL     1     155.299 132.737 167.219  1.00  0.00    -0.000 C 
BRANCH  15  16
ATOM     16  C   UNL     1     155.042 132.072 165.855  1.00  0.00    -0.000 C 
BRANCH  16  17
ATOM     17  C   UNL     1     154.348 132.968 164.812  1.00  0.00    -0.000 C 
BRANCH  17  18
ATOM     18  C   UNL     1     153.011 132.391 164.319  1.00  0.00    -0.000 C 
BRANCH  18  19
ATOM     19  C   UNL     1     151.811 133.268 164.711  1.00  0.00    -0.003 C 
ATOM     20  C   UNL     1     150.988 132.669 165.853  1.00  0.00     0.004 C 
ENDBRANCH  18  19
ENDBRANCH  17  18
ENDBRANCH  16  17
ENDBRANCH  15  16
ENDBRANCH  14  15
ENDBRANCH  13  14
ENDBRANCH  12  13
ENDBRANCH   1  12
TORSDOF 16
ENDMDL
MODEL 9
REMARK VINA RESULT:    -3.865      1.681      2.856
REMARK INTER + INTRA:          -9.035
REMARK INTER:                  -6.910
REMARK INTRA:                  -2.125
REMARK UNBOUND:                -1.555
REMARK SMILES CCCCCCCCCCCCCCCCCC(=O)[O-]
REMARK SMILES IDX 10 1 11 2 12 3 13 4 14 5 15 6 16 7 17 8 18 9 19 10 20 11
REMARK SMILES IDX 9 12 8 13 7 14 6 15 5 16 4 17 3 18 2 19 1 20
REMARK H PARENT
REMARK Flexibility Score: inf
ROOT
ATOM      1  C   UNL     1     154.078 131.875 166.280  1.00  0.00     0.000 C 
ENDROOT
BRANCH   1   2
ATOM      2  C   UNL     1     152.553 131.887 166.072  1.00  0.00     0.000 C 
BRANCH   2   3
ATOM      3  C   UNL     1     151.779 132.193 167.362  1.00  0.00     0.000 C 
BRANCH   3   4
ATOM      4  C   UNL     1     150.632 133.177 167.095  1.00  0.00     0.000 C 
BRANCH   4   5
ATOM      5  C   UNL     1     149.986 132.984 165.713  1.00  0.00     0.000 C 
BRANCH   5   6
ATOM      6  C   UNL     1     149.909 134.281 164.879  1.00  0.00     0.000 C 
BRANCH   6   7
ATOM      7  C   UNL     1     149.028 134.116 163.628  1.00  0.00     0.006 C 
BRANCH   7   8
ATOM      8  C   UNL     1     148.599 132.660 163.407  1.00  0.00     0.053 C 
BRANCH   8   9
ATOM      9  C   UNL     1     147.109 132.521 163.349  1.00  0.00     0.041 C 
ATOM     10  O   UNL     1     146.397 132.944 164.296  1.00  0.00    -0.550 OA
ATOM     11  O   UNL     1     146.510 131.891 162.266  1.00  0.00    -0.550 OA
ENDBRANCH   8   9
ENDBRANCH   7   8
ENDBRANCH   6   7
ENDBRANCH   5   6
ENDBRANCH   4   5
ENDBRANCH   3   4
ENDBRANCH   2   3
ENDBRANCH   1   2
BRANCH   1  12
ATOM     12  C   UNL     1     154.818 133.116 165.740  1.00  0.00     0.000 C 
BRANCH  12  13
ATOM     13  C   UNL     1     153.984 134.410 165.697  1.00  0.00    -0.000 C 
BRANCH  13  14
ATOM     14  C   UNL     1     154.303 135.423 166.812  1.00  0.00    -0.000 C 
BRANCH  14  15
ATOM     15  C   UNL     1     155.812 135.669 166.978  1.00  0.00    -0.000 C 
BRANCH  15  16
ATOM     16  C   UNL     1     156.297 135.462 168.423  1.00  0.00    -0.000 C 
BRANCH  16  17
ATOM     17  C   UNL     1     155.497 134.431 169.239  1.00  0.00    -0.000 C 
BRANCH  17  18
ATOM     18  C   UNL     1     156.132 133.030 169.225  1.00  0.00    -0.000 C 
BRANCH  18  19
ATOM     19  C   UNL     1     157.597 133.053 168.760  1.00  0.00    -0.003 C 
ATOM     20  C   UNL     1     157.836 132.204 167.512  1.00  0.00     0.004 C 
ENDBRANCH  18  19
ENDBRANCH  17  18
ENDBRANCH  16  17
ENDBRANCH  15  16
ENDBRANCH  14  15
ENDBRANCH  13  14
ENDBRANCH  12  13
ENDBRANCH   1  12
TORSDOF 16
ENDMDL
