MODEL 1
REMARK VINA RESULT:    -3.677      0.000      0.000
REMARK INTER + INTRA:          -7.409
REMARK INTER:                  -6.686
REMARK INTRA:                  -0.724
REMARK UNBOUND:                -0.724
REMARK SMILES CCCCCCCCCCCCCCCC(=O)[O-]
REMARK SMILES IDX 9 1 10 2 11 3 12 4 13 5 14 6 15 7 16 8 17 9 18 10 8 11 7 12
REMARK SMILES IDX 6 13 5 14 4 15 3 16 2 17 1 18
REMARK H PARENT
REMARK Flexibility Score: inf
ROOT
ATOM      1  C   UNL     1      -2.927   4.671  -0.115  1.00  0.00     0.000 C 
ENDROOT
BRANCH   1   2
ATOM      2  C   UNL     1      -3.355   5.345  -1.430  1.00  0.00     0.000 C 
BRANCH   2   3
ATOM      3  C   UNL     1      -3.006   4.487  -2.664  1.00  0.00     0.000 C 
BRANCH   3   4
ATOM      4  C   UNL     1      -3.799   4.870  -3.926  1.00  0.00     0.000 C 
BRANCH   4   5
ATOM      5  C   UNL     1      -5.094   5.636  -3.610  1.00  0.00     0.000 C 
BRANCH   5   6
ATOM      6  C   UNL     1      -5.607   6.447  -4.818  1.00  0.00     0.006 C 
BRANCH   6   7
ATOM      7  C   UNL     1      -6.795   5.790  -5.537  1.00  0.00     0.053 C 
BRANCH   7   8
ATOM      8  C   UNL     1      -7.136   6.479  -6.820  1.00  0.00     0.041 C 
ATOM      9  O   UNL     1      -7.554   7.666  -6.809  1.00  0.00    -0.550 OA
ATOM     10  O   UNL     1      -7.021   5.801  -8.027  1.00  0.00    -0.550 OA
ENDBRANCH   7   8
ENDBRANCH   6   7
ENDBRANCH   5   6
ENDBRANCH   4   5
ENDBRANCH   3   4
ENDBRANCH   2   3
ENDBRANCH   1   2
BRANCH   1  11
ATOM     11  C   UNL     1      -3.011   3.138  -0.177  1.00  0.00     0.000 C 
BRANCH  11  12
ATOM     12  C   UNL     1      -4.113   2.567   0.729  1.00  0.00    -0.000 C 
BRANCH  12  13
ATOM     13  C   UNL     1      -4.165   1.035   0.627  1.00  0.00    -0.000 C 
BRANCH  13  14
ATOM     14  C   UNL     1      -3.618   0.511  -0.711  1.00  0.00    -0.000 C 
BRANCH  14  15
ATOM     15  C   UNL     1      -4.098  -0.916  -1.024  1.00  0.00    -0.000 C 
BRANCH  15  16
ATOM     16  C   UNL     1      -3.555  -1.451  -2.362  1.00  0.00    -0.000 C 
BRANCH  16  17
ATOM     17  C   UNL     1      -3.776  -2.956  -2.599  1.00  0.00    -0.003 C 
ATOM     18  C   UNL     1      -3.778  -3.771  -1.307  1.00  0.00     0.004 C 
ENDBRANCH  16  17
ENDBRANCH  15  16
ENDBRANCH  14  15
ENDBRANCH  13  14
ENDBRANCH  12  13
ENDBRANCH  11  12
ENDBRANCH   1  11
TORSDOF 14
ENDMDL
MODEL 2
REMARK VINA RESULT:    -3.631      0.846      1.198
REMARK INTER + INTRA:          -7.326
REMARK INTER:                  -6.823
REMARK INTRA:                  -0.503
REMARK UNBOUND:                -0.724
REMARK SMILES CCCCCCCCCCCCCCCC(=O)[O-]
REMARK SMILES IDX 9 1 10 2 11 3 12 4 13 5 14 6 15 7 16 8 17 9 18 10 8 11 7 12
REMARK SMILES IDX 6 13 5 14 4 15 3 16 2 17 1 18
REMARK H PARENT
REMARK Flexibility Score: inf
ROOT
ATOM      1  C   UNL     1      -2.945   3.835  -1.502  1.00  0.00     0.000 C 
ENDROOT
BRANCH   1   2
ATOM      2  C   UNL     1      -3.410   5.208  -2.019  1.00  0.00     0.000 C 
BRANCH   2   3
ATOM      3  C   UNL     1      -3.836   5.156  -3.502  1.00  0.00     0.000 C 
BRANCH   3   4
ATOM      4  C   UNL     1      -5.227   5.759  -3.764  1.00  0.00     0.000 C 
BRANCH   4   5
ATOM      5  C   UNL     1      -5.504   5.999  -5.257  1.00  0.00     0.000 C 
BRANCH   5   6
ATOM      6  C   UNL     1      -7.013   6.086  -5.568  1.00  0.00     0.006 C 
BRANCH   6   7
ATOM      7  C   UNL     1      -7.335   6.026  -7.068  1.00  0.00     0.053 C 
BRANCH   7   8
ATOM      8  C   UNL     1      -7.259   7.369  -7.722  1.00  0.00     0.041 C 
ATOM      9  O   UNL     1      -7.561   8.405  -7.076  1.00  0.00    -0.550 OA
ATOM     10  O   UNL     1      -6.882   7.474  -9.055  1.00  0.00    -0.550 OA
ENDBRANCH   7   8
ENDBRANCH   6   7
ENDBRANCH   5   6
ENDBRANCH   4   5
ENDBRANCH   3   4
ENDBRANCH   2   3
ENDBRANCH   1   2
BRANCH   1  11
ATOM     11  C   UNL     1      -3.043   3.710   0.027  1.00  0.00     0.000 C 
BRANCH  11  12
ATOM     12  C   UNL     1      -3.838   2.474   0.471  1.00  0.00    -0.000 C 
BRANCH  12  13
ATOM     13  C   UNL     1      -3.129   1.182   0.035  1.00  0.00    -0.000 C 
BRANCH  13  14
ATOM     14  C   UNL     1      -3.972   0.343  -0.940  1.00  0.00    -0.000 C 
BRANCH  14  15
ATOM     15  C   UNL     1      -3.289  -0.981  -1.318  1.00  0.00    -0.000 C 
BRANCH  15  16
ATOM     16  C   UNL     1      -4.042  -1.751  -2.419  1.00  0.00    -0.000 C 
BRANCH  16  17
ATOM     17  C   UNL     1      -3.960  -3.284  -2.312  1.00  0.00    -0.003 C 
ATOM     18  C   UNL     1      -3.639  -3.770  -0.900  1.00  0.00     0.004 C 
ENDBRANCH  16  17
ENDBRANCH  15  16
ENDBRANCH  14  15
ENDBRANCH  13  14
ENDBRANCH  12  13
ENDBRANCH  11  12
ENDBRANCH   1  11
TORSDOF 14
ENDMDL
MODEL 3
REMARK VINA RESULT:    -3.297      1.051      2.128
REMARK INTER + INTRA:          -6.719
REMARK INTER:                  -6.030
REMARK INTRA:                  -0.689
REMARK UNBOUND:                -0.724
REMARK SMILES CCCCCCCCCCCCCCCC(=O)[O-]
REMARK SMILES IDX 9 1 10 2 11 3 12 4 13 5 14 6 15 7 16 8 17 9 18 10 8 11 7 12
REMARK SMILES IDX 6 13 5 14 4 15 3 16 2 17 1 18
REMARK H PARENT
REMARK Flexibility Score: inf
ROOT
ATOM      1  C   UNL     1      -2.715   4.488  -2.546  1.00  0.00     0.000 C 
ENDROOT
BRANCH   1   2
ATOM      2  C   UNL     1      -3.699   4.837  -3.677  1.00  0.00     0.000 C 
BRANCH   2   3
ATOM      3  C   UNL     1      -4.943   5.586  -3.154  1.00  0.00     0.000 C 
BRANCH   3   4
ATOM      4  C   UNL     1      -5.662   6.415  -4.233  1.00  0.00     0.000 C 
BRANCH   4   5
ATOM      5  C   UNL     1      -6.105   5.571  -5.440  1.00  0.00     0.000 C 
BRANCH   5   6
ATOM      6  C   UNL     1      -7.263   6.226  -6.221  1.00  0.00     0.006 C 
BRANCH   6   7
ATOM      7  C   UNL     1      -6.983   6.375  -7.723  1.00  0.00     0.053 C 
BRANCH   7   8
ATOM      8  C   UNL     1      -7.362   7.726  -8.242  1.00  0.00     0.041 C 
ATOM      9  O   UNL     1      -8.186   8.438  -7.610  1.00  0.00    -0.550 OA
ATOM     10  O   UNL     1      -6.829   8.188  -9.438  1.00  0.00    -0.550 OA
ENDBRANCH   7   8
ENDBRANCH   6   7
ENDBRANCH   5   6
ENDBRANCH   4   5
ENDBRANCH   3   4
ENDBRANCH   2   3
ENDBRANCH   1   2
BRANCH   1  11
ATOM     11  C   UNL     1      -3.027   5.229  -1.236  1.00  0.00     0.000 C 
BRANCH  11  12
ATOM     12  C   UNL     1      -3.171   4.279  -0.038  1.00  0.00    -0.000 C 
BRANCH  12  13
ATOM     13  C   UNL     1      -2.641   2.879  -0.382  1.00  0.00    -0.000 C 
BRANCH  13  14
ATOM     14  C   UNL     1      -3.641   1.764  -0.035  1.00  0.00    -0.000 C 
BRANCH  14  15
ATOM     15  C   UNL     1      -3.122   0.368  -0.418  1.00  0.00    -0.000 C 
BRANCH  15  16
ATOM     16  C   UNL     1      -4.169  -0.475  -1.170  1.00  0.00    -0.000 C 
BRANCH  16  17
ATOM     17  C   UNL     1      -3.776  -1.945  -1.400  1.00  0.00    -0.003 C 
ATOM     18  C   UNL     1      -3.444  -2.255  -2.858  1.00  0.00     0.004 C 
ENDBRANCH  16  17
ENDBRANCH  15  16
ENDBRANCH  14  15
ENDBRANCH  13  14
ENDBRANCH  12  13
ENDBRANCH  11  12
ENDBRANCH   1  11
TORSDOF 14
ENDMDL
MODEL 4
REMARK VINA RESULT:    -3.169      3.926      8.094
REMARK INTER + INTRA:          -6.487
REMARK INTER:                  -5.765
REMARK INTRA:                  -0.722
REMARK UNBOUND:                -0.724
REMARK SMILES CCCCCCCCCCCCCCCC(=O)[O-]
REMARK SMILES IDX 9 1 10 2 11 3 12 4 13 5 14 6 15 7 16 8 17 9 18 10 8 11 7 12
REMARK SMILES IDX 6 13 5 14 4 15 3 16 2 17 1 18
REMARK H PARENT
REMARK Flexibility Score: inf
ROOT
ATOM      1  C   UNL     1      -2.981   4.679  -0.174  1.00  0.00     0.000 C 
ENDROOT
BRANCH   1   2
ATOM      2  C   UNL     1      -2.960   3.140  -0.161  1.00  0.00     0.000 C 
BRANCH   2   3
ATOM      3  C   UNL     1      -4.044   2.552   0.767  1.00  0.00     0.000 C 
BRANCH   3   4
ATOM      4  C   UNL     1      -4.388   1.084   0.460  1.00  0.00     0.000 C 
BRANCH   4   5
ATOM      5  C   UNL     1      -3.623   0.532  -0.753  1.00  0.00     0.000 C 
BRANCH   5   6
ATOM      6  C   UNL     1      -3.695  -1.007  -0.843  1.00  0.00     0.006 C 
BRANCH   6   7
ATOM      7  C   UNL     1      -3.828  -1.533  -2.279  1.00  0.00     0.053 C 
BRANCH   7   8
ATOM      8  C   UNL     1      -3.739  -3.024  -2.351  1.00  0.00     0.041 C 
ATOM      9  O   UNL     1      -3.700  -3.707  -1.294  1.00  0.00    -0.550 OA
ATOM     10  O   UNL     1      -3.668  -3.660  -3.584  1.00  0.00    -0.550 OA
ENDBRANCH   7   8
ENDBRANCH   6   7
ENDBRANCH   5   6
ENDBRANCH   4   5
ENDBRANCH   3   4
ENDBRANCH   2   3
ENDBRANCH   1   2
BRANCH   1  11
ATOM     11  C   UNL     1      -2.940   5.263  -1.596  1.00  0.00     0.000 C 
BRANCH  11  12
ATOM     12  C   UNL     1      -3.303   4.228  -2.671  1.00  0.00    -0.000 C 
BRANCH  12  13
ATOM     13  C   UNL     1      -3.777   4.921  -3.958  1.00  0.00    -0.000 C 
BRANCH  13  14
ATOM     14  C   UNL     1      -5.143   5.609  -3.793  1.00  0.00    -0.000 C 
BRANCH  14  15
ATOM     15  C   UNL     1      -5.635   6.259  -5.097  1.00  0.00    -0.000 C 
BRANCH  15  16
ATOM     16  C   UNL     1      -7.102   5.920  -5.418  1.00  0.00    -0.000 C 
BRANCH  16  17
ATOM     17  C   UNL     1      -7.456   5.915  -6.916  1.00  0.00    -0.003 C 
ATOM     18  C   UNL     1      -6.817   7.070  -7.686  1.00  0.00     0.004 C 
ENDBRANCH  16  17
ENDBRANCH  15  16
ENDBRANCH  14  15
ENDBRANCH  13  14
ENDBRANCH  12  13
ENDBRANCH  11  12
ENDBRANCH   1  11
TORSDOF 14
ENDMDL
MODEL 5
REMARK VINA RESULT:    -3.050      5.165      8.485
REMARK INTER + INTRA:          -6.269
REMARK INTER:                  -5.269
REMARK INTRA:                  -1.000
REMARK UNBOUND:                -0.724
REMARK SMILES CCCCCCCCCCCCCCCC(=O)[O-]
REMARK SMILES IDX 9 1 10 2 11 3 12 4 13 5 14 6 15 7 16 8 17 9 18 10 8 11 7 12
REMARK SMILES IDX 6 13 5 14 4 15 3 16 2 17 1 18
REMARK H PARENT
REMARK Flexibility Score: inf
ROOT
ATOM      1  C   UNL     1      -2.807  -0.093  -0.676  1.00  0.00     0.000 C 
ENDROOT
BRANCH   1   2
ATOM      2  C   UNL     1      -4.237  -0.450  -1.119  1.00  0.00     0.000 C 
BRANCH   2   3
ATOM      3  C   UNL     1      -4.261  -1.154  -2.493  1.00  0.00     0.000 C 
BRANCH   3   4
ATOM      4  C   UNL     1      -3.023  -2.027  -2.759  1.00  0.00     0.000 C 
BRANCH   4   5
ATOM      5  C   UNL     1      -3.381  -3.456  -3.198  1.00  0.00     0.000 C 
BRANCH   5   6
ATOM      6  C   UNL     1      -4.189  -4.215  -2.125  1.00  0.00     0.006 C 
BRANCH   6   7
ATOM      7  C   UNL     1      -3.709  -3.945  -0.691  1.00  0.00     0.053 C 
BRANCH   7   8
ATOM      8  C   UNL     1      -4.651  -4.487   0.337  1.00  0.00     0.041 C 
ATOM      9  O   UNL     1      -5.029  -3.762   1.293  1.00  0.00    -0.550 OA
ATOM     10  O   UNL     1      -5.089  -5.803   0.256  1.00  0.00    -0.550 OA
ENDBRANCH   7   8
ENDBRANCH   6   7
ENDBRANCH   5   6
ENDBRANCH   4   5
ENDBRANCH   3   4
ENDBRANCH   2   3
ENDBRANCH   1   2
BRANCH   1  11
ATOM     11  C   UNL     1      -2.715   1.296  -0.025  1.00  0.00     0.000 C 
BRANCH  11  12
ATOM     12  C   UNL     1      -4.044   1.748   0.600  1.00  0.00    -0.000 C 
BRANCH  12  13
ATOM     13  C   UNL     1      -4.095   3.278   0.729  1.00  0.00    -0.000 C 
BRANCH  13  14
ATOM     14  C   UNL     1      -2.769   3.951   0.335  1.00  0.00    -0.000 C 
BRANCH  14  15
ATOM     15  C   UNL     1      -2.977   5.347  -0.275  1.00  0.00    -0.000 C 
BRANCH  15  16
ATOM     16  C   UNL     1      -3.366   5.297  -1.765  1.00  0.00    -0.000 C 
BRANCH  16  17
ATOM     17  C   UNL     1      -2.980   3.998  -2.494  1.00  0.00    -0.003 C 
ATOM     18  C   UNL     1      -2.236   4.246  -3.805  1.00  0.00     0.004 C 
ENDBRANCH  16  17
ENDBRANCH  15  16
ENDBRANCH  14  15
ENDBRANCH  13  14
ENDBRANCH  12  13
ENDBRANCH  11  12
ENDBRANCH   1  11
TORSDOF 14
ENDMDL
MODEL 6
REMARK VINA RESULT:    -3.031      3.999      8.719
REMARK INTER + INTRA:          -6.235
REMARK INTER:                  -5.780
REMARK INTRA:                  -0.455
REMARK UNBOUND:                -0.724
REMARK SMILES CCCCCCCCCCCCCCCC(=O)[O-]
REMARK SMILES IDX 9 1 10 2 11 3 12 4 13 5 14 6 15 7 16 8 17 9 18 10 8 11 7 12
REMARK SMILES IDX 6 13 5 14 4 15 3 16 2 17 1 18
REMARK H PARENT
REMARK Flexibility Score: inf
ROOT
ATOM      1  C   UNL     1      -3.300   4.908  -1.466  1.00  0.00     0.000 C 
ENDROOT
BRANCH   1   2
ATOM      2  C   UNL     1      -2.740   3.556  -0.991  1.00  0.00     0.000 C 
BRANCH   2   3
ATOM      3  C   UNL     1      -3.376   3.096   0.338  1.00  0.00     0.000 C 
BRANCH   3   4
ATOM      4  C   UNL     1      -4.001   1.692   0.269  1.00  0.00     0.000 C 
BRANCH   4   5
ATOM      5  C   UNL     1      -3.221   0.735  -0.647  1.00  0.00     0.000 C 
BRANCH   5   6
ATOM      6  C   UNL     1      -3.891  -0.651  -0.755  1.00  0.00     0.006 C 
BRANCH   6   7
ATOM      7  C   UNL     1      -3.757  -1.291  -2.145  1.00  0.00     0.053 C 
BRANCH   7   8
ATOM      8  C   UNL     1      -3.760  -2.786  -2.087  1.00  0.00     0.041 C 
ATOM      9  O   UNL     1      -3.772  -3.460  -3.150  1.00  0.00    -0.550 OA
ATOM     10  O   UNL     1      -3.781  -3.435  -0.859  1.00  0.00    -0.550 OA
ENDBRANCH   7   8
ENDBRANCH   6   7
ENDBRANCH   5   6
ENDBRANCH   4   5
ENDBRANCH   3   4
ENDBRANCH   2   3
ENDBRANCH   1   2
BRANCH   1  11
ATOM     11  C   UNL     1      -3.645   4.917  -2.964  1.00  0.00     0.000 C 
BRANCH  11  12
ATOM     12  C   UNL     1      -4.916   5.720  -3.275  1.00  0.00    -0.000 C 
BRANCH  12  13
ATOM     13  C   UNL     1      -5.251   5.656  -4.773  1.00  0.00    -0.000 C 
BRANCH  13  14
ATOM     14  C   UNL     1      -6.549   6.401  -5.124  1.00  0.00    -0.000 C 
BRANCH  14  15
ATOM     15  C   UNL     1      -7.223   5.844  -6.389  1.00  0.00    -0.000 C 
BRANCH  15  16
ATOM     16  C   UNL     1      -6.879   6.650  -7.655  1.00  0.00    -0.000 C 
BRANCH  16  17
ATOM     17  C   UNL     1      -8.059   7.416  -8.279  1.00  0.00    -0.003 C 
ATOM     18  C   UNL     1      -7.616   8.557  -9.194  1.00  0.00     0.004 C 
ENDBRANCH  16  17
ENDBRANCH  15  16
ENDBRANCH  14  15
ENDBRANCH  13  14
ENDBRANCH  12  13
ENDBRANCH  11  12
ENDBRANCH   1  11
TORSDOF 14
ENDMDL
MODEL 7
REMARK VINA RESULT:    -2.985      2.557      5.014
REMARK INTER + INTRA:          -6.151
REMARK INTER:                  -5.280
REMARK INTRA:                  -0.871
REMARK UNBOUND:                -0.724
REMARK SMILES CCCCCCCCCCCCCCCC(=O)[O-]
REMARK SMILES IDX 9 1 10 2 11 3 12 4 13 5 14 6 15 7 16 8 17 9 18 10 8 11 7 12
REMARK SMILES IDX 6 13 5 14 4 15 3 16 2 17 1 18
REMARK H PARENT
REMARK Flexibility Score: inf
ROOT
ATOM      1  C   UNL     1      -5.607   6.444  -4.154  1.00  0.00     0.000 C 
ENDROOT
BRANCH   1   2
ATOM      2  C   UNL     1      -6.264   5.643  -5.292  1.00  0.00     0.000 C 
BRANCH   2   3
ATOM      3  C   UNL     1      -7.222   6.509  -6.136  1.00  0.00     0.000 C 
BRANCH   3   4
ATOM      4  C   UNL     1      -7.158   6.210  -7.644  1.00  0.00     0.000 C 
BRANCH   4   5
ATOM      5  C   UNL     1      -8.357   6.779  -8.419  1.00  0.00     0.000 C 
BRANCH   5   6
ATOM      6  C   UNL     1      -8.218   8.292  -8.689  1.00  0.00     0.006 C 
BRANCH   6   7
ATOM      7  C   UNL     1      -6.832   8.697  -9.211  1.00  0.00     0.053 C 
BRANCH   7   8
ATOM      8  C   UNL     1      -6.124   9.633  -8.283  1.00  0.00     0.041 C 
ATOM      9  O   UNL     1      -4.946   9.999  -8.531  1.00  0.00    -0.550 OA
ATOM     10  O   UNL     1      -6.755  10.078  -7.128  1.00  0.00    -0.550 OA
ENDBRANCH   7   8
ENDBRANCH   6   7
ENDBRANCH   5   6
ENDBRANCH   4   5
ENDBRANCH   3   4
ENDBRANCH   2   3
ENDBRANCH   1   2
BRANCH   1  11
ATOM     11  C   UNL     1      -4.936   5.546  -3.104  1.00  0.00     0.000 C 
BRANCH  11  12
ATOM     12  C   UNL     1      -3.631   4.915  -3.610  1.00  0.00    -0.000 C 
BRANCH  12  13
ATOM     13  C   UNL     1      -2.646   4.691  -2.452  1.00  0.00    -0.000 C 
BRANCH  13  14
ATOM     14  C   UNL     1      -3.204   5.165  -1.100  1.00  0.00    -0.000 C 
BRANCH  14  15
ATOM     15  C   UNL     1      -2.916   4.170   0.037  1.00  0.00    -0.000 C 
BRANCH  15  16
ATOM     16  C   UNL     1      -2.678   2.735  -0.470  1.00  0.00    -0.000 C 
BRANCH  16  17
ATOM     17  C   UNL     1      -3.543   1.655   0.205  1.00  0.00    -0.003 C 
ATOM     18  C   UNL     1      -4.634   2.237   1.103  1.00  0.00     0.004 C 
ENDBRANCH  16  17
ENDBRANCH  15  16
ENDBRANCH  14  15
ENDBRANCH  13  14
ENDBRANCH  12  13
ENDBRANCH  11  12
ENDBRANCH   1  11
TORSDOF 14
ENDMDL
MODEL 8
REMARK VINA RESULT:    -2.936      4.055      9.286
REMARK INTER + INTRA:          -6.062
REMARK INTER:                  -5.094
REMARK INTRA:                  -0.968
REMARK UNBOUND:                -0.724
REMARK SMILES CCCCCCCCCCCCCCCC(=O)[O-]
REMARK SMILES IDX 9 1 10 2 11 3 12 4 13 5 14 6 15 7 16 8 17 9 18 10 8 11 7 12
REMARK SMILES IDX 6 13 5 14 4 15 3 16 2 17 1 18
REMARK H PARENT
REMARK Flexibility Score: inf
ROOT
ATOM      1  C   UNL     1      -5.629   6.506  -4.673  1.00  0.00     0.000 C 
ENDROOT
BRANCH   1   2
ATOM      2  C   UNL     1      -5.119   5.607  -3.533  1.00  0.00     0.000 C 
BRANCH   2   3
ATOM      3  C   UNL     1      -3.715   5.038  -3.825  1.00  0.00     0.000 C 
BRANCH   3   4
ATOM      4  C   UNL     1      -3.037   4.407  -2.595  1.00  0.00     0.000 C 
BRANCH   4   5
ATOM      5  C   UNL     1      -3.281   5.204  -1.303  1.00  0.00     0.000 C 
BRANCH   5   6
ATOM      6  C   UNL     1      -3.008   4.367  -0.036  1.00  0.00     0.006 C 
BRANCH   6   7
ATOM      7  C   UNL     1      -2.605   2.916  -0.335  1.00  0.00     0.053 C 
BRANCH   7   8
ATOM      8  C   UNL     1      -3.625   1.932   0.145  1.00  0.00     0.041 C 
ATOM      9  O   UNL     1      -3.707   0.795  -0.389  1.00  0.00    -0.550 OA
ATOM     10  O   UNL     1      -4.505   2.280   1.161  1.00  0.00    -0.550 OA
ENDBRANCH   7   8
ENDBRANCH   6   7
ENDBRANCH   5   6
ENDBRANCH   4   5
ENDBRANCH   3   4
ENDBRANCH   2   3
ENDBRANCH   1   2
BRANCH   1  11
ATOM     11  C   UNL     1      -6.742   5.844  -5.501  1.00  0.00     0.000 C 
BRANCH  11  12
ATOM     12  C   UNL     1      -6.507   5.965  -7.014  1.00  0.00    -0.000 C 
BRANCH  12  13
ATOM     13  C   UNL     1      -7.796   6.389  -7.735  1.00  0.00    -0.000 C 
BRANCH  13  14
ATOM     14  C   UNL     1      -7.651   7.732  -8.468  1.00  0.00    -0.000 C 
BRANCH  14  15
ATOM     15  C   UNL     1      -7.374   8.900  -7.507  1.00  0.00    -0.000 C 
BRANCH  15  16
ATOM     16  C   UNL     1      -6.064   9.643  -7.830  1.00  0.00    -0.000 C 
BRANCH  16  17
ATOM     17  C   UNL     1      -5.717   9.728  -9.327  1.00  0.00    -0.003 C 
ATOM     18  C   UNL     1      -4.298   9.254  -9.639  1.00  0.00     0.004 C 
ENDBRANCH  16  17
ENDBRANCH  15  16
ENDBRANCH  14  15
ENDBRANCH  13  14
ENDBRANCH  12  13
ENDBRANCH  11  12
ENDBRANCH   1  11
TORSDOF 14
ENDMDL
MODEL 9
REMARK VINA RESULT:    -2.721      4.718      8.792
REMARK INTER + INTRA:          -5.671
REMARK INTER:                  -5.149
REMARK INTRA:                  -0.523
REMARK UNBOUND:                -0.724
REMARK SMILES CCCCCCCCCCCCCCCC(=O)[O-]
REMARK SMILES IDX 9 1 10 2 11 3 12 4 13 5 14 6 15 7 16 8 17 9 18 10 8 11 7 12
REMARK SMILES IDX 6 13 5 14 4 15 3 16 2 17 1 18
REMARK H PARENT
REMARK Flexibility Score: inf
ROOT
ATOM      1  C   UNL     1      -3.670   2.587   0.505  1.00  0.00     0.000 C 
ENDROOT
BRANCH   1   2
ATOM      2  C   UNL     1      -2.959   1.313   0.016  1.00  0.00     0.000 C 
BRANCH   2   3
ATOM      3  C   UNL     1      -3.920   0.360  -0.726  1.00  0.00     0.000 C 
BRANCH   3   4
ATOM      4  C   UNL     1      -3.264  -0.962  -1.159  1.00  0.00     0.000 C 
BRANCH   4   5
ATOM      5  C   UNL     1      -4.132  -1.768  -2.140  1.00  0.00     0.000 C 
BRANCH   5   6
ATOM      6  C   UNL     1      -3.893  -3.288  -2.023  1.00  0.00     0.006 C 
BRANCH   6   7
ATOM      7  C   UNL     1      -3.463  -3.736  -0.619  1.00  0.00     0.053 C 
BRANCH   7   8
ATOM      8  C   UNL     1      -4.545  -4.478   0.099  1.00  0.00     0.041 C 
ATOM      9  O   UNL     1      -5.028  -4.017   1.166  1.00  0.00    -0.550 OA
ATOM     10  O   UNL     1      -5.000  -5.695  -0.393  1.00  0.00    -0.550 OA
ENDBRANCH   7   8
ENDBRANCH   6   7
ENDBRANCH   5   6
ENDBRANCH   4   5
ENDBRANCH   3   4
ENDBRANCH   2   3
ENDBRANCH   1   2
BRANCH   1  11
ATOM     11  C   UNL     1      -3.007   3.874  -0.012  1.00  0.00     0.000 C 
BRANCH  11  12
ATOM     12  C   UNL     1      -2.942   3.933  -1.545  1.00  0.00    -0.000 C 
BRANCH  12  13
ATOM     13  C   UNL     1      -3.586   5.225  -2.071  1.00  0.00    -0.000 C 
BRANCH  13  14
ATOM     14  C   UNL     1      -3.937   5.147  -3.566  1.00  0.00    -0.000 C 
BRANCH  14  15
ATOM     15  C   UNL     1      -5.224   5.915  -3.908  1.00  0.00    -0.000 C 
BRANCH  15  16
ATOM     16  C   UNL     1      -5.686   5.692  -5.360  1.00  0.00    -0.000 C 
BRANCH  16  17
ATOM     17  C   UNL     1      -7.063   6.290  -5.704  1.00  0.00    -0.003 C 
ATOM     18  C   UNL     1      -7.368   6.267  -7.201  1.00  0.00     0.004 C 
ENDBRANCH  16  17
ENDBRANCH  15  16
ENDBRANCH  14  15
ENDBRANCH  13  14
ENDBRANCH  12  13
ENDBRANCH  11  12
ENDBRANCH   1  11
TORSDOF 14
ENDMDL
