MODEL 1
REMARK VINA RESULT:     2.325      0.000      0.000
REMARK INTER + INTRA:           2.338
REMARK INTER:                   2.529
REMARK INTRA:                  -0.192
REMARK UNBOUND:                -0.192
REMARK SMILES CC1(C)CC[C@]2(C(=O)[O-])CC[C@@]3(C)C(=CC[C@H]4[C@@]5(C)CC[C@H](O)C(C)(C)[C@H]5CC[C@@]43C)[C@@H]2C1
REMARK SMILES IDX 6 1 5 2 10 3 32 4 4 5 11 6 14 7 33 8 2 9 12 10 15 11 1 12
REMARK SMILES IDX 3 13 13 14 30 15 16 16 17 17 29 18 31 19 18 20 28 21 27 22
REMARK SMILES IDX 20 23 19 24 24 25 21 26 22 27 25 28 26 29 7 30 8 31 9 32
REMARK SMILES IDX 23 33
REMARK H PARENT 23 34
REMARK Flexibility Score: inf
ROOT
ATOM      1  C   UNL     1      20.725  -4.992 -16.904  1.00  0.00     0.017 C 
ATOM      2  C   UNL     1      21.337  -4.750 -18.327  1.00  0.00     0.014 C 
ATOM      3  C   UNL     1      21.895  -5.027 -15.893  1.00  0.00     0.014 C 
ATOM      4  C   UNL     1      19.961  -6.367 -16.826  1.00  0.00     0.028 C 
ATOM      5  C   UNL     1      20.488  -5.387 -19.430  1.00  0.00     0.007 C 
ATOM      6  C   UNL     1      21.428  -5.117 -14.441  1.00  0.00     0.013 C 
ATOM      7  C   UNL     1      19.855  -6.959 -15.407  1.00  0.00    -0.064 C 
ATOM      8  C   UNL     1      20.609  -7.386 -17.811  1.00  0.00     0.015 C 
ATOM      9  C   UNL     1      20.462  -6.940 -19.301  1.00  0.00    -0.035 C 
ATOM     10  C   UNL     1      20.345  -6.228 -14.135  1.00  0.00    -0.006 C 
ATOM     11  C   UNL     1      19.158  -8.115 -15.270  1.00  0.00    -0.027 C 
ATOM     12  C   UNL     1      19.128  -7.467 -19.880  1.00  0.00     0.011 C 
ATOM     13  C   UNL     1      21.617  -7.551 -20.125  1.00  0.00     0.011 C 
ATOM     14  C   UNL     1      19.081  -5.463 -13.608  1.00  0.00     0.017 C 
ATOM     15  C   UNL     1      20.896  -7.332 -13.089  1.00  0.00    -0.020 C 
ATOM     16  C   UNL     1      19.216  -9.015 -14.062  1.00  0.00     0.032 C 
ATOM     17  C   UNL     1      19.729  -8.344 -12.757  1.00  0.00     0.006 C 
ATOM     18  C   UNL     1      21.347  -6.690 -11.750  1.00  0.00     0.008 C 
ATOM     19  C   UNL     1      22.125  -8.046 -13.751  1.00  0.00     0.012 C 
ATOM     20  C   UNL     1      19.881  -9.347 -11.507  1.00  0.00    -0.025 C 
ATOM     21  C   UNL     1      21.740  -7.718 -10.691  1.00  0.00     0.005 C 
ATOM     22  C   UNL     1      20.564  -8.631 -10.256  1.00  0.00     0.003 C 
ATOM     23  C   UNL     1      20.649 -10.650 -11.900  1.00  0.00     0.010 C 
ATOM     24  C   UNL     1      18.424  -9.759 -11.109  1.00  0.00     0.012 C 
ATOM     25  C   UNL     1      20.989  -9.604  -9.053  1.00  0.00    -0.006 C 
ATOM     26  C   UNL     1      20.978 -11.577 -10.724  1.00  0.00     0.033 C 
ATOM     27  C   UNL     1      21.751 -10.845  -9.618  1.00  0.00     0.120 C 
ATOM     28  C   UNL     1      19.751 -10.030  -8.200  1.00  0.00     0.014 C 
ATOM     29  C   UNL     1      21.946  -8.889  -8.051  1.00  0.00     0.014 C 
ENDROOT
BRANCH   1  30
ATOM     30  C   UNL     1      19.795  -3.817 -16.616  1.00  0.00     0.048 C 
ATOM     31  O   UNL     1      18.548  -3.949 -16.744  1.00  0.00    -0.550 OA
ATOM     32  O   UNL     1      20.286  -2.623 -16.097  1.00  0.00    -0.550 OA
ENDBRANCH   1  30
BRANCH  27  33
ATOM     33  O   UNL     1      22.125 -11.738  -8.595  1.00  0.00    -0.393 OA
ATOM     34  H   UNL     1      21.813 -11.369  -7.728  1.00  0.00     0.210 HD
ENDBRANCH  27  33
TORSDOF 2
ENDMDL
MODEL 2
REMARK VINA RESULT:     3.265      4.972      9.691
REMARK INTER + INTRA:           3.359
REMARK INTER:                   2.829
REMARK INTRA:                   0.530
REMARK UNBOUND:                -0.192
REMARK SMILES CC1(C)CC[C@]2(C(=O)[O-])CC[C@@]3(C)C(=CC[C@H]4[C@@]5(C)CC[C@H](O)C(C)(C)[C@H]5CC[C@@]43C)[C@@H]2C1
REMARK SMILES IDX 6 1 5 2 10 3 32 4 4 5 11 6 14 7 33 8 2 9 12 10 15 11 1 12
REMARK SMILES IDX 3 13 13 14 30 15 16 16 17 17 29 18 31 19 18 20 28 21 27 22
REMARK SMILES IDX 20 23 19 24 24 25 21 26 22 27 25 28 26 29 7 30 8 31 9 32
REMARK SMILES IDX 23 33
REMARK H PARENT 23 34
REMARK Flexibility Score: inf
ROOT
ATOM      1  C   UNL     1      19.069  -5.798 -15.301  1.00  0.00     0.017 C 
ATOM      2  C   UNL     1      19.375  -7.261 -14.832  1.00  0.00     0.014 C 
ATOM      3  C   UNL     1      17.789  -5.331 -14.569  1.00  0.00     0.014 C 
ATOM      4  C   UNL     1      18.805  -5.727 -16.853  1.00  0.00     0.028 C 
ATOM      5  C   UNL     1      20.089  -8.071 -15.918  1.00  0.00     0.007 C 
ATOM      6  C   UNL     1      17.453  -3.864 -14.828  1.00  0.00     0.013 C 
ATOM      7  C   UNL     1      17.945  -4.530 -17.300  1.00  0.00    -0.064 C 
ATOM      8  C   UNL     1      18.192  -7.073 -17.344  1.00  0.00     0.015 C 
ATOM      9  C   UNL     1      19.180  -8.269 -17.168  1.00  0.00    -0.035 C 
ATOM     10  C   UNL     1      17.468  -3.412 -16.343  1.00  0.00    -0.006 C 
ATOM     11  C   UNL     1      17.732  -4.385 -18.633  1.00  0.00    -0.027 C 
ATOM     12  C   UNL     1      20.076  -8.402 -18.421  1.00  0.00     0.011 C 
ATOM     13  C   UNL     1      18.366  -9.575 -17.020  1.00  0.00     0.011 C 
ATOM     14  C   UNL     1      18.570  -2.302 -16.451  1.00  0.00     0.017 C 
ATOM     15  C   UNL     1      16.012  -2.905 -16.833  1.00  0.00    -0.020 C 
ATOM     16  C   UNL     1      16.671  -3.505 -19.243  1.00  0.00     0.032 C 
ATOM     17  C   UNL     1      16.130  -2.378 -18.317  1.00  0.00     0.006 C 
ATOM     18  C   UNL     1      15.483  -1.731 -15.966  1.00  0.00     0.008 C 
ATOM     19  C   UNL     1      15.019  -4.113 -16.713  1.00  0.00     0.012 C 
ATOM     20  C   UNL     1      14.928  -1.516 -18.952  1.00  0.00    -0.025 C 
ATOM     21  C   UNL     1      14.177  -1.137 -16.488  1.00  0.00     0.005 C 
ATOM     22  C   UNL     1      14.313  -0.494 -17.892  1.00  0.00     0.003 C 
ATOM     23  C   UNL     1      13.817  -2.431 -19.562  1.00  0.00     0.010 C 
ATOM     24  C   UNL     1      15.561  -0.696 -20.125  1.00  0.00     0.012 C 
ATOM     25  C   UNL     1      12.953   0.230 -18.342  1.00  0.00    -0.006 C 
ATOM     26  C   UNL     1      12.563  -1.686 -20.033  1.00  0.00     0.033 C 
ATOM     27  C   UNL     1      11.956  -0.825 -18.917  1.00  0.00     0.120 C 
ATOM     28  C   UNL     1      13.230   1.376 -19.368  1.00  0.00     0.014 C 
ATOM     29  C   UNL     1      12.251   0.925 -17.137  1.00  0.00     0.014 C 
ENDROOT
BRANCH   1  30
ATOM     30  C   UNL     1      20.267  -4.943 -14.897  1.00  0.00     0.048 C 
ATOM     31  O   UNL     1      20.948  -5.247 -13.881  1.00  0.00    -0.550 OA
ATOM     32  O   UNL     1      20.702  -3.892 -15.697  1.00  0.00    -0.550 OA
ENDBRANCH   1  30
BRANCH  27  33
ATOM     33  O   UNL     1      10.754  -0.228 -19.345  1.00  0.00    -0.393 OA
ATOM     34  H   UNL     1       9.999  -0.811 -19.068  1.00  0.00     0.210 HD
ENDBRANCH  27  33
TORSDOF 2
ENDMDL
