MODEL 1
REMARK VINA RESULT:    -3.961      0.000      0.000
REMARK INTER + INTRA:          -7.406
REMARK INTER:                  -6.276
REMARK INTRA:                  -1.130
REMARK UNBOUND:                -1.130
REMARK SMILES CCCCCCCCCCCC(=O)[O-]
REMARK SMILES IDX 7 1 8 2 9 3 10 4 11 5 12 6 13 7 14 8 6 9 5 10 4 11 3 12 2 13
REMARK SMILES IDX 1 14
REMARK H PARENT
REMARK Flexibility Score: inf
ROOT
ATOM      1  C   UNL     1      -2.448   6.603  -9.982  1.00  0.00     0.000 C 
ENDROOT
BRANCH   1   2
ATOM      2  C   UNL     1      -3.958   6.351 -10.072  1.00  0.00     0.000 C 
BRANCH   2   3
ATOM      3  C   UNL     1      -4.344   5.056  -9.341  1.00  0.00     0.000 C 
BRANCH   3   4
ATOM      4  C   UNL     1      -4.152   3.800 -10.210  1.00  0.00     0.006 C 
BRANCH   4   5
ATOM      5  C   UNL     1      -4.195   2.478  -9.428  1.00  0.00     0.053 C 
BRANCH   5   6
ATOM      6  C   UNL     1      -5.599   2.013  -9.189  1.00  0.00     0.041 C 
ATOM      7  O   UNL     1      -6.277   1.528 -10.132  1.00  0.00    -0.550 OA
ATOM      8  O   UNL     1      -6.170   2.147  -7.928  1.00  0.00    -0.550 OA
ENDBRANCH   5   6
ENDBRANCH   4   5
ENDBRANCH   3   4
ENDBRANCH   2   3
ENDBRANCH   1   2
BRANCH   1   9
ATOM      9  C   UNL     1      -1.939   6.390  -8.548  1.00  0.00     0.000 C 
BRANCH   9  10
ATOM     10  C   UNL     1      -0.550   5.734  -8.506  1.00  0.00    -0.000 C 
BRANCH  10  11
ATOM     11  C   UNL     1      -0.535   4.340  -9.157  1.00  0.00    -0.000 C 
BRANCH  11  12
ATOM     12  C   UNL     1      -0.827   3.215  -8.152  1.00  0.00    -0.000 C 
BRANCH  12  13
ATOM     13  C   UNL     1      -0.046   1.929  -8.464  1.00  0.00    -0.003 C 
ATOM     14  C   UNL     1       0.648   2.024  -9.819  1.00  0.00     0.004 C 
ENDBRANCH  12  13
ENDBRANCH  11  12
ENDBRANCH  10  11
ENDBRANCH   9  10
ENDBRANCH   1   9
TORSDOF 10
ENDMDL
MODEL 2
REMARK VINA RESULT:    -3.904      1.057      1.887
REMARK INTER + INTRA:          -7.316
REMARK INTER:                  -5.888
REMARK INTRA:                  -1.428
REMARK UNBOUND:                -1.130
REMARK SMILES CCCCCCCCCCCC(=O)[O-]
REMARK SMILES IDX 7 1 8 2 9 3 10 4 11 5 12 6 13 7 14 8 6 9 5 10 4 11 3 12 2 13
REMARK SMILES IDX 1 14
REMARK H PARENT
REMARK Flexibility Score: inf
ROOT
ATOM      1  C   UNL     1      -1.650   5.480  -8.726  1.00  0.00     0.000 C 
ENDROOT
BRANCH   1   2
ATOM      2  C   UNL     1      -3.049   4.858  -8.821  1.00  0.00     0.000 C 
BRANCH   2   3
ATOM      3  C   UNL     1      -3.420   4.560 -10.282  1.00  0.00     0.000 C 
BRANCH   3   4
ATOM      4  C   UNL     1      -3.908   3.115 -10.491  1.00  0.00     0.006 C 
BRANCH   4   5
ATOM      5  C   UNL     1      -4.306   2.388  -9.197  1.00  0.00     0.053 C 
BRANCH   5   6
ATOM      6  C   UNL     1      -5.792   2.250  -9.066  1.00  0.00     0.041 C 
ATOM      7  O   UNL     1      -6.442   1.565  -9.898  1.00  0.00    -0.550 OA
ATOM      8  O   UNL     1      -6.463   2.907  -8.041  1.00  0.00    -0.550 OA
ENDBRANCH   5   6
ENDBRANCH   4   5
ENDBRANCH   3   4
ENDBRANCH   2   3
ENDBRANCH   1   2
BRANCH   1   9
ATOM      9  C   UNL     1      -0.561   4.402  -8.829  1.00  0.00     0.000 C 
BRANCH   9  10
ATOM     10  C   UNL     1      -0.857   3.177  -7.951  1.00  0.00    -0.000 C 
BRANCH  10  11
ATOM     11  C   UNL     1      -0.014   1.950  -8.345  1.00  0.00    -0.000 C 
BRANCH  11  12
ATOM     12  C   UNL     1       0.426   1.984  -9.817  1.00  0.00    -0.000 C 
BRANCH  12  13
ATOM     13  C   UNL     1      -0.627   1.384 -10.760  1.00  0.00    -0.003 C 
ATOM     14  C   UNL     1      -0.723   2.184 -12.056  1.00  0.00     0.004 C 
ENDBRANCH  12  13
ENDBRANCH  11  12
ENDBRANCH  10  11
ENDBRANCH   9  10
ENDBRANCH   1   9
TORSDOF 10
ENDMDL
MODEL 3
REMARK VINA RESULT:    -3.887      1.096      3.413
REMARK INTER + INTRA:          -7.289
REMARK INTER:                  -5.793
REMARK INTRA:                  -1.496
REMARK UNBOUND:                -1.130
REMARK SMILES CCCCCCCCCCCC(=O)[O-]
REMARK SMILES IDX 7 1 8 2 9 3 10 4 11 5 12 6 13 7 14 8 6 9 5 10 4 11 3 12 2 13
REMARK SMILES IDX 1 14
REMARK H PARENT
REMARK Flexibility Score: inf
ROOT
ATOM      1  C   UNL     1      -0.310   2.386 -10.385  1.00  0.00     0.000 C 
ENDROOT
BRANCH   1   2
ATOM      2  C   UNL     1      -1.634   1.763 -10.846  1.00  0.00     0.000 C 
BRANCH   2   3
ATOM      3  C   UNL     1      -2.589   2.837 -11.388  1.00  0.00     0.000 C 
BRANCH   3   4
ATOM      4  C   UNL     1      -4.052   2.600 -10.973  1.00  0.00     0.006 C 
BRANCH   4   5
ATOM      5  C   UNL     1      -4.268   2.483  -9.456  1.00  0.00     0.053 C 
BRANCH   5   6
ATOM      6  C   UNL     1      -5.656   2.032  -9.120  1.00  0.00     0.041 C 
ATOM      7  O   UNL     1      -6.377   1.488  -9.997  1.00  0.00    -0.550 OA
ATOM      8  O   UNL     1      -6.166   2.244  -7.844  1.00  0.00    -0.550 OA
ENDBRANCH   5   6
ENDBRANCH   4   5
ENDBRANCH   3   4
ENDBRANCH   2   3
ENDBRANCH   1   2
BRANCH   1   9
ATOM      9  C   UNL     1      -0.078   2.139  -8.887  1.00  0.00     0.000 C 
BRANCH   9  10
ATOM     10  C   UNL     1      -0.823   3.147  -7.999  1.00  0.00    -0.000 C 
BRANCH  10  11
ATOM     11  C   UNL     1      -0.775   4.579  -8.562  1.00  0.00    -0.000 C 
BRANCH  11  12
ATOM     12  C   UNL     1      -2.130   5.298  -8.462  1.00  0.00    -0.000 C 
BRANCH  12  13
ATOM     13  C   UNL     1      -2.437   6.150  -9.703  1.00  0.00    -0.003 C 
ATOM     14  C   UNL     1      -3.941   6.246  -9.944  1.00  0.00     0.004 C 
ENDBRANCH  12  13
ENDBRANCH  11  12
ENDBRANCH  10  11
ENDBRANCH   9  10
ENDBRANCH   1   9
TORSDOF 10
ENDMDL
MODEL 4
REMARK VINA RESULT:    -3.852      2.935      4.849
REMARK INTER + INTRA:          -7.233
REMARK INTER:                  -5.848
REMARK INTRA:                  -1.385
REMARK UNBOUND:                -1.130
REMARK SMILES CCCCCCCCCCCC(=O)[O-]
REMARK SMILES IDX 7 1 8 2 9 3 10 4 11 5 12 6 13 7 14 8 6 9 5 10 4 11 3 12 2 13
REMARK SMILES IDX 1 14
REMARK H PARENT
REMARK Flexibility Score: inf
ROOT
ATOM      1  C   UNL     1      -3.358   5.238  -8.901  1.00  0.00     0.000 C 
ENDROOT
BRANCH   1   2
ATOM      2  C   UNL     1      -1.961   5.761  -8.545  1.00  0.00     0.000 C 
BRANCH   2   3
ATOM      3  C   UNL     1      -0.931   4.621  -8.543  1.00  0.00     0.000 C 
BRANCH   3   4
ATOM      4  C   UNL     1      -1.582   3.227  -8.607  1.00  0.00     0.006 C 
BRANCH   4   5
ATOM      5  C   UNL     1      -0.975   2.293  -9.666  1.00  0.00     0.053 C 
BRANCH   5   6
ATOM      6  C   UNL     1       0.371   1.781  -9.256  1.00  0.00     0.041 C 
ATOM      7  O   UNL     1       0.508   1.147  -8.176  1.00  0.00    -0.550 OA
ATOM      8  O   UNL     1       1.483   2.033 -10.052  1.00  0.00    -0.550 OA
ENDBRANCH   5   6
ENDBRANCH   4   5
ENDBRANCH   3   4
ENDBRANCH   2   3
ENDBRANCH   1   2
BRANCH   1   9
ATOM      9  C   UNL     1      -4.070   6.190  -9.874  1.00  0.00     0.000 C 
BRANCH   9  10
ATOM     10  C   UNL     1      -4.737   5.450 -11.043  1.00  0.00    -0.000 C 
BRANCH  10  11
ATOM     11  C   UNL     1      -4.016   4.137 -11.400  1.00  0.00    -0.000 C 
BRANCH  11  12
ATOM     12  C   UNL     1      -4.971   2.935 -11.457  1.00  0.00    -0.000 C 
BRANCH  12  13
ATOM     13  C   UNL     1      -4.629   1.861 -10.415  1.00  0.00    -0.003 C 
ATOM     14  C   UNL     1      -5.386   2.099  -9.112  1.00  0.00     0.004 C 
ENDBRANCH  12  13
ENDBRANCH  11  12
ENDBRANCH  10  11
ENDBRANCH   9  10
ENDBRANCH   1   9
TORSDOF 10
ENDMDL
MODEL 5
REMARK VINA RESULT:    -3.735      1.464      2.845
REMARK INTER + INTRA:          -7.048
REMARK INTER:                  -6.022
REMARK INTRA:                  -1.026
REMARK UNBOUND:                -1.130
REMARK SMILES CCCCCCCCCCCC(=O)[O-]
REMARK SMILES IDX 7 1 8 2 9 3 10 4 11 5 12 6 13 7 14 8 6 9 5 10 4 11 3 12 2 13
REMARK SMILES IDX 1 14
REMARK H PARENT
REMARK Flexibility Score: inf
ROOT
ATOM      1  C   UNL     1      -1.019   3.866  -9.141  1.00  0.00     0.000 C 
ENDROOT
BRANCH   1   2
ATOM      2  C   UNL     1      -2.013   4.850  -8.512  1.00  0.00     0.000 C 
BRANCH   2   3
ATOM      3  C   UNL     1      -3.456   4.508  -8.915  1.00  0.00     0.000 C 
BRANCH   3   4
ATOM      4  C   UNL     1      -3.590   3.096  -9.515  1.00  0.00     0.006 C 
BRANCH   4   5
ATOM      5  C   UNL     1      -4.825   2.903 -10.408  1.00  0.00     0.053 C 
BRANCH   5   6
ATOM      6  C   UNL     1      -5.811   1.951  -9.803  1.00  0.00     0.041 C 
ATOM      7  O   UNL     1      -5.799   1.727  -8.564  1.00  0.00    -0.550 OA
ATOM      8  O   UNL     1      -6.724   1.287 -10.615  1.00  0.00    -0.550 OA
ENDBRANCH   5   6
ENDBRANCH   4   5
ENDBRANCH   3   4
ENDBRANCH   2   3
ENDBRANCH   1   2
BRANCH   1   9
ATOM      9  C   UNL     1      -0.527   2.844  -8.106  1.00  0.00     0.000 C 
BRANCH   9  10
ATOM     10  C   UNL     1       0.173   1.639  -8.752  1.00  0.00    -0.000 C 
BRANCH  10  11
ATOM     11  C   UNL     1       0.788   1.977 -10.122  1.00  0.00    -0.000 C 
BRANCH  11  12
ATOM     12  C   UNL     1       0.367   0.987 -11.220  1.00  0.00    -0.000 C 
BRANCH  12  13
ATOM     13  C   UNL     1      -1.134   1.063 -11.536  1.00  0.00    -0.003 C 
ATOM     14  C   UNL     1      -1.437   2.215 -12.488  1.00  0.00     0.004 C 
ENDBRANCH  12  13
ENDBRANCH  11  12
ENDBRANCH  10  11
ENDBRANCH   9  10
ENDBRANCH   1   9
TORSDOF 10
ENDMDL
MODEL 6
REMARK VINA RESULT:    -3.683      1.837      3.658
REMARK INTER + INTRA:          -6.965
REMARK INTER:                  -5.471
REMARK INTRA:                  -1.494
REMARK UNBOUND:                -1.130
REMARK SMILES CCCCCCCCCCCC(=O)[O-]
REMARK SMILES IDX 7 1 8 2 9 3 10 4 11 5 12 6 13 7 14 8 6 9 5 10 4 11 3 12 2 13
REMARK SMILES IDX 1 14
REMARK H PARENT
REMARK Flexibility Score: inf
ROOT
ATOM      1  C   UNL     1      -1.231   1.179 -11.277  1.00  0.00     0.000 C 
ENDROOT
BRANCH   1   2
ATOM      2  C   UNL     1      -1.789   2.292 -12.172  1.00  0.00     0.000 C 
BRANCH   2   3
ATOM      3  C   UNL     1      -2.899   3.073 -11.452  1.00  0.00     0.000 C 
BRANCH   3   4
ATOM      4  C   UNL     1      -3.938   2.156 -10.782  1.00  0.00     0.006 C 
BRANCH   4   5
ATOM      5  C   UNL     1      -4.279   2.538  -9.334  1.00  0.00     0.053 C 
BRANCH   5   6
ATOM      6  C   UNL     1      -4.740   3.959  -9.223  1.00  0.00     0.041 C 
ATOM      7  O   UNL     1      -4.137   4.765  -8.467  1.00  0.00    -0.550 OA
ATOM      8  O   UNL     1      -5.859   4.384  -9.931  1.00  0.00    -0.550 OA
ENDBRANCH   5   6
ENDBRANCH   4   5
ENDBRANCH   3   4
ENDBRANCH   2   3
ENDBRANCH   1   2
BRANCH   1   9
ATOM      9  C   UNL     1       0.286   1.330 -11.093  1.00  0.00     0.000 C 
BRANCH   9  10
ATOM     10  C   UNL     1       0.651   2.354 -10.007  1.00  0.00    -0.000 C 
BRANCH  10  11
ATOM     11  C   UNL     1      -0.056   2.072  -8.668  1.00  0.00    -0.000 C 
BRANCH  11  12
ATOM     12  C   UNL     1      -0.891   3.266  -8.179  1.00  0.00    -0.000 C 
BRANCH  12  13
ATOM     13  C   UNL     1      -0.674   4.525  -9.031  1.00  0.00    -0.003 C 
ATOM     14  C   UNL     1      -0.785   5.788  -8.182  1.00  0.00     0.004 C 
ENDBRANCH  12  13
ENDBRANCH  11  12
ENDBRANCH  10  11
ENDBRANCH   9  10
ENDBRANCH   1   9
TORSDOF 10
ENDMDL
MODEL 7
REMARK VINA RESULT:    -3.647      2.997      5.430
REMARK INTER + INTRA:          -6.908
REMARK INTER:                  -5.437
REMARK INTRA:                  -1.471
REMARK UNBOUND:                -1.130
REMARK SMILES CCCCCCCCCCCC(=O)[O-]
REMARK SMILES IDX 7 1 8 2 9 3 10 4 11 5 12 6 13 7 14 8 6 9 5 10 4 11 3 12 2 13
REMARK SMILES IDX 1 14
REMARK H PARENT
REMARK Flexibility Score: inf
ROOT
ATOM      1  C   UNL     1      -3.995   2.274 -11.531  1.00  0.00     0.000 C 
ENDROOT
BRANCH   1   2
ATOM      2  C   UNL     1      -2.639   1.952 -10.891  1.00  0.00     0.000 C 
BRANCH   2   3
ATOM      3  C   UNL     1      -1.591   3.013 -11.260  1.00  0.00     0.000 C 
BRANCH   3   4
ATOM      4  C   UNL     1      -0.896   3.620 -10.028  1.00  0.00     0.006 C 
BRANCH   4   5
ATOM      5  C   UNL     1      -1.057   2.796  -8.741  1.00  0.00     0.053 C 
BRANCH   5   6
ATOM      6  C   UNL     1       0.151   1.956  -8.459  1.00  0.00     0.041 C 
ATOM      7  O   UNL     1       0.303   1.421  -7.329  1.00  0.00    -0.550 OA
ATOM      8  O   UNL     1       1.126   1.790  -9.436  1.00  0.00    -0.550 OA
ENDBRANCH   5   6
ENDBRANCH   4   5
ENDBRANCH   3   4
ENDBRANCH   2   3
ENDBRANCH   1   2
BRANCH   1   9
ATOM      9  C   UNL     1      -5.151   1.769 -10.655  1.00  0.00     0.000 C 
BRANCH   9  10
ATOM     10  C   UNL     1      -5.024   2.220  -9.192  1.00  0.00    -0.000 C 
BRANCH  10  11
ATOM     11  C   UNL     1      -5.401   3.700  -8.995  1.00  0.00    -0.000 C 
BRANCH  11  12
ATOM     12  C   UNL     1      -4.173   4.598  -8.776  1.00  0.00    -0.000 C 
BRANCH  12  13
ATOM     13  C   UNL     1      -4.158   5.812  -9.716  1.00  0.00    -0.003 C 
ATOM     14  C   UNL     1      -5.331   5.767 -10.691  1.00  0.00     0.004 C 
ENDBRANCH  12  13
ENDBRANCH  11  12
ENDBRANCH  10  11
ENDBRANCH   9  10
ENDBRANCH   1   9
TORSDOF 10
ENDMDL
MODEL 8
REMARK VINA RESULT:    -3.517      1.366      2.456
REMARK INTER + INTRA:          -6.703
REMARK INTER:                  -5.317
REMARK INTRA:                  -1.385
REMARK UNBOUND:                -1.130
REMARK SMILES CCCCCCCCCCCC(=O)[O-]
REMARK SMILES IDX 7 1 8 2 9 3 10 4 11 5 12 6 13 7 14 8 6 9 5 10 4 11 3 12 2 13
REMARK SMILES IDX 1 14
REMARK H PARENT
REMARK Flexibility Score: inf
ROOT
ATOM      1  C   UNL     1      -3.453   4.352 -11.724  1.00  0.00     0.000 C 
ENDROOT
BRANCH   1   2
ATOM      2  C   UNL     1      -2.696   3.021 -11.803  1.00  0.00     0.000 C 
BRANCH   2   3
ATOM      3  C   UNL     1      -3.276   1.998 -10.815  1.00  0.00     0.000 C 
BRANCH   3   4
ATOM      4  C   UNL     1      -4.786   2.184 -10.581  1.00  0.00     0.006 C 
BRANCH   4   5
ATOM      5  C   UNL     1      -5.211   2.117  -9.105  1.00  0.00     0.053 C 
BRANCH   5   6
ATOM      6  C   UNL     1      -6.423   2.953  -8.833  1.00  0.00     0.041 C 
ATOM      7  O   UNL     1      -6.511   3.615  -7.765  1.00  0.00    -0.550 OA
ATOM      8  O   UNL     1      -7.472   2.975  -9.745  1.00  0.00    -0.550 OA
ENDBRANCH   5   6
ENDBRANCH   4   5
ENDBRANCH   3   4
ENDBRANCH   2   3
ENDBRANCH   1   2
BRANCH   1   9
ATOM      9  C   UNL     1      -2.679   5.376 -10.880  1.00  0.00     0.000 C 
BRANCH   9  10
ATOM     10  C   UNL     1      -3.153   5.417  -9.419  1.00  0.00    -0.000 C 
BRANCH  10  11
ATOM     11  C   UNL     1      -1.985   5.526  -8.422  1.00  0.00    -0.000 C 
BRANCH  11  12
ATOM     12  C   UNL     1      -0.822   4.583  -8.769  1.00  0.00    -0.000 C 
BRANCH  12  13
ATOM     13  C   UNL     1      -0.974   3.198  -8.125  1.00  0.00    -0.003 C 
ATOM     14  C   UNL     1      -0.086   2.169  -8.819  1.00  0.00     0.004 C 
ENDBRANCH  12  13
ENDBRANCH  11  12
ENDBRANCH  10  11
ENDBRANCH   9  10
ENDBRANCH   1   9
TORSDOF 10
ENDMDL
MODEL 9
REMARK VINA RESULT:    -3.512      1.391      1.948
REMARK INTER + INTRA:          -6.695
REMARK INTER:                  -5.455
REMARK INTRA:                  -1.240
REMARK UNBOUND:                -1.130
REMARK SMILES CCCCCCCCCCCC(=O)[O-]
REMARK SMILES IDX 7 1 8 2 9 3 10 4 11 5 12 6 13 7 14 8 6 9 5 10 4 11 3 12 2 13
REMARK SMILES IDX 1 14
REMARK H PARENT
REMARK Flexibility Score: inf
ROOT
ATOM      1  C   UNL     1      -3.792   5.434  -9.228  1.00  0.00     0.000 C 
ENDROOT
BRANCH   1   2
ATOM      2  C   UNL     1      -5.116   4.929  -9.815  1.00  0.00     0.000 C 
BRANCH   2   3
ATOM      3  C   UNL     1      -5.610   3.681  -9.067  1.00  0.00     0.000 C 
BRANCH   3   4
ATOM      4  C   UNL     1      -4.688   2.464  -9.262  1.00  0.00     0.006 C 
BRANCH   4   5
ATOM      5  C   UNL     1      -4.621   1.947 -10.708  1.00  0.00     0.053 C 
BRANCH   5   6
ATOM      6  C   UNL     1      -5.980   1.837 -11.328  1.00  0.00     0.041 C 
ATOM      7  O   UNL     1      -6.804   0.984 -10.904  1.00  0.00    -0.550 OA
ATOM      8  O   UNL     1      -6.325   2.656 -12.396  1.00  0.00    -0.550 OA
ENDBRANCH   5   6
ENDBRANCH   4   5
ENDBRANCH   3   4
ENDBRANCH   2   3
ENDBRANCH   1   2
BRANCH   1   9
ATOM      9  C   UNL     1      -2.722   5.568 -10.321  1.00  0.00     0.000 C 
BRANCH   9  10
ATOM     10  C   UNL     1      -1.358   5.012  -9.884  1.00  0.00    -0.000 C 
BRANCH  10  11
ATOM     11  C   UNL     1      -1.312   4.669  -8.385  1.00  0.00    -0.000 C 
BRANCH  11  12
ATOM     12  C   UNL     1      -0.865   3.222  -8.123  1.00  0.00    -0.000 C 
BRANCH  12  13
ATOM     13  C   UNL     1      -0.869   2.365  -9.398  1.00  0.00    -0.003 C 
ATOM     14  C   UNL     1       0.341   1.436  -9.438  1.00  0.00     0.004 C 
ENDBRANCH  12  13
ENDBRANCH  11  12
ENDBRANCH  10  11
ENDBRANCH   9  10
ENDBRANCH   1   9
TORSDOF 10
ENDMDL
