MODEL 1
REMARK VINA RESULT:    -2.941      0.000      0.000
REMARK INTER + INTRA:          -9.250
REMARK INTER:                  -6.723
REMARK INTRA:                  -2.527
REMARK UNBOUND:                -2.527
REMARK SMILES CCCCCCCCCCCCCCCCCCCCCCCC(=O)[O-]
REMARK SMILES IDX 13 1 14 2 15 3 16 4 17 5 18 6 19 7 20 8 21 9 22 10 23 11
REMARK SMILES IDX 24 12 25 13 26 14 12 15 11 16 10 17 9 18 8 19 7 20 6 21 5 22
REMARK SMILES IDX 4 23 3 24 2 25 1 26
REMARK H PARENT
REMARK Flexibility Score: inf
ROOT
ATOM      1  C   UNL     1      24.352 -14.731  -1.366  1.00  0.00     0.000 C 
ENDROOT
BRANCH   1   2
ATOM      2  C   UNL     1      23.157 -15.194  -2.227  1.00  0.00     0.000 C 
BRANCH   2   3
ATOM      3  C   UNL     1      23.316 -16.618  -2.795  1.00  0.00     0.000 C 
BRANCH   3   4
ATOM      4  C   UNL     1      24.273 -16.734  -3.996  1.00  0.00     0.000 C 
BRANCH   4   5
ATOM      5  C   UNL     1      25.767 -16.857  -3.634  1.00  0.00     0.000 C 
BRANCH   5   6
ATOM      6  C   UNL     1      26.613 -15.606  -3.929  1.00  0.00     0.000 C 
BRANCH   6   7
ATOM      7  C   UNL     1      28.118 -15.838  -3.702  1.00  0.00     0.000 C 
BRANCH   7   8
ATOM      8  C   UNL     1      28.879 -14.529  -3.434  1.00  0.00     0.000 C 
BRANCH   8   9
ATOM      9  C   UNL     1      30.381 -14.653  -3.744  1.00  0.00     0.000 C 
BRANCH   9  10
ATOM     10  C   UNL     1      31.020 -15.872  -3.058  1.00  0.00     0.006 C 
BRANCH  10  11
ATOM     11  C   UNL     1      30.915 -15.801  -1.529  1.00  0.00     0.053 C 
BRANCH  11  12
ATOM     12  C   UNL     1      30.655 -17.158  -0.956  1.00  0.00     0.041 C 
ATOM     13  O   UNL     1      30.558 -18.158  -1.715  1.00  0.00    -0.550 OA
ATOM     14  O   UNL     1      30.490 -17.316   0.416  1.00  0.00    -0.550 OA
ENDBRANCH  11  12
ENDBRANCH  10  11
ENDBRANCH   9  10
ENDBRANCH   8   9
ENDBRANCH   7   8
ENDBRANCH   6   7
ENDBRANCH   5   6
ENDBRANCH   4   5
ENDBRANCH   3   4
ENDBRANCH   2   3
ENDBRANCH   1   2
BRANCH   1  15
ATOM     15  C   UNL     1      24.970 -13.413  -1.868  1.00  0.00     0.000 C 
BRANCH  15  16
ATOM     16  C   UNL     1      26.425 -13.232  -1.386  1.00  0.00     0.000 C 
BRANCH  16  17
ATOM     17  C   UNL     1      26.621 -13.506   0.117  1.00  0.00     0.000 C 
BRANCH  17  18
ATOM     18  C   UNL     1      27.536 -14.698   0.447  1.00  0.00    -0.000 C 
BRANCH  18  19
ATOM     19  C   UNL     1      28.977 -14.272   0.777  1.00  0.00    -0.000 C 
BRANCH  19  20
ATOM     20  C   UNL     1      29.122 -13.716   2.205  1.00  0.00    -0.000 C 
BRANCH  20  21
ATOM     21  C   UNL     1      29.347 -12.194   2.292  1.00  0.00    -0.000 C 
BRANCH  21  22
ATOM     22  C   UNL     1      30.836 -11.811   2.343  1.00  0.00    -0.000 C 
BRANCH  22  23
ATOM     23  C   UNL     1      31.125 -10.470   1.652  1.00  0.00    -0.000 C 
BRANCH  23  24
ATOM     24  C   UNL     1      30.601 -10.426   0.208  1.00  0.00    -0.000 C 
BRANCH  24  25
ATOM     25  C   UNL     1      31.023 -11.679  -0.568  1.00  0.00    -0.003 C 
ATOM     26  C   UNL     1      30.973 -11.439  -2.074  1.00  0.00     0.004 C 
ENDBRANCH  24  25
ENDBRANCH  23  24
ENDBRANCH  22  23
ENDBRANCH  21  22
ENDBRANCH  20  21
ENDBRANCH  19  20
ENDBRANCH  18  19
ENDBRANCH  17  18
ENDBRANCH  16  17
ENDBRANCH  15  16
ENDBRANCH   1  15
TORSDOF 22
ENDMDL
MODEL 2
REMARK VINA RESULT:    -2.741      0.999      3.515
REMARK INTER + INTRA:          -8.793
REMARK INTER:                  -6.054
REMARK INTRA:                  -2.739
REMARK UNBOUND:                -2.527
REMARK SMILES CCCCCCCCCCCCCCCCCCCCCCCC(=O)[O-]
REMARK SMILES IDX 13 1 14 2 15 3 16 4 17 5 18 6 19 7 20 8 21 9 22 10 23 11
REMARK SMILES IDX 24 12 25 13 26 14 12 15 11 16 10 17 9 18 8 19 7 20 6 21 5 22
REMARK SMILES IDX 4 23 3 24 2 25 1 26
REMARK H PARENT
REMARK Flexibility Score: inf
ROOT
ATOM      1  C   UNL     1      26.684 -15.609  -3.341  1.00  0.00     0.000 C 
ENDROOT
BRANCH   1   2
ATOM      2  C   UNL     1      25.554 -16.658  -3.427  1.00  0.00     0.000 C 
BRANCH   2   3
ATOM      3  C   UNL     1      24.150 -16.046  -3.609  1.00  0.00     0.000 C 
BRANCH   3   4
ATOM      4  C   UNL     1      23.574 -15.362  -2.355  1.00  0.00     0.000 C 
BRANCH   4   5
ATOM      5  C   UNL     1      23.924 -13.867  -2.205  1.00  0.00     0.000 C 
BRANCH   5   6
ATOM      6  C   UNL     1      24.883 -13.535  -1.049  1.00  0.00     0.000 C 
BRANCH   6   7
ATOM      7  C   UNL     1      26.360 -13.526  -1.485  1.00  0.00     0.000 C 
BRANCH   7   8
ATOM      8  C   UNL     1      27.318 -13.309  -0.302  1.00  0.00     0.000 C 
BRANCH   8   9
ATOM      9  C   UNL     1      27.469 -14.571   0.566  1.00  0.00     0.000 C 
BRANCH   9  10
ATOM     10  C   UNL     1      28.893 -15.149   0.513  1.00  0.00     0.006 C 
BRANCH  10  11
ATOM     11  C   UNL     1      28.946 -16.497  -0.218  1.00  0.00     0.053 C 
BRANCH  11  12
ATOM     12  C   UNL     1      30.302 -17.115  -0.084  1.00  0.00     0.041 C 
ATOM     13  O   UNL     1      30.954 -16.984   0.984  1.00  0.00    -0.550 OA
ATOM     14  O   UNL     1      30.858 -17.814  -1.150  1.00  0.00    -0.550 OA
ENDBRANCH  11  12
ENDBRANCH  10  11
ENDBRANCH   9  10
ENDBRANCH   8   9
ENDBRANCH   7   8
ENDBRANCH   6   7
ENDBRANCH   5   6
ENDBRANCH   4   5
ENDBRANCH   3   4
ENDBRANCH   2   3
ENDBRANCH   1   2
BRANCH   1  15
ATOM     15  C   UNL     1      28.034 -16.149  -3.845  1.00  0.00     0.000 C 
BRANCH  15  16
ATOM     16  C   UNL     1      29.229 -15.372  -3.252  1.00  0.00     0.000 C 
BRANCH  16  17
ATOM     17  C   UNL     1      29.310 -13.906  -3.718  1.00  0.00     0.000 C 
BRANCH  17  18
ATOM     18  C   UNL     1      30.500 -13.110  -3.156  1.00  0.00    -0.000 C 
BRANCH  18  19
ATOM     19  C   UNL     1      30.980 -13.636  -1.792  1.00  0.00    -0.000 C 
BRANCH  19  20
ATOM     20  C   UNL     1      31.125 -12.522  -0.740  1.00  0.00    -0.000 C 
BRANCH  20  21
ATOM     21  C   UNL     1      30.686 -11.122  -1.209  1.00  0.00    -0.000 C 
BRANCH  21  22
ATOM     22  C   UNL     1      31.058 -10.012  -0.211  1.00  0.00    -0.000 C 
BRANCH  22  23
ATOM     23  C   UNL     1      31.051 -10.501   1.246  1.00  0.00    -0.000 C 
BRANCH  23  24
ATOM     24  C   UNL     1      29.632 -10.761   1.773  1.00  0.00    -0.000 C 
BRANCH  24  25
ATOM     25  C   UNL     1      29.525 -12.157   2.398  1.00  0.00    -0.003 C 
ATOM     26  C   UNL     1      30.881 -12.641   2.904  1.00  0.00     0.004 C 
ENDBRANCH  24  25
ENDBRANCH  23  24
ENDBRANCH  22  23
ENDBRANCH  21  22
ENDBRANCH  20  21
ENDBRANCH  19  20
ENDBRANCH  18  19
ENDBRANCH  17  18
ENDBRANCH  16  17
ENDBRANCH  15  16
ENDBRANCH   1  15
TORSDOF 22
ENDMDL
MODEL 3
REMARK VINA RESULT:    -2.269      1.087      1.957
REMARK INTER + INTRA:          -7.714
REMARK INTER:                  -6.365
REMARK INTRA:                  -1.349
REMARK UNBOUND:                -2.527
REMARK SMILES CCCCCCCCCCCCCCCCCCCCCCCC(=O)[O-]
REMARK SMILES IDX 13 1 14 2 15 3 16 4 17 5 18 6 19 7 20 8 21 9 22 10 23 11
REMARK SMILES IDX 24 12 25 13 26 14 12 15 11 16 10 17 9 18 8 19 7 20 6 21 5 22
REMARK SMILES IDX 4 23 3 24 2 25 1 26
REMARK H PARENT
REMARK Flexibility Score: inf
ROOT
ATOM      1  C   UNL     1      23.114 -15.155  -1.670  1.00  0.00     0.000 C 
ENDROOT
BRANCH   1   2
ATOM      2  C   UNL     1      23.183 -16.604  -2.201  1.00  0.00     0.000 C 
BRANCH   2   3
ATOM      3  C   UNL     1      23.451 -16.697  -3.717  1.00  0.00     0.000 C 
BRANCH   3   4
ATOM      4  C   UNL     1      24.928 -16.541  -4.124  1.00  0.00     0.000 C 
BRANCH   4   5
ATOM      5  C   UNL     1      25.929 -17.369  -3.292  1.00  0.00     0.000 C 
BRANCH   5   6
ATOM      6  C   UNL     1      27.243 -16.647  -2.947  1.00  0.00     0.000 C 
BRANCH   6   7
ATOM      7  C   UNL     1      27.499 -15.419  -3.840  1.00  0.00     0.000 C 
BRANCH   7   8
ATOM      8  C   UNL     1      28.721 -14.606  -3.382  1.00  0.00     0.000 C 
BRANCH   8   9
ATOM      9  C   UNL     1      30.048 -15.241  -3.837  1.00  0.00     0.000 C 
BRANCH   9  10
ATOM     10  C   UNL     1      30.838 -15.846  -2.664  1.00  0.00     0.006 C 
BRANCH  10  11
ATOM     11  C   UNL     1      31.125 -17.340  -2.866  1.00  0.00     0.053 C 
BRANCH  11  12
ATOM     12  C   UNL     1      30.714 -18.123  -1.659  1.00  0.00     0.041 C 
ATOM     13  O   UNL     1      30.550 -19.369  -1.739  1.00  0.00    -0.550 OA
ATOM     14  O   UNL     1      30.483 -17.473  -0.451  1.00  0.00    -0.550 OA
ENDBRANCH  11  12
ENDBRANCH  10  11
ENDBRANCH   9  10
ENDBRANCH   8   9
ENDBRANCH   7   8
ENDBRANCH   6   7
ENDBRANCH   5   6
ENDBRANCH   4   5
ENDBRANCH   3   4
ENDBRANCH   2   3
ENDBRANCH   1   2
BRANCH   1  15
ATOM     15  C   UNL     1      22.660 -14.150  -2.744  1.00  0.00     0.000 C 
BRANCH  15  16
ATOM     16  C   UNL     1      23.833 -13.302  -3.280  1.00  0.00     0.000 C 
BRANCH  16  17
ATOM     17  C   UNL     1      24.710 -12.684  -2.174  1.00  0.00     0.000 C 
BRANCH  17  18
ATOM     18  C   UNL     1      24.863 -13.545  -0.908  1.00  0.00    -0.000 C 
BRANCH  18  19
ATOM     19  C   UNL     1      26.293 -14.080  -0.719  1.00  0.00    -0.000 C 
BRANCH  19  20
ATOM     20  C   UNL     1      26.993 -13.488   0.517  1.00  0.00    -0.000 C 
BRANCH  20  21
ATOM     21  C   UNL     1      28.204 -14.291   1.027  1.00  0.00    -0.000 C 
BRANCH  21  22
ATOM     22  C   UNL     1      29.545 -13.749   0.502  1.00  0.00    -0.000 C 
BRANCH  22  23
ATOM     23  C   UNL     1      29.660 -12.223   0.637  1.00  0.00    -0.000 C 
BRANCH  23  24
ATOM     24  C   UNL     1      31.024 -11.692   0.170  1.00  0.00    -0.000 C 
BRANCH  24  25
ATOM     25  C   UNL     1      30.938 -10.207  -0.199  1.00  0.00    -0.003 C 
ATOM     26  C   UNL     1      31.120  -9.998  -1.700  1.00  0.00     0.004 C 
ENDBRANCH  24  25
ENDBRANCH  23  24
ENDBRANCH  22  23
ENDBRANCH  21  22
ENDBRANCH  20  21
ENDBRANCH  19  20
ENDBRANCH  18  19
ENDBRANCH  17  18
ENDBRANCH  16  17
ENDBRANCH  15  16
ENDBRANCH   1  15
TORSDOF 22
ENDMDL
MODEL 4
REMARK VINA RESULT:    -2.224      1.097      2.369
REMARK INTER + INTRA:          -7.611
REMARK INTER:                  -6.235
REMARK INTRA:                  -1.376
REMARK UNBOUND:                -2.527
REMARK SMILES CCCCCCCCCCCCCCCCCCCCCCCC(=O)[O-]
REMARK SMILES IDX 13 1 14 2 15 3 16 4 17 5 18 6 19 7 20 8 21 9 22 10 23 11
REMARK SMILES IDX 24 12 25 13 26 14 12 15 11 16 10 17 9 18 8 19 7 20 6 21 5 22
REMARK SMILES IDX 4 23 3 24 2 25 1 26
REMARK H PARENT
REMARK Flexibility Score: inf
ROOT
ATOM      1  C   UNL     1      24.897 -12.735  -1.644  1.00  0.00     0.000 C 
ENDROOT
BRANCH   1   2
ATOM      2  C   UNL     1      24.445 -13.830  -2.635  1.00  0.00     0.000 C 
BRANCH   2   3
ATOM      3  C   UNL     1      23.784 -15.047  -1.957  1.00  0.00     0.000 C 
BRANCH   3   4
ATOM      4  C   UNL     1      23.451 -16.215  -2.904  1.00  0.00     0.000 C 
BRANCH   4   5
ATOM      5  C   UNL     1      24.486 -16.470  -4.019  1.00  0.00     0.000 C 
BRANCH   5   6
ATOM      6  C   UNL     1      25.825 -17.060  -3.541  1.00  0.00     0.000 C 
BRANCH   6   7
ATOM      7  C   UNL     1      26.956 -16.017  -3.505  1.00  0.00     0.000 C 
BRANCH   7   8
ATOM      8  C   UNL     1      28.242 -16.569  -2.869  1.00  0.00     0.000 C 
BRANCH   8   9
ATOM      9  C   UNL     1      29.454 -16.458  -3.811  1.00  0.00     0.000 C 
BRANCH   9  10
ATOM     10  C   UNL     1      30.731 -17.049  -3.191  1.00  0.00     0.006 C 
BRANCH  10  11
ATOM     11  C   UNL     1      30.802 -16.822  -1.676  1.00  0.00     0.053 C 
BRANCH  11  12
ATOM     12  C   UNL     1      30.746 -18.126  -0.944  1.00  0.00     0.041 C 
ATOM     13  O   UNL     1      30.622 -19.204  -1.582  1.00  0.00    -0.550 OA
ATOM     14  O   UNL     1      30.803 -18.149   0.445  1.00  0.00    -0.550 OA
ENDBRANCH  11  12
ENDBRANCH  10  11
ENDBRANCH   9  10
ENDBRANCH   8   9
ENDBRANCH   7   8
ENDBRANCH   6   7
ENDBRANCH   5   6
ENDBRANCH   4   5
ENDBRANCH   3   4
ENDBRANCH   2   3
ENDBRANCH   1   2
BRANCH   1  15
ATOM     15  C   UNL     1      25.553 -13.315  -0.378  1.00  0.00     0.000 C 
BRANCH  15  16
ATOM     16  C   UNL     1      26.711 -14.281  -0.712  1.00  0.00     0.000 C 
BRANCH  16  17
ATOM     17  C   UNL     1      28.109 -13.656  -0.547  1.00  0.00     0.000 C 
BRANCH  17  18
ATOM     18  C   UNL     1      28.751 -13.144  -1.848  1.00  0.00    -0.000 C 
BRANCH  18  19
ATOM     19  C   UNL     1      30.255 -13.456  -1.934  1.00  0.00    -0.000 C 
BRANCH  19  20
ATOM     20  C   UNL     1      31.123 -12.421  -1.195  1.00  0.00    -0.000 C 
BRANCH  20  21
ATOM     21  C   UNL     1      30.337 -11.353  -0.411  1.00  0.00    -0.000 C 
BRANCH  21  22
ATOM     22  C   UNL     1      31.125 -10.787   0.783  1.00  0.00    -0.000 C 
BRANCH  22  23
ATOM     23  C   UNL     1      30.252 -10.604   2.034  1.00  0.00    -0.000 C 
BRANCH  23  24
ATOM     24  C   UNL     1      30.075 -11.910   2.824  1.00  0.00    -0.000 C 
BRANCH  24  25
ATOM     25  C   UNL     1      29.223 -12.914   2.040  1.00  0.00    -0.003 C 
ATOM     26  C   UNL     1      29.189 -14.272   2.736  1.00  0.00     0.004 C 
ENDBRANCH  24  25
ENDBRANCH  23  24
ENDBRANCH  22  23
ENDBRANCH  21  22
ENDBRANCH  20  21
ENDBRANCH  19  20
ENDBRANCH  18  19
ENDBRANCH  17  18
ENDBRANCH  16  17
ENDBRANCH  15  16
ENDBRANCH   1  15
TORSDOF 22
ENDMDL
MODEL 5
REMARK VINA RESULT:    -2.087      2.251      6.362
REMARK INTER + INTRA:          -7.298
REMARK INTER:                  -5.259
REMARK INTRA:                  -2.039
REMARK UNBOUND:                -2.527
REMARK SMILES CCCCCCCCCCCCCCCCCCCCCCCC(=O)[O-]
REMARK SMILES IDX 13 1 14 2 15 3 16 4 17 5 18 6 19 7 20 8 21 9 22 10 23 11
REMARK SMILES IDX 24 12 25 13 26 14 12 15 11 16 10 17 9 18 8 19 7 20 6 21 5 22
REMARK SMILES IDX 4 23 3 24 2 25 1 26
REMARK H PARENT
REMARK Flexibility Score: inf
ROOT
ATOM      1  C   UNL     1      29.281 -17.182  -1.228  1.00  0.00     0.000 C 
ENDROOT
BRANCH   1   2
ATOM      2  C   UNL     1      30.342 -17.835  -2.142  1.00  0.00     0.000 C 
BRANCH   2   3
ATOM      3  C   UNL     1      31.121 -16.826  -3.009  1.00  0.00     0.000 C 
BRANCH   3   4
ATOM      4  C   UNL     1      30.288 -16.134  -4.104  1.00  0.00     0.000 C 
BRANCH   4   5
ATOM      5  C   UNL     1      30.383 -14.594  -4.125  1.00  0.00     0.000 C 
BRANCH   5   6
ATOM      6  C   UNL     1      31.083 -13.970  -2.905  1.00  0.00     0.000 C 
BRANCH   6   7
ATOM      7  C   UNL     1      31.125 -12.432  -2.966  1.00  0.00     0.000 C 
BRANCH   7   8
ATOM      8  C   UNL     1      30.339 -11.779  -1.817  1.00  0.00     0.000 C 
BRANCH   8   9
ATOM      9  C   UNL     1      30.400 -12.609  -0.522  1.00  0.00     0.000 C 
BRANCH   9  10
ATOM     10  C   UNL     1      29.018 -12.775   0.131  1.00  0.00     0.006 C 
BRANCH  10  11
ATOM     11  C   UNL     1      29.114 -13.280   1.576  1.00  0.00     0.053 C 
BRANCH  11  12
ATOM     12  C   UNL     1      29.793 -12.267   2.444  1.00  0.00     0.041 C 
ATOM     13  O   UNL     1      29.758 -11.046   2.137  1.00  0.00    -0.550 OA
ATOM     14  O   UNL     1      30.488 -12.673   3.577  1.00  0.00    -0.550 OA
ENDBRANCH  11  12
ENDBRANCH  10  11
ENDBRANCH   9  10
ENDBRANCH   8   9
ENDBRANCH   7   8
ENDBRANCH   6   7
ENDBRANCH   5   6
ENDBRANCH   4   5
ENDBRANCH   3   4
ENDBRANCH   2   3
ENDBRANCH   1   2
BRANCH   1  15
ATOM     15  C   UNL     1      27.979 -16.847  -1.976  1.00  0.00     0.000 C 
BRANCH  15  16
ATOM     16  C   UNL     1      27.504 -15.404  -1.700  1.00  0.00     0.000 C 
BRANCH  16  17
ATOM     17  C   UNL     1      26.683 -14.789  -2.850  1.00  0.00     0.000 C 
BRANCH  17  18
ATOM     18  C   UNL     1      26.597 -15.651  -4.121  1.00  0.00    -0.000 C 
BRANCH  18  19
ATOM     19  C   UNL     1      25.767 -16.930  -3.920  1.00  0.00    -0.000 C 
BRANCH  19  20
ATOM     20  C   UNL     1      24.252 -16.680  -4.022  1.00  0.00    -0.000 C 
BRANCH  20  21
ATOM     21  C   UNL     1      23.485 -16.776  -2.689  1.00  0.00    -0.000 C 
BRANCH  21  22
ATOM     22  C   UNL     1      23.048 -15.403  -2.150  1.00  0.00    -0.000 C 
BRANCH  22  23
ATOM     23  C   UNL     1      23.277 -14.270  -3.163  1.00  0.00    -0.000 C 
BRANCH  23  24
ATOM     24  C   UNL     1      24.128 -13.128  -2.586  1.00  0.00    -0.000 C 
BRANCH  24  25
ATOM     25  C   UNL     1      23.953 -13.025  -1.067  1.00  0.00    -0.003 C 
ATOM     26  C   UNL     1      25.299 -13.089  -0.350  1.00  0.00     0.004 C 
ENDBRANCH  24  25
ENDBRANCH  23  24
ENDBRANCH  22  23
ENDBRANCH  21  22
ENDBRANCH  20  21
ENDBRANCH  19  20
ENDBRANCH  18  19
ENDBRANCH  17  18
ENDBRANCH  16  17
ENDBRANCH  15  16
ENDBRANCH   1  15
TORSDOF 22
ENDMDL
MODEL 6
REMARK VINA RESULT:    -1.965      2.171      5.862
REMARK INTER + INTRA:          -7.019
REMARK INTER:                  -4.209
REMARK INTRA:                  -2.810
REMARK UNBOUND:                -2.527
REMARK SMILES CCCCCCCCCCCCCCCCCCCCCCCC(=O)[O-]
REMARK SMILES IDX 13 1 14 2 15 3 16 4 17 5 18 6 19 7 20 8 21 9 22 10 23 11
REMARK SMILES IDX 24 12 25 13 26 14 12 15 11 16 10 17 9 18 8 19 7 20 6 21 5 22
REMARK SMILES IDX 4 23 3 24 2 25 1 26
REMARK H PARENT
REMARK Flexibility Score: inf
ROOT
ATOM      1  C   UNL     1      24.223 -13.227  -1.589  1.00  0.00     0.000 C 
ENDROOT
BRANCH   1   2
ATOM      2  C   UNL     1      25.353 -12.872  -0.599  1.00  0.00     0.000 C 
BRANCH   2   3
ATOM      3  C   UNL     1      26.460 -13.941  -0.510  1.00  0.00     0.000 C 
BRANCH   3   4
ATOM      4  C   UNL     1      27.390 -13.811   0.711  1.00  0.00     0.000 C 
BRANCH   4   5
ATOM      5  C   UNL     1      28.612 -14.753   0.707  1.00  0.00     0.000 C 
BRANCH   5   6
ATOM      6  C   UNL     1      29.733 -14.369   1.689  1.00  0.00     0.000 C 
BRANCH   6   7
ATOM      7  C   UNL     1      29.387 -13.128   2.530  1.00  0.00     0.000 C 
BRANCH   7   8
ATOM      8  C   UNL     1      30.565 -12.144   2.633  1.00  0.00     0.000 C 
BRANCH   8   9
ATOM      9  C   UNL     1      30.335 -10.870   1.800  1.00  0.00     0.000 C 
BRANCH   9  10
ATOM     10  C   UNL     1      31.103 -10.897   0.468  1.00  0.00     0.006 C 
BRANCH  10  11
ATOM     11  C   UNL     1      30.290 -11.549  -0.658  1.00  0.00     0.053 C 
BRANCH  11  12
ATOM     12  C   UNL     1      30.810 -11.126  -1.996  1.00  0.00     0.041 C 
ATOM     13  O   UNL     1      30.941  -9.903  -2.266  1.00  0.00    -0.550 OA
ATOM     14  O   UNL     1      31.125 -12.082  -2.956  1.00  0.00    -0.550 OA
ENDBRANCH  11  12
ENDBRANCH  10  11
ENDBRANCH   9  10
ENDBRANCH   8   9
ENDBRANCH   7   8
ENDBRANCH   6   7
ENDBRANCH   5   6
ENDBRANCH   4   5
ENDBRANCH   3   4
ENDBRANCH   2   3
ENDBRANCH   1   2
BRANCH   1  15
ATOM     15  C   UNL     1      23.569 -14.586  -1.281  1.00  0.00     0.000 C 
BRANCH  15  16
ATOM     16  C   UNL     1      23.238 -15.378  -2.564  1.00  0.00     0.000 C 
BRANCH  16  17
ATOM     17  C   UNL     1      23.850 -14.773  -3.842  1.00  0.00     0.000 C 
BRANCH  17  18
ATOM     18  C   UNL     1      25.370 -14.962  -3.988  1.00  0.00    -0.000 C 
BRANCH  18  19
ATOM     19  C   UNL     1      25.834 -16.380  -3.614  1.00  0.00    -0.000 C 
BRANCH  19  20
ATOM     20  C   UNL     1      27.351 -16.467  -3.369  1.00  0.00    -0.000 C 
BRANCH  20  21
ATOM     21  C   UNL     1      28.143 -15.196  -3.731  1.00  0.00    -0.000 C 
BRANCH  21  22
ATOM     22  C   UNL     1      29.662 -15.368  -3.559  1.00  0.00    -0.000 C 
BRANCH  22  23
ATOM     23  C   UNL     1      30.109 -15.248  -2.094  1.00  0.00    -0.000 C 
BRANCH  23  24
ATOM     24  C   UNL     1      31.125 -16.331  -1.698  1.00  0.00    -0.000 C 
BRANCH  24  25
ATOM     25  C   UNL     1      30.531 -17.287  -0.658  1.00  0.00    -0.003 C 
ATOM     26  C   UNL     1      30.171 -18.631  -1.284  1.00  0.00     0.004 C 
ENDBRANCH  24  25
ENDBRANCH  23  24
ENDBRANCH  22  23
ENDBRANCH  21  22
ENDBRANCH  20  21
ENDBRANCH  19  20
ENDBRANCH  18  19
ENDBRANCH  17  18
ENDBRANCH  16  17
ENDBRANCH  15  16
ENDBRANCH   1  15
TORSDOF 22
ENDMDL
MODEL 7
REMARK VINA RESULT:    -1.951      2.423      4.371
REMARK INTER + INTRA:          -6.986
REMARK INTER:                  -3.918
REMARK INTRA:                  -3.068
REMARK UNBOUND:                -2.527
REMARK SMILES CCCCCCCCCCCCCCCCCCCCCCCC(=O)[O-]
REMARK SMILES IDX 13 1 14 2 15 3 16 4 17 5 18 6 19 7 20 8 21 9 22 10 23 11
REMARK SMILES IDX 24 12 25 13 26 14 12 15 11 16 10 17 9 18 8 19 7 20 6 21 5 22
REMARK SMILES IDX 4 23 3 24 2 25 1 26
REMARK H PARENT
REMARK Flexibility Score: inf
ROOT
ATOM      1  C   UNL     1      24.949 -14.404  -4.079  1.00  0.00     0.000 C 
ENDROOT
BRANCH   1   2
ATOM      2  C   UNL     1      25.088 -15.839  -3.524  1.00  0.00     0.000 C 
BRANCH   2   3
ATOM      3  C   UNL     1      26.406 -16.534  -3.923  1.00  0.00     0.000 C 
BRANCH   3   4
ATOM      4  C   UNL     1      27.635 -16.118  -3.092  1.00  0.00     0.000 C 
BRANCH   4   5
ATOM      5  C   UNL     1      28.802 -15.519  -3.904  1.00  0.00     0.000 C 
BRANCH   5   6
ATOM      6  C   UNL     1      28.728 -13.998  -4.124  1.00  0.00     0.000 C 
BRANCH   6   7
ATOM      7  C   UNL     1      30.000 -13.267  -3.657  1.00  0.00     0.000 C 
BRANCH   7   8
ATOM      8  C   UNL     1      31.019 -14.220  -3.010  1.00  0.00     0.000 C 
BRANCH   8   9
ATOM      9  C   UNL     1      31.106 -14.034  -1.485  1.00  0.00     0.000 C 
BRANCH   9  10
ATOM     10  C   UNL     1      31.075 -12.553  -1.075  1.00  0.00     0.006 C 
BRANCH  10  11
ATOM     11  C   UNL     1      31.045 -12.371   0.449  1.00  0.00     0.053 C 
BRANCH  11  12
ATOM     12  C   UNL     1      30.628 -10.980   0.805  1.00  0.00     0.041 C 
ATOM     13  O   UNL     1      30.004 -10.761   1.877  1.00  0.00    -0.550 OA
ATOM     14  O   UNL     1      30.903  -9.926  -0.060  1.00  0.00    -0.550 OA
ENDBRANCH  11  12
ENDBRANCH  10  11
ENDBRANCH   9  10
ENDBRANCH   8   9
ENDBRANCH   7   8
ENDBRANCH   6   7
ENDBRANCH   5   6
ENDBRANCH   4   5
ENDBRANCH   3   4
ENDBRANCH   2   3
ENDBRANCH   1   2
BRANCH   1  15
ATOM     15  C   UNL     1      24.038 -13.519  -3.211  1.00  0.00     0.000 C 
BRANCH  15  16
ATOM     16  C   UNL     1      23.501 -14.271  -1.974  1.00  0.00     0.000 C 
BRANCH  16  17
ATOM     17  C   UNL     1      24.521 -14.382  -0.824  1.00  0.00     0.000 C 
BRANCH  17  18
ATOM     18  C   UNL     1      25.034 -13.039  -0.278  1.00  0.00    -0.000 C 
BRANCH  18  19
ATOM     19  C   UNL     1      26.393 -12.633  -0.874  1.00  0.00    -0.000 C 
BRANCH  19  20
ATOM     20  C   UNL     1      27.526 -13.604  -0.494  1.00  0.00    -0.000 C 
BRANCH  20  21
ATOM     21  C   UNL     1      27.404 -14.229   0.908  1.00  0.00    -0.000 C 
BRANCH  21  22
ATOM     22  C   UNL     1      28.695 -14.930   1.365  1.00  0.00    -0.000 C 
BRANCH  22  23
ATOM     23  C   UNL     1      29.300 -15.824   0.272  1.00  0.00    -0.000 C 
BRANCH  23  24
ATOM     24  C   UNL     1      30.597 -16.513   0.727  1.00  0.00    -0.000 C 
BRANCH  24  25
ATOM     25  C   UNL     1      31.099 -17.495  -0.338  1.00  0.00    -0.003 C 
ATOM     26  C   UNL     1      29.949 -18.023  -1.190  1.00  0.00     0.004 C 
ENDBRANCH  24  25
ENDBRANCH  23  24
ENDBRANCH  22  23
ENDBRANCH  21  22
ENDBRANCH  20  21
ENDBRANCH  19  20
ENDBRANCH  18  19
ENDBRANCH  17  18
ENDBRANCH  16  17
ENDBRANCH  15  16
ENDBRANCH   1  15
TORSDOF 22
ENDMDL
MODEL 8
REMARK VINA RESULT:    -1.927      1.282      6.082
REMARK INTER + INTRA:          -6.933
REMARK INTER:                  -4.972
REMARK INTRA:                  -1.961
REMARK UNBOUND:                -2.527
REMARK SMILES CCCCCCCCCCCCCCCCCCCCCCCC(=O)[O-]
REMARK SMILES IDX 13 1 14 2 15 3 16 4 17 5 18 6 19 7 20 8 21 9 22 10 23 11
REMARK SMILES IDX 24 12 25 13 26 14 12 15 11 16 10 17 9 18 8 19 7 20 6 21 5 22
REMARK SMILES IDX 4 23 3 24 2 25 1 26
REMARK H PARENT
REMARK Flexibility Score: inf
ROOT
ATOM      1  C   UNL     1      30.843 -13.072   1.764  1.00  0.00     0.000 C 
ENDROOT
BRANCH   1   2
ATOM      2  C   UNL     1      30.240 -11.780   1.171  1.00  0.00     0.000 C 
BRANCH   2   3
ATOM      3  C   UNL     1      31.024 -11.225  -0.035  1.00  0.00     0.000 C 
BRANCH   3   4
ATOM      4  C   UNL     1      30.286 -11.314  -1.384  1.00  0.00     0.000 C 
BRANCH   4   5
ATOM      5  C   UNL     1      30.744 -12.462  -2.307  1.00  0.00     0.000 C 
BRANCH   5   6
ATOM      6  C   UNL     1      29.635 -13.079  -3.178  1.00  0.00     0.000 C 
BRANCH   6   7
ATOM      7  C   UNL     1      30.126 -14.281  -4.004  1.00  0.00     0.000 C 
BRANCH   7   8
ATOM      8  C   UNL     1      31.107 -15.168  -3.220  1.00  0.00     0.000 C 
BRANCH   8   9
ATOM      9  C   UNL     1      30.726 -16.658  -3.286  1.00  0.00     0.000 C 
BRANCH   9  10
ATOM     10  C   UNL     1      29.661 -17.035  -2.242  1.00  0.00     0.006 C 
BRANCH  10  11
ATOM     11  C   UNL     1      30.282 -17.517  -0.925  1.00  0.00     0.053 C 
BRANCH  11  12
ATOM     12  C   UNL     1      30.450 -19.004  -0.934  1.00  0.00     0.041 C 
ATOM     13  O   UNL     1      30.579 -19.619  -2.025  1.00  0.00    -0.550 OA
ATOM     14  O   UNL     1      30.435 -19.715   0.261  1.00  0.00    -0.550 OA
ENDBRANCH  11  12
ENDBRANCH  10  11
ENDBRANCH   9  10
ENDBRANCH   8   9
ENDBRANCH   7   8
ENDBRANCH   6   7
ENDBRANCH   5   6
ENDBRANCH   4   5
ENDBRANCH   3   4
ENDBRANCH   2   3
ENDBRANCH   1   2
BRANCH   1  15
ATOM     15  C   UNL     1      31.044 -14.173   0.707  1.00  0.00     0.000 C 
BRANCH  15  16
ATOM     16  C   UNL     1      29.712 -14.609   0.061  1.00  0.00     0.000 C 
BRANCH  16  17
ATOM     17  C   UNL     1      28.536 -14.691   1.053  1.00  0.00     0.000 C 
BRANCH  17  18
ATOM     18  C   UNL     1      27.376 -13.722   0.767  1.00  0.00    -0.000 C 
BRANCH  18  19
ATOM     19  C   UNL     1      26.956 -13.714  -0.713  1.00  0.00    -0.000 C 
BRANCH  19  20
ATOM     20  C   UNL     1      25.433 -13.591  -0.900  1.00  0.00    -0.000 C 
BRANCH  20  21
ATOM     21  C   UNL     1      24.960 -13.528  -2.365  1.00  0.00    -0.000 C 
BRANCH  21  22
ATOM     22  C   UNL     1      23.511 -14.011  -2.547  1.00  0.00    -0.000 C 
BRANCH  22  23
ATOM     23  C   UNL     1      23.154 -15.177  -1.612  1.00  0.00    -0.000 C 
BRANCH  23  24
ATOM     24  C   UNL     1      23.311 -16.546  -2.291  1.00  0.00    -0.000 C 
BRANCH  24  25
ATOM     25  C   UNL     1      23.673 -16.386  -3.772  1.00  0.00    -0.003 C 
ATOM     26  C   UNL     1      25.109 -16.828  -4.041  1.00  0.00     0.004 C 
ENDBRANCH  24  25
ENDBRANCH  23  24
ENDBRANCH  22  23
ENDBRANCH  21  22
ENDBRANCH  20  21
ENDBRANCH  19  20
ENDBRANCH  18  19
ENDBRANCH  17  18
ENDBRANCH  16  17
ENDBRANCH  15  16
ENDBRANCH   1  15
TORSDOF 22
ENDMDL
