MODEL 1
REMARK VINA RESULT:    -4.513      0.000      0.000
REMARK INTER + INTRA:          -8.485
REMARK INTER:                  -7.152
REMARK INTRA:                  -1.333
REMARK UNBOUND:                -1.333
REMARK SMILES CCCCCCCCCCCC(=O)[O-]
REMARK SMILES IDX 7 1 8 2 9 3 10 4 11 5 12 6 13 7 14 8 6 9 5 10 4 11 3 12 2 13
REMARK SMILES IDX 1 14
REMARK H PARENT
REMARK Flexibility Score: inf
ROOT
ATOM      1  C   UNL     1       8.148  12.241   8.010  1.00  0.00     0.000 C 
ENDROOT
BRANCH   1   2
ATOM      2  C   UNL     1       6.948  12.322   8.962  1.00  0.00     0.000 C 
BRANCH   2   3
ATOM      3  C   UNL     1       5.664  12.678   8.199  1.00  0.00     0.000 C 
BRANCH   3   4
ATOM      4  C   UNL     1       4.391  12.315   8.979  1.00  0.00     0.006 C 
BRANCH   4   5
ATOM      5  C   UNL     1       4.335  10.830   9.360  1.00  0.00     0.053 C 
BRANCH   5   6
ATOM      6  C   UNL     1       4.050   9.992   8.153  1.00  0.00     0.041 C 
ATOM      7  O   UNL     1       4.753   8.977   7.907  1.00  0.00    -0.550 OA
ATOM      8  O   UNL     1       3.040  10.361   7.274  1.00  0.00    -0.550 OA
ENDBRANCH   5   6
ENDBRANCH   4   5
ENDBRANCH   3   4
ENDBRANCH   2   3
ENDBRANCH   1   2
BRANCH   1   9
ATOM      9  C   UNL     1       8.249  10.854   7.366  1.00  0.00     0.000 C 
BRANCH   9  10
ATOM     10  C   UNL     1       9.026  10.914   6.045  1.00  0.00    -0.000 C 
BRANCH  10  11
ATOM     11  C   UNL     1       8.761  12.237   5.312  1.00  0.00    -0.000 C 
BRANCH  11  12
ATOM     12  C   UNL     1       7.762  12.083   4.153  1.00  0.00    -0.000 C 
BRANCH  12  13
ATOM     13  C   UNL     1       6.317  12.390   4.573  1.00  0.00    -0.003 C 
ATOM     14  C   UNL     1       5.528  11.105   4.804  1.00  0.00     0.004 C 
ENDBRANCH  12  13
ENDBRANCH  11  12
ENDBRANCH  10  11
ENDBRANCH   9  10
ENDBRANCH   1   9
TORSDOF 10
ENDMDL
MODEL 2
REMARK VINA RESULT:    -4.394      3.149      5.930
REMARK INTER + INTRA:          -8.296
REMARK INTER:                  -7.475
REMARK INTRA:                  -0.822
REMARK UNBOUND:                -1.333
REMARK SMILES CCCCCCCCCCCC(=O)[O-]
REMARK SMILES IDX 7 1 8 2 9 3 10 4 11 5 12 6 13 7 14 8 6 9 5 10 4 11 3 12 2 13
REMARK SMILES IDX 1 14
REMARK H PARENT
REMARK Flexibility Score: inf
ROOT
ATOM      1  C   UNL     1       3.410  10.249   7.138  1.00  0.00     0.000 C 
ENDROOT
BRANCH   1   2
ATOM      2  C   UNL     1       4.525  10.501   6.116  1.00  0.00     0.000 C 
BRANCH   2   3
ATOM      3  C   UNL     1       5.796  11.020   6.805  1.00  0.00     0.000 C 
BRANCH   3   4
ATOM      4  C   UNL     1       6.329  12.313   6.169  1.00  0.00     0.006 C 
BRANCH   4   5
ATOM      5  C   UNL     1       6.603  12.164   4.668  1.00  0.00     0.053 C 
BRANCH   5   6
ATOM      6  C   UNL     1       8.075  12.092   4.410  1.00  0.00     0.041 C 
ATOM      7  O   UNL     1       8.883  12.018   5.372  1.00  0.00    -0.550 OA
ATOM      8  O   UNL     1       8.556  12.157   3.109  1.00  0.00    -0.550 OA
ENDBRANCH   5   6
ENDBRANCH   4   5
ENDBRANCH   3   4
ENDBRANCH   2   3
ENDBRANCH   1   2
BRANCH   1   9
ATOM      9  C   UNL     1       3.987  10.028   8.541  1.00  0.00     0.000 C 
BRANCH   9  10
ATOM     10  C   UNL     1       3.265  10.897   9.578  1.00  0.00    -0.000 C 
BRANCH  10  11
ATOM     11  C   UNL     1       3.302  12.378   9.175  1.00  0.00    -0.000 C 
BRANCH  11  12
ATOM     12  C   UNL     1       1.989  13.112   9.494  1.00  0.00    -0.000 C 
BRANCH  12  13
ATOM     13  C   UNL     1       0.750  12.231   9.274  1.00  0.00    -0.003 C 
ATOM     14  C   UNL     1      -0.482  13.080   8.978  1.00  0.00     0.004 C 
ENDBRANCH  12  13
ENDBRANCH  11  12
ENDBRANCH  10  11
ENDBRANCH   9  10
ENDBRANCH   1   9
TORSDOF 10
ENDMDL
MODEL 3
REMARK VINA RESULT:    -4.257      1.956      2.433
REMARK INTER + INTRA:          -8.080
REMARK INTER:                  -6.965
REMARK INTRA:                  -1.115
REMARK UNBOUND:                -1.333
REMARK SMILES CCCCCCCCCCCC(=O)[O-]
REMARK SMILES IDX 7 1 8 2 9 3 10 4 11 5 12 6 13 7 14 8 6 9 5 10 4 11 3 12 2 13
REMARK SMILES IDX 1 14
REMARK H PARENT
REMARK Flexibility Score: inf
ROOT
ATOM      1  C   UNL     1       6.500  13.038   8.246  1.00  0.00     0.000 C 
ENDROOT
BRANCH   1   2
ATOM      2  C   UNL     1       5.066  12.715   8.682  1.00  0.00     0.000 C 
BRANCH   2   3
ATOM      3  C   UNL     1       4.899  11.213   8.956  1.00  0.00     0.000 C 
BRANCH   3   4
ATOM      4  C   UNL     1       3.541  10.874   9.590  1.00  0.00     0.006 C 
BRANCH   4   5
ATOM      5  C   UNL     1       2.357  11.278   8.702  1.00  0.00     0.053 C 
BRANCH   5   6
ATOM      6  C   UNL     1       1.180  11.656   9.544  1.00  0.00     0.041 C 
ATOM      7  O   UNL     1       1.094  11.249  10.732  1.00  0.00    -0.550 OA
ATOM      8  O   UNL     1       0.153  12.417   9.000  1.00  0.00    -0.550 OA
ENDBRANCH   5   6
ENDBRANCH   4   5
ENDBRANCH   3   4
ENDBRANCH   2   3
ENDBRANCH   1   2
BRANCH   1   9
ATOM      9  C   UNL     1       7.423  11.830   8.446  1.00  0.00     0.000 C 
BRANCH   9  10
ATOM     10  C   UNL     1       8.483  11.756   7.340  1.00  0.00    -0.000 C 
BRANCH  10  11
ATOM     11  C   UNL     1       8.002  10.875   6.178  1.00  0.00    -0.000 C 
BRANCH  11  12
ATOM     12  C   UNL     1       7.765  11.676   4.887  1.00  0.00    -0.000 C 
BRANCH  12  13
ATOM     13  C   UNL     1       6.308  12.137   4.736  1.00  0.00    -0.003 C 
ATOM     14  C   UNL     1       5.338  11.036   5.152  1.00  0.00     0.004 C 
ENDBRANCH  12  13
ENDBRANCH  11  12
ENDBRANCH  10  11
ENDBRANCH   9  10
ENDBRANCH   1   9
TORSDOF 10
ENDMDL
MODEL 4
REMARK VINA RESULT:    -4.224      1.598      3.185
REMARK INTER + INTRA:          -8.026
REMARK INTER:                  -6.904
REMARK INTRA:                  -1.123
REMARK UNBOUND:                -1.333
REMARK SMILES CCCCCCCCCCCC(=O)[O-]
REMARK SMILES IDX 7 1 8 2 9 3 10 4 11 5 12 6 13 7 14 8 6 9 5 10 4 11 3 12 2 13
REMARK SMILES IDX 1 14
REMARK H PARENT
REMARK Flexibility Score: inf
ROOT
ATOM      1  C   UNL     1       6.042  11.264   4.916  1.00  0.00     0.000 C 
ENDROOT
BRANCH   1   2
ATOM      2  C   UNL     1       5.382  11.328   6.298  1.00  0.00     0.000 C 
BRANCH   2   3
ATOM      3  C   UNL     1       5.686  10.063   7.114  1.00  0.00     0.000 C 
BRANCH   3   4
ATOM      4  C   UNL     1       4.423   9.426   7.714  1.00  0.00     0.006 C 
BRANCH   4   5
ATOM      5  C   UNL     1       3.223  10.381   7.715  1.00  0.00     0.053 C 
BRANCH   5   6
ATOM      6  C   UNL     1       2.981  10.913   9.093  1.00  0.00     0.041 C 
ATOM      7  O   UNL     1       2.776  12.142   9.270  1.00  0.00    -0.550 OA
ATOM      8  O   UNL     1       3.030  10.058  10.186  1.00  0.00    -0.550 OA
ENDBRANCH   5   6
ENDBRANCH   4   5
ENDBRANCH   3   4
ENDBRANCH   2   3
ENDBRANCH   1   2
BRANCH   1   9
ATOM      9  C   UNL     1       6.699  12.601   4.555  1.00  0.00     0.000 C 
BRANCH   9  10
ATOM     10  C   UNL     1       8.059  12.383   3.880  1.00  0.00    -0.000 C 
BRANCH  10  11
ATOM     11  C   UNL     1       9.061  11.748   4.855  1.00  0.00    -0.000 C 
BRANCH  11  12
ATOM     12  C   UNL     1       9.226  12.563   6.149  1.00  0.00    -0.000 C 
BRANCH  12  13
ATOM     13  C   UNL     1       9.009  11.717   7.412  1.00  0.00    -0.003 C 
ATOM     14  C   UNL     1       8.303  12.523   8.498  1.00  0.00     0.004 C 
ENDBRANCH  12  13
ENDBRANCH  11  12
ENDBRANCH  10  11
ENDBRANCH   9  10
ENDBRANCH   1   9
TORSDOF 10
ENDMDL
MODEL 5
REMARK VINA RESULT:    -4.221      2.998      5.783
REMARK INTER + INTRA:          -8.023
REMARK INTER:                  -7.352
REMARK INTRA:                  -0.671
REMARK UNBOUND:                -1.333
REMARK SMILES CCCCCCCCCCCC(=O)[O-]
REMARK SMILES IDX 7 1 8 2 9 3 10 4 11 5 12 6 13 7 14 8 6 9 5 10 4 11 3 12 2 13
REMARK SMILES IDX 1 14
REMARK H PARENT
REMARK Flexibility Score: inf
ROOT
ATOM      1  C   UNL     1       5.712  10.986   6.833  1.00  0.00     0.000 C 
ENDROOT
BRANCH   1   2
ATOM      2  C   UNL     1       6.696  10.803   7.995  1.00  0.00     0.000 C 
BRANCH   2   3
ATOM      3  C   UNL     1       8.146  10.987   7.523  1.00  0.00     0.000 C 
BRANCH   3   4
ATOM      4  C   UNL     1       8.323  10.696   6.025  1.00  0.00     0.006 C 
BRANCH   4   5
ATOM      5  C   UNL     1       9.134  11.780   5.304  1.00  0.00     0.053 C 
BRANCH   5   6
ATOM      6  C   UNL     1       8.335  12.374   4.188  1.00  0.00     0.041 C 
ATOM      7  O   UNL     1       7.241  12.949   4.428  1.00  0.00    -0.550 OA
ATOM      8  O   UNL     1       8.774  12.251   2.876  1.00  0.00    -0.550 OA
ENDBRANCH   5   6
ENDBRANCH   4   5
ENDBRANCH   3   4
ENDBRANCH   2   3
ENDBRANCH   1   2
BRANCH   1   9
ATOM      9  C   UNL     1       4.337  10.402   7.177  1.00  0.00     0.000 C 
BRANCH   9  10
ATOM     10  C   UNL     1       4.396   9.574   8.467  1.00  0.00    -0.000 C 
BRANCH  10  11
ATOM     11  C   UNL     1       3.407  10.113   9.511  1.00  0.00    -0.000 C 
BRANCH  11  12
ATOM     12  C   UNL     1       2.459  11.178   8.935  1.00  0.00    -0.000 C 
BRANCH  12  13
ATOM     13  C   UNL     1       1.397  11.633   9.946  1.00  0.00    -0.003 C 
ATOM     14  C   UNL     1       0.350  12.520   9.279  1.00  0.00     0.004 C 
ENDBRANCH  12  13
ENDBRANCH  11  12
ENDBRANCH  10  11
ENDBRANCH   9  10
ENDBRANCH   1   9
TORSDOF 10
ENDMDL
MODEL 6
REMARK VINA RESULT:    -4.208      2.513      5.549
REMARK INTER + INTRA:          -8.001
REMARK INTER:                  -7.244
REMARK INTRA:                  -0.758
REMARK UNBOUND:                -1.333
REMARK SMILES CCCCCCCCCCCC(=O)[O-]
REMARK SMILES IDX 7 1 8 2 9 3 10 4 11 5 12 6 13 7 14 8 6 9 5 10 4 11 3 12 2 13
REMARK SMILES IDX 1 14
REMARK H PARENT
REMARK Flexibility Score: inf
ROOT
ATOM      1  C   UNL     1       4.898  10.888   5.321  1.00  0.00     0.000 C 
ENDROOT
BRANCH   1   2
ATOM      2  C   UNL     1       5.963  11.485   4.393  1.00  0.00     0.000 C 
BRANCH   2   3
ATOM      3  C   UNL     1       6.525  12.793   4.970  1.00  0.00     0.000 C 
BRANCH   3   4
ATOM      4  C   UNL     1       8.005  13.010   4.615  1.00  0.00     0.006 C 
BRANCH   4   5
ATOM      5  C   UNL     1       8.843  11.735   4.769  1.00  0.00     0.053 C 
BRANCH   5   6
ATOM      6  C   UNL     1       9.218  11.527   6.203  1.00  0.00     0.041 C 
ATOM      7  O   UNL     1       8.687  10.600   6.868  1.00  0.00    -0.550 OA
ATOM      8  O   UNL     1      10.117  12.389   6.817  1.00  0.00    -0.550 OA
ENDBRANCH   5   6
ENDBRANCH   4   5
ENDBRANCH   3   4
ENDBRANCH   2   3
ENDBRANCH   1   2
BRANCH   1   9
ATOM      9  C   UNL     1       5.284  11.070   6.793  1.00  0.00     0.000 C 
BRANCH   9  10
ATOM     10  C   UNL     1       5.002   9.797   7.599  1.00  0.00    -0.000 C 
BRANCH  10  11
ATOM     11  C   UNL     1       4.111  10.101   8.812  1.00  0.00    -0.000 C 
BRANCH  11  12
ATOM     12  C   UNL     1       2.806  10.815   8.425  1.00  0.00    -0.000 C 
BRANCH  12  13
ATOM     13  C   UNL     1       2.476  11.991   9.355  1.00  0.00    -0.003 C 
ATOM     14  C   UNL     1       1.073  11.853   9.938  1.00  0.00     0.004 C 
ENDBRANCH  12  13
ENDBRANCH  11  12
ENDBRANCH  10  11
ENDBRANCH   9  10
ENDBRANCH   1   9
TORSDOF 10
ENDMDL
MODEL 7
REMARK VINA RESULT:    -4.147      2.204      5.084
REMARK INTER + INTRA:          -7.905
REMARK INTER:                  -7.117
REMARK INTRA:                  -0.787
REMARK UNBOUND:                -1.333
REMARK SMILES CCCCCCCCCCCC(=O)[O-]
REMARK SMILES IDX 7 1 8 2 9 3 10 4 11 5 12 6 13 7 14 8 6 9 5 10 4 11 3 12 2 13
REMARK SMILES IDX 1 14
REMARK H PARENT
REMARK Flexibility Score: inf
ROOT
ATOM      1  C   UNL     1       6.294  12.034   8.880  1.00  0.00     0.000 C 
ENDROOT
BRANCH   1   2
ATOM      2  C   UNL     1       7.708  12.457   8.465  1.00  0.00     0.000 C 
BRANCH   2   3
ATOM      3  C   UNL     1       8.414  11.334   7.690  1.00  0.00     0.000 C 
BRANCH   3   4
ATOM      4  C   UNL     1       8.216  11.446   6.171  1.00  0.00     0.006 C 
BRANCH   4   5
ATOM      5  C   UNL     1       7.230  10.406   5.625  1.00  0.00     0.053 C 
BRANCH   5   6
ATOM      6  C   UNL     1       5.927  11.054   5.276  1.00  0.00     0.041 C 
ATOM      7  O   UNL     1       5.886  11.970   4.414  1.00  0.00    -0.550 OA
ATOM      8  O   UNL     1       4.766  10.679   5.939  1.00  0.00    -0.550 OA
ENDBRANCH   5   6
ENDBRANCH   4   5
ENDBRANCH   3   4
ENDBRANCH   2   3
ENDBRANCH   1   2
BRANCH   1   9
ATOM      9  C   UNL     1       5.254  13.067   8.430  1.00  0.00     0.000 C 
BRANCH   9  10
ATOM     10  C   UNL     1       3.934  12.889   9.189  1.00  0.00    -0.000 C 
BRANCH  10  11
ATOM     11  C   UNL     1       3.517  11.411   9.225  1.00  0.00    -0.000 C 
BRANCH  11  12
ATOM     12  C   UNL     1       2.032  11.207   8.880  1.00  0.00    -0.000 C 
BRANCH  12  13
ATOM     13  C   UNL     1       1.092  11.890   9.884  1.00  0.00    -0.003 C 
ATOM     14  C   UNL     1       0.138  12.848   9.178  1.00  0.00     0.004 C 
ENDBRANCH  12  13
ENDBRANCH  11  12
ENDBRANCH  10  11
ENDBRANCH   9  10
ENDBRANCH   1   9
TORSDOF 10
ENDMDL
MODEL 8
REMARK VINA RESULT:    -3.984      1.406      2.153
REMARK INTER + INTRA:          -7.646
REMARK INTER:                  -6.319
REMARK INTRA:                  -1.327
REMARK UNBOUND:                -1.333
REMARK SMILES CCCCCCCCCCCC(=O)[O-]
REMARK SMILES IDX 7 1 8 2 9 3 10 4 11 5 12 6 13 7 14 8 6 9 5 10 4 11 3 12 2 13
REMARK SMILES IDX 1 14
REMARK H PARENT
REMARK Flexibility Score: inf
ROOT
ATOM      1  C   UNL     1       6.745  12.131   8.633  1.00  0.00     0.000 C 
ENDROOT
BRANCH   1   2
ATOM      2  C   UNL     1       5.921  12.510   7.396  1.00  0.00     0.000 C 
BRANCH   2   3
ATOM      3  C   UNL     1       5.353  11.260   6.709  1.00  0.00     0.000 C 
BRANCH   3   4
ATOM      4  C   UNL     1       5.541   9.986   7.547  1.00  0.00     0.006 C 
BRANCH   4   5
ATOM      5  C   UNL     1       4.209   9.359   7.979  1.00  0.00     0.053 C 
BRANCH   5   6
ATOM      6  C   UNL     1       3.486  10.269   8.922  1.00  0.00     0.041 C 
ATOM      7  O   UNL     1       3.926  10.451  10.087  1.00  0.00    -0.550 OA
ATOM      8  O   UNL     1       2.301  10.876   8.529  1.00  0.00    -0.550 OA
ENDBRANCH   5   6
ENDBRANCH   4   5
ENDBRANCH   3   4
ENDBRANCH   2   3
ENDBRANCH   1   2
BRANCH   1   9
ATOM      9  C   UNL     1       8.210  12.551   8.469  1.00  0.00     0.000 C 
BRANCH   9  10
ATOM     10  C   UNL     1       8.969  11.568   7.570  1.00  0.00    -0.000 C 
BRANCH  10  11
ATOM     11  C   UNL     1      10.093  12.279   6.803  1.00  0.00    -0.000 C 
BRANCH  11  12
ATOM     12  C   UNL     1       9.984  12.091   5.281  1.00  0.00    -0.000 C 
BRANCH  12  13
ATOM     13  C   UNL     1       8.653  11.452   4.859  1.00  0.00    -0.003 C 
ATOM     14  C   UNL     1       7.766  12.460   4.134  1.00  0.00     0.004 C 
ENDBRANCH  12  13
ENDBRANCH  11  12
ENDBRANCH  10  11
ENDBRANCH   9  10
ENDBRANCH   1   9
TORSDOF 10
ENDMDL
MODEL 9
REMARK VINA RESULT:    -3.706      1.156      2.178
REMARK INTER + INTRA:          -7.207
REMARK INTER:                  -6.166
REMARK INTRA:                  -1.040
REMARK UNBOUND:                -1.333
REMARK SMILES CCCCCCCCCCCC(=O)[O-]
REMARK SMILES IDX 7 1 8 2 9 3 10 4 11 5 12 6 13 7 14 8 6 9 5 10 4 11 3 12 2 13
REMARK SMILES IDX 1 14
REMARK H PARENT
REMARK Flexibility Score: inf
ROOT
ATOM      1  C   UNL     1       9.123  11.454   6.810  1.00  0.00     0.000 C 
ENDROOT
BRANCH   1   2
ATOM      2  C   UNL     1       9.051  12.325   8.070  1.00  0.00     0.000 C 
BRANCH   2   3
ATOM      3  C   UNL     1       7.724  13.097   8.130  1.00  0.00     0.000 C 
BRANCH   3   4
ATOM      4  C   UNL     1       6.728  12.486   9.128  1.00  0.00     0.006 C 
BRANCH   4   5
ATOM      5  C   UNL     1       5.276  12.881   8.830  1.00  0.00     0.053 C 
BRANCH   5   6
ATOM      6  C   UNL     1       4.382  11.684   8.912  1.00  0.00     0.041 C 
ATOM      7  O   UNL     1       3.136  11.830   9.015  1.00  0.00    -0.550 OA
ATOM      8  O   UNL     1       4.930  10.408   8.925  1.00  0.00    -0.550 OA
ENDBRANCH   5   6
ENDBRANCH   4   5
ENDBRANCH   3   4
ENDBRANCH   2   3
ENDBRANCH   1   2
BRANCH   1   9
ATOM      9  C   UNL     1       9.857  12.181   5.678  1.00  0.00     0.000 C 
BRANCH   9  10
ATOM     10  C   UNL     1       8.870  12.916   4.763  1.00  0.00    -0.000 C 
BRANCH  10  11
ATOM     11  C   UNL     1       7.903  11.929   4.092  1.00  0.00    -0.000 C 
BRANCH  11  12
ATOM     12  C   UNL     1       6.439  12.167   4.497  1.00  0.00    -0.000 C 
BRANCH  12  13
ATOM     13  C   UNL     1       5.954  11.182   5.571  1.00  0.00    -0.003 C 
ATOM     14  C   UNL     1       4.512  10.755   5.313  1.00  0.00     0.004 C 
ENDBRANCH  12  13
ENDBRANCH  11  12
ENDBRANCH  10  11
ENDBRANCH   9  10
ENDBRANCH   1   9
TORSDOF 10
ENDMDL
