MODEL 1
REMARK VINA RESULT:    -4.216      0.000      0.000
REMARK INTER + INTRA:          -5.267
REMARK INTER:                  -5.079
REMARK INTRA:                  -0.188
REMARK UNBOUND:                -0.188
REMARK SMILES O=c1c(O)c(-c2ccc(O)c(O)c2)oc2cc(O)cc(O)c12
REMARK SMILES IDX 5 1 3 2 2 3 1 4 22 5 20 6 19 7 17 8 16 9 15 10 14 11 6 12
REMARK SMILES IDX 7 13 8 14 9 15 13 16 11 17 10 18 12 20 4 22 21 24 18 26
REMARK H PARENT 10 19 12 21 4 23 21 25 18 27
REMARK Flexibility Score: inf
ROOT
ATOM      1  C   UNL     1      14.399  10.591  -8.702  1.00  0.00     0.180 A 
ATOM      2  C   UNL     1      14.873   9.342  -8.263  1.00  0.00     0.208 A 
ATOM      3  C   UNL     1      13.980   8.261  -8.197  1.00  0.00     0.238 A 
ATOM      4  O   UNL     1      14.427   7.129  -7.875  1.00  0.00    -0.285 OA
ATOM      5  C   UNL     1      12.613   8.453  -8.515  1.00  0.00     0.111 A 
ATOM      6  C   UNL     1      11.611   7.438  -8.438  1.00  0.00     0.134 A 
ATOM      7  C   UNL     1      10.312   7.717  -8.880  1.00  0.00     0.093 A 
ATOM      8  C   UNL     1       9.962   8.989  -9.333  1.00  0.00     0.123 A 
ATOM      9  C   UNL     1      10.919  10.002  -9.360  1.00  0.00     0.094 A 
ATOM     10  C   UNL     1      12.234   9.745  -8.963  1.00  0.00     0.146 A 
ATOM     11  O   UNL     1      13.118  10.734  -9.024  1.00  0.00    -0.452 OA
ENDROOT
BRANCH   1  12
ATOM     12  C   UNL     1      15.281  11.774  -8.812  1.00  0.00     0.025 A 
ATOM     13  C   UNL     1      15.152  12.869  -7.939  1.00  0.00     0.016 A 
ATOM     14  C   UNL     1      16.012  13.963  -8.046  1.00  0.00     0.051 A 
ATOM     15  C   UNL     1      17.023  13.977  -9.017  1.00  0.00     0.157 A 
ATOM     16  C   UNL     1      16.309  11.783  -9.769  1.00  0.00     0.062 A 
ATOM     17  C   UNL     1      17.172  12.879  -9.881  1.00  0.00     0.158 A 
BRANCH  15  18
ATOM     18  O   UNL     1      17.879  15.072  -9.124  1.00  0.00    -0.504 OA
ATOM     19  H   UNL     1      18.114  15.641  -8.320  1.00  0.00     0.293 HD
ENDBRANCH  15  18
BRANCH  17  20
ATOM     20  O   UNL     1      18.172  12.858 -10.853  1.00  0.00    -0.504 OA
ATOM     21  H   UNL     1      18.723  12.029 -11.041  1.00  0.00     0.293 HD
ENDBRANCH  17  20
ENDBRANCH   1  12
BRANCH   2  22
ATOM     22  O   UNL     1      16.208   9.192  -7.882  1.00  0.00    -0.502 OA
ATOM     23  H   UNL     1      16.624   8.285  -7.704  1.00  0.00     0.293 HD
ENDBRANCH   2  22
BRANCH   6  24
ATOM     24  O   UNL     1      11.830   6.159  -7.919  1.00  0.00    -0.507 OA
ATOM     25  H   UNL     1      11.115   5.461  -7.780  1.00  0.00     0.293 HD
ENDBRANCH   6  24
BRANCH   8  26
ATOM     26  O   UNL     1       8.654   9.234  -9.747  1.00  0.00    -0.508 OA
ATOM     27  H   UNL     1       7.976   8.486  -9.834  1.00  0.00     0.293 HD
ENDBRANCH   8  26
TORSDOF 6
ENDMDL
MODEL 2
REMARK VINA RESULT:    -3.975     21.018     22.402
REMARK INTER + INTRA:          -4.977
REMARK INTER:                  -4.751
REMARK INTRA:                  -0.226
REMARK UNBOUND:                -0.188
REMARK SMILES O=c1c(O)c(-c2ccc(O)c(O)c2)oc2cc(O)cc(O)c12
REMARK SMILES IDX 5 1 3 2 2 3 1 4 22 5 20 6 19 7 17 8 16 9 15 10 14 11 6 12
REMARK SMILES IDX 7 13 8 14 9 15 13 16 11 17 10 18 12 20 4 22 21 24 18 26
REMARK H PARENT 10 19 12 21 4 23 21 25 18 27
REMARK Flexibility Score: inf
ROOT
ATOM      1  C   UNL     1       6.982  -1.535 -26.112  1.00  0.00     0.180 A 
ATOM      2  C   UNL     1       8.112  -1.894 -26.867  1.00  0.00     0.208 A 
ATOM      3  C   UNL     1       9.015  -2.830 -26.337  1.00  0.00     0.238 A 
ATOM      4  O   UNL     1       9.983  -3.202 -27.050  1.00  0.00    -0.285 OA
ATOM      5  C   UNL     1       8.809  -3.351 -25.037  1.00  0.00     0.111 A 
ATOM      6  C   UNL     1       9.685  -4.271 -24.383  1.00  0.00     0.134 A 
ATOM      7  C   UNL     1       9.323  -4.801 -23.138  1.00  0.00     0.093 A 
ATOM      8  C   UNL     1       8.154  -4.398 -22.495  1.00  0.00     0.123 A 
ATOM      9  C   UNL     1       7.318  -3.460 -23.100  1.00  0.00     0.094 A 
ATOM     10  C   UNL     1       7.632  -2.941 -24.359  1.00  0.00     0.146 A 
ATOM     11  O   UNL     1       6.798  -2.065 -24.908  1.00  0.00    -0.452 OA
ENDROOT
BRANCH   1  12
ATOM     12  C   UNL     1       5.978  -0.567 -26.608  1.00  0.00     0.025 A 
ATOM     13  C   UNL     1       5.127  -0.880 -27.682  1.00  0.00     0.016 A 
ATOM     14  C   UNL     1       4.170   0.040 -28.116  1.00  0.00     0.051 A 
ATOM     15  C   UNL     1       4.039   1.280 -27.477  1.00  0.00     0.157 A 
ATOM     16  C   UNL     1       5.828   0.669 -25.956  1.00  0.00     0.062 A 
ATOM     17  C   UNL     1       4.871   1.593 -26.389  1.00  0.00     0.158 A 
BRANCH  15  18
ATOM     18  O   UNL     1       3.084   2.198 -27.914  1.00  0.00    -0.504 OA
ATOM     19  H   UNL     1       2.171   2.260 -27.479  1.00  0.00     0.293 HD
ENDBRANCH  15  18
BRANCH  17  20
ATOM     20  O   UNL     1       4.761   2.815 -25.726  1.00  0.00    -0.504 OA
ATOM     21  H   UNL     1       3.898   3.115 -25.289  1.00  0.00     0.293 HD
ENDBRANCH  17  20
ENDBRANCH   1  12
BRANCH   2  22
ATOM     22  O   UNL     1       8.337  -1.310 -28.116  1.00  0.00    -0.502 OA
ATOM     23  H   UNL     1       9.247  -0.967 -28.399  1.00  0.00     0.293 HD
ENDBRANCH   2  22
BRANCH   6  24
ATOM     24  O   UNL     1      10.922  -4.674 -24.895  1.00  0.00    -0.507 OA
ATOM     25  H   UNL     1      11.049  -5.274 -25.695  1.00  0.00     0.293 HD
ENDBRANCH   6  24
BRANCH   8  26
ATOM     26  O   UNL     1       7.835  -4.934 -21.249  1.00  0.00    -0.508 OA
ATOM     27  H   UNL     1       6.873  -5.056 -20.955  1.00  0.00     0.293 HD
ENDBRANCH   8  26
TORSDOF 6
ENDMDL
MODEL 3
REMARK VINA RESULT:    -3.494     21.391     22.504
REMARK INTER + INTRA:          -4.397
REMARK INTER:                  -4.277
REMARK INTRA:                  -0.121
REMARK UNBOUND:                -0.188
REMARK SMILES O=c1c(O)c(-c2ccc(O)c(O)c2)oc2cc(O)cc(O)c12
REMARK SMILES IDX 5 1 3 2 2 3 1 4 22 5 20 6 19 7 17 8 16 9 15 10 14 11 6 12
REMARK SMILES IDX 7 13 8 14 9 15 13 16 11 17 10 18 12 20 4 22 21 24 18 26
REMARK H PARENT 10 19 12 21 4 23 21 25 18 27
REMARK Flexibility Score: inf
ROOT
ATOM      1  C   UNL     1       6.685  -1.975 -25.458  1.00  0.00     0.180 A 
ATOM      2  C   UNL     1       6.402  -2.582 -24.222  1.00  0.00     0.208 A 
ATOM      3  C   UNL     1       7.398  -3.347 -23.596  1.00  0.00     0.238 A 
ATOM      4  O   UNL     1       7.163  -3.825 -22.456  1.00  0.00    -0.285 OA
ATOM      5  C   UNL     1       8.645  -3.544 -24.238  1.00  0.00     0.111 A 
ATOM      6  C   UNL     1       9.711  -4.339 -23.716  1.00  0.00     0.134 A 
ATOM      7  C   UNL     1      10.938  -4.374 -24.389  1.00  0.00     0.093 A 
ATOM      8  C   UNL     1      11.119  -3.699 -25.595  1.00  0.00     0.123 A 
ATOM      9  C   UNL     1      10.067  -2.964 -26.142  1.00  0.00     0.094 A 
ATOM     10  C   UNL     1       8.843  -2.878 -25.475  1.00  0.00     0.146 A 
ATOM     11  O   UNL     1       7.874  -2.151 -26.021  1.00  0.00    -0.452 OA
ENDROOT
BRANCH   1  12
ATOM     12  C   UNL     1       5.692  -1.142 -26.173  1.00  0.00     0.025 A 
ATOM     13  C   UNL     1       4.456  -1.670 -26.589  1.00  0.00     0.016 A 
ATOM     14  C   UNL     1       3.525  -0.858 -27.240  1.00  0.00     0.051 A 
ATOM     15  C   UNL     1       3.806   0.495 -27.473  1.00  0.00     0.157 A 
ATOM     16  C   UNL     1       5.959   0.220 -26.390  1.00  0.00     0.062 A 
ATOM     17  C   UNL     1       5.029   1.036 -27.043  1.00  0.00     0.158 A 
BRANCH  15  18
ATOM     18  O   UNL     1       2.875   1.303 -28.125  1.00  0.00    -0.504 OA
ATOM     19  H   UNL     1       3.118   1.825 -28.958  1.00  0.00     0.293 HD
ENDBRANCH  15  18
BRANCH  17  20
ATOM     20  O   UNL     1       5.336   2.380 -27.253  1.00  0.00    -0.504 OA
ATOM     21  H   UNL     1       6.061   2.673 -27.897  1.00  0.00     0.293 HD
ENDBRANCH  17  20
ENDBRANCH   1  12
BRANCH   2  22
ATOM     22  O   UNL     1       5.139  -2.438 -23.641  1.00  0.00    -0.502 OA
ATOM     23  H   UNL     1       4.897  -2.864 -22.755  1.00  0.00     0.293 HD
ENDBRANCH   2  22
BRANCH   6  24
ATOM     24  O   UNL     1       9.610  -5.125 -22.564  1.00  0.00    -0.507 OA
ATOM     25  H   UNL     1      10.393  -5.457 -22.021  1.00  0.00     0.293 HD
ENDBRANCH   6  24
BRANCH   8  26
ATOM     26  O   UNL     1      12.349  -3.771 -26.246  1.00  0.00    -0.508 OA
ATOM     27  H   UNL     1      12.722  -2.984 -26.764  1.00  0.00     0.293 HD
ENDBRANCH   8  26
TORSDOF 6
ENDMDL
MODEL 4
REMARK VINA RESULT:    -3.369      1.807      7.344
REMARK INTER + INTRA:          -4.246
REMARK INTER:                  -4.717
REMARK INTRA:                   0.471
REMARK UNBOUND:                -0.188
REMARK SMILES O=c1c(O)c(-c2ccc(O)c(O)c2)oc2cc(O)cc(O)c12
REMARK SMILES IDX 5 1 3 2 2 3 1 4 22 5 20 6 19 7 17 8 16 9 15 10 14 11 6 12
REMARK SMILES IDX 7 13 8 14 9 15 13 16 11 17 10 18 12 20 4 22 21 24 18 26
REMARK H PARENT 10 19 12 21 4 23 21 25 18 27
REMARK Flexibility Score: inf
ROOT
ATOM      1  C   UNL     1      14.738  11.171  -8.619  1.00  0.00     0.180 A 
ATOM      2  C   UNL     1      14.510  12.548  -8.789  1.00  0.00     0.208 A 
ATOM      3  C   UNL     1      15.607  13.425  -8.784  1.00  0.00     0.238 A 
ATOM      4  O   UNL     1      15.403  14.646  -9.011  1.00  0.00    -0.285 OA
ATOM      5  C   UNL     1      16.910  12.923  -8.553  1.00  0.00     0.111 A 
ATOM      6  C   UNL     1      18.089  13.727  -8.481  1.00  0.00     0.134 A 
ATOM      7  C   UNL     1      19.339  13.108  -8.354  1.00  0.00     0.093 A 
ATOM      8  C   UNL     1      19.449  11.724  -8.230  1.00  0.00     0.123 A 
ATOM      9  C   UNL     1      18.300  10.933  -8.244  1.00  0.00     0.094 A 
ATOM     10  C   UNL     1      17.041  11.517  -8.408  1.00  0.00     0.146 A 
ATOM     11  O   UNL     1      15.975  10.726  -8.436  1.00  0.00    -0.452 OA
ENDROOT
BRANCH   1  12
ATOM     12  C   UNL     1      13.636  10.183  -8.627  1.00  0.00     0.025 A 
ATOM     13  C   UNL     1      12.299  10.579  -8.809  1.00  0.00     0.016 A 
ATOM     14  C   UNL     1      11.278   9.626  -8.838  1.00  0.00     0.051 A 
ATOM     15  C   UNL     1      11.577   8.264  -8.700  1.00  0.00     0.157 A 
ATOM     16  C   UNL     1      13.933   8.815  -8.511  1.00  0.00     0.062 A 
ATOM     17  C   UNL     1      12.912   7.858  -8.538  1.00  0.00     0.158 A 
BRANCH  15  18
ATOM     18  O   UNL     1      10.556   7.315  -8.727  1.00  0.00    -0.504 OA
ATOM     19  H   UNL     1       9.603   7.555  -8.482  1.00  0.00     0.293 HD
ENDBRANCH  15  18
BRANCH  17  20
ATOM     20  O   UNL     1      13.244   6.510  -8.405  1.00  0.00    -0.504 OA
ATOM     21  H   UNL     1      12.980   5.968  -7.591  1.00  0.00     0.293 HD
ENDBRANCH  17  20
ENDBRANCH   1  12
BRANCH   2  22
ATOM     22  O   UNL     1      13.208  13.032  -8.940  1.00  0.00    -0.502 OA
ATOM     23  H   UNL     1      12.904  13.908  -8.533  1.00  0.00     0.293 HD
ENDBRANCH   2  22
BRANCH   6  24
ATOM     24  O   UNL     1      18.087  15.124  -8.504  1.00  0.00    -0.507 OA
ATOM     25  H   UNL     1      17.822  15.689  -9.297  1.00  0.00     0.293 HD
ENDBRANCH   6  24
BRANCH   8  26
ATOM     26  O   UNL     1      20.708  11.145  -8.087  1.00  0.00    -0.508 OA
ATOM     27  H   UNL     1      21.550  11.708  -8.059  1.00  0.00     0.293 HD
ENDBRANCH   8  26
TORSDOF 6
ENDMDL
MODEL 5
REMARK VINA RESULT:    -3.218     21.473     22.511
REMARK INTER + INTRA:          -4.065
REMARK INTER:                  -3.734
REMARK INTRA:                  -0.331
REMARK UNBOUND:                -0.188
REMARK SMILES O=c1c(O)c(-c2ccc(O)c(O)c2)oc2cc(O)cc(O)c12
REMARK SMILES IDX 5 1 3 2 2 3 1 4 22 5 20 6 19 7 17 8 16 9 15 10 14 11 6 12
REMARK SMILES IDX 7 13 8 14 9 15 13 16 11 17 10 18 12 20 4 22 21 24 18 26
REMARK H PARENT 10 19 12 21 4 23 21 25 18 27
REMARK Flexibility Score: inf
ROOT
ATOM      1  C   UNL     1       6.913  -2.386 -25.668  1.00  0.00     0.180 A 
ATOM      2  C   UNL     1       6.149  -2.891 -24.601  1.00  0.00     0.208 A 
ATOM      3  C   UNL     1       5.046  -2.153 -24.145  1.00  0.00     0.238 A 
ATOM      4  O   UNL     1       4.323  -2.646 -23.240  1.00  0.00    -0.285 OA
ATOM      5  C   UNL     1       4.753  -0.893 -24.721  1.00  0.00     0.111 A 
ATOM      6  C   UNL     1       3.687  -0.038 -24.305  1.00  0.00     0.134 A 
ATOM      7  C   UNL     1       3.427   1.138 -25.020  1.00  0.00     0.093 A 
ATOM      8  C   UNL     1       4.232   1.523 -26.091  1.00  0.00     0.123 A 
ATOM      9  C   UNL     1       5.310   0.724 -26.471  1.00  0.00     0.094 A 
ATOM     10  C   UNL     1       5.571  -0.475 -25.802  1.00  0.00     0.146 A 
ATOM     11  O   UNL     1       6.595  -1.217 -26.210  1.00  0.00    -0.452 OA
ENDROOT
BRANCH   1  12
ATOM     12  C   UNL     1       8.081  -3.113 -26.214  1.00  0.00     0.025 A 
ATOM     13  C   UNL     1       7.944  -4.033 -27.269  1.00  0.00     0.016 A 
ATOM     14  C   UNL     1       9.065  -4.688 -27.784  1.00  0.00     0.051 A 
ATOM     15  C   UNL     1      10.339  -4.425 -27.265  1.00  0.00     0.157 A 
ATOM     16  C   UNL     1       9.364  -2.837 -25.712  1.00  0.00     0.062 A 
ATOM     17  C   UNL     1      10.488  -3.493 -26.225  1.00  0.00     0.158 A 
BRANCH  15  18
ATOM     18  O   UNL     1      11.456  -5.082 -27.780  1.00  0.00    -0.504 OA
ATOM     19  H   UNL     1      12.224  -5.368 -27.184  1.00  0.00     0.293 HD
ENDBRANCH  15  18
BRANCH  17  20
ATOM     20  O   UNL     1      11.743  -3.204 -25.690  1.00  0.00    -0.504 OA
ATOM     21  H   UNL     1      11.855  -2.691 -24.824  1.00  0.00     0.293 HD
ENDBRANCH  17  20
ENDBRANCH   1  12
BRANCH   2  22
ATOM     22  O   UNL     1       6.500  -4.101 -23.996  1.00  0.00    -0.502 OA
ATOM     23  H   UNL     1       6.876  -4.882 -24.520  1.00  0.00     0.293 HD
ENDBRANCH   2  22
BRANCH   6  24
ATOM     24  O   UNL     1       2.875  -0.281 -23.194  1.00  0.00    -0.507 OA
ATOM     25  H   UNL     1       3.126  -0.867 -22.412  1.00  0.00     0.293 HD
ENDBRANCH   6  24
BRANCH   8  26
ATOM     26  O   UNL     1       3.955   2.710 -26.767  1.00  0.00    -0.508 OA
ATOM     27  H   UNL     1       4.683   3.383 -26.978  1.00  0.00     0.293 HD
ENDBRANCH   8  26
TORSDOF 6
ENDMDL
MODEL 6
REMARK VINA RESULT:    -3.076      3.055      5.559
REMARK INTER + INTRA:          -3.893
REMARK INTER:                  -3.629
REMARK INTRA:                  -0.265
REMARK UNBOUND:                -0.188
REMARK SMILES O=c1c(O)c(-c2ccc(O)c(O)c2)oc2cc(O)cc(O)c12
REMARK SMILES IDX 5 1 3 2 2 3 1 4 22 5 20 6 19 7 17 8 16 9 15 10 14 11 6 12
REMARK SMILES IDX 7 13 8 14 9 15 13 16 11 17 10 18 12 20 4 22 21 24 18 26
REMARK H PARENT 10 19 12 21 4 23 21 25 18 27
REMARK Flexibility Score: inf
ROOT
ATOM      1  C   UNL     1      17.743  12.634  -9.729  1.00  0.00     0.180 A 
ATOM      2  C   UNL     1      17.388  13.721 -10.547  1.00  0.00     0.208 A 
ATOM      3  C   UNL     1      16.030  14.052 -10.686  1.00  0.00     0.238 A 
ATOM      4  O   UNL     1      15.725  15.072 -11.359  1.00  0.00    -0.285 OA
ATOM      5  C   UNL     1      15.042  13.260 -10.055  1.00  0.00     0.111 A 
ATOM      6  C   UNL     1      13.634  13.476 -10.166  1.00  0.00     0.134 A 
ATOM      7  C   UNL     1      12.754  12.692  -9.409  1.00  0.00     0.093 A 
ATOM      8  C   UNL     1      13.224  11.659  -8.599  1.00  0.00     0.123 A 
ATOM      9  C   UNL     1      14.592  11.403  -8.526  1.00  0.00     0.094 A 
ATOM     10  C   UNL     1      15.499  12.193  -9.238  1.00  0.00     0.146 A 
ATOM     11  O   UNL     1      16.795  11.928  -9.124  1.00  0.00    -0.452 OA
ENDROOT
BRANCH   1  12
ATOM     12  C   UNL     1      19.152  12.232  -9.521  1.00  0.00     0.025 A 
ATOM     13  C   UNL     1      20.017  12.989  -8.711  1.00  0.00     0.016 A 
ATOM     14  C   UNL     1      21.336  12.576  -8.509  1.00  0.00     0.051 A 
ATOM     15  C   UNL     1      21.807  11.396  -9.100  1.00  0.00     0.157 A 
ATOM     16  C   UNL     1      19.623  11.038 -10.093  1.00  0.00     0.062 A 
ATOM     17  C   UNL     1      20.944  10.623  -9.894  1.00  0.00     0.158 A 
BRANCH  15  18
ATOM     18  O   UNL     1      23.125  10.987  -8.899  1.00  0.00    -0.504 OA
ATOM     19  H   UNL     1      23.344  10.120  -8.422  1.00  0.00     0.293 HD
ENDBRANCH  15  18
BRANCH  17  20
ATOM     20  O   UNL     1      21.379   9.440 -10.491  1.00  0.00    -0.504 OA
ATOM     21  H   UNL     1      20.745   8.680 -10.705  1.00  0.00     0.293 HD
ENDBRANCH  17  20
ENDBRANCH   1  12
BRANCH   2  22
ATOM     22  O   UNL     1      18.374  14.445 -11.222  1.00  0.00    -0.502 OA
ATOM     23  H   UNL     1      18.392  14.526 -12.232  1.00  0.00     0.293 HD
ENDBRANCH   2  22
BRANCH   6  24
ATOM     24  O   UNL     1      13.051  14.423 -11.014  1.00  0.00    -0.507 OA
ATOM     25  H   UNL     1      13.012  14.352 -12.019  1.00  0.00     0.293 HD
ENDBRANCH   6  24
BRANCH   8  26
ATOM     26  O   UNL     1      12.317  10.888  -7.875  1.00  0.00    -0.508 OA
ATOM     27  H   UNL     1      11.531  10.432  -8.325  1.00  0.00     0.293 HD
ENDBRANCH   8  26
TORSDOF 6
ENDMDL
MODEL 7
REMARK VINA RESULT:    -3.042     21.007     22.168
REMARK INTER + INTRA:          -3.852
REMARK INTER:                  -3.747
REMARK INTRA:                  -0.105
REMARK UNBOUND:                -0.188
REMARK SMILES O=c1c(O)c(-c2ccc(O)c(O)c2)oc2cc(O)cc(O)c12
REMARK SMILES IDX 5 1 3 2 2 3 1 4 22 5 20 6 19 7 17 8 16 9 15 10 14 11 6 12
REMARK SMILES IDX 7 13 8 14 9 15 13 16 11 17 10 18 12 20 4 22 21 24 18 26
REMARK H PARENT 10 19 12 21 4 23 21 25 18 27
REMARK Flexibility Score: inf
ROOT
ATOM      1  C   UNL     1       5.657  -0.179 -26.002  1.00  0.00     0.180 A 
ATOM      2  C   UNL     1       6.958  -0.466 -26.449  1.00  0.00     0.208 A 
ATOM      3  C   UNL     1       7.556  -1.679 -26.070  1.00  0.00     0.238 A 
ATOM      4  O   UNL     1       8.691  -1.963 -26.535  1.00  0.00    -0.285 OA
ATOM      5  C   UNL     1       6.870  -2.563 -25.202  1.00  0.00     0.111 A 
ATOM      6  C   UNL     1       7.398  -3.798 -24.716  1.00  0.00     0.134 A 
ATOM      7  C   UNL     1       6.586  -4.641 -23.948  1.00  0.00     0.093 A 
ATOM      8  C   UNL     1       5.291  -4.268 -23.594  1.00  0.00     0.123 A 
ATOM      9  C   UNL     1       4.783  -3.040 -24.017  1.00  0.00     0.094 A 
ATOM     10  C   UNL     1       5.555  -2.193 -24.817  1.00  0.00     0.146 A 
ATOM     11  O   UNL     1       5.025  -1.042 -25.215  1.00  0.00    -0.452 OA
ENDROOT
BRANCH   1  12
ATOM     12  C   UNL     1       4.955   1.071 -26.370  1.00  0.00     0.025 A 
ATOM     13  C   UNL     1       4.745   1.424 -27.715  1.00  0.00     0.016 A 
ATOM     14  C   UNL     1       4.058   2.596 -28.039  1.00  0.00     0.051 A 
ATOM     15  C   UNL     1       3.559   3.426 -27.026  1.00  0.00     0.157 A 
ATOM     16  C   UNL     1       4.434   1.895 -25.360  1.00  0.00     0.062 A 
ATOM     17  C   UNL     1       3.746   3.071 -25.680  1.00  0.00     0.158 A 
BRANCH  15  18
ATOM     18  O   UNL     1       2.875   4.597 -27.352  1.00  0.00    -0.504 OA
ATOM     19  H   UNL     1       3.028   5.459 -26.842  1.00  0.00     0.293 HD
ENDBRANCH  15  18
BRANCH  17  20
ATOM     20  O   UNL     1       3.256   3.871 -24.649  1.00  0.00    -0.504 OA
ATOM     21  H   UNL     1       2.269   4.081 -24.552  1.00  0.00     0.293 HD
ENDBRANCH  17  20
ENDBRANCH   1  12
BRANCH   2  22
ATOM     22  O   UNL     1       7.649   0.453 -27.243  1.00  0.00    -0.502 OA
ATOM     23  H   UNL     1       7.322   1.401 -27.385  1.00  0.00     0.293 HD
ENDBRANCH   2  22
BRANCH   6  24
ATOM     24  O   UNL     1       8.710  -4.229 -24.936  1.00  0.00    -0.507 OA
ATOM     25  H   UNL     1       9.519  -3.627 -24.968  1.00  0.00     0.293 HD
ENDBRANCH   6  24
BRANCH   8  26
ATOM     26  O   UNL     1       4.518  -5.125 -22.813  1.00  0.00    -0.508 OA
ATOM     27  H   UNL     1       4.617  -6.132 -22.875  1.00  0.00     0.293 HD
ENDBRANCH   8  26
TORSDOF 6
ENDMDL
