MODEL 1
REMARK VINA RESULT:    -5.473      0.000      0.000
REMARK INTER + INTRA:         -11.952
REMARK INTER:                 -10.272
REMARK INTRA:                  -1.680
REMARK UNBOUND:                -1.680
REMARK SMILES CCCCCCCCC=CCCCCCCCC(=O)[O-]
REMARK SMILES IDX 10 1 9 2 11 3 12 4 13 5 14 6 15 7 16 8 17 9 18 10 19 11
REMARK SMILES IDX 20 12 8 13 7 14 6 15 5 16 4 17 3 18 2 19 1 20
REMARK H PARENT
REMARK Flexibility Score: inf
ROOT
ATOM      1  C   UNL     1      26.642  10.049  30.822  1.00  0.00    -0.031 C 
ATOM      2  C   UNL     1      25.369   9.657  31.014  1.00  0.00    -0.031 C 
ENDROOT
BRANCH   1   3
ATOM      3  C   UNL     1      27.097  11.056  29.790  1.00  0.00     0.027 C 
BRANCH   3   4
ATOM      4  C   UNL     1      27.046  12.485  30.347  1.00  0.00     0.004 C 
BRANCH   4   5
ATOM      5  C   UNL     1      28.284  12.816  31.198  1.00  0.00     0.000 C 
BRANCH   5   6
ATOM      6  C   UNL     1      27.967  12.892  32.700  1.00  0.00     0.000 C 
BRANCH   6   7
ATOM      7  C   UNL     1      28.478  11.667  33.477  1.00  0.00     0.000 C 
BRANCH   7   8
ATOM      8  C   UNL     1      27.524  11.252  34.615  1.00  0.00     0.006 C 
BRANCH   8   9
ATOM      9  C   UNL     1      26.178  11.996  34.592  1.00  0.00     0.053 C 
BRANCH   9  10
ATOM     10  C   UNL     1      26.086  13.040  35.660  1.00  0.00     0.041 C 
ATOM     11  O   UNL     1      26.970  13.932  35.752  1.00  0.00    -0.550 OA
ATOM     12  O   UNL     1      25.011  13.042  36.541  1.00  0.00    -0.550 OA
ENDBRANCH   9  10
ENDBRANCH   8   9
ENDBRANCH   7   8
ENDBRANCH   6   7
ENDBRANCH   5   6
ENDBRANCH   4   5
ENDBRANCH   3   4
ENDBRANCH   1   3
BRANCH   2  13
ATOM     13  C   UNL     1      24.188  10.113  30.193  1.00  0.00     0.027 C 
BRANCH  13  14
ATOM     14  C   UNL     1      22.991  10.525  31.067  1.00  0.00     0.004 C 
BRANCH  14  15
ATOM     15  C   UNL     1      23.332  11.551  32.167  1.00  0.00     0.000 C 
BRANCH  15  16
ATOM     16  C   UNL     1      22.130  12.054  32.992  1.00  0.00     0.000 C 
BRANCH  16  17
ATOM     17  C   UNL     1      22.480  12.637  34.372  1.00  0.00    -0.000 C 
BRANCH  17  18
ATOM     18  C   UNL     1      21.502  12.193  35.474  1.00  0.00    -0.000 C 
BRANCH  18  19
ATOM     19  C   UNL     1      20.217  13.035  35.494  1.00  0.00    -0.003 C 
ATOM     20  C   UNL     1      19.059  12.331  36.203  1.00  0.00     0.004 C 
ENDBRANCH  18  19
ENDBRANCH  17  18
ENDBRANCH  16  17
ENDBRANCH  15  16
ENDBRANCH  14  15
ENDBRANCH  13  14
ENDBRANCH   2  13
TORSDOF 15
ENDMDL
MODEL 2
REMARK VINA RESULT:    -5.358      2.386      5.606
REMARK INTER + INTRA:         -11.736
REMARK INTER:                  -9.757
REMARK INTRA:                  -1.979
REMARK UNBOUND:                -1.680
REMARK SMILES CCCCCCCCC=CCCCCCCCC(=O)[O-]
REMARK SMILES IDX 10 1 9 2 11 3 12 4 13 5 14 6 15 7 16 8 17 9 18 10 19 11
REMARK SMILES IDX 20 12 8 13 7 14 6 15 5 16 4 17 3 18 2 19 1 20
REMARK H PARENT
REMARK Flexibility Score: inf
ROOT
ATOM      1  C   UNL     1      24.952   9.660  30.873  1.00  0.00    -0.031 C 
ATOM      2  C   UNL     1      26.245   9.566  30.510  1.00  0.00    -0.031 C 
ENDROOT
BRANCH   1   3
ATOM      3  C   UNL     1      24.056  10.848  30.607  1.00  0.00     0.027 C 
BRANCH   3   4
ATOM      4  C   UNL     1      23.361  11.319  31.892  1.00  0.00     0.004 C 
BRANCH   4   5
ATOM      5  C   UNL     1      21.829  11.261  31.772  1.00  0.00     0.000 C 
BRANCH   5   6
ATOM      6  C   UNL     1      21.117  11.711  33.057  1.00  0.00     0.000 C 
BRANCH   6   7
ATOM      7  C   UNL     1      22.046  12.483  34.011  1.00  0.00     0.000 C 
BRANCH   7   8
ATOM      8  C   UNL     1      21.571  12.417  35.477  1.00  0.00     0.006 C 
BRANCH   8   9
ATOM      9  C   UNL     1      20.287  11.594  35.671  1.00  0.00     0.053 C 
BRANCH   9  10
ATOM     10  C   UNL     1      19.150  12.423  36.178  1.00  0.00     0.041 C 
ATOM     11  O   UNL     1      18.415  11.992  37.105  1.00  0.00    -0.550 OA
ATOM     12  O   UNL     1      18.913  13.684  35.643  1.00  0.00    -0.550 OA
ENDBRANCH   9  10
ENDBRANCH   8   9
ENDBRANCH   7   8
ENDBRANCH   6   7
ENDBRANCH   5   6
ENDBRANCH   4   5
ENDBRANCH   3   4
ENDBRANCH   1   3
BRANCH   2  13
ATOM     13  C   UNL     1      27.034  10.655  29.827  1.00  0.00     0.027 C 
BRANCH  13  14
ATOM     14  C   UNL     1      28.013  11.357  30.784  1.00  0.00     0.004 C 
BRANCH  14  15
ATOM     15  C   UNL     1      27.445  12.624  31.455  1.00  0.00     0.000 C 
BRANCH  15  16
ATOM     16  C   UNL     1      27.785  12.784  32.951  1.00  0.00     0.000 C 
BRANCH  16  17
ATOM     17  C   UNL     1      28.071  11.472  33.702  1.00  0.00    -0.000 C 
BRANCH  17  18
ATOM     18  C   UNL     1      27.042  11.181  34.808  1.00  0.00    -0.000 C 
BRANCH  18  19
ATOM     19  C   UNL     1      25.723  11.943  34.600  1.00  0.00    -0.003 C 
ATOM     20  C   UNL     1      25.315  12.764  35.823  1.00  0.00     0.004 C 
ENDBRANCH  18  19
ENDBRANCH  17  18
ENDBRANCH  16  17
ENDBRANCH  15  16
ENDBRANCH  14  15
ENDBRANCH  13  14
ENDBRANCH   2  13
TORSDOF 15
ENDMDL
MODEL 3
REMARK VINA RESULT:    -5.300      1.615      3.092
REMARK INTER + INTRA:         -11.627
REMARK INTER:                 -10.090
REMARK INTRA:                  -1.537
REMARK UNBOUND:                -1.680
REMARK SMILES CCCCCCCCC=CCCCCCCCC(=O)[O-]
REMARK SMILES IDX 10 1 9 2 11 3 12 4 13 5 14 6 15 7 16 8 17 9 18 10 19 11
REMARK SMILES IDX 20 12 8 13 7 14 6 15 5 16 4 17 3 18 2 19 1 20
REMARK H PARENT
REMARK Flexibility Score: inf
ROOT
ATOM      1  C   UNL     1      24.685  11.250  32.111  1.00  0.00    -0.031 C 
ATOM      2  C   UNL     1      23.652  11.905  32.674  1.00  0.00    -0.031 C 
ENDROOT
BRANCH   1   3
ATOM      3  C   UNL     1      24.563  10.176  31.054  1.00  0.00     0.027 C 
BRANCH   3   4
ATOM      4  C   UNL     1      25.922   9.524  30.765  1.00  0.00     0.004 C 
BRANCH   4   5
ATOM      5  C   UNL     1      26.845  10.450  29.956  1.00  0.00     0.000 C 
BRANCH   5   6
ATOM      6  C   UNL     1      28.030  10.973  30.782  1.00  0.00     0.000 C 
BRANCH   6   7
ATOM      7  C   UNL     1      27.995  12.500  30.969  1.00  0.00     0.000 C 
BRANCH   7   8
ATOM      8  C   UNL     1      28.028  12.912  32.454  1.00  0.00     0.006 C 
BRANCH   8   9
ATOM      9  C   UNL     1      28.379  11.756  33.406  1.00  0.00     0.053 C 
BRANCH   9  10
ATOM     10  C   UNL     1      27.531  11.756  34.639  1.00  0.00     0.041 C 
ATOM     11  O   UNL     1      26.842  10.745  34.934  1.00  0.00    -0.550 OA
ATOM     12  O   UNL     1      27.518  12.866  35.475  1.00  0.00    -0.550 OA
ENDBRANCH   9  10
ENDBRANCH   8   9
ENDBRANCH   7   8
ENDBRANCH   6   7
ENDBRANCH   5   6
ENDBRANCH   4   5
ENDBRANCH   3   4
ENDBRANCH   1   3
BRANCH   2  13
ATOM     13  C   UNL     1      22.196  11.636  32.388  1.00  0.00     0.027 C 
BRANCH  13  14
ATOM     14  C   UNL     1      21.260  12.477  33.273  1.00  0.00     0.004 C 
BRANCH  14  15
ATOM     15  C   UNL     1      21.797  12.737  34.695  1.00  0.00     0.000 C 
BRANCH  15  16
ATOM     16  C   UNL     1      21.193  11.846  35.799  1.00  0.00     0.000 C 
BRANCH  16  17
ATOM     17  C   UNL     1      19.667  11.958  35.971  1.00  0.00    -0.000 C 
BRANCH  17  18
ATOM     18  C   UNL     1      19.007  10.616  36.330  1.00  0.00    -0.000 C 
BRANCH  18  19
ATOM     19  C   UNL     1      19.980   9.433  36.219  1.00  0.00    -0.003 C 
ATOM     20  C   UNL     1      19.447   8.163  36.884  1.00  0.00     0.004 C 
ENDBRANCH  18  19
ENDBRANCH  17  18
ENDBRANCH  16  17
ENDBRANCH  15  16
ENDBRANCH  14  15
ENDBRANCH  13  14
ENDBRANCH   2  13
TORSDOF 15
ENDMDL
MODEL 4
REMARK VINA RESULT:    -5.155      1.932      5.244
REMARK INTER + INTRA:         -11.355
REMARK INTER:                  -9.179
REMARK INTRA:                  -2.177
REMARK UNBOUND:                -1.680
REMARK SMILES CCCCCCCCC=CCCCCCCCC(=O)[O-]
REMARK SMILES IDX 10 1 9 2 11 3 12 4 13 5 14 6 15 7 16 8 17 9 18 10 19 11
REMARK SMILES IDX 20 12 8 13 7 14 6 15 5 16 4 17 3 18 2 19 1 20
REMARK H PARENT
REMARK Flexibility Score: inf
ROOT
ATOM      1  C   UNL     1      26.036   9.824  31.137  1.00  0.00    -0.031 C 
ATOM      2  C   UNL     1      27.015  10.367  30.389  1.00  0.00    -0.031 C 
ENDROOT
BRANCH   1   3
ATOM      3  C   UNL     1      24.701  10.471  31.428  1.00  0.00     0.027 C 
BRANCH   3   4
ATOM      4  C   UNL     1      23.620   9.975  30.459  1.00  0.00     0.004 C 
BRANCH   4   5
ATOM      5  C   UNL     1      22.788  11.132  29.882  1.00  0.00     0.000 C 
BRANCH   5   6
ATOM      6  C   UNL     1      21.326  11.104  30.355  1.00  0.00     0.000 C 
BRANCH   6   7
ATOM      7  C   UNL     1      21.198  10.952  31.880  1.00  0.00     0.000 C 
BRANCH   7   8
ATOM      8  C   UNL     1      20.959  12.301  32.588  1.00  0.00     0.006 C 
BRANCH   8   9
ATOM      9  C   UNL     1      21.887  12.536  33.792  1.00  0.00     0.053 C 
BRANCH   9  10
ATOM     10  C   UNL     1      21.146  12.532  35.092  1.00  0.00     0.041 C 
ATOM     11  O   UNL     1      21.244  11.551  35.874  1.00  0.00    -0.550 OA
ATOM     12  O   UNL     1      20.362  13.622  35.450  1.00  0.00    -0.550 OA
ENDBRANCH   9  10
ENDBRANCH   8   9
ENDBRANCH   7   8
ENDBRANCH   6   7
ENDBRANCH   5   6
ENDBRANCH   4   5
ENDBRANCH   3   4
ENDBRANCH   1   3
BRANCH   2  13
ATOM     13  C   UNL     1      26.966  11.738  29.761  1.00  0.00     0.027 C 
BRANCH  13  14
ATOM     14  C   UNL     1      27.167  12.862  30.792  1.00  0.00     0.004 C 
BRANCH  14  15
ATOM     15  C   UNL     1      28.305  12.601  31.800  1.00  0.00     0.000 C 
BRANCH  15  16
ATOM     16  C   UNL     1      27.922  12.776  33.283  1.00  0.00     0.000 C 
BRANCH  16  17
ATOM     17  C   UNL     1      28.007  11.499  34.138  1.00  0.00    -0.000 C 
BRANCH  17  18
ATOM     18  C   UNL     1      26.628  11.001  34.605  1.00  0.00    -0.000 C 
BRANCH  18  19
ATOM     19  C   UNL     1      25.552  12.096  34.533  1.00  0.00    -0.003 C 
ATOM     20  C   UNL     1      25.118  12.591  35.913  1.00  0.00     0.004 C 
ENDBRANCH  18  19
ENDBRANCH  17  18
ENDBRANCH  16  17
ENDBRANCH  15  16
ENDBRANCH  14  15
ENDBRANCH  13  14
ENDBRANCH   2  13
TORSDOF 15
ENDMDL
MODEL 5
REMARK VINA RESULT:    -5.109      2.365      6.325
REMARK INTER + INTRA:         -11.268
REMARK INTER:                  -9.516
REMARK INTRA:                  -1.752
REMARK UNBOUND:                -1.680
REMARK SMILES CCCCCCCCC=CCCCCCCCC(=O)[O-]
REMARK SMILES IDX 10 1 9 2 11 3 12 4 13 5 14 6 15 7 16 8 17 9 18 10 19 11
REMARK SMILES IDX 20 12 8 13 7 14 6 15 5 16 4 17 3 18 2 19 1 20
REMARK H PARENT
REMARK Flexibility Score: inf
ROOT
ATOM      1  C   UNL     1      27.137  11.337  34.410  1.00  0.00    -0.031 C 
ATOM      2  C   UNL     1      28.168  11.866  33.725  1.00  0.00    -0.031 C 
ENDROOT
BRANCH   1   3
ATOM      3  C   UNL     1      25.701  11.796  34.315  1.00  0.00     0.027 C 
BRANCH   3   4
ATOM      4  C   UNL     1      25.186  12.298  35.670  1.00  0.00     0.004 C 
BRANCH   4   5
ATOM      5  C   UNL     1      23.657  12.456  35.684  1.00  0.00     0.000 C 
BRANCH   5   6
ATOM      6  C   UNL     1      23.052  12.488  34.272  1.00  0.00     0.000 C 
BRANCH   6   7
ATOM      7  C   UNL     1      21.530  12.263  34.273  1.00  0.00     0.000 C 
BRANCH   7   8
ATOM      8  C   UNL     1      20.943  12.216  35.698  1.00  0.00     0.006 C 
BRANCH   8   9
ATOM      9  C   UNL     1      19.432  11.931  35.731  1.00  0.00     0.053 C 
BRANCH   9  10
ATOM     10  C   UNL     1      19.130  10.472  35.871  1.00  0.00     0.041 C 
ATOM     11  O   UNL     1      17.958  10.048  35.696  1.00  0.00    -0.550 OA
ATOM     12  O   UNL     1      20.148   9.576  36.173  1.00  0.00    -0.550 OA
ENDBRANCH   9  10
ENDBRANCH   8   9
ENDBRANCH   7   8
ENDBRANCH   6   7
ENDBRANCH   5   6
ENDBRANCH   4   5
ENDBRANCH   3   4
ENDBRANCH   1   3
BRANCH   2  13
ATOM     13  C   UNL     1      28.073  13.047  32.791  1.00  0.00     0.027 C 
BRANCH  13  14
ATOM     14  C   UNL     1      28.444  12.681  31.344  1.00  0.00     0.004 C 
BRANCH  14  15
ATOM     15  C   UNL     1      27.277  12.796  30.342  1.00  0.00     0.000 C 
BRANCH  15  16
ATOM     16  C   UNL     1      26.798  11.462  29.734  1.00  0.00     0.000 C 
BRANCH  16  17
ATOM     17  C   UNL     1      27.059  10.216  30.599  1.00  0.00    -0.000 C 
BRANCH  17  18
ATOM     18  C   UNL     1      25.795   9.368  30.820  1.00  0.00    -0.000 C 
BRANCH  18  19
ATOM     19  C   UNL     1      24.559   9.963  30.130  1.00  0.00    -0.003 C 
ATOM     20  C   UNL     1      23.535  10.515  31.122  1.00  0.00     0.004 C 
ENDBRANCH  18  19
ENDBRANCH  17  18
ENDBRANCH  16  17
ENDBRANCH  15  16
ENDBRANCH  14  15
ENDBRANCH  13  14
ENDBRANCH   2  13
TORSDOF 15
ENDMDL
MODEL 6
REMARK VINA RESULT:    -5.017      1.370      2.452
REMARK INTER + INTRA:         -11.097
REMARK INTER:                  -9.213
REMARK INTRA:                  -1.884
REMARK UNBOUND:                -1.680
REMARK SMILES CCCCCCCCC=CCCCCCCCC(=O)[O-]
REMARK SMILES IDX 10 1 9 2 11 3 12 4 13 5 14 6 15 7 16 8 17 9 18 10 19 11
REMARK SMILES IDX 20 12 8 13 7 14 6 15 5 16 4 17 3 18 2 19 1 20
REMARK H PARENT
REMARK Flexibility Score: inf
ROOT
ATOM      1  C   UNL     1      24.439  10.002  30.663  1.00  0.00    -0.031 C 
ATOM      2  C   UNL     1      23.409  10.734  31.126  1.00  0.00    -0.031 C 
ENDROOT
BRANCH   1   3
ATOM      3  C   UNL     1      25.816   9.944  31.284  1.00  0.00     0.027 C 
BRANCH   3   4
ATOM      4  C   UNL     1      26.907  10.238  30.246  1.00  0.00     0.004 C 
BRANCH   4   5
ATOM      5  C   UNL     1      26.914  11.716  29.821  1.00  0.00     0.000 C 
BRANCH   5   6
ATOM      6  C   UNL     1      26.933  12.677  31.019  1.00  0.00     0.000 C 
BRANCH   6   7
ATOM      7  C   UNL     1      28.230  12.577  31.840  1.00  0.00     0.000 C 
BRANCH   7   8
ATOM      8  C   UNL     1      28.008  12.897  33.333  1.00  0.00     0.006 C 
BRANCH   8   9
ATOM      9  C   UNL     1      26.542  12.766  33.779  1.00  0.00     0.053 C 
BRANCH   9  10
ATOM     10  C   UNL     1      26.348  11.672  34.780  1.00  0.00     0.041 C 
ATOM     11  O   UNL     1      27.162  10.714  34.838  1.00  0.00    -0.550 OA
ATOM     12  O   UNL     1      25.277  11.719  35.665  1.00  0.00    -0.550 OA
ENDBRANCH   9  10
ENDBRANCH   8   9
ENDBRANCH   7   8
ENDBRANCH   6   7
ENDBRANCH   5   6
ENDBRANCH   4   5
ENDBRANCH   3   4
ENDBRANCH   1   3
BRANCH   2  13
ATOM     13  C   UNL     1      23.472  11.666  32.311  1.00  0.00     0.027 C 
BRANCH  13  14
ATOM     14  C   UNL     1      22.094  11.880  32.962  1.00  0.00     0.004 C 
BRANCH  14  15
ATOM     15  C   UNL     1      22.138  12.649  34.299  1.00  0.00     0.000 C 
BRANCH  15  16
ATOM     16  C   UNL     1      21.270  12.054  35.426  1.00  0.00     0.000 C 
BRANCH  16  17
ATOM     17  C   UNL     1      20.000  12.854  35.767  1.00  0.00    -0.000 C 
BRANCH  17  18
ATOM     18  C   UNL     1      18.908  12.729  34.690  1.00  0.00    -0.000 C 
BRANCH  18  19
ATOM     19  C   UNL     1      18.501  14.090  34.105  1.00  0.00    -0.003 C 
ATOM     20  C   UNL     1      19.230  14.416  32.801  1.00  0.00     0.004 C 
ENDBRANCH  18  19
ENDBRANCH  17  18
ENDBRANCH  16  17
ENDBRANCH  15  16
ENDBRANCH  14  15
ENDBRANCH  13  14
ENDBRANCH   2  13
TORSDOF 15
ENDMDL
MODEL 7
REMARK VINA RESULT:    -5.008      1.377      1.954
REMARK INTER + INTRA:         -11.079
REMARK INTER:                  -9.389
REMARK INTRA:                  -1.690
REMARK UNBOUND:                -1.680
REMARK SMILES CCCCCCCCC=CCCCCCCCC(=O)[O-]
REMARK SMILES IDX 10 1 9 2 11 3 12 4 13 5 14 6 15 7 16 8 17 9 18 10 19 11
REMARK SMILES IDX 20 12 8 13 7 14 6 15 5 16 4 17 3 18 2 19 1 20
REMARK H PARENT
REMARK Flexibility Score: inf
ROOT
ATOM      1  C   UNL     1      25.060  10.792  31.912  1.00  0.00    -0.031 C 
ATOM      2  C   UNL     1      23.782  11.147  31.681  1.00  0.00    -0.031 C 
ENDROOT
BRANCH   1   3
ATOM      3  C   UNL     1      25.865   9.833  31.066  1.00  0.00     0.027 C 
BRANCH   3   4
ATOM      4  C   UNL     1      27.258  10.398  30.757  1.00  0.00     0.004 C 
BRANCH   4   5
ATOM      5  C   UNL     1      27.245  11.932  30.642  1.00  0.00     0.000 C 
BRANCH   5   6
ATOM      6  C   UNL     1      28.444  12.588  31.345  1.00  0.00     0.000 C 
BRANCH   6   7
ATOM      7  C   UNL     1      28.381  12.451  32.876  1.00  0.00     0.000 C 
BRANCH   7   8
ATOM      8  C   UNL     1      27.278  13.330  33.502  1.00  0.00     0.006 C 
BRANCH   8   9
ATOM      9  C   UNL     1      27.065  13.073  35.003  1.00  0.00     0.053 C 
BRANCH   9  10
ATOM     10  C   UNL     1      26.033  12.021  35.260  1.00  0.00     0.041 C 
ATOM     11  O   UNL     1      24.850  12.349  35.538  1.00  0.00    -0.550 OA
ATOM     12  O   UNL     1      26.372  10.676  35.172  1.00  0.00    -0.550 OA
ENDBRANCH   9  10
ENDBRANCH   8   9
ENDBRANCH   7   8
ENDBRANCH   6   7
ENDBRANCH   5   6
ENDBRANCH   4   5
ENDBRANCH   3   4
ENDBRANCH   1   3
BRANCH   2  13
ATOM     13  C   UNL     1      22.919  10.602  30.570  1.00  0.00     0.027 C 
BRANCH  13  14
ATOM     14  C   UNL     1      21.426  10.904  30.787  1.00  0.00     0.004 C 
BRANCH  14  15
ATOM     15  C   UNL     1      21.077  11.389  32.209  1.00  0.00     0.000 C 
BRANCH  15  16
ATOM     16  C   UNL     1      19.913  12.396  32.292  1.00  0.00     0.000 C 
BRANCH  16  17
ATOM     17  C   UNL     1      20.160  13.611  33.203  1.00  0.00    -0.000 C 
BRANCH  17  18
ATOM     18  C   UNL     1      21.260  13.359  34.249  1.00  0.00    -0.000 C 
BRANCH  18  19
ATOM     19  C   UNL     1      20.708  12.754  35.550  1.00  0.00    -0.003 C 
ATOM     20  C   UNL     1      19.259  13.158  35.822  1.00  0.00     0.004 C 
ENDBRANCH  18  19
ENDBRANCH  17  18
ENDBRANCH  16  17
ENDBRANCH  15  16
ENDBRANCH  14  15
ENDBRANCH  13  14
ENDBRANCH   2  13
TORSDOF 15
ENDMDL
MODEL 8
REMARK VINA RESULT:    -4.980      1.358      2.096
REMARK INTER + INTRA:         -11.027
REMARK INTER:                  -8.724
REMARK INTRA:                  -2.303
REMARK UNBOUND:                -1.680
REMARK SMILES CCCCCCCCC=CCCCCCCCC(=O)[O-]
REMARK SMILES IDX 10 1 9 2 11 3 12 4 13 5 14 6 15 7 16 8 17 9 18 10 19 11
REMARK SMILES IDX 20 12 8 13 7 14 6 15 5 16 4 17 3 18 2 19 1 20
REMARK H PARENT
REMARK Flexibility Score: inf
ROOT
ATOM      1  C   UNL     1      25.991   9.779  31.001  1.00  0.00    -0.031 C 
ATOM      2  C   UNL     1      24.687  10.094  31.116  1.00  0.00    -0.031 C 
ENDROOT
BRANCH   1   3
ATOM      3  C   UNL     1      26.942  10.364  29.983  1.00  0.00     0.027 C 
BRANCH   3   4
ATOM      4  C   UNL     1      28.066  11.156  30.663  1.00  0.00     0.004 C 
BRANCH   4   5
ATOM      5  C   UNL     1      27.588  12.536  31.147  1.00  0.00     0.000 C 
BRANCH   5   6
ATOM      6  C   UNL     1      27.988  12.824  32.602  1.00  0.00     0.000 C 
BRANCH   6   7
ATOM      7  C   UNL     1      28.279  11.543  33.402  1.00  0.00     0.000 C 
BRANCH   7   8
ATOM      8  C   UNL     1      27.164  11.216  34.417  1.00  0.00     0.006 C 
BRANCH   8   9
ATOM      9  C   UNL     1      25.982  12.198  34.369  1.00  0.00     0.053 C 
BRANCH   9  10
ATOM     10  C   UNL     1      25.934  13.091  35.569  1.00  0.00     0.041 C 
ATOM     11  O   UNL     1      26.775  14.018  35.703  1.00  0.00    -0.550 OA
ATOM     12  O   UNL     1      24.947  12.912  36.531  1.00  0.00    -0.550 OA
ENDBRANCH   9  10
ENDBRANCH   8   9
ENDBRANCH   7   8
ENDBRANCH   6   7
ENDBRANCH   5   6
ENDBRANCH   4   5
ENDBRANCH   3   4
ENDBRANCH   1   3
BRANCH   2  13
ATOM     13  C   UNL     1      23.941  11.042  30.210  1.00  0.00     0.027 C 
BRANCH  13  14
ATOM     14  C   UNL     1      22.725  10.379  29.541  1.00  0.00     0.004 C 
BRANCH  14  15
ATOM     15  C   UNL     1      21.842   9.558  30.504  1.00  0.00     0.000 C 
BRANCH  15  16
ATOM     16  C   UNL     1      20.447  10.154  30.784  1.00  0.00     0.000 C 
BRANCH  16  17
ATOM     17  C   UNL     1      20.367  11.690  30.728  1.00  0.00    -0.000 C 
BRANCH  17  18
ATOM     18  C   UNL     1      20.183  12.329  32.115  1.00  0.00    -0.000 C 
BRANCH  18  19
ATOM     19  C   UNL     1      21.017  11.631  33.200  1.00  0.00    -0.003 C 
ATOM     20  C   UNL     1      22.390  12.274  33.396  1.00  0.00     0.004 C 
ENDBRANCH  18  19
ENDBRANCH  17  18
ENDBRANCH  16  17
ENDBRANCH  15  16
ENDBRANCH  14  15
ENDBRANCH  13  14
ENDBRANCH   2  13
TORSDOF 15
ENDMDL
MODEL 9
REMARK VINA RESULT:    -4.948      2.917      6.730
REMARK INTER + INTRA:         -10.968
REMARK INTER:                  -9.334
REMARK INTRA:                  -1.633
REMARK UNBOUND:                -1.680
REMARK SMILES CCCCCCCCC=CCCCCCCCC(=O)[O-]
REMARK SMILES IDX 10 1 9 2 11 3 12 4 13 5 14 6 15 7 16 8 17 9 18 10 19 11
REMARK SMILES IDX 20 12 8 13 7 14 6 15 5 16 4 17 3 18 2 19 1 20
REMARK H PARENT
REMARK Flexibility Score: inf
ROOT
ATOM      1  C   UNL     1      23.687  11.538  32.206  1.00  0.00    -0.031 C 
ATOM      2  C   UNL     1      24.783  10.887  31.774  1.00  0.00    -0.031 C 
ENDROOT
BRANCH   1   3
ATOM      3  C   UNL     1      22.266  11.212  31.808  1.00  0.00     0.027 C 
BRANCH   3   4
ATOM      4  C   UNL     1      21.268  11.687  32.873  1.00  0.00     0.004 C 
BRANCH   4   5
ATOM      5  C   UNL     1      21.914  12.656  33.877  1.00  0.00     0.000 C 
BRANCH   5   6
ATOM      6  C   UNL     1      21.509  12.360  35.330  1.00  0.00     0.000 C 
BRANCH   6   7
ATOM      7  C   UNL     1      20.186  13.037  35.726  1.00  0.00     0.000 C 
BRANCH   7   8
ATOM      8  C   UNL     1      19.051  12.020  35.959  1.00  0.00     0.006 C 
BRANCH   8   9
ATOM      9  C   UNL     1      19.524  10.557  35.947  1.00  0.00     0.053 C 
BRANCH   9  10
ATOM     10  C   UNL     1      18.785   9.727  34.945  1.00  0.00     0.041 C 
ATOM     11  O   UNL     1      18.211  10.276  33.968  1.00  0.00    -0.550 OA
ATOM     12  O   UNL     1      18.748   8.344  35.077  1.00  0.00    -0.550 OA
ENDBRANCH   9  10
ENDBRANCH   8   9
ENDBRANCH   7   8
ENDBRANCH   6   7
ENDBRANCH   5   6
ENDBRANCH   4   5
ENDBRANCH   3   4
ENDBRANCH   1   3
BRANCH   2  13
ATOM     13  C   UNL     1      24.782   9.757  30.774  1.00  0.00     0.027 C 
BRANCH  13  14
ATOM     14  C   UNL     1      26.164   9.537  30.136  1.00  0.00     0.004 C 
BRANCH  14  15
ATOM     15  C   UNL     1      26.941  10.837  29.843  1.00  0.00     0.000 C 
BRANCH  15  16
ATOM     16  C   UNL     1      28.114  11.130  30.800  1.00  0.00     0.000 C 
BRANCH  16  17
ATOM     17  C   UNL     1      28.243  12.597  31.249  1.00  0.00    -0.000 C 
BRANCH  17  18
ATOM     18  C   UNL     1      27.782  12.819  32.700  1.00  0.00    -0.000 C 
BRANCH  18  19
ATOM     19  C   UNL     1      28.355  11.771  33.667  1.00  0.00    -0.003 C 
ATOM     20  C   UNL     1      27.286  11.140  34.558  1.00  0.00     0.004 C 
ENDBRANCH  18  19
ENDBRANCH  17  18
ENDBRANCH  16  17
ENDBRANCH  15  16
ENDBRANCH  14  15
ENDBRANCH  13  14
ENDBRANCH   2  13
TORSDOF 15
ENDMDL
