MODEL 1
REMARK VINA RESULT:    -4.972      0.000      0.000
REMARK INTER + INTRA:          -6.299
REMARK INTER:                  -5.990
REMARK INTRA:                  -0.309
REMARK UNBOUND:                -0.309
REMARK SMILES O=c1c(O)c(-c2ccc(O)c(O)c2)oc2cc(O)cc(O)c12
REMARK SMILES IDX 5 1 3 2 2 3 1 4 22 5 20 6 19 7 17 8 16 9 15 10 14 11 6 12
REMARK SMILES IDX 7 13 8 14 9 15 13 16 11 17 10 18 12 20 4 22 21 24 18 26
REMARK H PARENT 10 19 12 21 4 23 21 25 18 27
REMARK Flexibility Score: inf
ROOT
ATOM      1  C   UNL     1     106.875  85.191  16.729  1.00  0.00     0.180 A 
ATOM      2  C   UNL     1     108.198  85.374  16.283  1.00  0.00     0.208 A 
ATOM      3  C   UNL     1     108.863  86.568  16.601  1.00  0.00     0.238 A 
ATOM      4  O   UNL     1     110.052  86.739  16.216  1.00  0.00    -0.285 OA
ATOM      5  C   UNL     1     108.192  87.564  17.341  1.00  0.00     0.111 A 
ATOM      6  C   UNL     1     108.789  88.796  17.700  1.00  0.00     0.134 A 
ATOM      7  C   UNL     1     108.052  89.741  18.430  1.00  0.00     0.093 A 
ATOM      8  C   UNL     1     106.732  89.478  18.806  1.00  0.00     0.123 A 
ATOM      9  C   UNL     1     106.137  88.262  18.454  1.00  0.00     0.094 A 
ATOM     10  C   UNL     1     106.856  87.307  17.728  1.00  0.00     0.146 A 
ATOM     11  O   UNL     1     106.269  86.159  17.412  1.00  0.00    -0.452 OA
ENDROOT
BRANCH   1  12
ATOM     12  C   UNL     1     106.114  83.953  16.450  1.00  0.00     0.025 A 
ATOM     13  C   UNL     1     106.311  82.786  17.208  1.00  0.00     0.016 A 
ATOM     14  C   UNL     1     105.564  81.635  16.941  1.00  0.00     0.051 A 
ATOM     15  C   UNL     1     104.602  81.638  15.923  1.00  0.00     0.157 A 
ATOM     16  C   UNL     1     105.133  83.956  15.444  1.00  0.00     0.062 A 
ATOM     17  C   UNL     1     104.384  82.806  15.173  1.00  0.00     0.158 A 
BRANCH  15  18
ATOM     18  O   UNL     1     103.860  80.487  15.658  1.00  0.00    -0.504 OA
ATOM     19  H   UNL     1     104.069  79.891  14.868  1.00  0.00     0.293 HD
ENDBRANCH  15  18
BRANCH  17  20
ATOM     20  O   UNL     1     103.428  82.843  14.158  1.00  0.00    -0.504 OA
ATOM     21  H   UNL     1     103.109  83.713  13.752  1.00  0.00     0.293 HD
ENDBRANCH  17  20
ENDBRANCH   1  12
BRANCH   2  22
ATOM     22  O   UNL     1     108.824  84.393  15.509  1.00  0.00    -0.502 OA
ATOM     23  H   UNL     1     108.363  83.527  15.257  1.00  0.00     0.293 HD
ENDBRANCH   2  22
BRANCH   6  24
ATOM     24  O   UNL     1     110.105  89.089  17.339  1.00  0.00    -0.507 OA
ATOM     25  H   UNL     1     110.749  88.367  17.038  1.00  0.00     0.293 HD
ENDBRANCH   6  24
BRANCH   8  26
ATOM     26  O   UNL     1     106.021  90.432  19.530  1.00  0.00    -0.508 OA
ATOM     27  H   UNL     1     106.180  91.424  19.399  1.00  0.00     0.293 HD
ENDBRANCH   8  26
TORSDOF 6
ENDMDL
MODEL 2
REMARK VINA RESULT:    -4.861      3.484      5.165
REMARK INTER + INTRA:          -6.165
REMARK INTER:                  -5.841
REMARK INTRA:                  -0.323
REMARK UNBOUND:                -0.309
REMARK SMILES O=c1c(O)c(-c2ccc(O)c(O)c2)oc2cc(O)cc(O)c12
REMARK SMILES IDX 5 1 3 2 2 3 1 4 22 5 20 6 19 7 17 8 16 9 15 10 14 11 6 12
REMARK SMILES IDX 7 13 8 14 9 15 13 16 11 17 10 18 12 20 4 22 21 24 18 26
REMARK H PARENT 10 19 12 21 4 23 21 25 18 27
REMARK Flexibility Score: inf
ROOT
ATOM      1  C   UNL     1     104.752  85.119  15.886  1.00  0.00     0.180 A 
ATOM      2  C   UNL     1     104.967  83.757  16.168  1.00  0.00     0.208 A 
ATOM      3  C   UNL     1     104.935  83.326  17.503  1.00  0.00     0.238 A 
ATOM      4  O   UNL     1     105.116  82.105  17.766  1.00  0.00    -0.285 OA
ATOM      5  C   UNL     1     104.708  84.262  18.533  1.00  0.00     0.111 A 
ATOM      6  C   UNL     1     104.663  83.911  19.903  1.00  0.00     0.134 A 
ATOM      7  C   UNL     1     104.441  84.903  20.869  1.00  0.00     0.093 A 
ATOM      8  C   UNL     1     104.264  86.237  20.493  1.00  0.00     0.123 A 
ATOM      9  C   UNL     1     104.306  86.591  19.140  1.00  0.00     0.094 A 
ATOM     10  C   UNL     1     104.525  85.615  18.162  1.00  0.00     0.146 A 
ATOM     11  O   UNL     1     104.555  85.977  16.884  1.00  0.00    -0.452 OA
ENDROOT
BRANCH   1  12
ATOM     12  C   UNL     1     104.752  85.647  14.503  1.00  0.00     0.025 A 
ATOM     13  C   UNL     1     105.941  86.055  13.875  1.00  0.00     0.016 A 
ATOM     14  C   UNL     1     105.919  86.529  12.560  1.00  0.00     0.051 A 
ATOM     15  C   UNL     1     104.712  86.589  11.851  1.00  0.00     0.157 A 
ATOM     16  C   UNL     1     103.548  85.690  13.780  1.00  0.00     0.062 A 
ATOM     17  C   UNL     1     103.522  86.164  12.464  1.00  0.00     0.158 A 
BRANCH  15  18
ATOM     18  O   UNL     1     104.694  87.064  10.540  1.00  0.00    -0.504 OA
ATOM     19  H   UNL     1     104.908  86.462   9.754  1.00  0.00     0.293 HD
ENDBRANCH  15  18
BRANCH  17  20
ATOM     20  O   UNL     1     102.306  86.205  11.782  1.00  0.00    -0.504 OA
ATOM     21  H   UNL     1     101.427  85.994  12.238  1.00  0.00     0.293 HD
ENDBRANCH  17  20
ENDBRANCH   1  12
BRANCH   2  22
ATOM     22  O   UNL     1     105.239  82.858  15.133  1.00  0.00    -0.502 OA
ATOM     23  H   UNL     1     105.710  81.975  15.292  1.00  0.00     0.293 HD
ENDBRANCH   2  22
BRANCH   6  24
ATOM     24  O   UNL     1     104.837  82.588  20.311  1.00  0.00    -0.507 OA
ATOM     25  H   UNL     1     104.097  81.901  20.223  1.00  0.00     0.293 HD
ENDBRANCH   6  24
BRANCH   8  26
ATOM     26  O   UNL     1     104.045  87.204  21.471  1.00  0.00    -0.508 OA
ATOM     27  H   UNL     1     103.401  87.972  21.324  1.00  0.00     0.293 HD
ENDBRANCH   8  26
TORSDOF 6
ENDMDL
MODEL 3
REMARK VINA RESULT:    -4.830      5.595      7.589
REMARK INTER + INTRA:          -6.128
REMARK INTER:                  -5.815
REMARK INTRA:                  -0.313
REMARK UNBOUND:                -0.309
REMARK SMILES O=c1c(O)c(-c2ccc(O)c(O)c2)oc2cc(O)cc(O)c12
REMARK SMILES IDX 5 1 3 2 2 3 1 4 22 5 20 6 19 7 17 8 16 9 15 10 14 11 6 12
REMARK SMILES IDX 7 13 8 14 9 15 13 16 11 17 10 18 12 20 4 22 21 24 18 26
REMARK H PARENT 10 19 12 21 4 23 21 25 18 27
REMARK Flexibility Score: inf
ROOT
ATOM      1  C   UNL     1     104.849  81.375  20.232  1.00  0.00     0.180 A 
ATOM      2  C   UNL     1     106.081  80.860  20.680  1.00  0.00     0.208 A 
ATOM      3  C   UNL     1     106.235  80.556  22.041  1.00  0.00     0.238 A 
ATOM      4  O   UNL     1     107.330  80.085  22.452  1.00  0.00    -0.285 OA
ATOM      5  C   UNL     1     105.167  80.788  22.933  1.00  0.00     0.111 A 
ATOM      6  C   UNL     1     105.241  80.512  24.319  1.00  0.00     0.134 A 
ATOM      7  C   UNL     1     104.137  80.779  25.142  1.00  0.00     0.093 A 
ATOM      8  C   UNL     1     102.964  81.317  24.608  1.00  0.00     0.123 A 
ATOM      9  C   UNL     1     102.884  81.591  23.239  1.00  0.00     0.094 A 
ATOM     10  C   UNL     1     103.973  81.330  22.401  1.00  0.00     0.146 A 
ATOM     11  O   UNL     1     103.868  81.594  21.104  1.00  0.00    -0.452 OA
ENDROOT
BRANCH   1  12
ATOM     12  C   UNL     1     104.603  81.702  18.809  1.00  0.00     0.025 A 
ATOM     13  C   UNL     1     105.008  82.930  18.260  1.00  0.00     0.016 A 
ATOM     14  C   UNL     1     104.785  83.207  16.908  1.00  0.00     0.051 A 
ATOM     15  C   UNL     1     104.168  82.257  16.084  1.00  0.00     0.157 A 
ATOM     16  C   UNL     1     104.003  80.744  17.974  1.00  0.00     0.062 A 
ATOM     17  C   UNL     1     103.778  81.018  16.620  1.00  0.00     0.158 A 
BRANCH  15  18
ATOM     18  O   UNL     1     103.946  82.538  14.737  1.00  0.00    -0.504 OA
ATOM     19  H   UNL     1     103.163  83.104  14.434  1.00  0.00     0.293 HD
ENDBRANCH  15  18
BRANCH  17  20
ATOM     20  O   UNL     1     103.168  80.049  15.825  1.00  0.00    -0.504 OA
ATOM     21  H   UNL     1     103.589  79.715  14.967  1.00  0.00     0.293 HD
ENDBRANCH  17  20
ENDBRANCH   1  12
BRANCH   2  22
ATOM     22  O   UNL     1     107.139  80.686  19.785  1.00  0.00    -0.502 OA
ATOM     23  H   UNL     1     107.771  79.896  19.839  1.00  0.00     0.293 HD
ENDBRANCH   2  22
BRANCH   6  24
ATOM     24  O   UNL     1     106.400  79.976  24.884  1.00  0.00    -0.507 OA
ATOM     25  H   UNL     1     106.361  79.279  25.619  1.00  0.00     0.293 HD
ENDBRANCH   6  24
BRANCH   8  26
ATOM     26  O   UNL     1     101.882  81.574  25.446  1.00  0.00    -0.508 OA
ATOM     27  H   UNL     1     101.175  82.259  25.206  1.00  0.00     0.293 HD
ENDBRANCH   8  26
TORSDOF 6
ENDMDL
MODEL 4
REMARK VINA RESULT:    -4.811      5.829      8.169
REMARK INTER + INTRA:          -6.104
REMARK INTER:                  -5.817
REMARK INTRA:                  -0.287
REMARK UNBOUND:                -0.309
REMARK SMILES O=c1c(O)c(-c2ccc(O)c(O)c2)oc2cc(O)cc(O)c12
REMARK SMILES IDX 5 1 3 2 2 3 1 4 22 5 20 6 19 7 17 8 16 9 15 10 14 11 6 12
REMARK SMILES IDX 7 13 8 14 9 15 13 16 11 17 10 18 12 20 4 22 21 24 18 26
REMARK H PARENT 10 19 12 21 4 23 21 25 18 27
REMARK Flexibility Score: inf
ROOT
ATOM      1  C   UNL     1     103.220  83.081  21.241  1.00  0.00     0.180 A 
ATOM      2  C   UNL     1     103.895  84.256  20.859  1.00  0.00     0.208 A 
ATOM      3  C   UNL     1     104.276  84.415  19.518  1.00  0.00     0.238 A 
ATOM      4  O   UNL     1     104.873  85.469  19.162  1.00  0.00    -0.285 OA
ATOM      5  C   UNL     1     103.994  83.394  18.587  1.00  0.00     0.111 A 
ATOM      6  C   UNL     1     104.347  83.474  17.219  1.00  0.00     0.134 A 
ATOM      7  C   UNL     1     104.039  82.411  16.357  1.00  0.00     0.093 A 
ATOM      8  C   UNL     1     103.388  81.271  16.836  1.00  0.00     0.123 A 
ATOM      9  C   UNL     1     103.037  81.186  18.187  1.00  0.00     0.094 A 
ATOM     10  C   UNL     1     103.333  82.237  19.062  1.00  0.00     0.146 A 
ATOM     11  O   UNL     1     102.984  82.132  20.339  1.00  0.00    -0.452 OA
ENDROOT
BRANCH   1  12
ATOM     12  C   UNL     1     102.769  82.849  22.631  1.00  0.00     0.025 A 
ATOM     13  C   UNL     1     101.635  83.496  23.152  1.00  0.00     0.016 A 
ATOM     14  C   UNL     1     101.215  83.242  24.461  1.00  0.00     0.051 A 
ATOM     15  C   UNL     1     101.913  82.330  25.263  1.00  0.00     0.157 A 
ATOM     16  C   UNL     1     103.453  81.919  23.433  1.00  0.00     0.062 A 
ATOM     17  C   UNL     1     103.036  81.663  24.744  1.00  0.00     0.158 A 
BRANCH  15  18
ATOM     18  O   UNL     1     101.493  82.081  26.568  1.00  0.00    -0.504 OA
ATOM     19  H   UNL     1     101.881  82.584  27.357  1.00  0.00     0.293 HD
ENDBRANCH  15  18
BRANCH  17  20
ATOM     20  O   UNL     1     103.748  80.744  25.515  1.00  0.00    -0.504 OA
ATOM     21  H   UNL     1     104.662  80.406  25.240  1.00  0.00     0.293 HD
ENDBRANCH  17  20
ENDBRANCH   1  12
BRANCH   2  22
ATOM     22  O   UNL     1     104.207  85.231  21.810  1.00  0.00    -0.502 OA
ATOM     23  H   UNL     1     104.221  86.220  21.589  1.00  0.00     0.293 HD
ENDBRANCH   2  22
BRANCH   6  24
ATOM     24  O   UNL     1     104.998  84.598  16.709  1.00  0.00    -0.507 OA
ATOM     25  H   UNL     1     104.492  85.440  16.459  1.00  0.00     0.293 HD
ENDBRANCH   6  24
BRANCH   8  26
ATOM     26  O   UNL     1     103.094  80.228  15.961  1.00  0.00    -0.508 OA
ATOM     27  H   UNL     1     102.154  80.075  15.614  1.00  0.00     0.293 HD
ENDBRANCH   8  26
TORSDOF 6
ENDMDL
MODEL 5
REMARK VINA RESULT:    -4.778      8.012      9.590
REMARK INTER + INTRA:          -6.065
REMARK INTER:                  -5.790
REMARK INTRA:                  -0.275
REMARK UNBOUND:                -0.309
REMARK SMILES O=c1c(O)c(-c2ccc(O)c(O)c2)oc2cc(O)cc(O)c12
REMARK SMILES IDX 5 1 3 2 2 3 1 4 22 5 20 6 19 7 17 8 16 9 15 10 14 11 6 12
REMARK SMILES IDX 7 13 8 14 9 15 13 16 11 17 10 18 12 20 4 22 21 24 18 26
REMARK H PARENT 10 19 12 21 4 23 21 25 18 27
REMARK Flexibility Score: inf
ROOT
ATOM      1  C   UNL     1     102.428  81.762  23.016  1.00  0.00     0.180 A 
ATOM      2  C   UNL     1     101.165  81.670  23.633  1.00  0.00     0.208 A 
ATOM      3  C   UNL     1     101.042  82.029  24.984  1.00  0.00     0.238 A 
ATOM      4  O   UNL     1      99.914  81.960  25.544  1.00  0.00    -0.285 OA
ATOM      5  C   UNL     1     102.181  82.455  25.699  1.00  0.00     0.111 A 
ATOM      6  C   UNL     1     102.143  82.831  27.063  1.00  0.00     0.134 A 
ATOM      7  C   UNL     1     103.322  83.235  27.707  1.00  0.00     0.093 A 
ATOM      8  C   UNL     1     104.535  83.269  27.015  1.00  0.00     0.123 A 
ATOM      9  C   UNL     1     104.579  82.899  25.667  1.00  0.00     0.094 A 
ATOM     10  C   UNL     1     103.414  82.495  25.007  1.00  0.00     0.146 A 
ATOM     11  O   UNL     1     103.483  82.154  23.725  1.00  0.00    -0.452 OA
ENDROOT
BRANCH   1  12
ATOM     12  C   UNL     1     102.634  81.420  21.591  1.00  0.00     0.025 A 
ATOM     13  C   UNL     1     103.187  80.185  21.207  1.00  0.00     0.016 A 
ATOM     14  C   UNL     1     103.351  79.875  19.854  1.00  0.00     0.051 A 
ATOM     15  C   UNL     1     102.954  80.786  18.866  1.00  0.00     0.157 A 
ATOM     16  C   UNL     1     102.219  82.321  20.596  1.00  0.00     0.062 A 
ATOM     17  C   UNL     1     102.382  82.014  19.240  1.00  0.00     0.158 A 
BRANCH  15  18
ATOM     18  O   UNL     1     103.121  80.474  17.518  1.00  0.00    -0.504 OA
ATOM     19  H   UNL     1     103.569  79.615  17.223  1.00  0.00     0.293 HD
ENDBRANCH  15  18
BRANCH  17  20
ATOM     20  O   UNL     1     101.971  82.939  18.282  1.00  0.00    -0.504 OA
ATOM     21  H   UNL     1     101.149  82.791  17.709  1.00  0.00     0.293 HD
ENDBRANCH  17  20
ENDBRANCH   1  12
BRANCH   2  22
ATOM     22  O   UNL     1     100.063  81.198  22.916  1.00  0.00    -0.502 OA
ATOM     23  H   UNL     1     100.115  80.382  22.317  1.00  0.00     0.293 HD
ENDBRANCH   2  22
BRANCH   6  24
ATOM     24  O   UNL     1     100.947  82.807  27.782  1.00  0.00    -0.507 OA
ATOM     25  H   UNL     1     100.915  83.026  28.771  1.00  0.00     0.293 HD
ENDBRANCH   6  24
BRANCH   8  26
ATOM     26  O   UNL     1     105.692  83.673  27.677  1.00  0.00    -0.508 OA
ATOM     27  H   UNL     1     106.593  83.258  27.472  1.00  0.00     0.293 HD
ENDBRANCH   8  26
TORSDOF 6
ENDMDL
MODEL 6
REMARK VINA RESULT:    -4.770      4.443      7.409
REMARK INTER + INTRA:          -6.055
REMARK INTER:                  -5.734
REMARK INTRA:                  -0.321
REMARK UNBOUND:                -0.309
REMARK SMILES O=c1c(O)c(-c2ccc(O)c(O)c2)oc2cc(O)cc(O)c12
REMARK SMILES IDX 5 1 3 2 2 3 1 4 22 5 20 6 19 7 17 8 16 9 15 10 14 11 6 12
REMARK SMILES IDX 7 13 8 14 9 15 13 16 11 17 10 18 12 20 4 22 21 24 18 26
REMARK H PARENT 10 19 12 21 4 23 21 25 18 27
REMARK Flexibility Score: inf
ROOT
ATOM      1  C   UNL     1     103.466  84.404  19.754  1.00  0.00     0.180 A 
ATOM      2  C   UNL     1     104.506  83.539  20.146  1.00  0.00     0.208 A 
ATOM      3  C   UNL     1     105.164  82.781  19.166  1.00  0.00     0.238 A 
ATOM      4  O   UNL     1     106.104  82.010  19.504  1.00  0.00    -0.285 OA
ATOM      5  C   UNL     1     104.761  82.883  17.818  1.00  0.00     0.111 A 
ATOM      6  C   UNL     1     105.370  82.151  16.770  1.00  0.00     0.134 A 
ATOM      7  C   UNL     1     104.905  82.302  15.455  1.00  0.00     0.093 A 
ATOM      8  C   UNL     1     103.847  83.167  15.168  1.00  0.00     0.123 A 
ATOM      9  C   UNL     1     103.242  83.894  16.199  1.00  0.00     0.094 A 
ATOM     10  C   UNL     1     103.692  83.758  17.516  1.00  0.00     0.146 A 
ATOM     11  O   UNL     1     103.103  84.464  18.476  1.00  0.00    -0.452 OA
ENDROOT
BRANCH   1  12
ATOM     12  C   UNL     1     102.738  85.250  20.726  1.00  0.00     0.025 A 
ATOM     13  C   UNL     1     101.554  84.807  21.340  1.00  0.00     0.016 A 
ATOM     14  C   UNL     1     100.896  85.614  22.272  1.00  0.00     0.051 A 
ATOM     15  C   UNL     1     101.418  86.869  22.613  1.00  0.00     0.157 A 
ATOM     16  C   UNL     1     103.268  86.500  21.088  1.00  0.00     0.062 A 
ATOM     17  C   UNL     1     102.612  87.312  22.020  1.00  0.00     0.158 A 
BRANCH  15  18
ATOM     18  O   UNL     1     100.758  87.672  23.542  1.00  0.00    -0.504 OA
ATOM     19  H   UNL     1     100.199  87.274  24.287  1.00  0.00     0.293 HD
ENDBRANCH  15  18
BRANCH  17  20
ATOM     20  O   UNL     1     103.161  88.552  22.344  1.00  0.00    -0.504 OA
ATOM     21  H   UNL     1     103.944  88.943  21.835  1.00  0.00     0.293 HD
ENDBRANCH  17  20
ENDBRANCH   1  12
BRANCH   2  22
ATOM     22  O   UNL     1     104.853  83.419  21.494  1.00  0.00    -0.502 OA
ATOM     23  H   UNL     1     104.797  84.198  22.140  1.00  0.00     0.293 HD
ENDBRANCH   2  22
BRANCH   6  24
ATOM     24  O   UNL     1     106.428  81.278  17.024  1.00  0.00    -0.507 OA
ATOM     25  H   UNL     1     106.535  80.816  17.920  1.00  0.00     0.293 HD
ENDBRANCH   6  24
BRANCH   8  26
ATOM     26  O   UNL     1     103.404  83.299  13.854  1.00  0.00    -0.508 OA
ATOM     27  H   UNL     1     103.294  82.494  13.248  1.00  0.00     0.293 HD
ENDBRANCH   8  26
TORSDOF 6
ENDMDL
MODEL 7
REMARK VINA RESULT:    -4.753      4.819      8.045
REMARK INTER + INTRA:          -6.034
REMARK INTER:                  -5.714
REMARK INTRA:                  -0.321
REMARK UNBOUND:                -0.309
REMARK SMILES O=c1c(O)c(-c2ccc(O)c(O)c2)oc2cc(O)cc(O)c12
REMARK SMILES IDX 5 1 3 2 2 3 1 4 22 5 20 6 19 7 17 8 16 9 15 10 14 11 6 12
REMARK SMILES IDX 7 13 8 14 9 15 13 16 11 17 10 18 12 20 4 22 21 24 18 26
REMARK H PARENT 10 19 12 21 4 23 21 25 18 27
REMARK Flexibility Score: inf
ROOT
ATOM      1  C   UNL     1     103.845  84.078  20.652  1.00  0.00     0.180 A 
ATOM      2  C   UNL     1     104.946  83.465  21.279  1.00  0.00     0.208 A 
ATOM      3  C   UNL     1     105.500  82.311  20.702  1.00  0.00     0.238 A 
ATOM      4  O   UNL     1     106.493  81.759  21.250  1.00  0.00    -0.285 OA
ATOM      5  C   UNL     1     104.936  81.781  19.524  1.00  0.00     0.111 A 
ATOM      6  C   UNL     1     105.432  80.622  18.881  1.00  0.00     0.134 A 
ATOM      7  C   UNL     1     104.809  80.151  17.715  1.00  0.00     0.093 A 
ATOM      8  C   UNL     1     103.702  80.816  17.182  1.00  0.00     0.123 A 
ATOM      9  C   UNL     1     103.207  81.962  17.812  1.00  0.00     0.094 A 
ATOM     10  C   UNL     1     103.816  82.448  18.973  1.00  0.00     0.146 A 
ATOM     11  O   UNL     1     103.329  83.542  19.549  1.00  0.00    -0.452 OA
ENDROOT
BRANCH   1  12
ATOM     12  C   UNL     1     103.217  85.307  21.188  1.00  0.00     0.025 A 
ATOM     13  C   UNL     1     102.126  85.246  22.072  1.00  0.00     0.016 A 
ATOM     14  C   UNL     1     101.565  86.420  22.584  1.00  0.00     0.051 A 
ATOM     15  C   UNL     1     102.094  87.668  22.230  1.00  0.00     0.157 A 
ATOM     16  C   UNL     1     103.756  86.561  20.854  1.00  0.00     0.062 A 
ATOM     17  C   UNL     1     103.197  87.738  21.363  1.00  0.00     0.158 A 
BRANCH  15  18
ATOM     18  O   UNL     1     101.530  88.837  22.741  1.00  0.00    -0.504 OA
ATOM     19  H   UNL     1     100.694  88.818  23.312  1.00  0.00     0.293 HD
ENDBRANCH  15  18
BRANCH  17  20
ATOM     20  O   UNL     1     103.750  88.965  20.998  1.00  0.00    -0.504 OA
ATOM     21  H   UNL     1     103.887  89.713  21.666  1.00  0.00     0.293 HD
ENDBRANCH  17  20
ENDBRANCH   1  12
BRANCH   2  22
ATOM     22  O   UNL     1     105.455  83.981  22.473  1.00  0.00    -0.502 OA
ATOM     23  H   UNL     1     106.015  83.426  23.109  1.00  0.00     0.293 HD
ENDBRANCH   2  22
BRANCH   6  24
ATOM     24  O   UNL     1     106.535  79.935  19.390  1.00  0.00    -0.507 OA
ATOM     25  H   UNL     1     107.049  80.274  20.195  1.00  0.00     0.293 HD
ENDBRANCH   6  24
BRANCH   8  26
ATOM     26  O   UNL     1     103.101  80.329  16.023  1.00  0.00    -0.508 OA
ATOM     27  H   UNL     1     102.910  80.930  15.231  1.00  0.00     0.293 HD
ENDBRANCH   8  26
TORSDOF 6
ENDMDL
MODEL 8
REMARK VINA RESULT:    -4.690      5.065      6.686
REMARK INTER + INTRA:          -5.959
REMARK INTER:                  -5.639
REMARK INTRA:                  -0.320
REMARK UNBOUND:                -0.309
REMARK SMILES O=c1c(O)c(-c2ccc(O)c(O)c2)oc2cc(O)cc(O)c12
REMARK SMILES IDX 5 1 3 2 2 3 1 4 22 5 20 6 19 7 17 8 16 9 15 10 14 11 6 12
REMARK SMILES IDX 7 13 8 14 9 15 13 16 11 17 10 18 12 20 4 22 21 24 18 26
REMARK H PARENT 10 19 12 21 4 23 21 25 18 27
REMARK Flexibility Score: inf
ROOT
ATOM      1  C   UNL     1     104.204  84.792  20.725  1.00  0.00     0.180 A 
ATOM      2  C   UNL     1     104.233  86.196  20.624  1.00  0.00     0.208 A 
ATOM      3  C   UNL     1     104.492  86.782  19.375  1.00  0.00     0.238 A 
ATOM      4  O   UNL     1     104.510  88.039  19.270  1.00  0.00    -0.285 OA
ATOM      5  C   UNL     1     104.735  85.959  18.255  1.00  0.00     0.111 A 
ATOM      6  C   UNL     1     105.007  86.469  16.963  1.00  0.00     0.134 A 
ATOM      7  C   UNL     1     105.247  85.584  15.902  1.00  0.00     0.093 A 
ATOM      8  C   UNL     1     105.222  84.202  16.107  1.00  0.00     0.123 A 
ATOM      9  C   UNL     1     104.954  83.692  17.381  1.00  0.00     0.094 A 
ATOM     10  C   UNL     1     104.710  84.558  18.452  1.00  0.00     0.146 A 
ATOM     11  O   UNL     1     104.452  84.047  19.650  1.00  0.00    -0.452 OA
ENDROOT
BRANCH   1  12
ATOM     12  C   UNL     1     103.920  84.100  22.002  1.00  0.00     0.025 A 
ATOM     13  C   UNL     1     104.955  83.702  22.865  1.00  0.00     0.016 A 
ATOM     14  C   UNL     1     104.660  83.071  24.077  1.00  0.00     0.051 A 
ATOM     15  C   UNL     1     103.329  82.841  24.449  1.00  0.00     0.157 A 
ATOM     16  C   UNL     1     102.586  83.886  22.390  1.00  0.00     0.062 A 
ATOM     17  C   UNL     1     102.288  83.254  23.602  1.00  0.00     0.158 A 
BRANCH  15  18
ATOM     18  O   UNL     1     103.040  82.210  25.658  1.00  0.00    -0.504 OA
ATOM     19  H   UNL     1     102.238  82.474  26.217  1.00  0.00     0.293 HD
ENDBRANCH  15  18
BRANCH  17  20
ATOM     20  O   UNL     1     100.952  83.046  23.947  1.00  0.00    -0.504 OA
ATOM     21  H   UNL     1     100.362  82.397  23.442  1.00  0.00     0.293 HD
ENDBRANCH  17  20
ENDBRANCH   1  12
BRANCH   2  22
ATOM     22  O   UNL     1     104.038  86.989  21.758  1.00  0.00    -0.502 OA
ATOM     23  H   UNL     1     104.591  86.876  22.599  1.00  0.00     0.293 HD
ENDBRANCH   2  22
BRANCH   6  24
ATOM     24  O   UNL     1     105.039  87.844  16.726  1.00  0.00    -0.507 OA
ATOM     25  H   UNL     1     105.310  88.223  15.826  1.00  0.00     0.293 HD
ENDBRANCH   6  24
BRANCH   8  26
ATOM     26  O   UNL     1     105.465  83.344  15.037  1.00  0.00    -0.508 OA
ATOM     27  H   UNL     1     106.184  83.542  14.351  1.00  0.00     0.293 HD
ENDBRANCH   8  26
TORSDOF 6
ENDMDL
MODEL 9
REMARK VINA RESULT:    -4.667     10.459     12.256
REMARK INTER + INTRA:          -5.931
REMARK INTER:                  -5.606
REMARK INTRA:                  -0.326
REMARK UNBOUND:                -0.309
REMARK SMILES O=c1c(O)c(-c2ccc(O)c(O)c2)oc2cc(O)cc(O)c12
REMARK SMILES IDX 5 1 3 2 2 3 1 4 22 5 20 6 19 7 17 8 16 9 15 10 14 11 6 12
REMARK SMILES IDX 7 13 8 14 9 15 13 16 11 17 10 18 12 20 4 22 21 24 18 26
REMARK H PARENT 10 19 12 21 4 23 21 25 18 27
REMARK Flexibility Score: inf
ROOT
ATOM      1  C   UNL     1     111.300  94.492  21.864  1.00  0.00     0.180 A 
ATOM      2  C   UNL     1     110.904  94.176  20.550  1.00  0.00     0.208 A 
ATOM      3  C   UNL     1     111.890  93.996  19.568  1.00  0.00     0.238 A 
ATOM      4  O   UNL     1     111.546  93.702  18.390  1.00  0.00    -0.285 OA
ATOM      5  C   UNL     1     113.249  94.152  19.908  1.00  0.00     0.111 A 
ATOM      6  C   UNL     1     114.304  93.991  18.977  1.00  0.00     0.134 A 
ATOM      7  C   UNL     1     115.632  94.173  19.392  1.00  0.00     0.093 A 
ATOM      8  C   UNL     1     115.925  94.512  20.715  1.00  0.00     0.123 A 
ATOM      9  C   UNL     1     114.887  94.673  21.639  1.00  0.00     0.094 A 
ATOM     10  C   UNL     1     113.557  94.494  21.246  1.00  0.00     0.146 A 
ATOM     11  O   UNL     1     112.592  94.646  22.145  1.00  0.00    -0.452 OA
ENDROOT
BRANCH   1  12
ATOM     12  C   UNL     1     110.322  94.679  22.958  1.00  0.00     0.025 A 
ATOM     13  C   UNL     1     109.755  95.937  23.227  1.00  0.00     0.016 A 
ATOM     14  C   UNL     1     108.815  96.084  24.251  1.00  0.00     0.051 A 
ATOM     15  C   UNL     1     108.419  94.976  25.011  1.00  0.00     0.157 A 
ATOM     16  C   UNL     1     109.905  93.567  23.710  1.00  0.00     0.062 A 
ATOM     17  C   UNL     1     108.965  93.711  24.737  1.00  0.00     0.158 A 
BRANCH  15  18
ATOM     18  O   UNL     1     107.483  95.127  26.033  1.00  0.00    -0.504 OA
ATOM     19  H   UNL     1     107.713  94.927  26.999  1.00  0.00     0.293 HD
ENDBRANCH  15  18
BRANCH  17  20
ATOM     20  O   UNL     1     108.586  92.587  25.471  1.00  0.00    -0.504 OA
ATOM     21  H   UNL     1     109.260  91.906  25.797  1.00  0.00     0.293 HD
ENDBRANCH  17  20
ENDBRANCH   1  12
BRANCH   2  22
ATOM     22  O   UNL     1     109.548  94.075  20.228  1.00  0.00    -0.502 OA
ATOM     23  H   UNL     1     108.820  94.093  20.933  1.00  0.00     0.293 HD
ENDBRANCH   2  22
BRANCH   6  24
ATOM     24  O   UNL     1     114.044  93.653  17.648  1.00  0.00    -0.507 OA
ATOM     25  H   UNL     1     113.160  93.875  17.205  1.00  0.00     0.293 HD
ENDBRANCH   6  24
BRANCH   8  26
ATOM     26  O   UNL     1     117.251  94.688  21.101  1.00  0.00    -0.508 OA
ATOM     27  H   UNL     1     117.498  94.946  22.050  1.00  0.00     0.293 HD
ENDBRANCH   8  26
TORSDOF 6
ENDMDL
