MODEL 1
REMARK VINA RESULT:    -4.134      0.000      0.000
REMARK INTER + INTRA:          -9.244
REMARK INTER:                  -7.517
REMARK INTRA:                  -1.728
REMARK UNBOUND:                -1.728
REMARK SMILES CCCCCCCCCCCCCCCC(=O)[O-]
REMARK SMILES IDX 9 1 10 2 11 3 12 4 13 5 14 6 15 7 16 8 17 9 18 10 8 11 7 12
REMARK SMILES IDX 6 13 5 14 4 15 3 16 2 17 1 18
REMARK H PARENT
REMARK Flexibility Score: inf
ROOT
ATOM      1  C   UNL     1      -4.421  13.763 -15.763  1.00  0.00     0.000 C 
ENDROOT
BRANCH   1   2
ATOM      2  C   UNL     1      -2.945  13.695 -15.342  1.00  0.00     0.000 C 
BRANCH   2   3
ATOM      3  C   UNL     1      -2.032  14.527 -16.255  1.00  0.00     0.000 C 
BRANCH   3   4
ATOM      4  C   UNL     1      -2.554  14.613 -17.699  1.00  0.00     0.000 C 
BRANCH   4   5
ATOM      5  C   UNL     1      -1.514  15.237 -18.653  1.00  0.00     0.000 C 
BRANCH   5   6
ATOM      6  C   UNL     1      -0.406  16.032 -17.935  1.00  0.00     0.006 C 
BRANCH   6   7
ATOM      7  C   UNL     1       0.352  17.018 -18.843  1.00  0.00     0.053 C 
BRANCH   7   8
ATOM      8  C   UNL     1       0.060  18.455 -18.525  1.00  0.00     0.041 C 
ATOM      9  O   UNL     1      -1.111  18.906 -18.632  1.00  0.00    -0.550 OA
ATOM     10  O   UNL     1       1.093  19.314 -18.175  1.00  0.00    -0.550 OA
ENDBRANCH   7   8
ENDBRANCH   6   7
ENDBRANCH   5   6
ENDBRANCH   4   5
ENDBRANCH   3   4
ENDBRANCH   2   3
ENDBRANCH   1   2
BRANCH   1  11
ATOM     11  C   UNL     1      -5.227  12.625 -15.126  1.00  0.00     0.000 C 
BRANCH  11  12
ATOM     12  C   UNL     1      -6.535  12.384 -15.893  1.00  0.00    -0.000 C 
BRANCH  12  13
ATOM     13  C   UNL     1      -6.448  12.810 -17.368  1.00  0.00    -0.000 C 
BRANCH  13  14
ATOM     14  C   UNL     1      -5.939  11.718 -18.330  1.00  0.00    -0.000 C 
BRANCH  14  15
ATOM     15  C   UNL     1      -4.720  12.150 -19.172  1.00  0.00    -0.000 C 
BRANCH  15  16
ATOM     16  C   UNL     1      -3.445  11.376 -18.788  1.00  0.00    -0.000 C 
BRANCH  16  17
ATOM     17  C   UNL     1      -3.668  10.425 -17.602  1.00  0.00    -0.003 C 
ATOM     18  C   UNL     1      -3.329   8.973 -17.941  1.00  0.00     0.004 C 
ENDBRANCH  16  17
ENDBRANCH  15  16
ENDBRANCH  14  15
ENDBRANCH  13  14
ENDBRANCH  12  13
ENDBRANCH  11  12
ENDBRANCH   1  11
TORSDOF 14
ENDMDL
MODEL 2
REMARK VINA RESULT:    -4.068      0.876      1.755
REMARK INTER + INTRA:          -9.125
REMARK INTER:                  -7.801
REMARK INTRA:                  -1.324
REMARK UNBOUND:                -1.728
REMARK SMILES CCCCCCCCCCCCCCCC(=O)[O-]
REMARK SMILES IDX 9 1 10 2 11 3 12 4 13 5 14 6 15 7 16 8 17 9 18 10 8 11 7 12
REMARK SMILES IDX 6 13 5 14 4 15 3 16 2 17 1 18
REMARK H PARENT
REMARK Flexibility Score: inf
ROOT
ATOM      1  C   UNL     1      -2.791  14.379 -16.267  1.00  0.00     0.000 C 
ENDROOT
BRANCH   1   2
ATOM      2  C   UNL     1      -2.825  13.970 -17.747  1.00  0.00     0.000 C 
BRANCH   2   3
ATOM      3  C   UNL     1      -1.977  14.894 -18.635  1.00  0.00     0.000 C 
BRANCH   3   4
ATOM      4  C   UNL     1      -0.972  15.733 -17.829  1.00  0.00     0.000 C 
BRANCH   4   5
ATOM      5  C   UNL     1       0.343  15.961 -18.604  1.00  0.00     0.000 C 
BRANCH   5   6
ATOM      6  C   UNL     1       0.654  17.445 -18.882  1.00  0.00     0.006 C 
BRANCH   6   7
ATOM      7  C   UNL     1      -0.592  18.348 -18.951  1.00  0.00     0.053 C 
BRANCH   7   8
ATOM      8  C   UNL     1      -0.495  19.552 -18.062  1.00  0.00     0.041 C 
ATOM      9  O   UNL     1      -1.536  20.090 -17.602  1.00  0.00    -0.550 OA
ATOM     10  O   UNL     1       0.743  20.123 -17.798  1.00  0.00    -0.550 OA
ENDBRANCH   7   8
ENDBRANCH   6   7
ENDBRANCH   5   6
ENDBRANCH   4   5
ENDBRANCH   3   4
ENDBRANCH   2   3
ENDBRANCH   1   2
BRANCH   1  11
ATOM     11  C   UNL     1      -3.544  13.364 -15.399  1.00  0.00     0.000 C 
BRANCH  11  12
ATOM     12  C   UNL     1      -5.031  13.731 -15.292  1.00  0.00    -0.000 C 
BRANCH  12  13
ATOM     13  C   UNL     1      -5.960  12.599 -15.761  1.00  0.00    -0.000 C 
BRANCH  13  14
ATOM     14  C   UNL     1      -6.310  12.629 -17.262  1.00  0.00    -0.000 C 
BRANCH  14  15
ATOM     15  C   UNL     1      -5.726  11.444 -18.061  1.00  0.00    -0.000 C 
BRANCH  15  16
ATOM     16  C   UNL     1      -4.772  10.584 -17.212  1.00  0.00    -0.000 C 
BRANCH  16  17
ATOM     17  C   UNL     1      -3.414  10.363 -17.895  1.00  0.00    -0.003 C 
ATOM     18  C   UNL     1      -3.175   8.901 -18.272  1.00  0.00     0.004 C 
ENDBRANCH  16  17
ENDBRANCH  15  16
ENDBRANCH  14  15
ENDBRANCH  13  14
ENDBRANCH  12  13
ENDBRANCH  11  12
ENDBRANCH   1  11
TORSDOF 14
ENDMDL
MODEL 3
REMARK VINA RESULT:    -3.813      1.219      2.507
REMARK INTER + INTRA:          -8.661
REMARK INTER:                  -6.974
REMARK INTRA:                  -1.687
REMARK UNBOUND:                -1.728
REMARK SMILES CCCCCCCCCCCCCCCC(=O)[O-]
REMARK SMILES IDX 9 1 10 2 11 3 12 4 13 5 14 6 15 7 16 8 17 9 18 10 8 11 7 12
REMARK SMILES IDX 6 13 5 14 4 15 3 16 2 17 1 18
REMARK H PARENT
REMARK Flexibility Score: inf
ROOT
ATOM      1  C   UNL     1      -5.980  12.602 -15.795  1.00  0.00     0.000 C 
ENDROOT
BRANCH   1   2
ATOM      2  C   UNL     1      -5.021  13.792 -15.945  1.00  0.00     0.000 C 
BRANCH   2   3
ATOM      3  C   UNL     1      -3.545  13.378 -15.846  1.00  0.00     0.000 C 
BRANCH   3   4
ATOM      4  C   UNL     1      -2.586  14.479 -16.329  1.00  0.00     0.000 C 
BRANCH   4   5
ATOM      5  C   UNL     1      -2.404  14.455 -17.861  1.00  0.00     0.000 C 
BRANCH   5   6
ATOM      6  C   UNL     1      -1.692  15.700 -18.424  1.00  0.00     0.006 C 
BRANCH   6   7
ATOM      7  C   UNL     1      -0.223  15.839 -17.983  1.00  0.00     0.053 C 
BRANCH   7   8
ATOM      8  C   UNL     1       0.539  16.851 -18.788  1.00  0.00     0.041 C 
ATOM      9  O   UNL     1       0.078  18.011 -18.954  1.00  0.00    -0.550 OA
ATOM     10  O   UNL     1       1.725  16.490 -19.414  1.00  0.00    -0.550 OA
ENDBRANCH   7   8
ENDBRANCH   6   7
ENDBRANCH   5   6
ENDBRANCH   4   5
ENDBRANCH   3   4
ENDBRANCH   2   3
ENDBRANCH   1   2
BRANCH   1  11
ATOM     11  C   UNL     1      -5.208  11.312 -15.487  1.00  0.00     0.000 C 
BRANCH  11  12
ATOM     12  C   UNL     1      -5.259  10.346 -16.679  1.00  0.00    -0.000 C 
BRANCH  12  13
ATOM     13  C   UNL     1      -3.914   9.645 -16.935  1.00  0.00    -0.000 C 
BRANCH  13  14
ATOM     14  C   UNL     1      -3.297   9.916 -18.321  1.00  0.00    -0.000 C 
BRANCH  14  15
ATOM     15  C   UNL     1      -3.418  11.384 -18.780  1.00  0.00    -0.000 C 
BRANCH  15  16
ATOM     16  C   UNL     1      -4.495  11.567 -19.865  1.00  0.00    -0.000 C 
BRANCH  16  17
ATOM     17  C   UNL     1      -5.584  12.569 -19.450  1.00  0.00    -0.003 C 
ATOM     18  C   UNL     1      -6.996  12.036 -19.691  1.00  0.00     0.004 C 
ENDBRANCH  16  17
ENDBRANCH  15  16
ENDBRANCH  14  15
ENDBRANCH  13  14
ENDBRANCH  12  13
ENDBRANCH  11  12
ENDBRANCH   1  11
TORSDOF 14
ENDMDL
MODEL 4
REMARK VINA RESULT:    -3.789      3.538      6.799
REMARK INTER + INTRA:          -8.618
REMARK INTER:                  -7.011
REMARK INTRA:                  -1.607
REMARK UNBOUND:                -1.728
REMARK SMILES CCCCCCCCCCCCCCCC(=O)[O-]
REMARK SMILES IDX 9 1 10 2 11 3 12 4 13 5 14 6 15 7 16 8 17 9 18 10 8 11 7 12
REMARK SMILES IDX 6 13 5 14 4 15 3 16 2 17 1 18
REMARK H PARENT
REMARK Flexibility Score: inf
ROOT
ATOM      1  C   UNL     1      -4.396  13.725 -15.771  1.00  0.00     0.000 C 
ENDROOT
BRANCH   1   2
ATOM      2  C   UNL     1      -5.126  12.458 -15.302  1.00  0.00     0.000 C 
BRANCH   2   3
ATOM      3  C   UNL     1      -6.256  12.041 -16.255  1.00  0.00     0.000 C 
BRANCH   3   4
ATOM      4  C   UNL     1      -6.164  12.734 -17.625  1.00  0.00     0.000 C 
BRANCH   4   5
ATOM      5  C   UNL     1      -5.930  11.724 -18.769  1.00  0.00     0.000 C 
BRANCH   5   6
ATOM      6  C   UNL     1      -4.506  11.764 -19.354  1.00  0.00     0.006 C 
BRANCH   6   7
ATOM      7  C   UNL     1      -3.411  11.289 -18.381  1.00  0.00     0.053 C 
BRANCH   7   8
ATOM      8  C   UNL     1      -3.555   9.847 -17.994  1.00  0.00     0.041 C 
ATOM      9  O   UNL     1      -3.939   9.533 -16.836  1.00  0.00    -0.550 OA
ATOM     10  O   UNL     1      -3.197   8.848 -18.889  1.00  0.00    -0.550 OA
ENDBRANCH   7   8
ENDBRANCH   6   7
ENDBRANCH   5   6
ENDBRANCH   4   5
ENDBRANCH   3   4
ENDBRANCH   2   3
ENDBRANCH   1   2
BRANCH   1  11
ATOM     11  C   UNL     1      -2.983  13.796 -15.180  1.00  0.00     0.000 C 
BRANCH  11  12
ATOM     12  C   UNL     1      -2.005  14.441 -16.172  1.00  0.00    -0.000 C 
BRANCH  12  13
ATOM     13  C   UNL     1      -2.590  14.567 -17.589  1.00  0.00    -0.000 C 
BRANCH  13  14
ATOM     14  C   UNL     1      -1.690  15.307 -18.599  1.00  0.00    -0.000 C 
BRANCH  14  15
ATOM     15  C   UNL     1      -0.371  15.829 -17.990  1.00  0.00    -0.000 C 
BRANCH  15  16
ATOM     16  C   UNL     1       0.171  17.056 -18.744  1.00  0.00    -0.000 C 
BRANCH  16  17
ATOM     17  C   UNL     1      -0.798  18.247 -18.704  1.00  0.00    -0.003 C 
ATOM     18  C   UNL     1      -0.077  19.595 -18.736  1.00  0.00     0.004 C 
ENDBRANCH  16  17
ENDBRANCH  15  16
ENDBRANCH  14  15
ENDBRANCH  13  14
ENDBRANCH  12  13
ENDBRANCH  11  12
ENDBRANCH   1  11
TORSDOF 14
ENDMDL
MODEL 5
REMARK VINA RESULT:    -3.789      2.884      7.257
REMARK INTER + INTRA:          -8.618
REMARK INTER:                  -7.478
REMARK INTRA:                  -1.140
REMARK UNBOUND:                -1.728
REMARK SMILES CCCCCCCCCCCCCCCC(=O)[O-]
REMARK SMILES IDX 9 1 10 2 11 3 12 4 13 5 14 6 15 7 16 8 17 9 18 10 8 11 7 12
REMARK SMILES IDX 6 13 5 14 4 15 3 16 2 17 1 18
REMARK H PARENT
REMARK Flexibility Score: inf
ROOT
ATOM      1  C   UNL     1      -3.863  12.991 -19.054  1.00  0.00     0.000 C 
ENDROOT
BRANCH   1   2
ATOM      2  C   UNL     1      -3.620  11.476 -19.106  1.00  0.00     0.000 C 
BRANCH   2   3
ATOM      3  C   UNL     1      -3.199  10.898 -17.746  1.00  0.00     0.000 C 
BRANCH   3   4
ATOM      4  C   UNL     1      -4.208   9.876 -17.197  1.00  0.00     0.000 C 
BRANCH   4   5
ATOM      5  C   UNL     1      -5.070  10.467 -16.061  1.00  0.00     0.000 C 
BRANCH   5   6
ATOM      6  C   UNL     1      -6.355  11.162 -16.550  1.00  0.00     0.006 C 
BRANCH   6   7
ATOM      7  C   UNL     1      -6.282  12.701 -16.540  1.00  0.00     0.053 C 
BRANCH   7   8
ATOM      8  C   UNL     1      -5.710  13.254 -15.268  1.00  0.00     0.041 C 
ATOM      9  O   UNL     1      -6.452  13.451 -14.269  1.00  0.00    -0.550 OA
ATOM     10  O   UNL     1      -4.371  13.616 -15.207  1.00  0.00    -0.550 OA
ENDBRANCH   7   8
ENDBRANCH   6   7
ENDBRANCH   5   6
ENDBRANCH   4   5
ENDBRANCH   3   4
ENDBRANCH   2   3
ENDBRANCH   1   2
BRANCH   1  11
ATOM     11  C   UNL     1      -2.830  13.682 -18.154  1.00  0.00     0.000 C 
BRANCH  11  12
ATOM     12  C   UNL     1      -2.059  14.758 -18.932  1.00  0.00    -0.000 C 
BRANCH  12  13
ATOM     13  C   UNL     1      -1.333  15.754 -18.011  1.00  0.00    -0.000 C 
BRANCH  13  14
ATOM     14  C   UNL     1       0.139  16.023 -18.380  1.00  0.00    -0.000 C 
BRANCH  14  15
ATOM     15  C   UNL     1       0.437  17.501 -18.710  1.00  0.00    -0.000 C 
BRANCH  15  16
ATOM     16  C   UNL     1      -0.848  18.330 -18.879  1.00  0.00    -0.000 C 
BRANCH  16  17
ATOM     17  C   UNL     1      -0.777  19.682 -18.152  1.00  0.00    -0.003 C 
ATOM     18  C   UNL     1       0.632  20.009 -17.656  1.00  0.00     0.004 C 
ENDBRANCH  16  17
ENDBRANCH  15  16
ENDBRANCH  14  15
ENDBRANCH  13  14
ENDBRANCH  12  13
ENDBRANCH  11  12
ENDBRANCH   1  11
TORSDOF 14
ENDMDL
MODEL 6
REMARK VINA RESULT:    -3.773      1.216      3.281
REMARK INTER + INTRA:          -8.589
REMARK INTER:                  -7.396
REMARK INTRA:                  -1.193
REMARK UNBOUND:                -1.728
REMARK SMILES CCCCCCCCCCCCCCCC(=O)[O-]
REMARK SMILES IDX 9 1 10 2 11 3 12 4 13 5 14 6 15 7 16 8 17 9 18 10 8 11 7 12
REMARK SMILES IDX 6 13 5 14 4 15 3 16 2 17 1 18
REMARK H PARENT
REMARK Flexibility Score: inf
ROOT
ATOM      1  C   UNL     1      -4.297  11.020 -19.229  1.00  0.00     0.000 C 
ENDROOT
BRANCH   1   2
ATOM      2  C   UNL     1      -4.124  12.528 -19.461  1.00  0.00     0.000 C 
BRANCH   2   3
ATOM      3  C   UNL     1      -3.114  13.162 -18.492  1.00  0.00     0.000 C 
BRANCH   3   4
ATOM      4  C   UNL     1      -2.332  14.325 -19.126  1.00  0.00     0.000 C 
BRANCH   4   5
ATOM      5  C   UNL     1      -1.817  15.321 -18.065  1.00  0.00     0.000 C 
BRANCH   5   6
ATOM      6  C   UNL     1      -0.434  15.918 -18.390  1.00  0.00     0.006 C 
BRANCH   6   7
ATOM      7  C   UNL     1      -0.421  17.454 -18.497  1.00  0.00     0.053 C 
BRANCH   7   8
ATOM      8  C   UNL     1       0.773  17.981 -19.239  1.00  0.00     0.041 C 
ATOM      9  O   UNL     1       1.889  17.406 -19.139  1.00  0.00    -0.550 OA
ATOM     10  O   UNL     1       0.668  19.147 -19.985  1.00  0.00    -0.550 OA
ENDBRANCH   7   8
ENDBRANCH   6   7
ENDBRANCH   5   6
ENDBRANCH   4   5
ENDBRANCH   3   4
ENDBRANCH   2   3
ENDBRANCH   1   2
BRANCH   1  11
ATOM     11  C   UNL     1      -3.252  10.494 -18.236  1.00  0.00     0.000 C 
BRANCH  11  12
ATOM     12  C   UNL     1      -3.880   9.486 -17.263  1.00  0.00    -0.000 C 
BRANCH  12  13
ATOM     13  C   UNL     1      -4.663  10.164 -16.126  1.00  0.00    -0.000 C 
BRANCH  13  14
ATOM     14  C   UNL     1      -6.016  10.774 -16.545  1.00  0.00    -0.000 C 
BRANCH  14  15
ATOM     15  C   UNL     1      -6.134  12.284 -16.252  1.00  0.00    -0.000 C 
BRANCH  15  16
ATOM     16  C   UNL     1      -5.175  12.738 -15.136  1.00  0.00    -0.000 C 
BRANCH  16  17
ATOM     17  C   UNL     1      -4.173  13.799 -15.617  1.00  0.00    -0.003 C 
ATOM     18  C   UNL     1      -2.798  13.646 -14.968  1.00  0.00     0.004 C 
ENDBRANCH  16  17
ENDBRANCH  15  16
ENDBRANCH  14  15
ENDBRANCH  13  14
ENDBRANCH  12  13
ENDBRANCH  11  12
ENDBRANCH   1  11
TORSDOF 14
ENDMDL
MODEL 7
REMARK VINA RESULT:    -3.701      3.180      7.562
REMARK INTER + INTRA:          -8.458
REMARK INTER:                  -7.242
REMARK INTRA:                  -1.216
REMARK UNBOUND:                -1.728
REMARK SMILES CCCCCCCCCCCCCCCC(=O)[O-]
REMARK SMILES IDX 9 1 10 2 11 3 12 4 13 5 14 6 15 7 16 8 17 9 18 10 8 11 7 12
REMARK SMILES IDX 6 13 5 14 4 15 3 16 2 17 1 18
REMARK H PARENT
REMARK Flexibility Score: inf
ROOT
ATOM      1  C   UNL     1      -2.732  14.169 -17.784  1.00  0.00     0.000 C 
ENDROOT
BRANCH   1   2
ATOM      2  C   UNL     1      -2.404  14.494 -16.319  1.00  0.00     0.000 C 
BRANCH   2   3
ATOM      3  C   UNL     1      -3.172  13.602 -15.331  1.00  0.00     0.000 C 
BRANCH   3   4
ATOM      4  C   UNL     1      -4.681  13.555 -15.622  1.00  0.00     0.000 C 
BRANCH   4   5
ATOM      5  C   UNL     1      -5.254  12.129 -15.475  1.00  0.00     0.000 C 
BRANCH   5   6
ATOM      6  C   UNL     1      -5.337  11.350 -16.801  1.00  0.00     0.006 C 
BRANCH   6   7
ATOM      7  C   UNL     1      -4.388  10.139 -16.881  1.00  0.00     0.053 C 
BRANCH   7   8
ATOM      8  C   UNL     1      -3.412  10.231 -18.017  1.00  0.00     0.041 C 
ATOM      9  O   UNL     1      -2.328   9.593 -17.978  1.00  0.00    -0.550 OA
ATOM     10  O   UNL     1      -3.670  11.077 -19.087  1.00  0.00    -0.550 OA
ENDBRANCH   7   8
ENDBRANCH   6   7
ENDBRANCH   5   6
ENDBRANCH   4   5
ENDBRANCH   3   4
ENDBRANCH   2   3
ENDBRANCH   1   2
BRANCH   1  11
ATOM     11  C   UNL     1      -1.907  15.042 -18.737  1.00  0.00     0.000 C 
BRANCH  11  12
ATOM     12  C   UNL     1      -0.818  15.810 -17.973  1.00  0.00    -0.000 C 
BRANCH  12  13
ATOM     13  C   UNL     1       0.554  15.743 -18.664  1.00  0.00    -0.000 C 
BRANCH  13  14
ATOM     14  C   UNL     1       1.354  17.060 -18.644  1.00  0.00    -0.000 C 
BRANCH  14  15
ATOM     15  C   UNL     1       1.366  17.802 -19.998  1.00  0.00    -0.000 C 
BRANCH  15  16
ATOM     16  C   UNL     1       0.697  19.186 -19.908  1.00  0.00    -0.000 C 
BRANCH  16  17
ATOM     17  C   UNL     1       0.387  19.597 -18.461  1.00  0.00    -0.003 C 
ATOM     18  C   UNL     1      -1.108  19.806 -18.217  1.00  0.00     0.004 C 
ENDBRANCH  16  17
ENDBRANCH  15  16
ENDBRANCH  14  15
ENDBRANCH  13  14
ENDBRANCH  12  13
ENDBRANCH  11  12
ENDBRANCH   1  11
TORSDOF 14
ENDMDL
MODEL 8
REMARK VINA RESULT:    -3.606      3.173      6.730
REMARK INTER + INTRA:          -8.284
REMARK INTER:                  -7.253
REMARK INTRA:                  -1.031
REMARK UNBOUND:                -1.728
REMARK SMILES CCCCCCCCCCCCCCCC(=O)[O-]
REMARK SMILES IDX 9 1 10 2 11 3 12 4 13 5 14 6 15 7 16 8 17 9 18 10 8 11 7 12
REMARK SMILES IDX 6 13 5 14 4 15 3 16 2 17 1 18
REMARK H PARENT
REMARK Flexibility Score: inf
ROOT
ATOM      1  C   UNL     1      -3.212  13.624 -15.122  1.00  0.00     0.000 C 
ENDROOT
BRANCH   1   2
ATOM      2  C   UNL     1      -4.492  13.149 -15.825  1.00  0.00     0.000 C 
BRANCH   2   3
ATOM      3  C   UNL     1      -4.995  11.801 -15.286  1.00  0.00     0.000 C 
BRANCH   3   4
ATOM      4  C   UNL     1      -4.956  10.686 -16.344  1.00  0.00     0.000 C 
BRANCH   4   5
ATOM      5  C   UNL     1      -3.685  10.762 -17.217  1.00  0.00     0.000 C 
BRANCH   5   6
ATOM      6  C   UNL     1      -3.960  10.657 -18.729  1.00  0.00     0.006 C 
BRANCH   6   7
ATOM      7  C   UNL     1      -4.310  11.998 -19.400  1.00  0.00     0.053 C 
BRANCH   7   8
ATOM      8  C   UNL     1      -5.786  12.259 -19.458  1.00  0.00     0.041 C 
ATOM      9  O   UNL     1      -6.440  11.994 -20.501  1.00  0.00    -0.550 OA
ATOM     10  O   UNL     1      -6.428  12.860 -18.383  1.00  0.00    -0.550 OA
ENDBRANCH   7   8
ENDBRANCH   6   7
ENDBRANCH   5   6
ENDBRANCH   4   5
ENDBRANCH   3   4
ENDBRANCH   2   3
ENDBRANCH   1   2
BRANCH   1  11
ATOM     11  C   UNL     1      -2.302  14.384 -16.095  1.00  0.00     0.000 C 
BRANCH  11  12
ATOM     12  C   UNL     1      -2.761  14.180 -17.547  1.00  0.00    -0.000 C 
BRANCH  12  13
ATOM     13  C   UNL     1      -1.870  14.915 -18.562  1.00  0.00    -0.000 C 
BRANCH  13  14
ATOM     14  C   UNL     1      -0.961  16.004 -17.958  1.00  0.00    -0.000 C 
BRANCH  14  15
ATOM     15  C   UNL     1       0.456  16.040 -18.567  1.00  0.00    -0.000 C 
BRANCH  15  16
ATOM     16  C   UNL     1       0.996  17.475 -18.701  1.00  0.00    -0.000 C 
BRANCH  16  17
ATOM     17  C   UNL     1      -0.096  18.479 -19.104  1.00  0.00    -0.003 C 
ATOM     18  C   UNL     1      -0.336  19.547 -18.037  1.00  0.00     0.004 C 
ENDBRANCH  16  17
ENDBRANCH  15  16
ENDBRANCH  14  15
ENDBRANCH  13  14
ENDBRANCH  12  13
ENDBRANCH  11  12
ENDBRANCH   1  11
TORSDOF 14
ENDMDL
MODEL 9
REMARK VINA RESULT:    -3.550      1.133      3.195
REMARK INTER + INTRA:          -8.183
REMARK INTER:                  -6.853
REMARK INTRA:                  -1.330
REMARK UNBOUND:                -1.728
REMARK SMILES CCCCCCCCCCCCCCCC(=O)[O-]
REMARK SMILES IDX 9 1 10 2 11 3 12 4 13 5 14 6 15 7 16 8 17 9 18 10 8 11 7 12
REMARK SMILES IDX 6 13 5 14 4 15 3 16 2 17 1 18
REMARK H PARENT
REMARK Flexibility Score: inf
ROOT
ATOM      1  C   UNL     1      -3.123  12.924 -18.764  1.00  0.00     0.000 C 
ENDROOT
BRANCH   1   2
ATOM      2  C   UNL     1      -2.760  14.402 -18.971  1.00  0.00     0.000 C 
BRANCH   2   3
ATOM      3  C   UNL     1      -1.665  14.881 -18.005  1.00  0.00     0.000 C 
BRANCH   3   4
ATOM      4  C   UNL     1      -0.982  16.176 -18.477  1.00  0.00     0.000 C 
BRANCH   4   5
ATOM      5  C   UNL     1       0.557  16.077 -18.402  1.00  0.00     0.000 C 
BRANCH   5   6
ATOM      6  C   UNL     1       1.291  17.135 -19.247  1.00  0.00     0.006 C 
BRANCH   6   7
ATOM      7  C   UNL     1       0.517  18.456 -19.416  1.00  0.00     0.053 C 
BRANCH   7   8
ATOM      8  C   UNL     1       0.653  19.372 -18.235  1.00  0.00     0.041 C 
ATOM      9  O   UNL     1       1.791  19.752 -17.852  1.00  0.00    -0.550 OA
ATOM     10  O   UNL     1      -0.472  19.750 -17.514  1.00  0.00    -0.550 OA
ENDBRANCH   7   8
ENDBRANCH   6   7
ENDBRANCH   5   6
ENDBRANCH   4   5
ENDBRANCH   3   4
ENDBRANCH   2   3
ENDBRANCH   1   2
BRANCH   1  11
ATOM     11  C   UNL     1      -4.464  12.591 -19.431  1.00  0.00     0.000 C 
BRANCH  11  12
ATOM     12  C   UNL     1      -5.093  11.339 -18.800  1.00  0.00    -0.000 C 
BRANCH  12  13
ATOM     13  C   UNL     1      -4.178  10.673 -17.759  1.00  0.00    -0.000 C 
BRANCH  13  14
ATOM     14  C   UNL     1      -4.726  10.677 -16.318  1.00  0.00    -0.000 C 
BRANCH  14  15
ATOM     15  C   UNL     1      -5.977  11.561 -16.131  1.00  0.00    -0.000 C 
BRANCH  15  16
ATOM     16  C   UNL     1      -5.713  12.753 -15.195  1.00  0.00    -0.000 C 
BRANCH  16  17
ATOM     17  C   UNL     1      -4.630  13.699 -15.737  1.00  0.00    -0.003 C 
ATOM     18  C   UNL     1      -3.279  13.504 -15.049  1.00  0.00     0.004 C 
ENDBRANCH  16  17
ENDBRANCH  15  16
ENDBRANCH  14  15
ENDBRANCH  13  14
ENDBRANCH  12  13
ENDBRANCH  11  12
ENDBRANCH   1  11
TORSDOF 14
ENDMDL
