MODEL 1
REMARK VINA RESULT:    21.445      0.000      0.000
REMARK INTER + INTRA:          33.386
REMARK INTER:                  35.236
REMARK INTRA:                  -1.850
REMARK UNBOUND:                -1.850
REMARK SMILES C[C@@H]1O[C@@H](OC[C@@H]2O[C@@H](Oc3c(-c4ccc(O)c(O)c4)oc4cc(O)cc(O)c4c3=O)[C@@H](O)[C@@H](O)[C@@H]2O)[C@@H](O)[C@@H](O)[C@H]1O
REMARK SMILES IDX 7 1 36 2 34 3 32 4 9 5 8 6 6 7 5 8 4 9 1 10 2 11 42 12 3 13
REMARK SMILES IDX 40 14 38 15 43 16 41 18 39 20 37 22 35 24 10 26 11 27 12 28
REMARK SMILES IDX 30 29 21 30 29 31 31 32 22 33 27 34 23 35 26 36 24 37 13 38
REMARK SMILES IDX 20 39 14 40 18 41 15 42 16 43 19 44 17 46 28 48 25 50 33 52
REMARK H PARENT 43 17 41 19 39 21 37 23 35 25 19 45 17 47 28 49 25 51 33 53
REMARK Flexibility Score: inf
ROOT
ATOM      1  C   UNL     1     -14.223  58.285  31.238  1.00  0.00     0.180 C 
ATOM      2  C   UNL     1     -13.288  58.549  32.421  1.00  0.00     0.177 C 
ATOM      3  C   UNL     1     -14.187  59.263  33.522  1.00  0.00     0.180 C 
ATOM      4  C   UNL     1     -15.063  60.462  32.850  1.00  0.00     0.214 C 
ATOM      5  C   UNL     1     -15.502  60.229  31.340  1.00  0.00     0.339 C 
ATOM      6  O   UNL     1     -14.550  59.491  30.571  1.00  0.00    -0.332 OA
ENDROOT
BRANCH   1   7
ATOM      7  C   UNL     1     -13.951  57.140  30.240  1.00  0.00     0.198 C 
BRANCH   7   8
ATOM      8  O   UNL     1     -12.954  56.203  30.632  1.00  0.00    -0.347 OA
BRANCH   8   9
ATOM      9  C   UNL     1     -13.592  54.982  30.998  1.00  0.00     0.281 C 
ATOM     10  C   UNL     1     -17.072  53.954  31.514  1.00  0.00     0.041 C 
ATOM     11  C   UNL     1     -15.823  54.605  32.092  1.00  0.00     0.150 C 
ATOM     12  C   UNL     1     -15.083  53.580  33.007  1.00  0.00     0.174 C 
ATOM     13  O   UNL     1     -15.049  55.117  30.988  1.00  0.00    -0.344 OA
ATOM     14  C   UNL     1     -13.746  54.195  33.471  1.00  0.00     0.179 C 
ATOM     15  C   UNL     1     -12.905  54.228  32.201  1.00  0.00     0.202 C 
BRANCH  12  16
ATOM     16  O   UNL     1     -15.838  53.142  34.122  1.00  0.00    -0.388 OA
ATOM     17  H   UNL     1     -16.771  53.036  33.795  1.00  0.00     0.211 HD
ENDBRANCH  12  16
BRANCH  14  18
ATOM     18  O   UNL     1     -13.927  55.493  34.001  1.00  0.00    -0.387 OA
ATOM     19  H   UNL     1     -14.452  55.391  34.847  1.00  0.00     0.211 HD
ENDBRANCH  14  18
BRANCH  15  20
ATOM     20  O   UNL     1     -11.586  54.702  32.414  1.00  0.00    -0.385 OA
ATOM     21  H   UNL     1     -11.207  54.250  33.226  1.00  0.00     0.211 HD
ENDBRANCH  15  20
ENDBRANCH   8   9
ENDBRANCH   7   8
ENDBRANCH   1   7
BRANCH   2  22
ATOM     22  O   UNL     1     -12.182  59.309  32.037  1.00  0.00    -0.387 OA
ATOM     23  H   UNL     1     -11.477  59.226  32.745  1.00  0.00     0.211 HD
ENDBRANCH   2  22
BRANCH   3  24
ATOM     24  O   UNL     1     -14.989  58.263  34.123  1.00  0.00    -0.387 OA
ATOM     25  H   UNL     1     -15.164  58.477  35.076  1.00  0.00     0.211 HD
ENDBRANCH   3  24
BRANCH   5  26
ATOM     26  O   UNL     1     -16.712  59.548  31.271  1.00  0.00    -0.454 OA
BRANCH  26  27
ATOM     27  C   UNL     1     -17.863  60.081  30.630  1.00  0.00     0.214 A 
ATOM     28  C   UNL     1     -17.996  59.901  29.238  1.00  0.00     0.180 A 
ATOM     29  C   UNL     1     -18.984  60.653  31.315  1.00  0.00     0.239 A 
ATOM     30  O   UNL     1     -19.158  60.156  28.638  1.00  0.00    -0.452 OA
ATOM     31  C   UNL     1     -20.237  60.807  30.668  1.00  0.00     0.111 A 
ATOM     32  O   UNL     1     -18.905  60.974  32.531  1.00  0.00    -0.285 OA
ATOM     33  C   UNL     1     -20.255  60.539  29.262  1.00  0.00     0.146 A 
ATOM     34  C   UNL     1     -21.475  61.082  31.321  1.00  0.00     0.134 A 
ATOM     35  C   UNL     1     -21.419  60.668  28.534  1.00  0.00     0.094 A 
ATOM     36  C   UNL     1     -22.612  61.251  30.561  1.00  0.00     0.093 A 
ATOM     37  C   UNL     1     -22.586  61.025  29.173  1.00  0.00     0.123 A 
BRANCH  28  38
ATOM     38  C   UNL     1     -16.901  59.330  28.430  1.00  0.00     0.025 A 
ATOM     39  C   UNL     1     -15.831  60.171  28.093  1.00  0.00     0.062 A 
ATOM     40  C   UNL     1     -16.868  57.991  27.994  1.00  0.00     0.016 A 
ATOM     41  C   UNL     1     -14.760  59.712  27.339  1.00  0.00     0.158 A 
ATOM     42  C   UNL     1     -15.796  57.510  27.224  1.00  0.00     0.051 A 
ATOM     43  C   UNL     1     -14.719  58.356  26.916  1.00  0.00     0.157 A 
BRANCH  41  44
ATOM     44  O   UNL     1     -13.777  60.643  27.000  1.00  0.00    -0.504 OA
ATOM     45  H   UNL     1     -13.970  61.455  26.423  1.00  0.00     0.293 HD
ENDBRANCH  41  44
BRANCH  43  46
ATOM     46  O   UNL     1     -13.631  57.836  26.213  1.00  0.00    -0.504 OA
ATOM     47  H   UNL     1     -13.275  58.291  25.383  1.00  0.00     0.293 HD
ENDBRANCH  43  46
ENDBRANCH  28  38
BRANCH  34  48
ATOM     48  O   UNL     1     -21.623  61.201  32.716  1.00  0.00    -0.507 OA
ATOM     49  H   UNL     1     -22.499  61.351  33.237  1.00  0.00     0.293 HD
ENDBRANCH  34  48
BRANCH  37  50
ATOM     50  O   UNL     1     -23.780  61.133  28.468  1.00  0.00    -0.508 OA
ATOM     51  H   UNL     1     -24.076  61.997  28.052  1.00  0.00     0.293 HD
ENDBRANCH  37  50
ENDBRANCH  26  27
ENDBRANCH   5  26
BRANCH   4  52
ATOM     52  O   UNL     1     -16.198  60.890  33.647  1.00  0.00    -0.384 OA
ATOM     53  H   UNL     1     -17.001  60.766  33.117  1.00  0.00     0.211 HD
ENDBRANCH   4  52
TORSDOF 16
ENDMDL
MODEL 2
REMARK VINA RESULT:    22.371      0.938      1.953
REMARK INTER + INTRA:          34.907
REMARK INTER:                  37.300
REMARK INTRA:                  -2.393
REMARK UNBOUND:                -1.850
REMARK SMILES C[C@@H]1O[C@@H](OC[C@@H]2O[C@@H](Oc3c(-c4ccc(O)c(O)c4)oc4cc(O)cc(O)c4c3=O)[C@@H](O)[C@@H](O)[C@@H]2O)[C@@H](O)[C@@H](O)[C@H]1O
REMARK SMILES IDX 7 1 36 2 34 3 32 4 9 5 8 6 6 7 5 8 4 9 1 10 2 11 42 12 3 13
REMARK SMILES IDX 40 14 38 15 43 16 41 18 39 20 37 22 35 24 10 26 11 27 12 28
REMARK SMILES IDX 30 29 21 30 29 31 31 32 22 33 27 34 23 35 26 36 24 37 13 38
REMARK SMILES IDX 20 39 14 40 18 41 15 42 16 43 19 44 17 46 28 48 25 50 33 52
REMARK H PARENT 43 17 41 19 39 21 37 23 35 25 19 45 17 47 28 49 25 51 33 53
REMARK Flexibility Score: inf
ROOT
ATOM      1  C   UNL     1     -14.022  58.873  31.246  1.00  0.00     0.180 C 
ATOM      2  C   UNL     1     -13.159  59.083  32.493  1.00  0.00     0.177 C 
ATOM      3  C   UNL     1     -14.174  59.484  33.649  1.00  0.00     0.180 C 
ATOM      4  C   UNL     1     -15.204  60.636  33.128  1.00  0.00     0.214 C 
ATOM      5  C   UNL     1     -15.573  60.578  31.582  1.00  0.00     0.339 C 
ATOM      6  O   UNL     1     -14.508  60.109  30.752  1.00  0.00    -0.332 OA
ENDROOT
BRANCH   1   7
ATOM      7  C   UNL     1     -13.565  57.946  30.100  1.00  0.00     0.198 C 
BRANCH   7   8
ATOM      8  O   UNL     1     -14.048  56.608  30.160  1.00  0.00    -0.347 OA
BRANCH   8   9
ATOM      9  C   UNL     1     -14.195  56.235  31.529  1.00  0.00     0.281 C 
ATOM     10  C   UNL     1     -11.981  54.734  34.034  1.00  0.00     0.041 C 
ATOM     11  C   UNL     1     -12.934  54.521  32.865  1.00  0.00     0.150 C 
ATOM     12  C   UNL     1     -14.326  54.075  33.409  1.00  0.00     0.174 C 
ATOM     13  O   UNL     1     -12.937  55.732  32.082  1.00  0.00    -0.344 OA
ATOM     14  C   UNL     1     -15.325  54.003  32.235  1.00  0.00     0.179 C 
ATOM     15  C   UNL     1     -15.531  55.463  31.848  1.00  0.00     0.202 C 
BRANCH  12  16
ATOM     16  O   UNL     1     -14.310  52.848  34.118  1.00  0.00    -0.388 OA
ATOM     17  H   UNL     1     -15.078  52.888  34.749  1.00  0.00     0.211 HD
ENDBRANCH  12  16
BRANCH  14  18
ATOM     18  O   UNL     1     -14.803  53.255  31.154  1.00  0.00    -0.387 OA
ATOM     19  H   UNL     1     -14.324  53.903  30.558  1.00  0.00     0.211 HD
ENDBRANCH  14  18
BRANCH  15  20
ATOM     20  O   UNL     1     -16.484  55.638  30.814  1.00  0.00    -0.385 OA
ATOM     21  H   UNL     1     -17.380  55.825  31.226  1.00  0.00     0.211 HD
ENDBRANCH  15  20
ENDBRANCH   8   9
ENDBRANCH   7   8
ENDBRANCH   1   7
BRANCH   2  22
ATOM     22  O   UNL     1     -12.169  60.042  32.273  1.00  0.00    -0.387 OA
ATOM     23  H   UNL     1     -12.606  60.943  32.214  1.00  0.00     0.211 HD
ENDBRANCH   2  22
BRANCH   3  24
ATOM     24  O   UNL     1     -14.834  58.300  34.061  1.00  0.00    -0.387 OA
ATOM     25  H   UNL     1     -14.781  57.604  33.356  1.00  0.00     0.211 HD
ENDBRANCH   3  24
BRANCH   5  26
ATOM     26  O   UNL     1     -16.669  59.751  31.362  1.00  0.00    -0.454 OA
BRANCH  26  27
ATOM     27  C   UNL     1     -17.863  60.201  30.735  1.00  0.00     0.214 A 
ATOM     28  C   UNL     1     -18.043  59.923  29.365  1.00  0.00     0.180 A 
ATOM     29  C   UNL     1     -18.976  60.780  31.426  1.00  0.00     0.239 A 
ATOM     30  O   UNL     1     -19.236  60.098  28.798  1.00  0.00    -0.452 OA
ATOM     31  C   UNL     1     -20.258  60.848  30.822  1.00  0.00     0.111 A 
ATOM     32  O   UNL     1     -18.861  61.184  32.614  1.00  0.00    -0.285 OA
ATOM     33  C   UNL     1     -20.320  60.486  29.440  1.00  0.00     0.146 A 
ATOM     34  C   UNL     1     -21.478  61.125  31.506  1.00  0.00     0.134 A 
ATOM     35  C   UNL     1     -21.516  60.526  28.753  1.00  0.00     0.094 A 
ATOM     36  C   UNL     1     -22.650  61.204  30.785  1.00  0.00     0.093 A 
ATOM     37  C   UNL     1     -22.669  60.886  29.415  1.00  0.00     0.123 A 
BRANCH  28  38
ATOM     38  C   UNL     1     -16.960  59.335  28.551  1.00  0.00     0.025 A 
ATOM     39  C   UNL     1     -16.905  57.938  28.448  1.00  0.00     0.062 A 
ATOM     40  C   UNL     1     -15.995  60.099  27.866  1.00  0.00     0.016 A 
ATOM     41  C   UNL     1     -15.921  57.305  27.702  1.00  0.00     0.158 A 
ATOM     42  C   UNL     1     -14.987  59.477  27.111  1.00  0.00     0.051 A 
ATOM     43  C   UNL     1     -14.960  58.078  26.996  1.00  0.00     0.157 A 
BRANCH  41  44
ATOM     44  O   UNL     1     -15.912  55.910  27.715  1.00  0.00    -0.504 OA
ATOM     45  H   UNL     1     -16.724  55.362  27.982  1.00  0.00     0.293 HD
ENDBRANCH  41  44
BRANCH  43  46
ATOM     46  O   UNL     1     -13.994  57.486  26.180  1.00  0.00    -0.504 OA
ATOM     47  H   UNL     1     -13.445  56.700  26.500  1.00  0.00     0.293 HD
ENDBRANCH  43  46
ENDBRANCH  28  38
BRANCH  34  48
ATOM     48  O   UNL     1     -21.576  61.333  32.896  1.00  0.00    -0.507 OA
ATOM     49  H   UNL     1     -21.039  62.004  33.462  1.00  0.00     0.293 HD
ENDBRANCH  34  48
BRANCH  37  50
ATOM     50  O   UNL     1     -23.893  60.906  28.754  1.00  0.00    -0.508 OA
ATOM     51  H   UNL     1     -24.643  60.288  29.004  1.00  0.00     0.293 HD
ENDBRANCH  37  50
ENDBRANCH  26  27
ENDBRANCH   5  26
BRANCH   4  52
ATOM     52  O   UNL     1     -16.405  60.771  33.931  1.00  0.00    -0.384 OA
ATOM     53  H   UNL     1     -17.129  60.324  33.465  1.00  0.00     0.211 HD
ENDBRANCH   4  52
TORSDOF 16
ENDMDL
MODEL 3
REMARK VINA RESULT:    22.785      2.146      8.080
REMARK INTER + INTRA:          35.587
REMARK INTER:                  31.762
REMARK INTRA:                   3.825
REMARK UNBOUND:                -1.850
REMARK SMILES C[C@@H]1O[C@@H](OC[C@@H]2O[C@@H](Oc3c(-c4ccc(O)c(O)c4)oc4cc(O)cc(O)c4c3=O)[C@@H](O)[C@@H](O)[C@@H]2O)[C@@H](O)[C@@H](O)[C@H]1O
REMARK SMILES IDX 7 1 36 2 34 3 32 4 9 5 8 6 6 7 5 8 4 9 1 10 2 11 42 12 3 13
REMARK SMILES IDX 40 14 38 15 43 16 41 18 39 20 37 22 35 24 10 26 11 27 12 28
REMARK SMILES IDX 30 29 21 30 29 31 31 32 22 33 27 34 23 35 26 36 24 37 13 38
REMARK SMILES IDX 20 39 14 40 18 41 15 42 16 43 19 44 17 46 28 48 25 50 33 52
REMARK H PARENT 43 17 41 19 39 21 37 23 35 25 19 45 17 47 28 49 25 51 33 53
REMARK Flexibility Score: inf
ROOT
ATOM      1  C   UNL     1     -17.128  59.137  28.257  1.00  0.00     0.180 C 
ATOM      2  C   UNL     1     -16.657  58.422  26.988  1.00  0.00     0.177 C 
ATOM      3  C   UNL     1     -15.192  57.898  27.315  1.00  0.00     0.180 C 
ATOM      4  C   UNL     1     -14.304  59.081  28.000  1.00  0.00     0.214 C 
ATOM      5  C   UNL     1     -15.113  60.114  28.897  1.00  0.00     0.339 C 
ATOM      6  O   UNL     1     -16.442  60.364  28.433  1.00  0.00    -0.332 OA
ENDROOT
BRANCH   1   7
ATOM      7  C   UNL     1     -18.628  59.274  28.592  1.00  0.00     0.198 C 
BRANCH   7   8
ATOM      8  O   UNL     1     -18.945  60.182  29.641  1.00  0.00    -0.347 OA
BRANCH   8   9
ATOM      9  C   UNL     1     -20.314  60.008  30.000  1.00  0.00     0.281 C 
ATOM     10  C   UNL     1     -23.511  60.663  28.332  1.00  0.00     0.041 C 
ATOM     11  C   UNL     1     -22.355  61.209  29.160  1.00  0.00     0.150 C 
ATOM     12  C   UNL     1     -22.788  61.299  30.656  1.00  0.00     0.174 C 
ATOM     13  O   UNL     1     -21.205  60.378  28.900  1.00  0.00    -0.344 OA
ATOM     14  C   UNL     1     -21.571  61.713  31.508  1.00  0.00     0.179 C 
ATOM     15  C   UNL     1     -20.665  60.488  31.460  1.00  0.00     0.202 C 
BRANCH  12  16
ATOM     16  O   UNL     1     -23.878  62.173  30.896  1.00  0.00    -0.388 OA
ATOM     17  H   UNL     1     -23.667  63.012  30.407  1.00  0.00     0.211 HD
ENDBRANCH  12  16
BRANCH  14  18
ATOM     18  O   UNL     1     -20.923  62.850  30.971  1.00  0.00    -0.387 OA
ATOM     19  H   UNL     1     -20.091  62.991  31.510  1.00  0.00     0.211 HD
ENDBRANCH  14  18
BRANCH  15  20
ATOM     20  O   UNL     1     -19.496  60.625  32.249  1.00  0.00    -0.385 OA
ATOM     21  H   UNL     1     -18.692  60.485  31.664  1.00  0.00     0.211 HD
ENDBRANCH  15  20
ENDBRANCH   8   9
ENDBRANCH   7   8
ENDBRANCH   1   7
BRANCH   2  22
ATOM     22  O   UNL     1     -16.704  59.269  25.879  1.00  0.00    -0.387 OA
ATOM     23  H   UNL     1     -15.768  59.404  25.542  1.00  0.00     0.211 HD
ENDBRANCH   2  22
BRANCH   3  24
ATOM     24  O   UNL     1     -15.328  56.758  28.145  1.00  0.00    -0.387 OA
ATOM     25  H   UNL     1     -14.789  56.858  28.971  1.00  0.00     0.211 HD
ENDBRANCH   3  24
BRANCH   5  26
ATOM     26  O   UNL     1     -15.207  59.669  30.211  1.00  0.00    -0.454 OA
BRANCH  26  27
ATOM     27  C   UNL     1     -14.495  58.538  30.695  1.00  0.00     0.214 A 
ATOM     28  C   UNL     1     -13.237  58.747  31.296  1.00  0.00     0.180 A 
ATOM     29  C   UNL     1     -15.028  57.210  30.765  1.00  0.00     0.239 A 
ATOM     30  O   UNL     1     -12.651  57.767  31.982  1.00  0.00    -0.452 OA
ATOM     31  C   UNL     1     -14.434  56.224  31.595  1.00  0.00     0.111 A 
ATOM     32  O   UNL     1     -16.079  56.900  30.141  1.00  0.00    -0.285 OA
ATOM     33  C   UNL     1     -13.184  56.580  32.194  1.00  0.00     0.146 A 
ATOM     34  C   UNL     1     -15.035  54.986  31.965  1.00  0.00     0.134 A 
ATOM     35  C   UNL     1     -12.515  55.691  33.011  1.00  0.00     0.094 A 
ATOM     36  C   UNL     1     -14.323  54.100  32.745  1.00  0.00     0.093 A 
ATOM     37  C   UNL     1     -13.075  54.462  33.281  1.00  0.00     0.123 A 
BRANCH  28  38
ATOM     38  C   UNL     1     -12.588  60.073  31.276  1.00  0.00     0.025 A 
ATOM     39  C   UNL     1     -11.195  60.121  31.433  1.00  0.00     0.062 A 
ATOM     40  C   UNL     1     -13.286  61.282  31.093  1.00  0.00     0.016 A 
ATOM     41  C   UNL     1     -10.506  61.325  31.423  1.00  0.00     0.158 A 
ATOM     42  C   UNL     1     -12.608  62.513  31.087  1.00  0.00     0.051 A 
ATOM     43  C   UNL     1     -11.211  62.544  31.220  1.00  0.00     0.157 A 
BRANCH  41  44
ATOM     44  O   UNL     1      -9.131  61.273  31.654  1.00  0.00    -0.504 OA
ATOM     45  H   UNL     1      -8.464  61.044  30.923  1.00  0.00     0.293 HD
ENDBRANCH  41  44
BRANCH  43  46
ATOM     46  O   UNL     1     -10.551  63.771  31.136  1.00  0.00    -0.504 OA
ATOM     47  H   UNL     1      -9.749  63.897  30.534  1.00  0.00     0.293 HD
ENDBRANCH  43  46
ENDBRANCH  28  38
BRANCH  34  48
ATOM     48  O   UNL     1     -16.330  54.589  31.580  1.00  0.00    -0.507 OA
ATOM     49  H   UNL     1     -16.948  53.927  32.070  1.00  0.00     0.293 HD
ENDBRANCH  34  48
BRANCH  37  50
ATOM     50  O   UNL     1     -12.436  53.560  34.125  1.00  0.00    -0.508 OA
ATOM     51  H   UNL     1     -12.676  52.584  34.140  1.00  0.00     0.293 HD
ENDBRANCH  37  50
ENDBRANCH  26  27
ENDBRANCH   5  26
BRANCH   4  52
ATOM     52  O   UNL     1     -13.127  58.610  28.706  1.00  0.00    -0.384 OA
ATOM     53  H   UNL     1     -12.490  58.290  28.049  1.00  0.00     0.211 HD
ENDBRANCH   4  52
TORSDOF 16
ENDMDL
MODEL 4
REMARK VINA RESULT:    24.140      1.213      2.253
REMARK INTER + INTRA:          37.814
REMARK INTER:                  31.808
REMARK INTRA:                   6.007
REMARK UNBOUND:                -1.850
REMARK SMILES C[C@@H]1O[C@@H](OC[C@@H]2O[C@@H](Oc3c(-c4ccc(O)c(O)c4)oc4cc(O)cc(O)c4c3=O)[C@@H](O)[C@@H](O)[C@@H]2O)[C@@H](O)[C@@H](O)[C@H]1O
REMARK SMILES IDX 7 1 36 2 34 3 32 4 9 5 8 6 6 7 5 8 4 9 1 10 2 11 42 12 3 13
REMARK SMILES IDX 40 14 38 15 43 16 41 18 39 20 37 22 35 24 10 26 11 27 12 28
REMARK SMILES IDX 30 29 21 30 29 31 31 32 22 33 27 34 23 35 26 36 24 37 13 38
REMARK SMILES IDX 20 39 14 40 18 41 15 42 16 43 19 44 17 46 28 48 25 50 33 52
REMARK H PARENT 43 17 41 19 39 21 37 23 35 25 19 45 17 47 28 49 25 51 33 53
REMARK Flexibility Score: inf
ROOT
ATOM      1  C   UNL     1     -15.094  56.648  31.259  1.00  0.00     0.180 C 
ATOM      2  C   UNL     1     -13.626  56.850  31.645  1.00  0.00     0.177 C 
ATOM      3  C   UNL     1     -13.495  58.388  32.027  1.00  0.00     0.180 C 
ATOM      4  C   UNL     1     -14.208  59.319  30.895  1.00  0.00     0.214 C 
ATOM      5  C   UNL     1     -15.468  58.673  30.170  1.00  0.00     0.339 C 
ATOM      6  O   UNL     1     -15.378  57.256  30.011  1.00  0.00    -0.332 OA
ENDROOT
BRANCH   1   7
ATOM      7  C   UNL     1     -15.776  55.270  31.386  1.00  0.00     0.198 C 
BRANCH   7   8
ATOM      8  O   UNL     1     -16.382  54.996  32.645  1.00  0.00    -0.347 OA
BRANCH   8   9
ATOM      9  C   UNL     1     -15.356  54.780  33.610  1.00  0.00     0.281 C 
ATOM     10  C   UNL     1     -11.985  56.126  34.124  1.00  0.00     0.041 C 
ATOM     11  C   UNL     1     -12.873  55.114  33.411  1.00  0.00     0.150 C 
ATOM     12  C   UNL     1     -12.737  53.726  34.110  1.00  0.00     0.174 C 
ATOM     13  O   UNL     1     -14.209  55.658  33.375  1.00  0.00    -0.344 OA
ATOM     14  C   UNL     1     -13.745  52.744  33.478  1.00  0.00     0.179 C 
ATOM     15  C   UNL     1     -15.098  53.263  33.951  1.00  0.00     0.202 C 
BRANCH  12  16
ATOM     16  O   UNL     1     -11.430  53.180  34.074  1.00  0.00    -0.388 OA
ATOM     17  H   UNL     1     -11.437  52.413  34.707  1.00  0.00     0.211 HD
ENDBRANCH  12  16
BRANCH  14  18
ATOM     18  O   UNL     1     -13.661  52.748  32.066  1.00  0.00    -0.387 OA
ATOM     19  H   UNL     1     -14.551  52.446  31.721  1.00  0.00     0.211 HD
ENDBRANCH  14  18
BRANCH  15  20
ATOM     20  O   UNL     1     -16.185  52.453  33.536  1.00  0.00    -0.385 OA
ATOM     21  H   UNL     1     -15.832  51.559  33.250  1.00  0.00     0.211 HD
ENDBRANCH  15  20
ENDBRANCH   8   9
ENDBRANCH   7   8
ENDBRANCH   1   7
BRANCH   2  22
ATOM     22  O   UNL     1     -12.770  56.465  30.611  1.00  0.00    -0.387 OA
ATOM     23  H   UNL     1     -13.190  55.699  30.119  1.00  0.00     0.211 HD
ENDBRANCH   2  22
BRANCH   3  24
ATOM     24  O   UNL     1     -14.062  58.551  33.315  1.00  0.00    -0.387 OA
ATOM     25  H   UNL     1     -13.534  58.063  33.997  1.00  0.00     0.211 HD
ENDBRANCH   3  24
BRANCH   5  26
ATOM     26  O   UNL     1     -16.638  58.941  30.872  1.00  0.00    -0.454 OA
BRANCH  26  27
ATOM     27  C   UNL     1     -17.719  59.680  30.318  1.00  0.00     0.214 A 
ATOM     28  C   UNL     1     -17.805  59.788  28.915  1.00  0.00     0.180 A 
ATOM     29  C   UNL     1     -18.824  60.193  31.071  1.00  0.00     0.239 A 
ATOM     30  O   UNL     1     -18.918  60.248  28.346  1.00  0.00    -0.452 OA
ATOM     31  C   UNL     1     -20.034  60.569  30.433  1.00  0.00     0.111 A 
ATOM     32  O   UNL     1     -18.775  60.260  32.329  1.00  0.00    -0.285 OA
ATOM     33  C   UNL     1     -20.010  60.586  29.003  1.00  0.00     0.146 A 
ATOM     34  C   UNL     1     -21.276  60.808  31.093  1.00  0.00     0.134 A 
ATOM     35  C   UNL     1     -21.130  60.948  28.282  1.00  0.00     0.094 A 
ATOM     36  C   UNL     1     -22.364  61.213  30.351  1.00  0.00     0.093 A 
ATOM     37  C   UNL     1     -22.294  61.263  28.947  1.00  0.00     0.123 A 
BRANCH  28  38
ATOM     38  C   UNL     1     -16.720  59.302  28.040  1.00  0.00     0.025 A 
ATOM     39  C   UNL     1     -15.578  60.106  27.907  1.00  0.00     0.062 A 
ATOM     40  C   UNL     1     -16.763  58.076  27.348  1.00  0.00     0.016 A 
ATOM     41  C   UNL     1     -14.512  59.722  27.106  1.00  0.00     0.158 A 
ATOM     42  C   UNL     1     -15.697  57.673  26.527  1.00  0.00     0.051 A 
ATOM     43  C   UNL     1     -14.550  58.476  26.424  1.00  0.00     0.157 A 
BRANCH  41  44
ATOM     44  O   UNL     1     -13.451  60.621  26.987  1.00  0.00    -0.504 OA
ATOM     45  H   UNL     1     -13.481  61.555  27.384  1.00  0.00     0.293 HD
ENDBRANCH  41  44
BRANCH  43  46
ATOM     46  O   UNL     1     -13.473  58.020  25.662  1.00  0.00    -0.504 OA
ATOM     47  H   UNL     1     -12.522  58.279  25.887  1.00  0.00     0.293 HD
ENDBRANCH  43  46
ENDBRANCH  28  38
BRANCH  34  48
ATOM     48  O   UNL     1     -21.475  60.661  32.479  1.00  0.00    -0.507 OA
ATOM     49  H   UNL     1     -22.274  60.210  32.947  1.00  0.00     0.293 HD
ENDBRANCH  34  48
BRANCH  37  50
ATOM     50  O   UNL     1     -23.445  61.602  28.245  1.00  0.00    -0.508 OA
ATOM     51  H   UNL     1     -23.410  62.097  27.372  1.00  0.00     0.293 HD
ENDBRANCH  37  50
ENDBRANCH  26  27
ENDBRANCH   5  26
BRANCH   4  52
ATOM     52  O   UNL     1     -14.514  60.667  31.337  1.00  0.00    -0.384 OA
ATOM     53  H   UNL     1     -14.840  60.617  32.249  1.00  0.00     0.211 HD
ENDBRANCH   4  52
TORSDOF 16
ENDMDL
