MODEL 1
REMARK VINA RESULT:    -6.914      0.000      0.000
REMARK INTER + INTRA:          -8.344
REMARK INTER:                  -8.127
REMARK INTRA:                  -0.217
REMARK UNBOUND:                -0.217
REMARK SMILES O=c1c(O)c(-c2ccc(O)cc2)oc2cc(O)cc(O)c12
REMARK SMILES IDX 5 1 3 2 2 3 1 4 21 5 19 6 18 7 16 8 15 9 14 10 13 11 6 12
REMARK SMILES IDX 7 13 8 14 9 15 12 16 11 17 10 18 4 20 20 22 17 24
REMARK H PARENT 10 19 4 21 20 23 17 25
REMARK Flexibility Score: inf
ROOT
ATOM      1  C   UNL     1      12.800  10.425  12.890  1.00  0.00     0.180 A 
ATOM      2  C   UNL     1      12.516  10.659  14.246  1.00  0.00     0.208 A 
ATOM      3  C   UNL     1      11.255  10.298  14.750  1.00  0.00     0.238 A 
ATOM      4  O   UNL     1      10.987  10.559  15.951  1.00  0.00    -0.285 OA
ATOM      5  C   UNL     1      10.303   9.693  13.895  1.00  0.00     0.111 A 
ATOM      6  C   UNL     1       9.010   9.250  14.308  1.00  0.00     0.134 A 
ATOM      7  C   UNL     1       8.101   8.786  13.350  1.00  0.00     0.093 A 
ATOM      8  C   UNL     1       8.459   8.687  12.005  1.00  0.00     0.123 A 
ATOM      9  C   UNL     1       9.740   9.061  11.600  1.00  0.00     0.094 A 
ATOM     10  C   UNL     1      10.657   9.563  12.527  1.00  0.00     0.146 A 
ATOM     11  O   UNL     1      11.862   9.917  12.098  1.00  0.00    -0.452 OA
ENDROOT
BRANCH   1  12
ATOM     12  C   UNL     1      14.114  10.756  12.292  1.00  0.00     0.021 A 
ATOM     13  C   UNL     1      15.268  10.012  12.602  1.00  0.00     0.016 A 
ATOM     14  C   UNL     1      16.493  10.328  12.006  1.00  0.00     0.047 A 
ATOM     15  C   UNL     1      16.580  11.377  11.086  1.00  0.00     0.115 A 
ATOM     16  C   UNL     1      14.205  11.796  11.351  1.00  0.00     0.016 A 
ATOM     17  C   UNL     1      15.431  12.110  10.758  1.00  0.00     0.047 A 
BRANCH  15  18
ATOM     18  O   UNL     1      17.807  11.681  10.501  1.00  0.00    -0.508 OA
ATOM     19  H   UNL     1      18.682  11.466  10.966  1.00  0.00     0.293 HD
ENDBRANCH  15  18
ENDBRANCH   1  12
BRANCH   2  20
ATOM     20  O   UNL     1      13.463  11.277  15.067  1.00  0.00    -0.502 OA
ATOM     21  H   UNL     1      14.401  11.490  14.750  1.00  0.00     0.293 HD
ENDBRANCH   2  20
BRANCH   6  22
ATOM     22  O   UNL     1       8.584   9.220  15.639  1.00  0.00    -0.507 OA
ATOM     23  H   UNL     1       9.022   9.724  16.394  1.00  0.00     0.293 HD
ENDBRANCH   6  22
BRANCH   8  24
ATOM     24  O   UNL     1       7.533   8.205  11.081  1.00  0.00    -0.508 OA
ATOM     25  H   UNL     1       6.536   8.274  11.246  1.00  0.00     0.293 HD
ENDBRANCH   8  24
TORSDOF 5
ENDMDL
MODEL 2
REMARK VINA RESULT:    -6.652      1.100      1.160
REMARK INTER + INTRA:          -8.035
REMARK INTER:                  -7.793
REMARK INTRA:                  -0.243
REMARK UNBOUND:                -0.217
REMARK SMILES O=c1c(O)c(-c2ccc(O)cc2)oc2cc(O)cc(O)c12
REMARK SMILES IDX 5 1 3 2 2 3 1 4 21 5 19 6 18 7 16 8 15 9 14 10 13 11 6 12
REMARK SMILES IDX 7 13 8 14 9 15 12 16 11 17 10 18 4 20 20 22 17 24
REMARK H PARENT 10 19 4 21 20 23 17 25
REMARK Flexibility Score: inf
ROOT
ATOM      1  C   UNL     1      13.123   9.806  12.814  1.00  0.00     0.180 A 
ATOM      2  C   UNL     1      13.048  10.309  14.124  1.00  0.00     0.208 A 
ATOM      3  C   UNL     1      11.801  10.350  14.767  1.00  0.00     0.238 A 
ATOM      4  O   UNL     1      11.731  10.850  15.920  1.00  0.00    -0.285 OA
ATOM      5  C   UNL     1      10.648   9.873  14.098  1.00  0.00     0.111 A 
ATOM      6  C   UNL     1       9.340   9.829  14.668  1.00  0.00     0.134 A 
ATOM      7  C   UNL     1       8.250   9.461  13.870  1.00  0.00     0.093 A 
ATOM      8  C   UNL     1       8.429   9.070  12.543  1.00  0.00     0.123 A 
ATOM      9  C   UNL     1       9.711   9.052  11.992  1.00  0.00     0.094 A 
ATOM     10  C   UNL     1      10.813   9.450  12.753  1.00  0.00     0.146 A 
ATOM     11  O   UNL     1      12.014   9.427  12.189  1.00  0.00    -0.452 OA
ENDROOT
BRANCH   1  12
ATOM     12  C   UNL     1      14.406   9.708  12.080  1.00  0.00     0.021 A 
ATOM     13  C   UNL     1      15.061   8.474  11.909  1.00  0.00     0.016 A 
ATOM     14  C   UNL     1      16.259   8.403  11.191  1.00  0.00     0.047 A 
ATOM     15  C   UNL     1      16.810   9.556  10.624  1.00  0.00     0.115 A 
ATOM     16  C   UNL     1      14.955  10.859  11.489  1.00  0.00     0.016 A 
ATOM     17  C   UNL     1      16.153  10.785  10.772  1.00  0.00     0.047 A 
BRANCH  15  18
ATOM     18  O   UNL     1      18.004   9.470   9.912  1.00  0.00    -0.508 OA
ATOM     19  H   UNL     1      18.599  10.279   9.778  1.00  0.00     0.293 HD
ENDBRANCH  15  18
ENDBRANCH   1  12
BRANCH   2  20
ATOM     20  O   UNL     1      14.195  10.794  14.758  1.00  0.00    -0.502 OA
ATOM     21  H   UNL     1      14.206  11.056  15.736  1.00  0.00     0.293 HD
ENDBRANCH   2  20
BRANCH   6  22
ATOM     22  O   UNL     1       9.064  10.110  16.010  1.00  0.00    -0.507 OA
ATOM     23  H   UNL     1       8.452   9.565  16.597  1.00  0.00     0.293 HD
ENDBRANCH   6  22
BRANCH   8  24
ATOM     24  O   UNL     1       7.323   8.694  11.783  1.00  0.00    -0.508 OA
ATOM     25  H   UNL     1       6.530   8.221  12.200  1.00  0.00     0.293 HD
ENDBRANCH   8  24
TORSDOF 5
ENDMDL
MODEL 3
REMARK VINA RESULT:    -6.565      1.276      3.130
REMARK INTER + INTRA:          -7.932
REMARK INTER:                  -7.765
REMARK INTRA:                  -0.167
REMARK UNBOUND:                -0.217
REMARK SMILES O=c1c(O)c(-c2ccc(O)cc2)oc2cc(O)cc(O)c12
REMARK SMILES IDX 5 1 3 2 2 3 1 4 21 5 19 6 18 7 16 8 15 9 14 10 13 11 6 12
REMARK SMILES IDX 7 13 8 14 9 15 12 16 11 17 10 18 4 20 20 22 17 24
REMARK H PARENT 10 19 4 21 20 23 17 25
REMARK Flexibility Score: inf
ROOT
ATOM      1  C   UNL     1      12.817  10.413  12.488  1.00  0.00     0.180 A 
ATOM      2  C   UNL     1      11.848   9.931  11.591  1.00  0.00     0.208 A 
ATOM      3  C   UNL     1      10.580   9.579  12.083  1.00  0.00     0.238 A 
ATOM      4  O   UNL     1       9.735   9.098  11.285  1.00  0.00    -0.285 OA
ATOM      5  C   UNL     1      10.293   9.729  13.461  1.00  0.00     0.111 A 
ATOM      6  C   UNL     1       9.031   9.442  14.062  1.00  0.00     0.134 A 
ATOM      7  C   UNL     1       8.899   9.502  15.454  1.00  0.00     0.093 A 
ATOM      8  C   UNL     1       9.962   9.902  16.262  1.00  0.00     0.123 A 
ATOM      9  C   UNL     1      11.185  10.242  15.681  1.00  0.00     0.094 A 
ATOM     10  C   UNL     1      11.358  10.157  14.297  1.00  0.00     0.146 A 
ATOM     11  O   UNL     1      12.539  10.480  13.785  1.00  0.00    -0.452 OA
ENDROOT
BRANCH   1  12
ATOM     12  C   UNL     1      14.167  10.827  12.041  1.00  0.00     0.021 A 
ATOM     13  C   UNL     1      14.350  11.935  11.193  1.00  0.00     0.016 A 
ATOM     14  C   UNL     1      15.636  12.321  10.804  1.00  0.00     0.047 A 
ATOM     15  C   UNL     1      16.754  11.619  11.266  1.00  0.00     0.115 A 
ATOM     16  C   UNL     1      15.296  10.139  12.519  1.00  0.00     0.016 A 
ATOM     17  C   UNL     1      16.580  10.528  12.128  1.00  0.00     0.047 A 
BRANCH  15  18
ATOM     18  O   UNL     1      18.029  12.016  10.870  1.00  0.00    -0.508 OA
ATOM     19  H   UNL     1      18.708  12.358  11.539  1.00  0.00     0.293 HD
ENDBRANCH  15  18
ENDBRANCH   1  12
BRANCH   2  20
ATOM     20  O   UNL     1      12.159   9.770  10.239  1.00  0.00    -0.502 OA
ATOM     21  H   UNL     1      13.068   9.452   9.924  1.00  0.00     0.293 HD
ENDBRANCH   2  20
BRANCH   6  22
ATOM     22  O   UNL     1       7.877   9.123  13.339  1.00  0.00    -0.507 OA
ATOM     23  H   UNL     1       6.970   9.535  13.492  1.00  0.00     0.293 HD
ENDBRANCH   6  22
BRANCH   8  24
ATOM     24  O   UNL     1       9.790   9.966  17.644  1.00  0.00    -0.508 OA
ATOM     25  H   UNL     1       9.590  10.842  18.112  1.00  0.00     0.293 HD
ENDBRANCH   8  24
TORSDOF 5
ENDMDL
MODEL 4
REMARK VINA RESULT:    -6.449      1.898      6.722
REMARK INTER + INTRA:          -7.796
REMARK INTER:                  -7.663
REMARK INTRA:                  -0.133
REMARK UNBOUND:                -0.217
REMARK SMILES O=c1c(O)c(-c2ccc(O)cc2)oc2cc(O)cc(O)c12
REMARK SMILES IDX 5 1 3 2 2 3 1 4 21 5 19 6 18 7 16 8 15 9 14 10 13 11 6 12
REMARK SMILES IDX 7 13 8 14 9 15 12 16 11 17 10 18 4 20 20 22 17 24
REMARK H PARENT 10 19 4 21 20 23 17 25
REMARK Flexibility Score: inf
ROOT
ATOM      1  C   UNL     1      12.052  10.328  12.600  1.00  0.00     0.180 A 
ATOM      2  C   UNL     1      12.479  11.601  12.188  1.00  0.00     0.208 A 
ATOM      3  C   UNL     1      13.759  11.741  11.625  1.00  0.00     0.238 A 
ATOM      4  O   UNL     1      14.157  12.892  11.307  1.00  0.00    -0.285 OA
ATOM      5  C   UNL     1      14.586  10.603  11.466  1.00  0.00     0.111 A 
ATOM      6  C   UNL     1      15.884  10.622  10.872  1.00  0.00     0.134 A 
ATOM      7  C   UNL     1      16.666   9.461  10.886  1.00  0.00     0.093 A 
ATOM      8  C   UNL     1      16.175   8.267  11.413  1.00  0.00     0.123 A 
ATOM      9  C   UNL     1      14.885   8.223  11.943  1.00  0.00     0.094 A 
ATOM     10  C   UNL     1      14.094   9.374  11.977  1.00  0.00     0.146 A 
ATOM     11  O   UNL     1      12.876   9.291  12.498  1.00  0.00    -0.452 OA
ENDROOT
BRANCH   1  12
ATOM     12  C   UNL     1      10.708  10.097  13.179  1.00  0.00     0.021 A 
ATOM     13  C   UNL     1      10.335  10.663  14.412  1.00  0.00     0.016 A 
ATOM     14  C   UNL     1       9.052  10.451  14.927  1.00  0.00     0.047 A 
ATOM     15  C   UNL     1       8.123   9.687  14.213  1.00  0.00     0.115 A 
ATOM     16  C   UNL     1       9.762   9.348  12.457  1.00  0.00     0.016 A 
ATOM     17  C   UNL     1       8.481   9.138  12.975  1.00  0.00     0.047 A 
BRANCH  15  18
ATOM     18  O   UNL     1       6.850   9.485  14.739  1.00  0.00    -0.508 OA
ATOM     19  H   UNL     1       6.316  10.246  15.142  1.00  0.00     0.293 HD
ENDBRANCH  15  18
ENDBRANCH   1  12
BRANCH   2  20
ATOM     20  O   UNL     1      11.655  12.714  12.373  1.00  0.00    -0.502 OA
ATOM     21  H   UNL     1      10.821  12.871  11.820  1.00  0.00     0.293 HD
ENDBRANCH   2  20
BRANCH   6  22
ATOM     22  O   UNL     1      16.434  11.738  10.235  1.00  0.00    -0.507 OA
ATOM     23  H   UNL     1      17.402  11.827   9.965  1.00  0.00     0.293 HD
ENDBRANCH   6  22
BRANCH   8  24
ATOM     24  O   UNL     1      16.976   7.127  11.395  1.00  0.00    -0.508 OA
ATOM     25  H   UNL     1      16.616   6.222  11.676  1.00  0.00     0.293 HD
ENDBRANCH   8  24
TORSDOF 5
ENDMDL
MODEL 5
REMARK VINA RESULT:    -5.910      4.163      6.693
REMARK INTER + INTRA:          -7.164
REMARK INTER:                  -6.892
REMARK INTRA:                  -0.272
REMARK UNBOUND:                -0.217
REMARK SMILES O=c1c(O)c(-c2ccc(O)cc2)oc2cc(O)cc(O)c12
REMARK SMILES IDX 5 1 3 2 2 3 1 4 21 5 19 6 18 7 16 8 15 9 14 10 13 11 6 12
REMARK SMILES IDX 7 13 8 14 9 15 12 16 11 17 10 18 4 20 20 22 17 24
REMARK H PARENT 10 19 4 21 20 23 17 25
REMARK Flexibility Score: inf
ROOT
ATOM      1  C   UNL     1      15.465   7.158  12.302  1.00  0.00     0.180 A 
ATOM      2  C   UNL     1      16.270   7.662  11.266  1.00  0.00     0.208 A 
ATOM      3  C   UNL     1      16.080   8.986  10.838  1.00  0.00     0.238 A 
ATOM      4  O   UNL     1      16.766   9.415   9.875  1.00  0.00    -0.285 OA
ATOM      5  C   UNL     1      15.098   9.794  11.463  1.00  0.00     0.111 A 
ATOM      6  C   UNL     1      14.847  11.161  11.138  1.00  0.00     0.134 A 
ATOM      7  C   UNL     1      13.764  11.823  11.728  1.00  0.00     0.093 A 
ATOM      8  C   UNL     1      12.965  11.190  12.680  1.00  0.00     0.123 A 
ATOM      9  C   UNL     1      13.238   9.873  13.049  1.00  0.00     0.094 A 
ATOM     10  C   UNL     1      14.289   9.174  12.450  1.00  0.00     0.146 A 
ATOM     11  O   UNL     1      14.509   7.919  12.823  1.00  0.00    -0.452 OA
ENDROOT
BRANCH   1  12
ATOM     12  C   UNL     1      15.624   5.781  12.823  1.00  0.00     0.021 A 
ATOM     13  C   UNL     1      16.356   5.522  13.996  1.00  0.00     0.016 A 
ATOM     14  C   UNL     1      16.471   4.216  14.483  1.00  0.00     0.047 A 
ATOM     15  C   UNL     1      15.847   3.157  13.815  1.00  0.00     0.115 A 
ATOM     16  C   UNL     1      14.982   4.715  12.170  1.00  0.00     0.016 A 
ATOM     17  C   UNL     1      15.099   3.411  12.658  1.00  0.00     0.047 A 
BRANCH  15  18
ATOM     18  O   UNL     1      15.971   1.862  14.311  1.00  0.00    -0.508 OA
ATOM     19  H   UNL     1      16.768   1.584  14.874  1.00  0.00     0.293 HD
ENDBRANCH  15  18
ENDBRANCH   1  12
BRANCH   2  20
ATOM     20  O   UNL     1      17.218   6.842  10.649  1.00  0.00    -0.502 OA
ATOM     21  H   UNL     1      17.768   7.148   9.855  1.00  0.00     0.293 HD
ENDBRANCH   2  20
BRANCH   6  22
ATOM     22  O   UNL     1      15.641  11.915  10.269  1.00  0.00    -0.507 OA
ATOM     23  H   UNL     1      15.511  12.896  10.077  1.00  0.00     0.293 HD
ENDBRANCH   6  22
BRANCH   8  24
ATOM     24  O   UNL     1      11.905  11.886  13.260  1.00  0.00    -0.508 OA
ATOM     25  H   UNL     1      12.053  12.539  14.020  1.00  0.00     0.293 HD
ENDBRANCH   8  24
TORSDOF 5
ENDMDL
MODEL 6
REMARK VINA RESULT:    -5.733      5.006      6.999
REMARK INTER + INTRA:          -6.955
REMARK INTER:                  -6.709
REMARK INTRA:                  -0.246
REMARK UNBOUND:                -0.217
REMARK SMILES O=c1c(O)c(-c2ccc(O)cc2)oc2cc(O)cc(O)c12
REMARK SMILES IDX 5 1 3 2 2 3 1 4 21 5 19 6 18 7 16 8 15 9 14 10 13 11 6 12
REMARK SMILES IDX 7 13 8 14 9 15 12 16 11 17 10 18 4 20 20 22 17 24
REMARK H PARENT 10 19 4 21 20 23 17 25
REMARK Flexibility Score: inf
ROOT
ATOM      1  C   UNL     1      15.906   6.219  12.687  1.00  0.00     0.180 A 
ATOM      2  C   UNL     1      15.636   6.558  11.351  1.00  0.00     0.208 A 
ATOM      3  C   UNL     1      14.988   7.773  11.075  1.00  0.00     0.238 A 
ATOM      4  O   UNL     1      14.700   8.048   9.881  1.00  0.00    -0.285 OA
ATOM      5  C   UNL     1      14.634   8.640  12.137  1.00  0.00     0.111 A 
ATOM      6  C   UNL     1      14.010   9.913  11.971  1.00  0.00     0.134 A 
ATOM      7  C   UNL     1      13.586  10.627  13.098  1.00  0.00     0.093 A 
ATOM      8  C   UNL     1      13.821  10.146  14.386  1.00  0.00     0.123 A 
ATOM      9  C   UNL     1      14.483   8.929  14.561  1.00  0.00     0.094 A 
ATOM     10  C   UNL     1      14.885   8.177  13.455  1.00  0.00     0.146 A 
ATOM     11  O   UNL     1      15.503   7.021  13.666  1.00  0.00    -0.452 OA
ENDROOT
BRANCH   1  12
ATOM     12  C   UNL     1      16.607   4.967  13.055  1.00  0.00     0.021 A 
ATOM     13  C   UNL     1      17.995   4.824  12.872  1.00  0.00     0.016 A 
ATOM     14  C   UNL     1      18.639   3.641  13.250  1.00  0.00     0.047 A 
ATOM     15  C   UNL     1      17.912   2.596  13.827  1.00  0.00     0.115 A 
ATOM     16  C   UNL     1      15.887   3.920  13.656  1.00  0.00     0.016 A 
ATOM     17  C   UNL     1      16.533   2.739  14.032  1.00  0.00     0.047 A 
BRANCH  15  18
ATOM     18  O   UNL     1      18.567   1.424  14.198  1.00  0.00    -0.508 OA
ATOM     19  H   UNL     1      18.171   0.512  14.001  1.00  0.00     0.293 HD
ENDBRANCH  15  18
ENDBRANCH   1  12
BRANCH   2  20
ATOM     20  O   UNL     1      15.974   5.679  10.319  1.00  0.00    -0.502 OA
ATOM     21  H   UNL     1      16.113   5.988   9.365  1.00  0.00     0.293 HD
ENDBRANCH   2  20
BRANCH   6  22
ATOM     22  O   UNL     1      13.812  10.529  10.732  1.00  0.00    -0.507 OA
ATOM     23  H   UNL     1      12.945  10.946  10.429  1.00  0.00     0.293 HD
ENDBRANCH   6  22
BRANCH   8  24
ATOM     24  O   UNL     1      13.400  10.891  15.486  1.00  0.00    -0.508 OA
ATOM     25  H   UNL     1      14.015  11.553  15.945  1.00  0.00     0.293 HD
ENDBRANCH   8  24
TORSDOF 5
ENDMDL
MODEL 7
REMARK VINA RESULT:    -5.722      3.495      6.961
REMARK INTER + INTRA:          -6.943
REMARK INTER:                  -6.698
REMARK INTRA:                  -0.244
REMARK UNBOUND:                -0.217
REMARK SMILES O=c1c(O)c(-c2ccc(O)cc2)oc2cc(O)cc(O)c12
REMARK SMILES IDX 5 1 3 2 2 3 1 4 21 5 19 6 18 7 16 8 15 9 14 10 13 11 6 12
REMARK SMILES IDX 7 13 8 14 9 15 12 16 11 17 10 18 4 20 20 22 17 24
REMARK H PARENT 10 19 4 21 20 23 17 25
REMARK Flexibility Score: inf
ROOT
ATOM      1  C   UNL     1      14.185   8.936  12.850  1.00  0.00     0.180 A 
ATOM      2  C   UNL     1      14.730   9.294  11.606  1.00  0.00     0.208 A 
ATOM      3  C   UNL     1      15.700   8.463  11.022  1.00  0.00     0.238 A 
ATOM      4  O   UNL     1      16.223   8.816   9.934  1.00  0.00    -0.285 OA
ATOM      5  C   UNL     1      16.100   7.276  11.683  1.00  0.00     0.111 A 
ATOM      6  C   UNL     1      17.045   6.340  11.166  1.00  0.00     0.134 A 
ATOM      7  C   UNL     1      17.463   5.269  11.965  1.00  0.00     0.093 A 
ATOM      8  C   UNL     1      16.923   5.062  13.234  1.00  0.00     0.123 A 
ATOM      9  C   UNL     1      15.955   5.938  13.726  1.00  0.00     0.094 A 
ATOM     10  C   UNL     1      15.544   7.037  12.967  1.00  0.00     0.146 A 
ATOM     11  O   UNL     1      14.628   7.851  13.476  1.00  0.00    -0.452 OA
ENDROOT
BRANCH   1  12
ATOM     12  C   UNL     1      13.140   9.748  13.516  1.00  0.00     0.021 A 
ATOM     13  C   UNL     1      11.807   9.738  13.067  1.00  0.00     0.016 A 
ATOM     14  C   UNL     1      10.833  10.494  13.727  1.00  0.00     0.047 A 
ATOM     15  C   UNL     1      11.174  11.257  14.848  1.00  0.00     0.115 A 
ATOM     16  C   UNL     1      13.471  10.501  14.656  1.00  0.00     0.016 A 
ATOM     17  C   UNL     1      12.496  11.257  15.313  1.00  0.00     0.047 A 
BRANCH  15  18
ATOM     18  O   UNL     1      10.194  12.006  15.494  1.00  0.00    -0.508 OA
ATOM     19  H   UNL     1       9.653  11.622  16.260  1.00  0.00     0.293 HD
ENDBRANCH  15  18
ENDBRANCH   1  12
BRANCH   2  20
ATOM     20  O   UNL     1      14.337  10.480  10.981  1.00  0.00    -0.502 OA
ATOM     21  H   UNL     1      14.969  11.032  10.414  1.00  0.00     0.293 HD
ENDBRANCH   2  20
BRANCH   6  22
ATOM     22  O   UNL     1      17.577   6.401   9.875  1.00  0.00    -0.507 OA
ATOM     23  H   UNL     1      18.493   6.756   9.647  1.00  0.00     0.293 HD
ENDBRANCH   6  22
BRANCH   8  24
ATOM     24  O   UNL     1      17.351   3.975  13.994  1.00  0.00    -0.508 OA
ATOM     25  H   UNL     1      17.862   4.103  14.860  1.00  0.00     0.293 HD
ENDBRANCH   8  24
TORSDOF 5
ENDMDL
MODEL 8
REMARK VINA RESULT:    -5.615      4.139      5.479
REMARK INTER + INTRA:          -6.817
REMARK INTER:                  -6.530
REMARK INTRA:                  -0.287
REMARK UNBOUND:                -0.217
REMARK SMILES O=c1c(O)c(-c2ccc(O)cc2)oc2cc(O)cc(O)c12
REMARK SMILES IDX 5 1 3 2 2 3 1 4 21 5 19 6 18 7 16 8 15 9 14 10 13 11 6 12
REMARK SMILES IDX 7 13 8 14 9 15 12 16 11 17 10 18 4 20 20 22 17 24
REMARK H PARENT 10 19 4 21 20 23 17 25
REMARK Flexibility Score: inf
ROOT
ATOM      1  C   UNL     1      15.086   7.277  12.078  1.00  0.00     0.180 A 
ATOM      2  C   UNL     1      15.253   7.587  13.438  1.00  0.00     0.208 A 
ATOM      3  C   UNL     1      14.689   8.771  13.941  1.00  0.00     0.238 A 
ATOM      4  O   UNL     1      14.887   9.070  15.147  1.00  0.00    -0.285 OA
ATOM      5  C   UNL     1      13.950   9.619  13.081  1.00  0.00     0.111 A 
ATOM      6  C   UNL     1      13.300  10.822  13.491  1.00  0.00     0.134 A 
ATOM      7  C   UNL     1      12.709  11.650  12.530  1.00  0.00     0.093 A 
ATOM      8  C   UNL     1      12.686  11.289  11.184  1.00  0.00     0.123 A 
ATOM      9  C   UNL     1      13.266  10.086  10.779  1.00  0.00     0.094 A 
ATOM     10  C   UNL     1      13.896   9.256  11.710  1.00  0.00     0.146 A 
ATOM     11  O   UNL     1      14.444   8.125  11.282  1.00  0.00    -0.452 OA
ENDROOT
BRANCH   1  12
ATOM     12  C   UNL     1      15.630   6.036  11.480  1.00  0.00     0.021 A 
ATOM     13  C   UNL     1      16.913   6.002  10.904  1.00  0.00     0.016 A 
ATOM     14  C   UNL     1      17.416   4.812  10.368  1.00  0.00     0.047 A 
ATOM     15  C   UNL     1      16.653   3.641  10.413  1.00  0.00     0.115 A 
ATOM     16  C   UNL     1      14.878   4.850  11.541  1.00  0.00     0.016 A 
ATOM     17  C   UNL     1      15.383   3.662  11.004  1.00  0.00     0.047 A 
BRANCH  15  18
ATOM     18  O   UNL     1      17.167   2.464   9.875  1.00  0.00    -0.508 OA
ATOM     19  H   UNL     1      17.398   2.388   8.891  1.00  0.00     0.293 HD
ENDBRANCH  15  18
ENDBRANCH   1  12
BRANCH   2  20
ATOM     20  O   UNL     1      16.004   6.747  14.264  1.00  0.00    -0.502 OA
ATOM     21  H   UNL     1      15.629   6.342  15.113  1.00  0.00     0.293 HD
ENDBRANCH   2  20
BRANCH   6  22
ATOM     22  O   UNL     1      13.185  11.231  14.823  1.00  0.00    -0.507 OA
ATOM     23  H   UNL     1      13.139  12.191  15.129  1.00  0.00     0.293 HD
ENDBRANCH   6  22
BRANCH   8  24
ATOM     24  O   UNL     1      12.074  12.130  10.256  1.00  0.00    -0.508 OA
ATOM     25  H   UNL     1      12.269  13.124  10.234  1.00  0.00     0.293 HD
ENDBRANCH   8  24
TORSDOF 5
ENDMDL
MODEL 9
REMARK VINA RESULT:    -5.446      4.694      7.439
REMARK INTER + INTRA:          -6.618
REMARK INTER:                  -6.576
REMARK INTRA:                  -0.042
REMARK UNBOUND:                -0.217
REMARK SMILES O=c1c(O)c(-c2ccc(O)cc2)oc2cc(O)cc(O)c12
REMARK SMILES IDX 5 1 3 2 2 3 1 4 21 5 19 6 18 7 16 8 15 9 14 10 13 11 6 12
REMARK SMILES IDX 7 13 8 14 9 15 12 16 11 17 10 18 4 20 20 22 17 24
REMARK H PARENT 10 19 4 21 20 23 17 25
REMARK Flexibility Score: inf
ROOT
ATOM      1  C   UNL     1      15.259   7.723  12.506  1.00  0.00     0.180 A 
ATOM      2  C   UNL     1      16.034   7.713  11.334  1.00  0.00     0.208 A 
ATOM      3  C   UNL     1      16.828   6.589  11.051  1.00  0.00     0.238 A 
ATOM      4  O   UNL     1      17.560   6.607  10.028  1.00  0.00    -0.285 OA
ATOM      5  C   UNL     1      16.823   5.484  11.936  1.00  0.00     0.111 A 
ATOM      6  C   UNL     1      17.557   4.277  11.730  1.00  0.00     0.134 A 
ATOM      7  C   UNL     1      17.582   3.303  12.735  1.00  0.00     0.093 A 
ATOM      8  C   UNL     1      16.848   3.461  13.910  1.00  0.00     0.123 A 
ATOM      9  C   UNL     1      16.079   4.611  14.097  1.00  0.00     0.094 A 
ATOM     10  C   UNL     1      16.064   5.617  13.128  1.00  0.00     0.146 A 
ATOM     11  O   UNL     1      15.327   6.699  13.349  1.00  0.00    -0.452 OA
ENDROOT
BRANCH   1  12
ATOM     12  C   UNL     1      14.379   8.861  12.859  1.00  0.00     0.021 A 
ATOM     13  C   UNL     1      13.406   9.340  11.962  1.00  0.00     0.016 A 
ATOM     14  C   UNL     1      12.570  10.400  12.327  1.00  0.00     0.047 A 
ATOM     15  C   UNL     1      12.684  10.984  13.593  1.00  0.00     0.115 A 
ATOM     16  C   UNL     1      14.473   9.438  14.136  1.00  0.00     0.016 A 
ATOM     17  C   UNL     1      13.637  10.498  14.498  1.00  0.00     0.047 A 
BRANCH  15  18
ATOM     18  O   UNL     1      11.845  12.039  13.942  1.00  0.00    -0.508 OA
ATOM     19  H   UNL     1      10.861  11.892  14.133  1.00  0.00     0.293 HD
ENDBRANCH  15  18
ENDBRANCH   1  12
BRANCH   2  20
ATOM     20  O   UNL     1      16.040   8.823  10.485  1.00  0.00    -0.502 OA
ATOM     21  H   UNL     1      15.900   8.744   9.485  1.00  0.00     0.293 HD
ENDBRANCH   2  20
BRANCH   6  22
ATOM     22  O   UNL     1      18.250   3.977  10.553  1.00  0.00    -0.507 OA
ATOM     23  H   UNL     1      19.009   4.525  10.177  1.00  0.00     0.293 HD
ENDBRANCH   6  22
BRANCH   8  24
ATOM     24  O   UNL     1      16.883   2.463  14.882  1.00  0.00    -0.508 OA
ATOM     25  H   UNL     1      16.184   2.412  15.614  1.00  0.00     0.293 HD
ENDBRANCH   8  24
TORSDOF 5
ENDMDL
