MODEL 1
REMARK VINA RESULT:    -5.585      0.000      0.000
REMARK INTER + INTRA:          -9.472
REMARK INTER:                  -8.850
REMARK INTRA:                  -0.622
REMARK UNBOUND:                -0.622
REMARK SMILES CCCCCCCCCCCC(=O)[O-]
REMARK SMILES IDX 7 1 8 2 9 3 10 4 11 5 12 6 13 7 14 8 6 9 5 10 4 11 3 12 2 13
REMARK SMILES IDX 1 14
REMARK H PARENT
REMARK Flexibility Score: inf
ROOT
ATOM      1  C   UNL     1       5.277 -29.767  24.633  1.00  0.00     0.000 C 
ENDROOT
BRANCH   1   2
ATOM      2  C   UNL     1       6.593 -30.341  25.187  1.00  0.00     0.000 C 
BRANCH   2   3
ATOM      3  C   UNL     1       7.393 -31.129  24.136  1.00  0.00     0.000 C 
BRANCH   3   4
ATOM      4  C   UNL     1       6.593 -31.587  22.901  1.00  0.00     0.006 C 
BRANCH   4   5
ATOM      5  C   UNL     1       7.452 -31.798  21.639  1.00  0.00     0.053 C 
BRANCH   5   6
ATOM      6  C   UNL     1       8.352 -30.633  21.352  1.00  0.00     0.041 C 
ATOM      7  O   UNL     1       9.597 -30.798  21.262  1.00  0.00    -0.550 OA
ATOM      8  O   UNL     1       7.810 -29.371  21.141  1.00  0.00    -0.550 OA
ENDBRANCH   5   6
ENDBRANCH   4   5
ENDBRANCH   3   4
ENDBRANCH   2   3
ENDBRANCH   1   2
BRANCH   1   9
ATOM      9  C   UNL     1       4.418 -29.106  25.722  1.00  0.00     0.000 C 
BRANCH   9  10
ATOM     10  C   UNL     1       2.930 -29.039  25.348  1.00  0.00    -0.000 C 
BRANCH  10  11
ATOM     11  C   UNL     1       2.705 -29.504  23.904  1.00  0.00    -0.000 C 
BRANCH  11  12
ATOM     12  C   UNL     1       1.708 -28.587  23.179  1.00  0.00    -0.000 C 
BRANCH  12  13
ATOM     13  C   UNL     1       0.421 -29.321  22.771  1.00  0.00    -0.003 C 
ATOM     14  C   UNL     1       0.435 -30.800  23.158  1.00  0.00     0.004 C 
ENDBRANCH  12  13
ENDBRANCH  11  12
ENDBRANCH  10  11
ENDBRANCH   9  10
ENDBRANCH   1   9
TORSDOF 10
ENDMDL
MODEL 2
REMARK VINA RESULT:    -5.421      0.712      1.119
REMARK INTER + INTRA:          -9.212
REMARK INTER:                  -8.635
REMARK INTRA:                  -0.577
REMARK UNBOUND:                -0.622
REMARK SMILES CCCCCCCCCCCC(=O)[O-]
REMARK SMILES IDX 7 1 8 2 9 3 10 4 11 5 12 6 13 7 14 8 6 9 5 10 4 11 3 12 2 13
REMARK SMILES IDX 1 14
REMARK H PARENT
REMARK Flexibility Score: inf
ROOT
ATOM      1  C   UNL     1       5.251 -29.749  24.829  1.00  0.00     0.000 C 
ENDROOT
BRANCH   1   2
ATOM      2  C   UNL     1       6.590 -30.173  25.456  1.00  0.00     0.000 C 
BRANCH   2   3
ATOM      3  C   UNL     1       7.468 -30.997  24.500  1.00  0.00     0.000 C 
BRANCH   3   4
ATOM      4  C   UNL     1       6.901 -31.187  23.079  1.00  0.00     0.006 C 
BRANCH   4   5
ATOM      5  C   UNL     1       7.936 -30.980  21.956  1.00  0.00     0.053 C 
BRANCH   5   6
ATOM      6  C   UNL     1       8.672 -29.679  22.083  1.00  0.00     0.041 C 
ATOM      7  O   UNL     1       8.045 -28.613  22.318  1.00  0.00    -0.550 OA
ATOM      8  O   UNL     1      10.058 -29.652  21.982  1.00  0.00    -0.550 OA
ENDBRANCH   5   6
ENDBRANCH   4   5
ENDBRANCH   3   4
ENDBRANCH   2   3
ENDBRANCH   1   2
BRANCH   1   9
ATOM      9  C   UNL     1       4.331 -29.033  25.830  1.00  0.00     0.000 C 
BRANCH   9  10
ATOM     10  C   UNL     1       2.883 -28.922  25.332  1.00  0.00    -0.000 C 
BRANCH  10  11
ATOM     11  C   UNL     1       2.744 -29.484  23.913  1.00  0.00    -0.000 C 
BRANCH  11  12
ATOM     12  C   UNL     1       1.730 -28.670  23.094  1.00  0.00    -0.000 C 
BRANCH  12  13
ATOM     13  C   UNL     1       0.312 -29.261  23.156  1.00  0.00    -0.003 C 
ATOM     14  C   UNL     1       0.302 -30.785  23.039  1.00  0.00     0.004 C 
ENDBRANCH  12  13
ENDBRANCH  11  12
ENDBRANCH  10  11
ENDBRANCH   9  10
ENDBRANCH   1   9
TORSDOF 10
ENDMDL
MODEL 3
REMARK VINA RESULT:    -5.320     12.726     15.853
REMARK INTER + INTRA:          -9.052
REMARK INTER:                  -8.123
REMARK INTRA:                  -0.930
REMARK UNBOUND:                -0.622
REMARK SMILES CCCCCCCCCCCC(=O)[O-]
REMARK SMILES IDX 7 1 8 2 9 3 10 4 11 5 12 6 13 7 14 8 6 9 5 10 4 11 3 12 2 13
REMARK SMILES IDX 1 14
REMARK H PARENT
REMARK Flexibility Score: inf
ROOT
ATOM      1  C   UNL     1       8.836 -26.462   9.216  1.00  0.00     0.000 C 
ENDROOT
BRANCH   1   2
ATOM      2  C   UNL     1       9.063 -25.075   9.842  1.00  0.00     0.000 C 
BRANCH   2   3
ATOM      3  C   UNL     1       9.126 -25.113  11.378  1.00  0.00     0.000 C 
BRANCH   3   4
ATOM      4  C   UNL     1      10.441 -25.657  11.973  1.00  0.00     0.006 C 
BRANCH   4   5
ATOM      5  C   UNL     1      10.240 -26.730  13.061  1.00  0.00     0.053 C 
BRANCH   5   6
ATOM      6  C   UNL     1      10.189 -28.120  12.499  1.00  0.00     0.041 C 
ATOM      7  O   UNL     1       9.604 -29.040  13.130  1.00  0.00    -0.550 OA
ATOM      8  O   UNL     1      10.750 -28.389  11.257  1.00  0.00    -0.550 OA
ENDBRANCH   5   6
ENDBRANCH   4   5
ENDBRANCH   3   4
ENDBRANCH   2   3
ENDBRANCH   1   2
BRANCH   1   9
ATOM      9  C   UNL     1       8.712 -26.404   7.685  1.00  0.00     0.000 C 
BRANCH   9  10
ATOM     10  C   UNL     1       9.853 -27.138   6.967  1.00  0.00    -0.000 C 
BRANCH  10  11
ATOM     11  C   UNL     1      10.639 -26.181   6.063  1.00  0.00    -0.000 C 
BRANCH  11  12
ATOM     12  C   UNL     1      11.584 -25.294   6.889  1.00  0.00    -0.000 C 
BRANCH  12  13
ATOM     13  C   UNL     1      12.138 -26.015   8.127  1.00  0.00    -0.003 C 
ATOM     14  C   UNL     1      12.612 -25.047   9.212  1.00  0.00     0.004 C 
ENDBRANCH  12  13
ENDBRANCH  11  12
ENDBRANCH  10  11
ENDBRANCH   9  10
ENDBRANCH   1   9
TORSDOF 10
ENDMDL
MODEL 4
REMARK VINA RESULT:    -5.278     12.615     15.588
REMARK INTER + INTRA:          -8.985
REMARK INTER:                  -8.207
REMARK INTRA:                  -0.778
REMARK UNBOUND:                -0.622
REMARK SMILES CCCCCCCCCCCC(=O)[O-]
REMARK SMILES IDX 7 1 8 2 9 3 10 4 11 5 12 6 13 7 14 8 6 9 5 10 4 11 3 12 2 13
REMARK SMILES IDX 1 14
REMARK H PARENT
REMARK Flexibility Score: inf
ROOT
ATOM      1  C   UNL     1      11.062 -24.413   9.817  1.00  0.00     0.000 C 
ENDROOT
BRANCH   1   2
ATOM      2  C   UNL     1       9.832 -25.252  10.204  1.00  0.00     0.000 C 
BRANCH   2   3
ATOM      3  C   UNL     1       9.632 -25.357  11.726  1.00  0.00     0.000 C 
BRANCH   3   4
ATOM      4  C   UNL     1      10.893 -25.716  12.537  1.00  0.00     0.006 C 
BRANCH   4   5
ATOM      5  C   UNL     1      10.749 -26.993  13.388  1.00  0.00     0.053 C 
BRANCH   5   6
ATOM      6  C   UNL     1      10.291 -28.174  12.585  1.00  0.00     0.041 C 
ATOM      7  O   UNL     1       9.465 -28.992  13.070  1.00  0.00    -0.550 OA
ATOM      8  O   UNL     1      10.744 -28.348  11.283  1.00  0.00    -0.550 OA
ENDBRANCH   5   6
ENDBRANCH   4   5
ENDBRANCH   3   4
ENDBRANCH   2   3
ENDBRANCH   1   2
BRANCH   1   9
ATOM      9  C   UNL     1      12.250 -25.279   9.369  1.00  0.00     0.000 C 
BRANCH   9  10
ATOM     10  C   UNL     1      11.876 -26.271   8.258  1.00  0.00    -0.000 C 
BRANCH  10  11
ATOM     11  C   UNL     1      11.722 -25.556   6.910  1.00  0.00    -0.000 C 
BRANCH  11  12
ATOM     12  C   UNL     1      10.362 -25.873   6.271  1.00  0.00    -0.000 C 
BRANCH  12  13
ATOM     13  C   UNL     1       9.649 -27.052   6.952  1.00  0.00    -0.003 C 
ATOM     14  C   UNL     1       8.283 -26.668   7.521  1.00  0.00     0.004 C 
ENDBRANCH  12  13
ENDBRANCH  11  12
ENDBRANCH  10  11
ENDBRANCH   9  10
ENDBRANCH   1   9
TORSDOF 10
ENDMDL
MODEL 5
REMARK VINA RESULT:    -5.230      3.370      6.404
REMARK INTER + INTRA:          -8.909
REMARK INTER:                  -8.281
REMARK INTRA:                  -0.628
REMARK UNBOUND:                -0.622
REMARK SMILES CCCCCCCCCCCC(=O)[O-]
REMARK SMILES IDX 7 1 8 2 9 3 10 4 11 5 12 6 13 7 14 8 6 9 5 10 4 11 3 12 2 13
REMARK SMILES IDX 1 14
REMARK H PARENT
REMARK Flexibility Score: inf
ROOT
ATOM      1  C   UNL     1       5.781 -29.376  25.226  1.00  0.00     0.000 C 
ENDROOT
BRANCH   1   2
ATOM      2  C   UNL     1       4.499 -29.300  26.073  1.00  0.00     0.000 C 
BRANCH   2   3
ATOM      3  C   UNL     1       3.293 -28.758  25.288  1.00  0.00     0.000 C 
BRANCH   3   4
ATOM      4  C   UNL     1       3.009 -29.458  23.944  1.00  0.00     0.006 C 
BRANCH   4   5
ATOM      5  C   UNL     1       1.617 -29.150  23.358  1.00  0.00     0.053 C 
BRANCH   5   6
ATOM      6  C   UNL     1       0.595 -30.186  23.721  1.00  0.00     0.041 C 
ATOM      7  O   UNL     1       0.274 -31.080  22.895  1.00  0.00    -0.550 OA
ATOM      8  O   UNL     1       0.030 -30.189  24.990  1.00  0.00    -0.550 OA
ENDBRANCH   5   6
ENDBRANCH   4   5
ENDBRANCH   3   4
ENDBRANCH   2   3
ENDBRANCH   1   2
BRANCH   1   9
ATOM      9  C   UNL     1       6.644 -30.600  25.571  1.00  0.00     0.000 C 
BRANCH   9  10
ATOM     10  C   UNL     1       7.432 -31.132  24.365  1.00  0.00    -0.000 C 
BRANCH  10  11
ATOM     11  C   UNL     1       6.535 -31.237  23.126  1.00  0.00    -0.000 C 
BRANCH  11  12
ATOM     12  C   UNL     1       7.319 -30.901  21.848  1.00  0.00    -0.000 C 
BRANCH  12  13
ATOM     13  C   UNL     1       8.197 -32.068  21.370  1.00  0.00    -0.003 C 
ATOM     14  C   UNL     1       9.592 -31.619  20.935  1.00  0.00     0.004 C 
ENDBRANCH  12  13
ENDBRANCH  11  12
ENDBRANCH  10  11
ENDBRANCH   9  10
ENDBRANCH   1   9
TORSDOF 10
ENDMDL
MODEL 6
REMARK VINA RESULT:    -5.102      1.446      2.113
REMARK INTER + INTRA:          -8.707
REMARK INTER:                  -8.257
REMARK INTRA:                  -0.449
REMARK UNBOUND:                -0.622
REMARK SMILES CCCCCCCCCCCC(=O)[O-]
REMARK SMILES IDX 7 1 8 2 9 3 10 4 11 5 12 6 13 7 14 8 6 9 5 10 4 11 3 12 2 13
REMARK SMILES IDX 1 14
REMARK H PARENT
REMARK Flexibility Score: inf
ROOT
ATOM      1  C   UNL     1       6.443 -29.908  24.441  1.00  0.00     0.000 C 
ENDROOT
BRANCH   1   2
ATOM      2  C   UNL     1       7.140 -30.387  23.156  1.00  0.00     0.000 C 
BRANCH   2   3
ATOM      3  C   UNL     1       7.958 -29.280  22.468  1.00  0.00     0.000 C 
BRANCH   3   4
ATOM      4  C   UNL     1       8.805 -29.735  21.263  1.00  0.00     0.006 C 
BRANCH   4   5
ATOM      5  C   UNL     1       9.997 -30.637  21.639  1.00  0.00     0.053 C 
BRANCH   5   6
ATOM      6  C   UNL     1       9.945 -31.974  20.960  1.00  0.00     0.041 C 
ATOM      7  O   UNL     1      10.988 -32.478  20.467  1.00  0.00    -0.550 OA
ATOM      8  O   UNL     1       8.751 -32.682  20.909  1.00  0.00    -0.550 OA
ENDBRANCH   5   6
ENDBRANCH   4   5
ENDBRANCH   3   4
ENDBRANCH   2   3
ENDBRANCH   1   2
BRANCH   1   9
ATOM      9  C   UNL     1       4.919 -29.796  24.278  1.00  0.00     0.000 C 
BRANCH   9  10
ATOM     10  C   UNL     1       4.233 -29.171  25.502  1.00  0.00    -0.000 C 
BRANCH  10  11
ATOM     11  C   UNL     1       2.827 -28.671  25.149  1.00  0.00    -0.000 C 
BRANCH  11  12
ATOM     12  C   UNL     1       2.336 -29.292  23.832  1.00  0.00    -0.000 C 
BRANCH  12  13
ATOM     13  C   UNL     1       0.828 -29.584  23.844  1.00  0.00    -0.003 C 
ATOM     14  C   UNL     1       0.461 -30.831  23.039  1.00  0.00     0.004 C 
ENDBRANCH  12  13
ENDBRANCH  11  12
ENDBRANCH  10  11
ENDBRANCH   9  10
ENDBRANCH   1   9
TORSDOF 10
ENDMDL
MODEL 7
REMARK VINA RESULT:    -5.053      3.700      7.498
REMARK INTER + INTRA:          -8.629
REMARK INTER:                  -7.697
REMARK INTRA:                  -0.932
REMARK UNBOUND:                -0.622
REMARK SMILES CCCCCCCCCCCC(=O)[O-]
REMARK SMILES IDX 7 1 8 2 9 3 10 4 11 5 12 6 13 7 14 8 6 9 5 10 4 11 3 12 2 13
REMARK SMILES IDX 1 14
REMARK H PARENT
REMARK Flexibility Score: inf
ROOT
ATOM      1  C   UNL     1       9.582 -31.126  20.987  1.00  0.00     0.000 C 
ENDROOT
BRANCH   1   2
ATOM      2  C   UNL     1       8.698 -32.236  21.580  1.00  0.00     0.000 C 
BRANCH   2   3
ATOM      3  C   UNL     1       7.208 -31.857  21.628  1.00  0.00     0.000 C 
BRANCH   3   4
ATOM      4  C   UNL     1       6.637 -31.597  23.036  1.00  0.00     0.006 C 
BRANCH   4   5
ATOM      5  C   UNL     1       6.557 -30.105  23.415  1.00  0.00     0.053 C 
BRANCH   5   6
ATOM      6  C   UNL     1       6.854 -29.861  24.865  1.00  0.00     0.041 C 
ATOM      7  O   UNL     1       6.642 -30.762  25.719  1.00  0.00    -0.550 OA
ATOM      8  O   UNL     1       7.406 -28.652  25.268  1.00  0.00    -0.550 OA
ENDBRANCH   5   6
ENDBRANCH   4   5
ENDBRANCH   3   4
ENDBRANCH   2   3
ENDBRANCH   1   2
BRANCH   1   9
ATOM      9  C   UNL     1      10.109 -30.158  22.057  1.00  0.00     0.000 C 
BRANCH   9  10
ATOM     10  C   UNL     1      10.199 -30.801  23.449  1.00  0.00    -0.000 C 
BRANCH  10  11
ATOM     11  C   UNL     1      11.588 -30.592  24.063  1.00  0.00    -0.000 C 
BRANCH  11  12
ATOM     12  C   UNL     1      12.561 -29.994  23.034  1.00  0.00    -0.000 C 
BRANCH  12  13
ATOM     13  C   UNL     1      13.532 -28.981  23.660  1.00  0.00    -0.003 C 
ATOM     14  C   UNL     1      13.500 -28.997  25.188  1.00  0.00     0.004 C 
ENDBRANCH  12  13
ENDBRANCH  11  12
ENDBRANCH  10  11
ENDBRANCH   9  10
ENDBRANCH   1   9
TORSDOF 10
ENDMDL
MODEL 8
REMARK VINA RESULT:    -5.045      3.979      5.703
REMARK INTER + INTRA:          -8.616
REMARK INTER:                  -7.259
REMARK INTRA:                  -1.357
REMARK UNBOUND:                -0.622
REMARK SMILES CCCCCCCCCCCC(=O)[O-]
REMARK SMILES IDX 7 1 8 2 9 3 10 4 11 5 12 6 13 7 14 8 6 9 5 10 4 11 3 12 2 13
REMARK SMILES IDX 1 14
REMARK H PARENT
REMARK Flexibility Score: inf
ROOT
ATOM      1  C   UNL     1       8.440 -30.152  25.254  1.00  0.00     0.000 C 
ENDROOT
BRANCH   1   2
ATOM      2  C   UNL     1       8.929 -31.610  25.259  1.00  0.00     0.000 C 
BRANCH   2   3
ATOM      3  C   UNL     1      10.348 -31.771  24.688  1.00  0.00     0.000 C 
BRANCH   3   4
ATOM      4  C   UNL     1      11.076 -30.455  24.344  1.00  0.00     0.006 C 
BRANCH   4   5
ATOM      5  C   UNL     1      12.602 -30.603  24.194  1.00  0.00     0.053 C 
BRANCH   5   6
ATOM      6  C   UNL     1      13.318 -29.287  24.251  1.00  0.00     0.041 C 
ATOM      7  O   UNL     1      13.583 -28.659  23.192  1.00  0.00    -0.550 OA
ATOM      8  O   UNL     1      13.656 -28.732  25.480  1.00  0.00    -0.550 OA
ENDBRANCH   5   6
ENDBRANCH   4   5
ENDBRANCH   3   4
ENDBRANCH   2   3
ENDBRANCH   1   2
BRANCH   1   9
ATOM      9  C   UNL     1       6.959 -30.028  24.865  1.00  0.00     0.000 C 
BRANCH   9  10
ATOM     10  C   UNL     1       6.731 -30.133  23.349  1.00  0.00    -0.000 C 
BRANCH  10  11
ATOM     11  C   UNL     1       7.780 -29.323  22.578  1.00  0.00    -0.000 C 
BRANCH  11  12
ATOM     12  C   UNL     1       8.245 -30.077  21.323  1.00  0.00    -0.000 C 
BRANCH  12  13
ATOM     13  C   UNL     1       8.149 -31.602  21.481  1.00  0.00    -0.003 C 
ATOM     14  C   UNL     1       9.433 -32.321  21.064  1.00  0.00     0.004 C 
ENDBRANCH  12  13
ENDBRANCH  11  12
ENDBRANCH  10  11
ENDBRANCH   9  10
ENDBRANCH   1   9
TORSDOF 10
ENDMDL
MODEL 9
REMARK VINA RESULT:    -5.028      4.099      5.881
REMARK INTER + INTRA:          -8.590
REMARK INTER:                  -7.120
REMARK INTRA:                  -1.470
REMARK UNBOUND:                -0.622
REMARK SMILES CCCCCCCCCCCC(=O)[O-]
REMARK SMILES IDX 7 1 8 2 9 3 10 4 11 5 12 6 13 7 14 8 6 9 5 10 4 11 3 12 2 13
REMARK SMILES IDX 1 14
REMARK H PARENT
REMARK Flexibility Score: inf
ROOT
ATOM      1  C   UNL     1       7.286 -29.771  24.197  1.00  0.00     0.000 C 
ENDROOT
BRANCH   1   2
ATOM      2  C   UNL     1       8.354 -29.987  25.282  1.00  0.00     0.000 C 
BRANCH   2   3
ATOM      3  C   UNL     1       8.775 -31.459  25.427  1.00  0.00     0.000 C 
BRANCH   3   4
ATOM      4  C   UNL     1      10.139 -31.822  24.807  1.00  0.00     0.006 C 
BRANCH   4   5
ATOM      5  C   UNL     1      10.909 -30.616  24.235  1.00  0.00     0.053 C 
BRANCH   5   6
ATOM      6  C   UNL     1      12.301 -30.507  24.782  1.00  0.00     0.041 C 
ATOM      7  O   UNL     1      12.858 -31.507  25.308  1.00  0.00    -0.550 OA
ATOM      8  O   UNL     1      13.000 -29.312  24.672  1.00  0.00    -0.550 OA
ENDBRANCH   5   6
ENDBRANCH   4   5
ENDBRANCH   3   4
ENDBRANCH   2   3
ENDBRANCH   1   2
BRANCH   1   9
ATOM      9  C   UNL     1       6.637 -31.087  23.739  1.00  0.00     0.000 C 
BRANCH   9  10
ATOM     10  C   UNL     1       7.042 -31.485  22.312  1.00  0.00    -0.000 C 
BRANCH  10  11
ATOM     11  C   UNL     1       7.798 -30.346  21.617  1.00  0.00    -0.000 C 
BRANCH  11  12
ATOM     12  C   UNL     1       9.087 -30.863  20.959  1.00  0.00    -0.000 C 
BRANCH  12  13
ATOM     13  C   UNL     1       9.184 -32.396  20.974  1.00  0.00    -0.003 C 
ATOM     14  C   UNL     1      10.607 -32.896  21.227  1.00  0.00     0.004 C 
ENDBRANCH  12  13
ENDBRANCH  11  12
ENDBRANCH  10  11
ENDBRANCH   9  10
ENDBRANCH   1   9
TORSDOF 10
ENDMDL
