MODEL 1
REMARK VINA RESULT:    26.208      0.000      0.000
REMARK INTER + INTRA:          41.121
REMARK INTER:                  38.465
REMARK INTRA:                   2.657
REMARK UNBOUND:                 2.657
REMARK SMILES O=c1c(O[C@@H]2O[C@@H](CO)[C@@H](O)[C@H](O)[C@@H]2O)c(-c2ccc(O)c(O)c2)oc2cc(O)cc(O)c12
REMARK SMILES IDX 4 1 3 2 16 3 25 4 2 5 26 6 1 7 33 8 27 9 31 10 28 11 30 12
REMARK SMILES IDX 17 13 18 14 19 15 20 16 24 17 22 18 21 19 23 21 32 23 29 25
REMARK SMILES IDX 5 27 14 28 6 29 12 30 7 31 10 32 15 33 13 35 8 37 9 38 11 40
REMARK H PARENT 21 20 23 22 32 24 29 26 15 34 13 36 9 39 11 41
REMARK Flexibility Score: inf
ROOT
ATOM      1  O   UNL     1     -31.505 -21.459 -31.669  1.00  0.00    -0.454 OA
ENDROOT
BRANCH   1   2
ATOM      2  C   UNL     1     -31.912 -22.141 -32.831  1.00  0.00     0.214 A 
ATOM      3  C   UNL     1     -31.783 -23.545 -32.853  1.00  0.00     0.180 A 
ATOM      4  O   UNL     1     -32.063 -24.222 -33.960  1.00  0.00    -0.452 OA
ATOM      5  C   UNL     1     -32.394 -21.495 -33.992  1.00  0.00     0.239 A 
ATOM      6  C   UNL     1     -32.508 -23.655 -35.073  1.00  0.00     0.146 A 
ATOM      7  O   UNL     1     -32.452 -20.242 -34.030  1.00  0.00    -0.285 OA
ATOM      8  C   UNL     1     -32.742 -22.260 -35.132  1.00  0.00     0.111 A 
ATOM      9  C   UNL     1     -32.721 -24.459 -36.196  1.00  0.00     0.094 A 
ATOM     10  C   UNL     1     -33.249 -21.708 -36.345  1.00  0.00     0.134 A 
ATOM     11  C   UNL     1     -33.125 -23.895 -37.404  1.00  0.00     0.123 A 
ATOM     12  C   UNL     1     -33.384 -22.524 -37.474  1.00  0.00     0.093 A 
BRANCH   3  13
ATOM     13  C   UNL     1     -31.302 -24.315 -31.679  1.00  0.00     0.025 A 
ATOM     14  C   UNL     1     -31.538 -25.698 -31.550  1.00  0.00     0.016 A 
ATOM     15  C   UNL     1     -31.042 -26.398 -30.446  1.00  0.00     0.051 A 
ATOM     16  C   UNL     1     -30.291 -25.735 -29.465  1.00  0.00     0.157 A 
ATOM     17  C   UNL     1     -30.536 -23.663 -30.703  1.00  0.00     0.062 A 
ATOM     18  C   UNL     1     -30.025 -24.362 -29.606  1.00  0.00     0.158 A 
BRANCH  16  19
ATOM     19  O   UNL     1     -29.808 -26.434 -28.364  1.00  0.00    -0.504 OA
ATOM     20  H   UNL     1     -28.845 -26.750 -28.314  1.00  0.00     0.293 HD
ENDBRANCH  16  19
BRANCH  18  21
ATOM     21  O   UNL     1     -29.243 -23.680 -28.672  1.00  0.00    -0.504 OA
ATOM     22  H   UNL     1     -29.653 -23.123 -27.935  1.00  0.00     0.293 HD
ENDBRANCH  18  21
ENDBRANCH   3  13
BRANCH  10  23
ATOM     23  O   UNL     1     -33.660 -20.378 -36.474  1.00  0.00    -0.507 OA
ATOM     24  H   UNL     1     -34.625 -20.086 -36.416  1.00  0.00     0.293 HD
ENDBRANCH  10  23
BRANCH  11  25
ATOM     25  O   UNL     1     -33.267 -24.704 -38.529  1.00  0.00    -0.508 OA
ATOM     26  H   UNL     1     -34.139 -24.754 -39.032  1.00  0.00     0.293 HD
ENDBRANCH  11  25
ENDBRANCH   1   2
BRANCH   1  27
ATOM     27  C   UNL     1     -30.189 -21.360 -31.123  1.00  0.00     0.339 C 
ATOM     28  C   UNL     1     -29.230 -21.056 -32.284  1.00  0.00     0.214 C 
ATOM     29  O   UNL     1     -30.164 -20.323 -30.156  1.00  0.00    -0.332 OA
ATOM     30  C   UNL     1     -27.798 -20.903 -31.750  1.00  0.00     0.180 C 
ATOM     31  C   UNL     1     -28.885 -20.145 -29.556  1.00  0.00     0.179 C 
ATOM     32  C   UNL     1     -27.758 -19.883 -30.597  1.00  0.00     0.177 C 
BRANCH  28  33
ATOM     33  O   UNL     1     -29.648 -19.877 -32.927  1.00  0.00    -0.384 OA
ATOM     34  H   UNL     1     -29.788 -19.188 -32.220  1.00  0.00     0.211 HD
ENDBRANCH  28  33
BRANCH  30  35
ATOM     35  O   UNL     1     -26.907 -20.549 -32.780  1.00  0.00    -0.387 OA
ATOM     36  H   UNL     1     -26.382 -21.353 -33.024  1.00  0.00     0.211 HD
ENDBRANCH  30  35
BRANCH  31  37
ATOM     37  C   UNL     1     -28.571 -21.213 -28.478  1.00  0.00     0.191 C 
BRANCH  37  38
ATOM     38  O   UNL     1     -27.316 -21.024 -27.882  1.00  0.00    -0.394 OA
ATOM     39  H   UNL     1     -27.279 -20.081 -27.572  1.00  0.00     0.210 HD
ENDBRANCH  37  38
ENDBRANCH  31  37
BRANCH  32  40
ATOM     40  O   UNL     1     -26.492 -19.906 -29.990  1.00  0.00    -0.387 OA
ATOM     41  H   UNL     1     -26.211 -18.959 -29.878  1.00  0.00     0.211 HD
ENDBRANCH  32  40
ENDBRANCH   1  27
TORSDOF 12
ENDMDL
MODEL 2
REMARK VINA RESULT:    26.902      2.284      7.516
REMARK INTER + INTRA:          42.140
REMARK INTER:                  31.101
REMARK INTRA:                  11.039
REMARK UNBOUND:                 2.657
REMARK SMILES O=c1c(O[C@@H]2O[C@@H](CO)[C@@H](O)[C@H](O)[C@@H]2O)c(-c2ccc(O)c(O)c2)oc2cc(O)cc(O)c12
REMARK SMILES IDX 4 1 3 2 16 3 25 4 2 5 26 6 1 7 33 8 27 9 31 10 28 11 30 12
REMARK SMILES IDX 17 13 18 14 19 15 20 16 24 17 22 18 21 19 23 21 32 23 29 25
REMARK SMILES IDX 5 27 14 28 6 29 12 30 7 31 10 32 15 33 13 35 8 37 9 38 11 40
REMARK H PARENT 21 20 23 22 32 24 29 26 15 34 13 36 9 39 11 41
REMARK Flexibility Score: inf
ROOT
ATOM      1  O   UNL     1     -32.561 -23.195 -33.571  1.00  0.00    -0.454 OA
ENDROOT
BRANCH   1   2
ATOM      2  C   UNL     1     -31.416 -22.516 -33.114  1.00  0.00     0.214 A 
ATOM      3  C   UNL     1     -30.270 -22.525 -33.935  1.00  0.00     0.180 A 
ATOM      4  O   UNL     1     -29.139 -21.981 -33.504  1.00  0.00    -0.452 OA
ATOM      5  C   UNL     1     -31.335 -21.871 -31.858  1.00  0.00     0.239 A 
ATOM      6  C   UNL     1     -29.016 -21.375 -32.331  1.00  0.00     0.146 A 
ATOM      7  O   UNL     1     -32.313 -21.908 -31.074  1.00  0.00    -0.285 OA
ATOM      8  C   UNL     1     -30.127 -21.248 -31.463  1.00  0.00     0.111 A 
ATOM      9  C   UNL     1     -27.762 -20.883 -31.958  1.00  0.00     0.094 A 
ATOM     10  C   UNL     1     -29.945 -20.561 -30.226  1.00  0.00     0.134 A 
ATOM     11  C   UNL     1     -27.575 -20.299 -30.707  1.00  0.00     0.123 A 
ATOM     12  C   UNL     1     -28.664 -20.143 -29.847  1.00  0.00     0.093 A 
BRANCH   3  13
ATOM     13  C   UNL     1     -30.261 -23.161 -35.276  1.00  0.00     0.025 A 
ATOM     14  C   UNL     1     -30.411 -24.552 -35.439  1.00  0.00     0.016 A 
ATOM     15  C   UNL     1     -30.430 -25.113 -36.720  1.00  0.00     0.051 A 
ATOM     16  C   UNL     1     -30.316 -24.297 -37.853  1.00  0.00     0.157 A 
ATOM     17  C   UNL     1     -30.165 -22.349 -36.415  1.00  0.00     0.062 A 
ATOM     18  C   UNL     1     -30.199 -22.905 -37.696  1.00  0.00     0.158 A 
BRANCH  16  19
ATOM     19  O   UNL     1     -30.327 -24.862 -39.125  1.00  0.00    -0.504 OA
ATOM     20  H   UNL     1     -29.999 -24.352 -39.937  1.00  0.00     0.293 HD
ENDBRANCH  16  19
BRANCH  18  21
ATOM     21  O   UNL     1     -30.130 -22.059 -38.805  1.00  0.00    -0.504 OA
ATOM     22  H   UNL     1     -30.702 -21.229 -38.881  1.00  0.00     0.293 HD
ENDBRANCH  18  21
ENDBRANCH   3  13
BRANCH  10  23
ATOM     23  O   UNL     1     -30.996 -20.241 -29.361  1.00  0.00    -0.507 OA
ATOM     24  H   UNL     1     -31.919 -19.980 -29.678  1.00  0.00     0.293 HD
ENDBRANCH  10  23
BRANCH  11  25
ATOM     25  O   UNL     1     -26.303 -19.877 -30.328  1.00  0.00    -0.508 OA
ATOM     26  H   UNL     1     -25.474 -20.285 -30.731  1.00  0.00     0.293 HD
ENDBRANCH  11  25
ENDBRANCH   1   2
BRANCH   1  27
ATOM     27  C   UNL     1     -33.207 -23.076 -34.839  1.00  0.00     0.339 C 
ATOM     28  C   UNL     1     -33.371 -21.577 -35.133  1.00  0.00     0.214 C 
ATOM     29  O   UNL     1     -32.409 -23.706 -35.827  1.00  0.00    -0.332 OA
ATOM     30  C   UNL     1     -34.030 -21.386 -36.507  1.00  0.00     0.180 C 
ATOM     31  C   UNL     1     -32.972 -23.634 -37.133  1.00  0.00     0.179 C 
ATOM     32  C   UNL     1     -33.267 -22.175 -37.587  1.00  0.00     0.177 C 
BRANCH  28  33
ATOM     33  O   UNL     1     -32.105 -20.963 -35.101  1.00  0.00    -0.384 OA
ATOM     34  H   UNL     1     -31.510 -21.482 -35.709  1.00  0.00     0.211 HD
ENDBRANCH  28  33
BRANCH  30  35
ATOM     35  O   UNL     1     -34.124 -20.021 -36.839  1.00  0.00    -0.387 OA
ATOM     36  H   UNL     1     -35.076 -19.752 -36.773  1.00  0.00     0.211 HD
ENDBRANCH  30  35
BRANCH  31  37
ATOM     37  C   UNL     1     -34.119 -24.653 -37.351  1.00  0.00     0.191 C 
BRANCH  37  38
ATOM     38  O   UNL     1     -33.718 -25.975 -37.108  1.00  0.00    -0.394 OA
ATOM     39  H   UNL     1     -34.501 -26.452 -36.726  1.00  0.00     0.210 HD
ENDBRANCH  37  38
ENDBRANCH  31  37
BRANCH  32  40
ATOM     40  O   UNL     1     -33.995 -22.155 -38.788  1.00  0.00    -0.387 OA
ATOM     41  H   UNL     1     -34.276 -23.091 -38.968  1.00  0.00     0.211 HD
ENDBRANCH  32  40
ENDBRANCH   1  27
TORSDOF 12
ENDMDL
MODEL 3
REMARK VINA RESULT:    27.855      1.663      7.877
REMARK INTER + INTRA:          43.539
REMARK INTER:                  30.167
REMARK INTRA:                  13.372
REMARK UNBOUND:                 2.657
REMARK SMILES O=c1c(O[C@@H]2O[C@@H](CO)[C@@H](O)[C@H](O)[C@@H]2O)c(-c2ccc(O)c(O)c2)oc2cc(O)cc(O)c12
REMARK SMILES IDX 4 1 3 2 16 3 25 4 2 5 26 6 1 7 33 8 27 9 31 10 28 11 30 12
REMARK SMILES IDX 17 13 18 14 19 15 20 16 24 17 22 18 21 19 23 21 32 23 29 25
REMARK SMILES IDX 5 27 14 28 6 29 12 30 7 31 10 32 15 33 13 35 8 37 9 38 11 40
REMARK H PARENT 21 20 23 22 32 24 29 26 15 34 13 36 9 39 11 41
REMARK Flexibility Score: inf
ROOT
ATOM      1  O   UNL     1     -32.593 -24.422 -33.761  1.00  0.00    -0.454 OA
ENDROOT
BRANCH   1   2
ATOM      2  C   UNL     1     -31.894 -23.504 -32.954  1.00  0.00     0.214 A 
ATOM      3  C   UNL     1     -31.739 -22.187 -33.433  1.00  0.00     0.180 A 
ATOM      4  O   UNL     1     -31.006 -21.315 -32.753  1.00  0.00    -0.452 OA
ATOM      5  C   UNL     1     -31.296 -23.842 -31.719  1.00  0.00     0.239 A 
ATOM      6  C   UNL     1     -30.419 -21.592 -31.596  1.00  0.00     0.146 A 
ATOM      7  O   UNL     1     -31.354 -25.024 -31.300  1.00  0.00    -0.285 OA
ATOM      8  C   UNL     1     -30.574 -22.864 -30.993  1.00  0.00     0.111 A 
ATOM      9  C   UNL     1     -29.628 -20.612 -30.993  1.00  0.00     0.094 A 
ATOM     10  C   UNL     1     -29.947 -23.098 -29.735  1.00  0.00     0.134 A 
ATOM     11  C   UNL     1     -28.942 -20.883 -29.811  1.00  0.00     0.123 A 
ATOM     12  C   UNL     1     -29.102 -22.124 -29.190  1.00  0.00     0.093 A 
BRANCH   3  13
ATOM     13  C   UNL     1     -32.342 -21.732 -34.710  1.00  0.00     0.025 A 
ATOM     14  C   UNL     1     -33.597 -21.094 -34.753  1.00  0.00     0.016 A 
ATOM     15  C   UNL     1     -34.121 -20.649 -35.971  1.00  0.00     0.051 A 
ATOM     16  C   UNL     1     -33.395 -20.819 -37.158  1.00  0.00     0.157 A 
ATOM     17  C   UNL     1     -31.615 -21.882 -35.899  1.00  0.00     0.062 A 
ATOM     18  C   UNL     1     -32.127 -21.425 -37.116  1.00  0.00     0.158 A 
BRANCH  16  19
ATOM     19  O   UNL     1     -33.924 -20.382 -38.369  1.00  0.00    -0.504 OA
ATOM     20  H   UNL     1     -33.980 -20.992 -39.177  1.00  0.00     0.293 HD
ENDBRANCH  16  19
BRANCH  18  21
ATOM     21  O   UNL     1     -31.359 -21.568 -38.272  1.00  0.00    -0.504 OA
ATOM     22  H   UNL     1     -31.590 -21.089 -39.132  1.00  0.00     0.293 HD
ENDBRANCH  18  21
ENDBRANCH   3  13
BRANCH  10  23
ATOM     23  O   UNL     1     -30.151 -24.253 -28.974  1.00  0.00    -0.507 OA
ATOM     24  H   UNL     1     -31.018 -24.771 -28.971  1.00  0.00     0.293 HD
ENDBRANCH  10  23
BRANCH  11  25
ATOM     25  O   UNL     1     -28.104 -19.915 -29.263  1.00  0.00    -0.508 OA
ATOM     26  H   UNL     1     -27.116 -19.905 -29.462  1.00  0.00     0.293 HD
ENDBRANCH  11  25
ENDBRANCH   1   2
BRANCH   1  27
ATOM     27  C   UNL     1     -32.283 -24.838 -35.091  1.00  0.00     0.339 C 
ATOM     28  C   UNL     1     -33.409 -24.335 -36.006  1.00  0.00     0.214 C 
ATOM     29  O   UNL     1     -31.033 -24.284 -35.470  1.00  0.00    -0.332 OA
ATOM     30  C   UNL     1     -33.110 -24.723 -37.462  1.00  0.00     0.180 C 
ATOM     31  C   UNL     1     -30.638 -24.642 -36.791  1.00  0.00     0.179 C 
ATOM     32  C   UNL     1     -31.697 -24.260 -37.865  1.00  0.00     0.177 C 
BRANCH  28  33
ATOM     33  O   UNL     1     -33.515 -22.938 -35.877  1.00  0.00    -0.384 OA
ATOM     34  H   UNL     1     -33.862 -22.587 -36.743  1.00  0.00     0.211 HD
ENDBRANCH  28  33
BRANCH  30  35
ATOM     35  O   UNL     1     -34.087 -24.210 -38.335  1.00  0.00    -0.387 OA
ATOM     36  H   UNL     1     -33.893 -24.544 -39.248  1.00  0.00     0.211 HD
ENDBRANCH  30  35
BRANCH  31  37
ATOM     37  C   UNL     1     -30.075 -26.083 -36.882  1.00  0.00     0.191 C 
BRANCH  37  38
ATOM     38  O   UNL     1     -30.687 -26.837 -37.894  1.00  0.00    -0.394 OA
ATOM     39  H   UNL     1     -31.456 -27.309 -37.481  1.00  0.00     0.210 HD
ENDBRANCH  37  38
ENDBRANCH  31  37
BRANCH  32  40
ATOM     40  O   UNL     1     -31.365 -24.797 -39.119  1.00  0.00    -0.387 OA
ATOM     41  H   UNL     1     -31.752 -25.711 -39.151  1.00  0.00     0.211 HD
ENDBRANCH  32  40
ENDBRANCH   1  27
TORSDOF 12
ENDMDL
