MODEL 1
REMARK VINA RESULT:    -4.868      0.000      0.000
REMARK INTER + INTRA:         -17.742
REMARK INTER:                 -12.268
REMARK INTRA:                  -5.474
REMARK UNBOUND:                -5.474
REMARK SMILES CCCCCCCCCCCCCCCCCCCCCCCCCCCC(=O)[O-]
REMARK SMILES IDX 15 1 16 2 17 3 18 4 19 5 20 6 21 7 22 8 23 9 24 10 25 11
REMARK SMILES IDX 26 12 27 13 28 14 29 15 30 16 14 17 13 18 12 19 11 20 10 21
REMARK SMILES IDX 9 22 8 23 7 24 6 25 5 26 4 27 3 28 2 29 1 30
REMARK H PARENT
REMARK Flexibility Score: inf
ROOT
ATOM      1  C   UNL     1     -25.816  61.607  31.534  1.00  0.00     0.000 C 
ENDROOT
BRANCH   1   2
ATOM      2  C   UNL     1     -26.917  62.110  32.483  1.00  0.00     0.000 C 
BRANCH   2   3
ATOM      3  C   UNL     1     -26.934  61.405  33.856  1.00  0.00     0.000 C 
BRANCH   3   4
ATOM      4  C   UNL     1     -25.701  60.506  34.064  1.00  0.00     0.000 C 
BRANCH   4   5
ATOM      5  C   UNL     1     -24.823  60.952  35.246  1.00  0.00     0.000 C 
BRANCH   5   6
ATOM      6  C   UNL     1     -23.320  60.654  35.087  1.00  0.00     0.000 C 
BRANCH   6   7
ATOM      7  C   UNL     1     -22.424  61.701  35.776  1.00  0.00     0.000 C 
BRANCH   7   8
ATOM      8  C   UNL     1     -21.400  62.332  34.807  1.00  0.00     0.000 C 
BRANCH   8   9
ATOM      9  C   UNL     1     -19.934  62.002  35.150  1.00  0.00     0.000 C 
BRANCH   9  10
ATOM     10  C   UNL     1     -19.233  61.056  34.160  1.00  0.00     0.000 C 
BRANCH  10  11
ATOM     11  C   UNL     1     -19.388  59.575  34.537  1.00  0.00     0.000 C 
BRANCH  11  12
ATOM     12  C   UNL     1     -20.391  58.878  33.606  1.00  0.00     0.006 C 
BRANCH  12  13
ATOM     13  C   UNL     1     -19.714  57.864  32.675  1.00  0.00     0.053 C 
BRANCH  13  14
ATOM     14  C   UNL     1     -18.415  58.381  32.139  1.00  0.00     0.041 C 
ATOM     15  O   UNL     1     -17.322  57.920  32.568  1.00  0.00    -0.550 OA
ATOM     16  O   UNL     1     -18.410  59.343  31.136  1.00  0.00    -0.550 OA
ENDBRANCH  13  14
ENDBRANCH  12  13
ENDBRANCH  11  12
ENDBRANCH  10  11
ENDBRANCH   9  10
ENDBRANCH   8   9
ENDBRANCH   7   8
ENDBRANCH   6   7
ENDBRANCH   5   6
ENDBRANCH   4   5
ENDBRANCH   3   4
ENDBRANCH   2   3
ENDBRANCH   1   2
BRANCH   1  17
ATOM     17  C   UNL     1     -25.161  62.740  30.729  1.00  0.00     0.000 C 
BRANCH  17  18
ATOM     18  C   UNL     1     -23.623  62.690  30.755  1.00  0.00     0.000 C 
BRANCH  18  19
ATOM     19  C   UNL     1     -23.007  61.621  31.685  1.00  0.00     0.000 C 
BRANCH  19  20
ATOM     20  C   UNL     1     -21.637  61.069  31.250  1.00  0.00     0.000 C 
BRANCH  20  21
ATOM     21  C   UNL     1     -20.863  62.032  30.329  1.00  0.00     0.000 C 
BRANCH  21  22
ATOM     22  C   UNL     1     -20.385  61.351  29.039  1.00  0.00    -0.000 C 
BRANCH  22  23
ATOM     23  C   UNL     1     -21.261  61.690  27.824  1.00  0.00    -0.000 C 
BRANCH  23  24
ATOM     24  C   UNL     1     -22.250  60.552  27.533  1.00  0.00    -0.000 C 
BRANCH  24  25
ATOM     25  C   UNL     1     -23.683  60.880  27.981  1.00  0.00    -0.000 C 
BRANCH  25  26
ATOM     26  C   UNL     1     -24.419  59.653  28.545  1.00  0.00    -0.000 C 
BRANCH  26  27
ATOM     27  C   UNL     1     -23.497  58.422  28.665  1.00  0.00    -0.000 C 
BRANCH  27  28
ATOM     28  C   UNL     1     -23.115  58.069  30.116  1.00  0.00    -0.000 C 
BRANCH  28  29
ATOM     29  C   UNL     1     -24.278  58.179  31.121  1.00  0.00    -0.003 C 
ATOM     30  C   UNL     1     -23.871  57.800  32.545  1.00  0.00     0.004 C 
ENDBRANCH  28  29
ENDBRANCH  27  28
ENDBRANCH  26  27
ENDBRANCH  25  26
ENDBRANCH  24  25
ENDBRANCH  23  24
ENDBRANCH  22  23
ENDBRANCH  21  22
ENDBRANCH  20  21
ENDBRANCH  19  20
ENDBRANCH  18  19
ENDBRANCH  17  18
ENDBRANCH   1  17
TORSDOF 26
ENDMDL
MODEL 2
REMARK VINA RESULT:    -4.623      1.466      4.901
REMARK INTER + INTRA:         -17.124
REMARK INTER:                 -11.488
REMARK INTRA:                  -5.636
REMARK UNBOUND:                -5.474
REMARK SMILES CCCCCCCCCCCCCCCCCCCCCCCCCCCC(=O)[O-]
REMARK SMILES IDX 15 1 16 2 17 3 18 4 19 5 20 6 21 7 22 8 23 9 24 10 25 11
REMARK SMILES IDX 26 12 27 13 28 14 29 15 30 16 14 17 13 18 12 19 11 20 10 21
REMARK SMILES IDX 9 22 8 23 7 24 6 25 5 26 4 27 3 28 2 29 1 30
REMARK H PARENT
REMARK Flexibility Score: inf
ROOT
ATOM      1  C   UNL     1     -20.547  61.099  30.932  1.00  0.00     0.000 C 
ENDROOT
BRANCH   1   2
ATOM      2  C   UNL     1     -21.542  62.259  31.103  1.00  0.00     0.000 C 
BRANCH   2   3
ATOM      3  C   UNL     1     -23.018  61.814  31.187  1.00  0.00     0.000 C 
BRANCH   3   4
ATOM      4  C   UNL     1     -23.970  62.831  30.532  1.00  0.00     0.000 C 
BRANCH   4   5
ATOM      5  C   UNL     1     -25.170  62.169  29.833  1.00  0.00     0.000 C 
BRANCH   5   6
ATOM      6  C   UNL     1     -25.732  60.924  30.546  1.00  0.00     0.000 C 
BRANCH   6   7
ATOM      7  C   UNL     1     -26.479  61.266  31.849  1.00  0.00     0.000 C 
BRANCH   7   8
ATOM      8  C   UNL     1     -25.985  60.429  33.050  1.00  0.00     0.000 C 
BRANCH   8   9
ATOM      9  C   UNL     1     -26.357  61.028  34.421  1.00  0.00     0.000 C 
BRANCH   9  10
ATOM     10  C   UNL     1     -25.203  61.093  35.436  1.00  0.00     0.000 C 
BRANCH  10  11
ATOM     11  C   UNL     1     -23.837  60.783  34.808  1.00  0.00     0.000 C 
BRANCH  11  12
ATOM     12  C   UNL     1     -22.708  61.474  35.589  1.00  0.00     0.006 C 
BRANCH  12  13
ATOM     13  C   UNL     1     -21.596  61.991  34.667  1.00  0.00     0.053 C 
BRANCH  13  14
ATOM     14  C   UNL     1     -20.340  61.187  34.804  1.00  0.00     0.041 C 
ATOM     15  O   UNL     1     -19.287  61.547  34.211  1.00  0.00    -0.550 OA
ATOM     16  O   UNL     1     -20.320  60.062  35.621  1.00  0.00    -0.550 OA
ENDBRANCH  13  14
ENDBRANCH  12  13
ENDBRANCH  11  12
ENDBRANCH  10  11
ENDBRANCH   9  10
ENDBRANCH   8   9
ENDBRANCH   7   8
ENDBRANCH   6   7
ENDBRANCH   5   6
ENDBRANCH   4   5
ENDBRANCH   3   4
ENDBRANCH   2   3
ENDBRANCH   1   2
BRANCH   1  17
ATOM     17  C   UNL     1     -20.440  60.617  29.477  1.00  0.00     0.000 C 
BRANCH  17  18
ATOM     18  C   UNL     1     -20.517  61.764  28.452  1.00  0.00     0.000 C 
BRANCH  18  19
ATOM     19  C   UNL     1     -21.635  61.638  27.394  1.00  0.00     0.000 C 
BRANCH  19  20
ATOM     20  C   UNL     1     -22.748  60.624  27.718  1.00  0.00     0.000 C 
BRANCH  20  21
ATOM     21  C   UNL     1     -22.547  59.264  27.023  1.00  0.00     0.000 C 
BRANCH  21  22
ATOM     22  C   UNL     1     -22.745  58.081  27.983  1.00  0.00    -0.000 C 
BRANCH  22  23
ATOM     23  C   UNL     1     -23.564  58.453  29.227  1.00  0.00    -0.000 C 
BRANCH  23  24
ATOM     24  C   UNL     1     -23.241  57.506  30.392  1.00  0.00    -0.000 C 
BRANCH  24  25
ATOM     25  C   UNL     1     -23.578  58.113  31.763  1.00  0.00    -0.000 C 
BRANCH  25  26
ATOM     26  C   UNL     1     -22.323  58.378  32.614  1.00  0.00    -0.000 C 
BRANCH  26  27
ATOM     27  C   UNL     1     -21.100  57.581  32.116  1.00  0.00    -0.000 C 
BRANCH  27  28
ATOM     28  C   UNL     1     -19.756  58.092  32.669  1.00  0.00    -0.000 C 
BRANCH  28  29
ATOM     29  C   UNL     1     -18.561  57.882  31.719  1.00  0.00    -0.003 C 
ATOM     30  C   UNL     1     -18.987  57.445  30.316  1.00  0.00     0.004 C 
ENDBRANCH  28  29
ENDBRANCH  27  28
ENDBRANCH  26  27
ENDBRANCH  25  26
ENDBRANCH  24  25
ENDBRANCH  23  24
ENDBRANCH  22  23
ENDBRANCH  21  22
ENDBRANCH  20  21
ENDBRANCH  19  20
ENDBRANCH  18  19
ENDBRANCH  17  18
ENDBRANCH   1  17
TORSDOF 26
ENDMDL
MODEL 3
REMARK VINA RESULT:    -4.585      1.761      4.890
REMARK INTER + INTRA:         -17.029
REMARK INTER:                 -11.107
REMARK INTRA:                  -5.921
REMARK UNBOUND:                -5.474
REMARK SMILES CCCCCCCCCCCCCCCCCCCCCCCCCCCC(=O)[O-]
REMARK SMILES IDX 15 1 16 2 17 3 18 4 19 5 20 6 21 7 22 8 23 9 24 10 25 11
REMARK SMILES IDX 26 12 27 13 28 14 29 15 30 16 14 17 13 18 12 19 11 20 10 21
REMARK SMILES IDX 9 22 8 23 7 24 6 25 5 26 4 27 3 28 2 29 1 30
REMARK H PARENT
REMARK Flexibility Score: inf
ROOT
ATOM      1  C   UNL     1     -26.952  60.607  34.509  1.00  0.00     0.000 C 
ENDROOT
BRANCH   1   2
ATOM      2  C   UNL     1     -27.811  61.630  33.746  1.00  0.00     0.000 C 
BRANCH   2   3
ATOM      3  C   UNL     1     -27.416  61.801  32.264  1.00  0.00     0.000 C 
BRANCH   3   4
ATOM      4  C   UNL     1     -26.764  60.533  31.685  1.00  0.00     0.000 C 
BRANCH   4   5
ATOM      5  C   UNL     1     -25.484  60.825  30.883  1.00  0.00     0.000 C 
BRANCH   5   6
ATOM      6  C   UNL     1     -24.796  62.161  31.224  1.00  0.00     0.000 C 
BRANCH   6   7
ATOM      7  C   UNL     1     -24.104  62.806  30.008  1.00  0.00     0.000 C 
BRANCH   7   8
ATOM      8  C   UNL     1     -24.250  61.958  28.726  1.00  0.00     0.000 C 
BRANCH   8   9
ATOM      9  C   UNL     1     -22.911  61.659  28.022  1.00  0.00     0.000 C 
BRANCH   9  10
ATOM     10  C   UNL     1     -22.353  60.246  28.261  1.00  0.00     0.000 C 
BRANCH  10  11
ATOM     11  C   UNL     1     -23.430  59.154  28.173  1.00  0.00     0.000 C 
BRANCH  11  12
ATOM     12  C   UNL     1     -23.292  58.156  29.333  1.00  0.00     0.006 C 
BRANCH  12  13
ATOM     13  C   UNL     1     -22.904  56.753  28.850  1.00  0.00     0.053 C 
BRANCH  13  14
ATOM     14  C   UNL     1     -21.570  56.746  28.170  1.00  0.00     0.041 C 
ATOM     15  O   UNL     1     -20.514  56.909  28.840  1.00  0.00    -0.550 OA
ATOM     16  O   UNL     1     -21.488  56.519  26.801  1.00  0.00    -0.550 OA
ENDBRANCH  13  14
ENDBRANCH  12  13
ENDBRANCH  11  12
ENDBRANCH  10  11
ENDBRANCH   9  10
ENDBRANCH   8   9
ENDBRANCH   7   8
ENDBRANCH   6   7
ENDBRANCH   5   6
ENDBRANCH   4   5
ENDBRANCH   3   4
ENDBRANCH   2   3
ENDBRANCH   1   2
BRANCH   1  17
ATOM     17  C   UNL     1     -25.765  61.254  35.238  1.00  0.00     0.000 C 
BRANCH  17  18
ATOM     18  C   UNL     1     -24.404  60.896  34.613  1.00  0.00     0.000 C 
BRANCH  18  19
ATOM     19  C   UNL     1     -23.255  60.649  35.616  1.00  0.00     0.000 C 
BRANCH  19  20
ATOM     20  C   UNL     1     -22.180  61.749  35.681  1.00  0.00     0.000 C 
BRANCH  20  21
ATOM     21  C   UNL     1     -20.748  61.204  35.518  1.00  0.00     0.000 C 
BRANCH  21  22
ATOM     22  C   UNL     1     -20.084  61.686  34.219  1.00  0.00    -0.000 C 
BRANCH  22  23
ATOM     23  C   UNL     1     -21.046  62.461  33.307  1.00  0.00    -0.000 C 
BRANCH  23  24
ATOM     24  C   UNL     1     -21.070  61.849  31.899  1.00  0.00    -0.000 C 
BRANCH  24  25
ATOM     25  C   UNL     1     -21.654  60.428  31.877  1.00  0.00    -0.000 C 
BRANCH  25  26
ATOM     26  C   UNL     1     -20.614  59.370  31.469  1.00  0.00    -0.000 C 
BRANCH  26  27
ATOM     27  C   UNL     1     -20.826  58.029  32.200  1.00  0.00    -0.000 C 
BRANCH  27  28
ATOM     28  C   UNL     1     -21.854  58.100  33.347  1.00  0.00    -0.000 C 
BRANCH  28  29
ATOM     29  C   UNL     1     -23.047  57.138  33.186  1.00  0.00    -0.003 C 
ATOM     30  C   UNL     1     -24.338  57.854  32.787  1.00  0.00     0.004 C 
ENDBRANCH  28  29
ENDBRANCH  27  28
ENDBRANCH  26  27
ENDBRANCH  25  26
ENDBRANCH  24  25
ENDBRANCH  23  24
ENDBRANCH  22  23
ENDBRANCH  21  22
ENDBRANCH  20  21
ENDBRANCH  19  20
ENDBRANCH  18  19
ENDBRANCH  17  18
ENDBRANCH   1  17
TORSDOF 26
ENDMDL
MODEL 4
REMARK VINA RESULT:    -4.583      1.586      3.767
REMARK INTER + INTRA:         -17.022
REMARK INTER:                 -11.660
REMARK INTRA:                  -5.362
REMARK UNBOUND:                -5.474
REMARK SMILES CCCCCCCCCCCCCCCCCCCCCCCCCCCC(=O)[O-]
REMARK SMILES IDX 15 1 16 2 17 3 18 4 19 5 20 6 21 7 22 8 23 9 24 10 25 11
REMARK SMILES IDX 26 12 27 13 28 14 29 15 30 16 14 17 13 18 12 19 11 20 10 21
REMARK SMILES IDX 9 22 8 23 7 24 6 25 5 26 4 27 3 28 2 29 1 30
REMARK H PARENT
REMARK Flexibility Score: inf
ROOT
ATOM      1  C   UNL     1     -24.282  60.524  28.336  1.00  0.00     0.000 C 
ENDROOT
BRANCH   1   2
ATOM      2  C   UNL     1     -25.371  60.953  29.334  1.00  0.00     0.000 C 
BRANCH   2   3
ATOM      3  C   UNL     1     -25.071  62.283  30.058  1.00  0.00     0.000 C 
BRANCH   3   4
ATOM      4  C   UNL     1     -25.548  62.269  31.521  1.00  0.00     0.000 C 
BRANCH   4   5
ATOM      5  C   UNL     1     -26.440  61.060  31.853  1.00  0.00     0.000 C 
BRANCH   5   6
ATOM      6  C   UNL     1     -25.984  60.231  33.069  1.00  0.00     0.000 C 
BRANCH   6   7
ATOM      7  C   UNL     1     -26.385  60.868  34.413  1.00  0.00     0.000 C 
BRANCH   7   8
ATOM      8  C   UNL     1     -25.163  61.194  35.300  1.00  0.00     0.000 C 
BRANCH   8   9
ATOM      9  C   UNL     1     -23.827  60.670  34.736  1.00  0.00     0.000 C 
BRANCH   9  10
ATOM     10  C   UNL     1     -22.588  61.011  35.581  1.00  0.00     0.000 C 
BRANCH  10  11
ATOM     11  C   UNL     1     -21.776  62.181  35.007  1.00  0.00     0.000 C 
BRANCH  11  12
ATOM     12  C   UNL     1     -20.292  62.052  35.381  1.00  0.00     0.006 C 
BRANCH  12  13
ATOM     13  C   UNL     1     -19.474  61.360  34.283  1.00  0.00     0.053 C 
BRANCH  13  14
ATOM     14  C   UNL     1     -19.058  59.979  34.684  1.00  0.00     0.041 C 
ATOM     15  O   UNL     1     -18.482  59.783  35.788  1.00  0.00    -0.550 OA
ATOM     16  O   UNL     1     -19.344  58.899  33.855  1.00  0.00    -0.550 OA
ENDBRANCH  13  14
ENDBRANCH  12  13
ENDBRANCH  11  12
ENDBRANCH  10  11
ENDBRANCH   9  10
ENDBRANCH   8   9
ENDBRANCH   7   8
ENDBRANCH   6   7
ENDBRANCH   5   6
ENDBRANCH   4   5
ENDBRANCH   3   4
ENDBRANCH   2   3
ENDBRANCH   1   2
BRANCH   1  17
ATOM     17  C   UNL     1     -23.238  61.623  28.085  1.00  0.00     0.000 C 
BRANCH  17  18
ATOM     18  C   UNL     1     -21.848  61.066  27.726  1.00  0.00     0.000 C 
BRANCH  18  19
ATOM     19  C   UNL     1     -20.650  61.805  28.363  1.00  0.00     0.000 C 
BRANCH  19  20
ATOM     20  C   UNL     1     -20.235  61.318  29.763  1.00  0.00     0.000 C 
BRANCH  20  21
ATOM     21  C   UNL     1     -20.948  62.072  30.901  1.00  0.00     0.000 C 
BRANCH  21  22
ATOM     22  C   UNL     1     -22.044  61.226  31.567  1.00  0.00    -0.000 C 
BRANCH  22  23
ATOM     23  C   UNL     1     -21.772  59.718  31.476  1.00  0.00    -0.000 C 
BRANCH  23  24
ATOM     24  C   UNL     1     -23.088  58.927  31.508  1.00  0.00    -0.000 C 
BRANCH  24  25
ATOM     25  C   UNL     1     -23.136  57.809  30.454  1.00  0.00    -0.000 C 
BRANCH  25  26
ATOM     26  C   UNL     1     -21.737  57.432  29.933  1.00  0.00    -0.000 C 
BRANCH  26  27
ATOM     27  C   UNL     1     -21.649  57.500  28.395  1.00  0.00    -0.000 C 
BRANCH  27  28
ATOM     28  C   UNL     1     -22.979  57.192  27.680  1.00  0.00    -0.000 C 
BRANCH  28  29
ATOM     29  C   UNL     1     -23.095  55.746  27.158  1.00  0.00    -0.003 C 
ATOM     30  C   UNL     1     -21.861  55.296  26.374  1.00  0.00     0.004 C 
ENDBRANCH  28  29
ENDBRANCH  27  28
ENDBRANCH  26  27
ENDBRANCH  25  26
ENDBRANCH  24  25
ENDBRANCH  23  24
ENDBRANCH  22  23
ENDBRANCH  21  22
ENDBRANCH  20  21
ENDBRANCH  19  20
ENDBRANCH  18  19
ENDBRANCH  17  18
ENDBRANCH   1  17
TORSDOF 26
ENDMDL
MODEL 5
REMARK VINA RESULT:    -4.580      2.272      5.854
REMARK INTER + INTRA:         -17.015
REMARK INTER:                 -11.065
REMARK INTRA:                  -5.949
REMARK UNBOUND:                -5.474
REMARK SMILES CCCCCCCCCCCCCCCCCCCCCCCCCCCC(=O)[O-]
REMARK SMILES IDX 15 1 16 2 17 3 18 4 19 5 20 6 21 7 22 8 23 9 24 10 25 11
REMARK SMILES IDX 26 12 27 13 28 14 29 15 30 16 14 17 13 18 12 19 11 20 10 21
REMARK SMILES IDX 9 22 8 23 7 24 6 25 5 26 4 27 3 28 2 29 1 30
REMARK H PARENT
REMARK Flexibility Score: inf
ROOT
ATOM      1  C   UNL     1     -21.902  60.777  28.426  1.00  0.00     0.000 C 
ENDROOT
BRANCH   1   2
ATOM      2  C   UNL     1     -23.116  61.627  28.016  1.00  0.00     0.000 C 
BRANCH   2   3
ATOM      3  C   UNL     1     -24.308  61.532  28.992  1.00  0.00     0.000 C 
BRANCH   3   4
ATOM      4  C   UNL     1     -24.553  62.854  29.742  1.00  0.00     0.000 C 
BRANCH   4   5
ATOM      5  C   UNL     1     -25.299  62.663  31.073  1.00  0.00     0.000 C 
BRANCH   5   6
ATOM      6  C   UNL     1     -25.842  61.242  31.315  1.00  0.00     0.000 C 
BRANCH   6   7
ATOM      7  C   UNL     1     -25.640  60.761  32.765  1.00  0.00     0.000 C 
BRANCH   7   8
ATOM      8  C   UNL     1     -24.986  59.363  32.837  1.00  0.00     0.000 C 
BRANCH   8   9
ATOM      9  C   UNL     1     -24.553  58.807  31.467  1.00  0.00     0.000 C 
BRANCH   9  10
ATOM     10  C   UNL     1     -23.637  57.573  31.527  1.00  0.00     0.000 C 
BRANCH  10  11
ATOM     11  C   UNL     1     -22.583  57.555  30.410  1.00  0.00     0.000 C 
BRANCH  11  12
ATOM     12  C   UNL     1     -23.252  57.536  29.028  1.00  0.00     0.006 C 
BRANCH  12  13
ATOM     13  C   UNL     1     -22.296  57.064  27.925  1.00  0.00     0.053 C 
BRANCH  13  14
ATOM     14  C   UNL     1     -22.830  57.361  26.558  1.00  0.00     0.041 C 
ATOM     15  O   UNL     1     -23.635  56.565  26.003  1.00  0.00    -0.550 OA
ATOM     16  O   UNL     1     -22.471  58.540  25.913  1.00  0.00    -0.550 OA
ENDBRANCH  13  14
ENDBRANCH  12  13
ENDBRANCH  11  12
ENDBRANCH  10  11
ENDBRANCH   9  10
ENDBRANCH   8   9
ENDBRANCH   7   8
ENDBRANCH   6   7
ENDBRANCH   5   6
ENDBRANCH   4   5
ENDBRANCH   3   4
ENDBRANCH   2   3
ENDBRANCH   1   2
BRANCH   1  17
ATOM     17  C   UNL     1     -20.687  61.628  28.824  1.00  0.00     0.000 C 
BRANCH  17  18
ATOM     18  C   UNL     1     -20.639  61.949  30.329  1.00  0.00     0.000 C 
BRANCH  18  19
ATOM     19  C   UNL     1     -21.484  61.025  31.234  1.00  0.00     0.000 C 
BRANCH  19  20
ATOM     20  C   UNL     1     -22.073  61.684  32.495  1.00  0.00     0.000 C 
BRANCH  20  21
ATOM     21  C   UNL     1     -20.996  62.268  33.428  1.00  0.00     0.000 C 
BRANCH  21  22
ATOM     22  C   UNL     1     -21.375  62.137  34.912  1.00  0.00    -0.000 C 
BRANCH  22  23
ATOM     23  C   UNL     1     -22.819  61.661  35.120  1.00  0.00    -0.000 C 
BRANCH  23  24
ATOM     24  C   UNL     1     -22.860  60.444  36.056  1.00  0.00    -0.000 C 
BRANCH  24  25
ATOM     25  C   UNL     1     -21.561  59.625  36.022  1.00  0.00    -0.000 C 
BRANCH  25  26
ATOM     26  C   UNL     1     -21.716  58.308  35.241  1.00  0.00    -0.000 C 
BRANCH  26  27
ATOM     27  C   UNL     1     -21.075  58.382  33.839  1.00  0.00    -0.000 C 
BRANCH  27  28
ATOM     28  C   UNL     1     -19.646  58.957  33.836  1.00  0.00    -0.000 C 
BRANCH  28  29
ATOM     29  C   UNL     1     -18.839  58.636  32.563  1.00  0.00    -0.003 C 
ATOM     30  C   UNL     1     -18.087  59.849  32.014  1.00  0.00     0.004 C 
ENDBRANCH  28  29
ENDBRANCH  27  28
ENDBRANCH  26  27
ENDBRANCH  25  26
ENDBRANCH  24  25
ENDBRANCH  23  24
ENDBRANCH  22  23
ENDBRANCH  21  22
ENDBRANCH  20  21
ENDBRANCH  19  20
ENDBRANCH  18  19
ENDBRANCH  17  18
ENDBRANCH   1  17
TORSDOF 26
ENDMDL
MODEL 6
REMARK VINA RESULT:    -4.535      1.140      5.800
REMARK INTER + INTRA:         -16.902
REMARK INTER:                 -11.164
REMARK INTRA:                  -5.738
REMARK UNBOUND:                -5.474
REMARK SMILES CCCCCCCCCCCCCCCCCCCCCCCCCCCC(=O)[O-]
REMARK SMILES IDX 15 1 16 2 17 3 18 4 19 5 20 6 21 7 22 8 23 9 24 10 25 11
REMARK SMILES IDX 26 12 27 13 28 14 29 15 30 16 14 17 13 18 12 19 11 20 10 21
REMARK SMILES IDX 9 22 8 23 7 24 6 25 5 26 4 27 3 28 2 29 1 30
REMARK H PARENT
REMARK Flexibility Score: inf
ROOT
ATOM      1  C   UNL     1     -21.068  61.041  29.838  1.00  0.00     0.000 C 
ENDROOT
BRANCH   1   2
ATOM      2  C   UNL     1     -20.614  61.642  28.497  1.00  0.00     0.000 C 
BRANCH   2   3
ATOM      3  C   UNL     1     -21.725  61.700  27.426  1.00  0.00     0.000 C 
BRANCH   3   4
ATOM      4  C   UNL     1     -22.931  60.815  27.790  1.00  0.00     0.000 C 
BRANCH   4   5
ATOM      5  C   UNL     1     -22.761  59.353  27.344  1.00  0.00     0.000 C 
BRANCH   5   6
ATOM      6  C   UNL     1     -23.653  58.340  28.086  1.00  0.00     0.000 C 
BRANCH   6   7
ATOM      7  C   UNL     1     -23.001  57.791  29.369  1.00  0.00     0.000 C 
BRANCH   7   8
ATOM      8  C   UNL     1     -23.621  58.392  30.650  1.00  0.00     0.000 C 
BRANCH   8   9
ATOM      9  C   UNL     1     -23.003  57.849  31.954  1.00  0.00     0.000 C 
BRANCH   9  10
ATOM     10  C   UNL     1     -22.036  58.812  32.664  1.00  0.00     0.000 C 
BRANCH  10  11
ATOM     11  C   UNL     1     -21.228  58.133  33.779  1.00  0.00     0.000 C 
BRANCH  11  12
ATOM     12  C   UNL     1     -19.799  57.826  33.307  1.00  0.00     0.006 C 
BRANCH  12  13
ATOM     13  C   UNL     1     -19.463  58.517  31.980  1.00  0.00     0.053 C 
BRANCH  13  14
ATOM     14  C   UNL     1     -18.918  57.554  30.971  1.00  0.00     0.041 C 
ATOM     15  O   UNL     1     -17.679  57.508  30.740  1.00  0.00    -0.550 OA
ATOM     16  O   UNL     1     -19.774  56.676  30.315  1.00  0.00    -0.550 OA
ENDBRANCH  13  14
ENDBRANCH  12  13
ENDBRANCH  11  12
ENDBRANCH  10  11
ENDBRANCH   9  10
ENDBRANCH   8   9
ENDBRANCH   7   8
ENDBRANCH   6   7
ENDBRANCH   5   6
ENDBRANCH   4   5
ENDBRANCH   3   4
ENDBRANCH   2   3
ENDBRANCH   1   2
BRANCH   1  17
ATOM     17  C   UNL     1     -21.365  62.111  30.900  1.00  0.00     0.000 C 
BRANCH  17  18
ATOM     18  C   UNL     1     -22.770  61.979  31.515  1.00  0.00     0.000 C 
BRANCH  18  19
ATOM     19  C   UNL     1     -23.920  62.597  30.689  1.00  0.00     0.000 C 
BRANCH  19  20
ATOM     20  C   UNL     1     -25.202  61.749  30.594  1.00  0.00     0.000 C 
BRANCH  20  21
ATOM     21  C   UNL     1     -26.021  61.747  31.899  1.00  0.00     0.000 C 
BRANCH  21  22
ATOM     22  C   UNL     1     -26.542  60.348  32.260  1.00  0.00    -0.000 C 
BRANCH  22  23
ATOM     23  C   UNL     1     -25.792  59.718  33.443  1.00  0.00    -0.000 C 
BRANCH  23  24
ATOM     24  C   UNL     1     -25.270  60.805  34.394  1.00  0.00    -0.000 C 
BRANCH  24  25
ATOM     25  C   UNL     1     -23.893  60.466  34.986  1.00  0.00    -0.000 C 
BRANCH  25  26
ATOM     26  C   UNL     1     -23.151  61.713  35.500  1.00  0.00    -0.000 C 
BRANCH  26  27
ATOM     27  C   UNL     1     -21.629  61.484  35.604  1.00  0.00    -0.000 C 
BRANCH  27  28
ATOM     28  C   UNL     1     -20.804  62.318  34.605  1.00  0.00    -0.000 C 
BRANCH  28  29
ATOM     29  C   UNL     1     -19.492  61.646  34.154  1.00  0.00    -0.003 C 
ATOM     30  C   UNL     1     -18.838  60.816  35.260  1.00  0.00     0.004 C 
ENDBRANCH  28  29
ENDBRANCH  27  28
ENDBRANCH  26  27
ENDBRANCH  25  26
ENDBRANCH  24  25
ENDBRANCH  23  24
ENDBRANCH  22  23
ENDBRANCH  21  22
ENDBRANCH  20  21
ENDBRANCH  19  20
ENDBRANCH  18  19
ENDBRANCH  17  18
ENDBRANCH   1  17
TORSDOF 26
ENDMDL
MODEL 7
REMARK VINA RESULT:    -4.530      1.204      3.918
REMARK INTER + INTRA:         -16.889
REMARK INTER:                 -11.250
REMARK INTRA:                  -5.639
REMARK UNBOUND:                -5.474
REMARK SMILES CCCCCCCCCCCCCCCCCCCCCCCCCCCC(=O)[O-]
REMARK SMILES IDX 15 1 16 2 17 3 18 4 19 5 20 6 21 7 22 8 23 9 24 10 25 11
REMARK SMILES IDX 26 12 27 13 28 14 29 15 30 16 14 17 13 18 12 19 11 20 10 21
REMARK SMILES IDX 9 22 8 23 7 24 6 25 5 26 4 27 3 28 2 29 1 30
REMARK H PARENT
REMARK Flexibility Score: inf
ROOT
ATOM      1  C   UNL     1     -20.280  60.646  29.252  1.00  0.00     0.000 C 
ENDROOT
BRANCH   1   2
ATOM      2  C   UNL     1     -19.976  61.263  30.628  1.00  0.00     0.000 C 
BRANCH   2   3
ATOM      3  C   UNL     1     -20.959  62.375  31.050  1.00  0.00     0.000 C 
BRANCH   3   4
ATOM      4  C   UNL     1     -21.309  62.304  32.547  1.00  0.00     0.000 C 
BRANCH   4   5
ATOM      5  C   UNL     1     -22.424  61.291  32.858  1.00  0.00     0.000 C 
BRANCH   5   6
ATOM      6  C   UNL     1     -22.728  61.098  34.356  1.00  0.00     0.000 C 
BRANCH   6   7
ATOM      7  C   UNL     1     -21.922  62.052  35.259  1.00  0.00     0.000 C 
BRANCH   7   8
ATOM      8  C   UNL     1     -20.931  61.301  36.174  1.00  0.00     0.000 C 
BRANCH   8   9
ATOM      9  C   UNL     1     -19.659  60.817  35.450  1.00  0.00     0.000 C 
BRANCH   9  10
ATOM     10  C   UNL     1     -19.405  59.302  35.527  1.00  0.00     0.000 C 
BRANCH  10  11
ATOM     11  C   UNL     1     -20.209  58.507  34.489  1.00  0.00     0.000 C 
BRANCH  11  12
ATOM     12  C   UNL     1     -19.660  58.743  33.074  1.00  0.00     0.006 C 
BRANCH  12  13
ATOM     13  C   UNL     1     -18.251  58.163  32.892  1.00  0.00     0.053 C 
BRANCH  13  14
ATOM     14  C   UNL     1     -17.649  58.561  31.581  1.00  0.00     0.041 C 
ATOM     15  O   UNL     1     -17.820  57.842  30.558  1.00  0.00    -0.550 OA
ATOM     16  O   UNL     1     -16.931  59.747  31.476  1.00  0.00    -0.550 OA
ENDBRANCH  13  14
ENDBRANCH  12  13
ENDBRANCH  11  12
ENDBRANCH  10  11
ENDBRANCH   9  10
ENDBRANCH   8   9
ENDBRANCH   7   8
ENDBRANCH   6   7
ENDBRANCH   5   6
ENDBRANCH   4   5
ENDBRANCH   3   4
ENDBRANCH   2   3
ENDBRANCH   1   2
BRANCH   1  17
ATOM     17  C   UNL     1     -20.984  61.627  28.303  1.00  0.00     0.000 C 
BRANCH  17  18
ATOM     18  C   UNL     1     -22.210  61.016  27.602  1.00  0.00     0.000 C 
BRANCH  18  19
ATOM     19  C   UNL     1     -23.567  61.672  27.941  1.00  0.00     0.000 C 
BRANCH  19  20
ATOM     20  C   UNL     1     -23.985  61.610  29.422  1.00  0.00     0.000 C 
BRANCH  20  21
ATOM     21  C   UNL     1     -24.460  62.968  29.971  1.00  0.00     0.000 C 
BRANCH  21  22
ATOM     22  C   UNL     1     -25.483  62.815  31.108  1.00  0.00    -0.000 C 
BRANCH  22  23
ATOM     23  C   UNL     1     -25.924  61.360  31.321  1.00  0.00    -0.000 C 
BRANCH  23  24
ATOM     24  C   UNL     1     -26.134  61.070  32.815  1.00  0.00    -0.000 C 
BRANCH  24  25
ATOM     25  C   UNL     1     -25.922  59.590  33.170  1.00  0.00    -0.000 C 
BRANCH  25  26
ATOM     26  C   UNL     1     -25.266  58.799  32.024  1.00  0.00    -0.000 C 
BRANCH  26  27
ATOM     27  C   UNL     1     -24.123  57.891  32.522  1.00  0.00    -0.000 C 
BRANCH  27  28
ATOM     28  C   UNL     1     -22.891  57.874  31.596  1.00  0.00    -0.000 C 
BRANCH  28  29
ATOM     29  C   UNL     1     -23.173  58.365  30.162  1.00  0.00    -0.003 C 
ATOM     30  C   UNL     1     -22.987  57.268  29.112  1.00  0.00     0.004 C 
ENDBRANCH  28  29
ENDBRANCH  27  28
ENDBRANCH  26  27
ENDBRANCH  25  26
ENDBRANCH  24  25
ENDBRANCH  23  24
ENDBRANCH  22  23
ENDBRANCH  21  22
ENDBRANCH  20  21
ENDBRANCH  19  20
ENDBRANCH  18  19
ENDBRANCH  17  18
ENDBRANCH   1  17
TORSDOF 26
ENDMDL
MODEL 8
REMARK VINA RESULT:    -4.526      2.475      5.839
REMARK INTER + INTRA:         -16.878
REMARK INTER:                 -10.976
REMARK INTRA:                  -5.903
REMARK UNBOUND:                -5.474
REMARK SMILES CCCCCCCCCCCCCCCCCCCCCCCCCCCC(=O)[O-]
REMARK SMILES IDX 15 1 16 2 17 3 18 4 19 5 20 6 21 7 22 8 23 9 24 10 25 11
REMARK SMILES IDX 26 12 27 13 28 14 29 15 30 16 14 17 13 18 12 19 11 20 10 21
REMARK SMILES IDX 9 22 8 23 7 24 6 25 5 26 4 27 3 28 2 29 1 30
REMARK H PARENT
REMARK Flexibility Score: inf
ROOT
ATOM      1  C   UNL     1     -25.249  58.977  30.413  1.00  0.00     0.000 C 
ENDROOT
BRANCH   1   2
ATOM      2  C   UNL     1     -25.678  60.335  29.834  1.00  0.00     0.000 C 
BRANCH   2   3
ATOM      3  C   UNL     1     -24.905  60.749  28.563  1.00  0.00     0.000 C 
BRANCH   3   4
ATOM      4  C   UNL     1     -24.040  62.002  28.790  1.00  0.00     0.000 C 
BRANCH   4   5
ATOM      5  C   UNL     1     -24.339  62.706  30.125  1.00  0.00     0.000 C 
BRANCH   5   6
ATOM      6  C   UNL     1     -23.172  62.713  31.131  1.00  0.00     0.000 C 
BRANCH   6   7
ATOM      7  C   UNL     1     -22.319  61.431  31.070  1.00  0.00     0.000 C 
BRANCH   7   8
ATOM      8  C   UNL     1     -20.816  61.732  30.884  1.00  0.00     0.000 C 
BRANCH   8   9
ATOM      9  C   UNL     1     -20.139  60.872  29.798  1.00  0.00     0.000 C 
BRANCH   9  10
ATOM     10  C   UNL     1     -21.106  60.127  28.863  1.00  0.00     0.000 C 
BRANCH  10  11
ATOM     11  C   UNL     1     -21.334  58.666  29.277  1.00  0.00     0.000 C 
BRANCH  11  12
ATOM     12  C   UNL     1     -22.283  57.962  28.297  1.00  0.00     0.006 C 
BRANCH  12  13
ATOM     13  C   UNL     1     -22.506  58.776  27.016  1.00  0.00     0.053 C 
BRANCH  13  14
ATOM     14  C   UNL     1     -22.646  57.896  25.813  1.00  0.00     0.041 C 
ATOM     15  O   UNL     1     -22.148  58.245  24.708  1.00  0.00    -0.550 OA
ATOM     16  O   UNL     1     -23.291  56.668  25.920  1.00  0.00    -0.550 OA
ENDBRANCH  13  14
ENDBRANCH  12  13
ENDBRANCH  11  12
ENDBRANCH  10  11
ENDBRANCH   9  10
ENDBRANCH   8   9
ENDBRANCH   7   8
ENDBRANCH   6   7
ENDBRANCH   5   6
ENDBRANCH   4   5
ENDBRANCH   3   4
ENDBRANCH   2   3
ENDBRANCH   1   2
BRANCH   1  17
ATOM     17  C   UNL     1     -25.130  58.994  31.945  1.00  0.00     0.000 C 
BRANCH  17  18
ATOM     18  C   UNL     1     -26.043  60.040  32.610  1.00  0.00     0.000 C 
BRANCH  18  19
ATOM     19  C   UNL     1     -25.622  60.487  34.028  1.00  0.00     0.000 C 
BRANCH  19  20
ATOM     20  C   UNL     1     -24.119  60.757  34.221  1.00  0.00     0.000 C 
BRANCH  20  21
ATOM     21  C   UNL     1     -23.656  60.574  35.679  1.00  0.00     0.000 C 
BRANCH  21  22
ATOM     22  C   UNL     1     -22.355  61.334  35.980  1.00  0.00    -0.000 C 
BRANCH  22  23
ATOM     23  C   UNL     1     -21.768  62.027  34.742  1.00  0.00    -0.000 C 
BRANCH  23  24
ATOM     24  C   UNL     1     -20.285  62.361  34.959  1.00  0.00    -0.000 C 
BRANCH  24  25
ATOM     25  C   UNL     1     -19.344  61.408  34.206  1.00  0.00    -0.000 C 
BRANCH  25  26
ATOM     26  C   UNL     1     -18.905  60.211  35.069  1.00  0.00    -0.000 C 
BRANCH  26  27
ATOM     27  C   UNL     1     -19.696  58.929  34.737  1.00  0.00    -0.000 C 
BRANCH  27  28
ATOM     28  C   UNL     1     -20.054  58.787  33.245  1.00  0.00    -0.000 C 
BRANCH  28  29
ATOM     29  C   UNL     1     -21.543  58.488  32.978  1.00  0.00    -0.003 C 
ATOM     30  C   UNL     1     -22.152  57.537  34.009  1.00  0.00     0.004 C 
ENDBRANCH  28  29
ENDBRANCH  27  28
ENDBRANCH  26  27
ENDBRANCH  25  26
ENDBRANCH  24  25
ENDBRANCH  23  24
ENDBRANCH  22  23
ENDBRANCH  21  22
ENDBRANCH  20  21
ENDBRANCH  19  20
ENDBRANCH  18  19
ENDBRANCH  17  18
ENDBRANCH   1  17
TORSDOF 26
ENDMDL
MODEL 9
REMARK VINA RESULT:    -4.490      1.600      5.013
REMARK INTER + INTRA:         -16.788
REMARK INTER:                 -10.832
REMARK INTRA:                  -5.956
REMARK UNBOUND:                -5.474
REMARK SMILES CCCCCCCCCCCCCCCCCCCCCCCCCCCC(=O)[O-]
REMARK SMILES IDX 15 1 16 2 17 3 18 4 19 5 20 6 21 7 22 8 23 9 24 10 25 11
REMARK SMILES IDX 26 12 27 13 28 14 29 15 30 16 14 17 13 18 12 19 11 20 10 21
REMARK SMILES IDX 9 22 8 23 7 24 6 25 5 26 4 27 3 28 2 29 1 30
REMARK H PARENT
REMARK Flexibility Score: inf
ROOT
ATOM      1  C   UNL     1     -22.771  60.549  28.070  1.00  0.00     0.000 C 
ENDROOT
BRANCH   1   2
ATOM      2  C   UNL     1     -21.662  61.615  28.061  1.00  0.00     0.000 C 
BRANCH   2   3
ATOM      3  C   UNL     1     -20.348  61.160  28.732  1.00  0.00     0.000 C 
BRANCH   3   4
ATOM      4  C   UNL     1     -20.024  61.983  29.992  1.00  0.00     0.000 C 
BRANCH   4   5
ATOM      5  C   UNL     1     -20.801  61.514  31.234  1.00  0.00     0.000 C 
BRANCH   5   6
ATOM      6  C   UNL     1     -20.977  62.581  32.331  1.00  0.00     0.000 C 
BRANCH   6   7
ATOM      7  C   UNL     1     -20.573  62.076  33.730  1.00  0.00     0.000 C 
BRANCH   7   8
ATOM      8  C   UNL     1     -19.275  61.240  33.704  1.00  0.00     0.000 C 
BRANCH   8   9
ATOM      9  C   UNL     1     -19.449  59.804  34.236  1.00  0.00     0.000 C 
BRANCH   9  10
ATOM     10  C   UNL     1     -19.303  58.697  33.178  1.00  0.00     0.000 C 
BRANCH  10  11
ATOM     11  C   UNL     1     -18.309  59.061  32.065  1.00  0.00     0.000 C 
BRANCH  11  12
ATOM     12  C   UNL     1     -18.627  58.290  30.775  1.00  0.00     0.006 C 
BRANCH  12  13
ATOM     13  C   UNL     1     -20.117  57.944  30.657  1.00  0.00     0.053 C 
BRANCH  13  14
ATOM     14  C   UNL     1     -20.392  57.061  29.480  1.00  0.00     0.041 C 
ATOM     15  O   UNL     1     -21.077  57.488  28.511  1.00  0.00    -0.550 OA
ATOM     16  O   UNL     1     -19.858  55.778  29.433  1.00  0.00    -0.550 OA
ENDBRANCH  13  14
ENDBRANCH  12  13
ENDBRANCH  11  12
ENDBRANCH  10  11
ENDBRANCH   9  10
ENDBRANCH   8   9
ENDBRANCH   7   8
ENDBRANCH   6   7
ENDBRANCH   5   6
ENDBRANCH   4   5
ENDBRANCH   3   4
ENDBRANCH   2   3
ENDBRANCH   1   2
BRANCH   1  17
ATOM     17  C   UNL     1     -24.136  61.115  28.490  1.00  0.00     0.000 C 
BRANCH  17  18
ATOM     18  C   UNL     1     -24.025  62.371  29.373  1.00  0.00     0.000 C 
BRANCH  18  19
ATOM     19  C   UNL     1     -24.289  62.153  30.879  1.00  0.00     0.000 C 
BRANCH  19  20
ATOM     20  C   UNL     1     -25.762  62.244  31.317  1.00  0.00     0.000 C 
BRANCH  20  21
ATOM     21  C   UNL     1     -26.427  60.865  31.489  1.00  0.00     0.000 C 
BRANCH  21  22
ATOM     22  C   UNL     1     -27.377  60.820  32.695  1.00  0.00    -0.000 C 
BRANCH  22  23
ATOM     23  C   UNL     1     -26.737  60.180  33.935  1.00  0.00    -0.000 C 
BRANCH  23  24
ATOM     24  C   UNL     1     -26.176  61.258  34.874  1.00  0.00    -0.000 C 
BRANCH  24  25
ATOM     25  C   UNL     1     -24.799  60.891  35.446  1.00  0.00    -0.000 C 
BRANCH  25  26
ATOM     26  C   UNL     1     -23.697  60.886  34.371  1.00  0.00    -0.000 C 
BRANCH  26  27
ATOM     27  C   UNL     1     -23.211  59.460  34.039  1.00  0.00    -0.000 C 
BRANCH  27  28
ATOM     28  C   UNL     1     -23.077  59.183  32.530  1.00  0.00    -0.000 C 
BRANCH  28  29
ATOM     29  C   UNL     1     -24.068  58.132  31.990  1.00  0.00    -0.003 C 
ATOM     30  C   UNL     1     -23.957  57.931  30.478  1.00  0.00     0.004 C 
ENDBRANCH  28  29
ENDBRANCH  27  28
ENDBRANCH  26  27
ENDBRANCH  25  26
ENDBRANCH  24  25
ENDBRANCH  23  24
ENDBRANCH  22  23
ENDBRANCH  21  22
ENDBRANCH  20  21
ENDBRANCH  19  20
ENDBRANCH  18  19
ENDBRANCH  17  18
ENDBRANCH   1  17
TORSDOF 26
ENDMDL
