MODEL 1
REMARK VINA RESULT:    -2.842      0.000      0.000
REMARK INTER + INTRA:          -8.552
REMARK INTER:                  -5.501
REMARK INTRA:                  -3.051
REMARK UNBOUND:                -3.051
REMARK SMILES CCCCCCCCCCCCCCCCCC(=O)[O-]
REMARK SMILES IDX 10 1 11 2 12 3 13 4 14 5 15 6 16 7 17 8 18 9 19 10 20 11
REMARK SMILES IDX 9 12 8 13 7 14 6 15 5 16 4 17 3 18 2 19 1 20
REMARK H PARENT
REMARK Flexibility Score: inf
ROOT
ATOM      1  C   UNL     1       2.915  66.502   5.752  1.00  0.00     0.000 C 
ENDROOT
BRANCH   1   2
ATOM      2  C   UNL     1       2.527  67.699   4.870  1.00  0.00     0.000 C 
BRANCH   2   3
ATOM      3  C   UNL     1       1.257  68.380   5.398  1.00  0.00     0.000 C 
BRANCH   3   4
ATOM      4  C   UNL     1       0.092  67.396   5.608  1.00  0.00     0.000 C 
BRANCH   4   5
ATOM      5  C   UNL     1      -0.415  67.283   7.060  1.00  0.00     0.000 C 
BRANCH   5   6
ATOM      6  C   UNL     1      -0.633  65.846   7.566  1.00  0.00     0.000 C 
BRANCH   6   7
ATOM      7  C   UNL     1       0.382  65.431   8.640  1.00  0.00     0.006 C 
BRANCH   7   8
ATOM      8  C   UNL     1       1.231  64.248   8.165  1.00  0.00     0.053 C 
BRANCH   8   9
ATOM      9  C   UNL     1       2.532  64.208   8.901  1.00  0.00     0.041 C 
ATOM     10  O   UNL     1       3.552  63.706   8.359  1.00  0.00    -0.550 OA
ATOM     11  O   UNL     1       2.609  64.682  10.205  1.00  0.00    -0.550 OA
ENDBRANCH   8   9
ENDBRANCH   7   8
ENDBRANCH   6   7
ENDBRANCH   5   6
ENDBRANCH   4   5
ENDBRANCH   3   4
ENDBRANCH   2   3
ENDBRANCH   1   2
BRANCH   1  12
ATOM     12  C   UNL     1       4.437  66.327   5.878  1.00  0.00     0.000 C 
BRANCH  12  13
ATOM     13  C   UNL     1       5.164  66.505   4.535  1.00  0.00    -0.000 C 
BRANCH  13  14
ATOM     14  C   UNL     1       6.283  67.562   4.593  1.00  0.00    -0.000 C 
BRANCH  14  15
ATOM     15  C   UNL     1       6.180  68.559   5.762  1.00  0.00    -0.000 C 
BRANCH  15  16
ATOM     16  C   UNL     1       5.606  69.919   5.342  1.00  0.00    -0.000 C 
BRANCH  16  17
ATOM     17  C   UNL     1       4.605  70.440   6.384  1.00  0.00    -0.000 C 
BRANCH  17  18
ATOM     18  C   UNL     1       4.670  69.645   7.705  1.00  0.00    -0.000 C 
BRANCH  18  19
ATOM     19  C   UNL     1       3.302  69.462   8.383  1.00  0.00    -0.003 C 
ATOM     20  C   UNL     1       3.113  68.071   8.983  1.00  0.00     0.004 C 
ENDBRANCH  18  19
ENDBRANCH  17  18
ENDBRANCH  16  17
ENDBRANCH  15  16
ENDBRANCH  14  15
ENDBRANCH  13  14
ENDBRANCH  12  13
ENDBRANCH   1  12
TORSDOF 16
ENDMDL
MODEL 2
REMARK VINA RESULT:    -2.806     13.205     15.727
REMARK INTER + INTRA:          -8.482
REMARK INTER:                  -6.585
REMARK INTRA:                  -1.897
REMARK UNBOUND:                -3.051
REMARK SMILES CCCCCCCCCCCCCCCCCC(=O)[O-]
REMARK SMILES IDX 10 1 11 2 12 3 13 4 14 5 15 6 16 7 17 8 18 9 19 10 20 11
REMARK SMILES IDX 9 12 8 13 7 14 6 15 5 16 4 17 3 18 2 19 1 20
REMARK H PARENT
REMARK Flexibility Score: inf
ROOT
ATOM      1  C   UNL     1       7.294  68.348  23.873  1.00  0.00     0.000 C 
ENDROOT
BRANCH   1   2
ATOM      2  C   UNL     1       6.560  69.647  23.504  1.00  0.00     0.000 C 
BRANCH   2   3
ATOM      3  C   UNL     1       5.078  69.571  23.900  1.00  0.00     0.000 C 
BRANCH   3   4
ATOM      4  C   UNL     1       4.179  69.051  22.764  1.00  0.00     0.000 C 
BRANCH   4   5
ATOM      5  C   UNL     1       4.666  69.386  21.339  1.00  0.00     0.000 C 
BRANCH   5   6
ATOM      6  C   UNL     1       3.554  69.535  20.287  1.00  0.00     0.000 C 
BRANCH   6   7
ATOM      7  C   UNL     1       3.654  70.844  19.491  1.00  0.00     0.006 C 
BRANCH   7   8
ATOM      8  C   UNL     1       2.265  71.428  19.219  1.00  0.00     0.053 C 
BRANCH   8   9
ATOM      9  C   UNL     1       1.584  70.672  18.123  1.00  0.00     0.041 C 
ATOM     10  O   UNL     1       0.475  70.114  18.333  1.00  0.00    -0.550 OA
ATOM     11  O   UNL     1       2.197  70.542  16.883  1.00  0.00    -0.550 OA
ENDBRANCH   8   9
ENDBRANCH   7   8
ENDBRANCH   6   7
ENDBRANCH   5   6
ENDBRANCH   4   5
ENDBRANCH   3   4
ENDBRANCH   2   3
ENDBRANCH   1   2
BRANCH   1  12
ATOM     12  C   UNL     1       8.822  68.481  23.769  1.00  0.00     0.000 C 
BRANCH  12  13
ATOM     13  C   UNL     1       9.526  67.119  23.656  1.00  0.00    -0.000 C 
BRANCH  13  14
ATOM     14  C   UNL     1       9.668  66.636  22.200  1.00  0.00    -0.000 C 
BRANCH  14  15
ATOM     15  C   UNL     1       8.657  65.558  21.767  1.00  0.00    -0.000 C 
BRANCH  15  16
ATOM     16  C   UNL     1       7.951  65.894  20.446  1.00  0.00    -0.000 C 
BRANCH  16  17
ATOM     17  C   UNL     1       6.492  66.306  20.691  1.00  0.00    -0.000 C 
BRANCH  17  18
ATOM     18  C   UNL     1       5.962  65.800  22.049  1.00  0.00    -0.000 C 
BRANCH  18  19
ATOM     19  C   UNL     1       4.485  65.370  22.013  1.00  0.00    -0.003 C 
ATOM     20  C   UNL     1       4.081  64.520  23.215  1.00  0.00     0.004 C 
ENDBRANCH  18  19
ENDBRANCH  17  18
ENDBRANCH  16  17
ENDBRANCH  15  16
ENDBRANCH  14  15
ENDBRANCH  13  14
ENDBRANCH  12  13
ENDBRANCH   1  12
TORSDOF 16
ENDMDL
MODEL 3
REMARK VINA RESULT:    -2.787      9.415     11.518
REMARK INTER + INTRA:          -8.445
REMARK INTER:                  -6.375
REMARK INTRA:                  -2.070
REMARK UNBOUND:                -3.051
REMARK SMILES CCCCCCCCCCCCCCCCCC(=O)[O-]
REMARK SMILES IDX 10 1 11 2 12 3 13 4 14 5 15 6 16 7 17 8 18 9 19 10 20 11
REMARK SMILES IDX 9 12 8 13 7 14 6 15 5 16 4 17 3 18 2 19 1 20
REMARK H PARENT
REMARK Flexibility Score: inf
ROOT
ATOM      1  C   UNL     1       0.748  64.654  16.100  1.00  0.00     0.000 C 
ENDROOT
BRANCH   1   2
ATOM      2  C   UNL     1       1.252  65.982  16.688  1.00  0.00     0.000 C 
BRANCH   2   3
ATOM      3  C   UNL     1       1.742  66.922  15.577  1.00  0.00     0.000 C 
BRANCH   3   4
ATOM      4  C   UNL     1       1.507  68.409  15.904  1.00  0.00     0.000 C 
BRANCH   4   5
ATOM      5  C   UNL     1       0.779  68.679  17.236  1.00  0.00     0.000 C 
BRANCH   5   6
ATOM      6  C   UNL     1       1.092  70.038  17.887  1.00  0.00     0.000 C 
BRANCH   6   7
ATOM      7  C   UNL     1       2.531  70.507  17.628  1.00  0.00     0.006 C 
BRANCH   7   8
ATOM      8  C   UNL     1       3.042  71.373  18.784  1.00  0.00     0.053 C 
BRANCH   8   9
ATOM      9  C   UNL     1       2.443  72.741  18.718  1.00  0.00     0.041 C 
ATOM     10  O   UNL     1       2.969  73.630  17.997  1.00  0.00    -0.550 OA
ATOM     11  O   UNL     1       1.330  73.052  19.491  1.00  0.00    -0.550 OA
ENDBRANCH   8   9
ENDBRANCH   7   8
ENDBRANCH   6   7
ENDBRANCH   5   6
ENDBRANCH   4   5
ENDBRANCH   3   4
ENDBRANCH   2   3
ENDBRANCH   1   2
BRANCH   1  12
ATOM     12  C   UNL     1       1.069  64.509  14.604  1.00  0.00     0.000 C 
BRANCH  12  13
ATOM     13  C   UNL     1       2.268  63.580  14.346  1.00  0.00    -0.000 C 
BRANCH  13  14
ATOM     14  C   UNL     1       2.514  62.586  15.496  1.00  0.00    -0.000 C 
BRANCH  14  15
ATOM     15  C   UNL     1       3.924  61.969  15.536  1.00  0.00    -0.000 C 
BRANCH  15  16
ATOM     16  C   UNL     1       4.709  62.348  16.800  1.00  0.00    -0.000 C 
BRANCH  16  17
ATOM     17  C   UNL     1       3.896  63.301  17.689  1.00  0.00    -0.000 C 
BRANCH  17  18
ATOM     18  C   UNL     1       4.508  64.717  17.741  1.00  0.00    -0.000 C 
BRANCH  18  19
ATOM     19  C   UNL     1       5.665  64.925  16.749  1.00  0.00    -0.003 C 
ATOM     20  C   UNL     1       5.224  65.595  15.449  1.00  0.00     0.004 C 
ENDBRANCH  18  19
ENDBRANCH  17  18
ENDBRANCH  16  17
ENDBRANCH  15  16
ENDBRANCH  14  15
ENDBRANCH  13  14
ENDBRANCH  12  13
ENDBRANCH   1  12
TORSDOF 16
ENDMDL
MODEL 4
REMARK VINA RESULT:    -2.732      8.001     10.279
REMARK INTER + INTRA:          -8.339
REMARK INTER:                  -4.932
REMARK INTRA:                  -3.408
REMARK UNBOUND:                -3.051
REMARK SMILES CCCCCCCCCCCCCCCCCC(=O)[O-]
REMARK SMILES IDX 10 1 11 2 12 3 13 4 14 5 15 6 16 7 17 8 18 9 19 10 20 11
REMARK SMILES IDX 9 12 8 13 7 14 6 15 5 16 4 17 3 18 2 19 1 20
REMARK H PARENT
REMARK Flexibility Score: inf
ROOT
ATOM      1  C   UNL     1       1.620  66.621  17.047  1.00  0.00     0.000 C 
ENDROOT
BRANCH   1   2
ATOM      2  C   UNL     1       0.583  65.577  16.601  1.00  0.00     0.000 C 
BRANCH   2   3
ATOM      3  C   UNL     1      -0.070  65.986  15.273  1.00  0.00     0.000 C 
BRANCH   3   4
ATOM      4  C   UNL     1      -0.084  67.510  15.056  1.00  0.00     0.000 C 
BRANCH   4   5
ATOM      5  C   UNL     1       0.583  67.990  13.750  1.00  0.00     0.000 C 
BRANCH   5   6
ATOM      6  C   UNL     1       1.946  68.681  13.929  1.00  0.00     0.000 C 
BRANCH   6   7
ATOM      7  C   UNL     1       1.851  69.993  14.720  1.00  0.00     0.006 C 
BRANCH   7   8
ATOM      8  C   UNL     1       2.913  70.047  15.822  1.00  0.00     0.053 C 
BRANCH   8   9
ATOM      9  C   UNL     1       2.297  70.451  17.124  1.00  0.00     0.041 C 
ATOM     10  O   UNL     1       1.151  70.034  17.440  1.00  0.00    -0.550 OA
ATOM     11  O   UNL     1       2.968  71.328  17.968  1.00  0.00    -0.550 OA
ENDBRANCH   8   9
ENDBRANCH   7   8
ENDBRANCH   6   7
ENDBRANCH   5   6
ENDBRANCH   4   5
ENDBRANCH   3   4
ENDBRANCH   2   3
ENDBRANCH   1   2
BRANCH   1  12
ATOM     12  C   UNL     1       3.015  66.013  17.267  1.00  0.00     0.000 C 
BRANCH  12  13
ATOM     13  C   UNL     1       4.074  66.612  16.326  1.00  0.00    -0.000 C 
BRANCH  13  14
ATOM     14  C   UNL     1       4.601  65.597  15.295  1.00  0.00    -0.000 C 
BRANCH  14  15
ATOM     15  C   UNL     1       3.851  65.583  13.949  1.00  0.00    -0.000 C 
BRANCH  15  16
ATOM     16  C   UNL     1       2.912  64.378  13.799  1.00  0.00    -0.000 C 
BRANCH  16  17
ATOM     17  C   UNL     1       3.400  63.190  14.640  1.00  0.00    -0.000 C 
BRANCH  17  18
ATOM     18  C   UNL     1       2.269  62.568  15.486  1.00  0.00    -0.000 C 
BRANCH  18  19
ATOM     19  C   UNL     1       2.634  62.392  16.970  1.00  0.00    -0.003 C 
ATOM     20  C   UNL     1       4.140  62.402  17.220  1.00  0.00     0.004 C 
ENDBRANCH  18  19
ENDBRANCH  17  18
ENDBRANCH  16  17
ENDBRANCH  15  16
ENDBRANCH  14  15
ENDBRANCH  13  14
ENDBRANCH  12  13
ENDBRANCH   1  12
TORSDOF 16
ENDMDL
MODEL 5
REMARK VINA RESULT:    -2.694      8.569     11.257
REMARK INTER + INTRA:          -8.266
REMARK INTER:                  -5.359
REMARK INTRA:                  -2.906
REMARK UNBOUND:                -3.051
REMARK SMILES CCCCCCCCCCCCCCCCCC(=O)[O-]
REMARK SMILES IDX 10 1 11 2 12 3 13 4 14 5 15 6 16 7 17 8 18 9 19 10 20 11
REMARK SMILES IDX 9 12 8 13 7 14 6 15 5 16 4 17 3 18 2 19 1 20
REMARK H PARENT
REMARK Flexibility Score: inf
ROOT
ATOM      1  C   UNL     1       2.480  62.667  17.734  1.00  0.00     0.000 C 
ENDROOT
BRANCH   1   2
ATOM      2  C   UNL     1       2.713  63.582  18.947  1.00  0.00     0.000 C 
BRANCH   2   3
ATOM      3  C   UNL     1       2.059  64.954  18.731  1.00  0.00     0.000 C 
BRANCH   3   4
ATOM      4  C   UNL     1       3.083  66.069  18.450  1.00  0.00     0.000 C 
BRANCH   4   5
ATOM      5  C   UNL     1       4.534  65.587  18.242  1.00  0.00     0.000 C 
BRANCH   5   6
ATOM      6  C   UNL     1       5.158  65.961  16.886  1.00  0.00     0.000 C 
BRANCH   6   7
ATOM      7  C   UNL     1       6.118  64.888  16.354  1.00  0.00     0.006 C 
BRANCH   7   8
ATOM      8  C   UNL     1       7.477  64.973  17.055  1.00  0.00     0.053 C 
BRANCH   8   9
ATOM      9  C   UNL     1       8.130  63.628  17.098  1.00  0.00     0.041 C 
ATOM     10  O   UNL     1       9.386  63.533  17.101  1.00  0.00    -0.550 OA
ATOM     11  O   UNL     1       7.352  62.477  17.086  1.00  0.00    -0.550 OA
ENDBRANCH   8   9
ENDBRANCH   7   8
ENDBRANCH   6   7
ENDBRANCH   5   6
ENDBRANCH   4   5
ENDBRANCH   3   4
ENDBRANCH   2   3
ENDBRANCH   1   2
BRANCH   1  12
ATOM     12  C   UNL     1       3.791  62.156  17.117  1.00  0.00     0.000 C 
BRANCH  12  13
ATOM     13  C   UNL     1       3.744  62.119  15.580  1.00  0.00    -0.000 C 
BRANCH  13  14
ATOM     14  C   UNL     1       2.550  62.898  14.998  1.00  0.00    -0.000 C 
BRANCH  14  15
ATOM     15  C   UNL     1       2.917  63.998  13.984  1.00  0.00    -0.000 C 
BRANCH  15  16
ATOM     16  C   UNL     1       2.489  65.400  14.440  1.00  0.00    -0.000 C 
BRANCH  16  17
ATOM     17  C   UNL     1       1.220  65.336  15.303  1.00  0.00    -0.000 C 
BRANCH  17  18
ATOM     18  C   UNL     1      -0.064  65.261  14.450  1.00  0.00    -0.000 C 
BRANCH  18  19
ATOM     19  C   UNL     1      -1.265  64.655  15.195  1.00  0.00    -0.003 C 
ATOM     20  C   UNL     1      -0.867  63.922  16.474  1.00  0.00     0.004 C 
ENDBRANCH  18  19
ENDBRANCH  17  18
ENDBRANCH  16  17
ENDBRANCH  15  16
ENDBRANCH  14  15
ENDBRANCH  13  14
ENDBRANCH  12  13
ENDBRANCH   1  12
TORSDOF 16
ENDMDL
MODEL 6
REMARK VINA RESULT:    -2.683      2.830      5.039
REMARK INTER + INTRA:          -8.243
REMARK INTER:                  -6.320
REMARK INTRA:                  -1.923
REMARK UNBOUND:                -3.051
REMARK SMILES CCCCCCCCCCCCCCCCCC(=O)[O-]
REMARK SMILES IDX 10 1 11 2 12 3 13 4 14 5 15 6 16 7 17 8 18 9 19 10 20 11
REMARK SMILES IDX 9 12 8 13 7 14 6 15 5 16 4 17 3 18 2 19 1 20
REMARK H PARENT
REMARK Flexibility Score: inf
ROOT
ATOM      1  C   UNL     1       2.987  68.809   8.657  1.00  0.00     0.000 C 
ENDROOT
BRANCH   1   2
ATOM      2  C   UNL     1       4.198  69.131   7.767  1.00  0.00     0.000 C 
BRANCH   2   3
ATOM      3  C   UNL     1       3.918  68.760   6.304  1.00  0.00     0.000 C 
BRANCH   3   4
ATOM      4  C   UNL     1       4.687  67.508   5.845  1.00  0.00     0.000 C 
BRANCH   4   5
ATOM      5  C   UNL     1       4.016  66.163   6.193  1.00  0.00     0.000 C 
BRANCH   5   6
ATOM      6  C   UNL     1       2.477  66.177   6.172  1.00  0.00     0.000 C 
BRANCH   6   7
ATOM      7  C   UNL     1       1.857  65.402   7.343  1.00  0.00     0.006 C 
BRANCH   7   8
ATOM      8  C   UNL     1       2.889  64.481   7.999  1.00  0.00     0.053 C 
BRANCH   8   9
ATOM      9  C   UNL     1       2.299  63.132   8.257  1.00  0.00     0.041 C 
ATOM     10  O   UNL     1       1.215  62.798   7.708  1.00  0.00    -0.550 OA
ATOM     11  O   UNL     1       2.919  62.259   9.143  1.00  0.00    -0.550 OA
ENDBRANCH   8   9
ENDBRANCH   7   8
ENDBRANCH   6   7
ENDBRANCH   5   6
ENDBRANCH   4   5
ENDBRANCH   3   4
ENDBRANCH   2   3
ENDBRANCH   1   2
BRANCH   1  12
ATOM     12  C   UNL     1       3.382  68.099   9.962  1.00  0.00     0.000 C 
BRANCH  12  13
ATOM     13  C   UNL     1       2.161  67.610  10.760  1.00  0.00    -0.000 C 
BRANCH  13  14
ATOM     14  C   UNL     1       1.818  68.525  11.950  1.00  0.00    -0.000 C 
BRANCH  14  15
ATOM     15  C   UNL     1       2.773  69.714  12.158  1.00  0.00    -0.000 C 
BRANCH  15  16
ATOM     16  C   UNL     1       2.223  70.763  13.134  1.00  0.00    -0.000 C 
BRANCH  16  17
ATOM     17  C   UNL     1       2.034  72.119  12.438  1.00  0.00    -0.000 C 
BRANCH  17  18
ATOM     18  C   UNL     1       2.212  72.020  10.908  1.00  0.00    -0.000 C 
BRANCH  18  19
ATOM     19  C   UNL     1       3.163  73.081  10.328  1.00  0.00    -0.003 C 
ATOM     20  C   UNL     1       3.975  73.805  11.399  1.00  0.00     0.004 C 
ENDBRANCH  18  19
ENDBRANCH  17  18
ENDBRANCH  16  17
ENDBRANCH  15  16
ENDBRANCH  14  15
ENDBRANCH  13  14
ENDBRANCH  12  13
ENDBRANCH   1  12
TORSDOF 16
ENDMDL
MODEL 7
REMARK VINA RESULT:    -2.649      8.352     11.163
REMARK INTER + INTRA:          -8.177
REMARK INTER:                  -5.408
REMARK INTRA:                  -2.769
REMARK UNBOUND:                -3.051
REMARK SMILES CCCCCCCCCCCCCCCCCC(=O)[O-]
REMARK SMILES IDX 10 1 11 2 12 3 13 4 14 5 15 6 16 7 17 8 18 9 19 10 20 11
REMARK SMILES IDX 9 12 8 13 7 14 6 15 5 16 4 17 3 18 2 19 1 20
REMARK H PARENT
REMARK Flexibility Score: inf
ROOT
ATOM      1  C   UNL     1       1.251  68.263  14.163  1.00  0.00     0.000 C 
ENDROOT
BRANCH   1   2
ATOM      2  C   UNL     1       2.110  69.530  14.307  1.00  0.00     0.000 C 
BRANCH   2   3
ATOM      3  C   UNL     1       3.434  69.216  15.017  1.00  0.00     0.000 C 
BRANCH   3   4
ATOM      4  C   UNL     1       3.314  68.063  16.029  1.00  0.00     0.000 C 
BRANCH   4   5
ATOM      5  C   UNL     1       3.149  68.497  17.500  1.00  0.00     0.000 C 
BRANCH   5   6
ATOM      6  C   UNL     1       1.707  68.821  17.927  1.00  0.00     0.000 C 
BRANCH   6   7
ATOM      7  C   UNL     1       1.411  70.327  17.936  1.00  0.00     0.006 C 
BRANCH   7   8
ATOM      8  C   UNL     1       2.633  71.124  18.400  1.00  0.00     0.053 C 
BRANCH   8   9
ATOM      9  C   UNL     1       2.253  72.537  18.707  1.00  0.00     0.041 C 
ATOM     10  O   UNL     1       1.292  72.780  19.484  1.00  0.00    -0.550 OA
ATOM     11  O   UNL     1       2.928  73.587  18.097  1.00  0.00    -0.550 OA
ENDBRANCH   8   9
ENDBRANCH   7   8
ENDBRANCH   6   7
ENDBRANCH   5   6
ENDBRANCH   4   5
ENDBRANCH   3   4
ENDBRANCH   2   3
ENDBRANCH   1   2
BRANCH   1  12
ATOM     12  C   UNL     1      -0.215  68.493  14.563  1.00  0.00     0.000 C 
BRANCH  12  13
ATOM     13  C   UNL     1      -0.729  67.432  15.552  1.00  0.00    -0.000 C 
BRANCH  13  14
ATOM     14  C   UNL     1      -0.188  66.022  15.252  1.00  0.00    -0.000 C 
BRANCH  14  15
ATOM     15  C   UNL     1       0.674  65.401  16.367  1.00  0.00    -0.000 C 
BRANCH  15  16
ATOM     16  C   UNL     1       0.690  63.866  16.329  1.00  0.00    -0.000 C 
BRANCH  16  17
ATOM     17  C   UNL     1       1.948  63.345  15.618  1.00  0.00    -0.000 C 
BRANCH  17  18
ATOM     18  C   UNL     1       3.136  64.322  15.742  1.00  0.00    -0.000 C 
BRANCH  18  19
ATOM     19  C   UNL     1       3.789  64.674  14.395  1.00  0.00    -0.003 C 
ATOM     20  C   UNL     1       2.772  64.903  13.279  1.00  0.00     0.004 C 
ENDBRANCH  18  19
ENDBRANCH  17  18
ENDBRANCH  16  17
ENDBRANCH  15  16
ENDBRANCH  14  15
ENDBRANCH  13  14
ENDBRANCH  12  13
ENDBRANCH   1  12
TORSDOF 16
ENDMDL
MODEL 8
REMARK VINA RESULT:    -2.643      8.713     10.865
REMARK INTER + INTRA:          -8.167
REMARK INTER:                  -6.430
REMARK INTRA:                  -1.736
REMARK UNBOUND:                -3.051
REMARK SMILES CCCCCCCCCCCCCCCCCC(=O)[O-]
REMARK SMILES IDX 10 1 11 2 12 3 13 4 14 5 15 6 16 7 17 8 18 9 19 10 20 11
REMARK SMILES IDX 9 12 8 13 7 14 6 15 5 16 4 17 3 18 2 19 1 20
REMARK H PARENT
REMARK Flexibility Score: inf
ROOT
ATOM      1  C   UNL     1       3.029  65.744  14.699  1.00  0.00     0.000 C 
ENDROOT
BRANCH   1   2
ATOM      2  C   UNL     1       3.049  64.329  14.101  1.00  0.00     0.000 C 
BRANCH   2   3
ATOM      3  C   UNL     1       1.873  63.494  14.626  1.00  0.00     0.000 C 
BRANCH   3   4
ATOM      4  C   UNL     1       2.291  62.487  15.714  1.00  0.00     0.000 C 
BRANCH   4   5
ATOM      5  C   UNL     1       3.809  62.238  15.826  1.00  0.00     0.000 C 
BRANCH   5   6
ATOM      6  C   UNL     1       4.473  62.810  17.091  1.00  0.00     0.000 C 
BRANCH   6   7
ATOM      7  C   UNL     1       6.003  62.868  16.988  1.00  0.00     0.006 C 
BRANCH   7   8
ATOM      8  C   UNL     1       6.494  64.317  16.924  1.00  0.00     0.053 C 
BRANCH   8   9
ATOM      9  C   UNL     1       7.989  64.364  16.937  1.00  0.00     0.041 C 
ATOM     10  O   UNL     1       8.589  65.470  16.868  1.00  0.00    -0.550 OA
ATOM     11  O   UNL     1       8.722  63.185  16.975  1.00  0.00    -0.550 OA
ENDBRANCH   8   9
ENDBRANCH   7   8
ENDBRANCH   6   7
ENDBRANCH   5   6
ENDBRANCH   4   5
ENDBRANCH   3   4
ENDBRANCH   2   3
ENDBRANCH   1   2
BRANCH   1  12
ATOM     12  C   UNL     1       1.648  66.135  15.251  1.00  0.00     0.000 C 
BRANCH  12  13
ATOM     13  C   UNL     1       1.688  66.480  16.749  1.00  0.00    -0.000 C 
BRANCH  13  14
ATOM     14  C   UNL     1       3.109  66.796  17.254  1.00  0.00    -0.000 C 
BRANCH  14  15
ATOM     15  C   UNL     1       3.293  68.203  17.851  1.00  0.00    -0.000 C 
BRANCH  15  16
ATOM     16  C   UNL     1       2.982  69.325  16.850  1.00  0.00    -0.000 C 
BRANCH  16  17
ATOM     17  C   UNL     1       1.926  70.288  17.412  1.00  0.00    -0.000 C 
BRANCH  17  18
ATOM     18  C   UNL     1       2.274  70.768  18.838  1.00  0.00    -0.000 C 
BRANCH  18  19
ATOM     19  C   UNL     1       3.419  71.794  18.881  1.00  0.00    -0.003 C 
ATOM     20  C   UNL     1       3.148  73.030  18.027  1.00  0.00     0.004 C 
ENDBRANCH  18  19
ENDBRANCH  17  18
ENDBRANCH  16  17
ENDBRANCH  15  16
ENDBRANCH  14  15
ENDBRANCH  13  14
ENDBRANCH  12  13
ENDBRANCH   1  12
TORSDOF 16
ENDMDL
MODEL 9
REMARK VINA RESULT:    -2.604      3.754      6.061
REMARK INTER + INTRA:          -8.090
REMARK INTER:                  -5.596
REMARK INTRA:                  -2.494
REMARK UNBOUND:                -3.051
REMARK SMILES CCCCCCCCCCCCCCCCCC(=O)[O-]
REMARK SMILES IDX 10 1 11 2 12 3 13 4 14 5 15 6 16 7 17 8 18 9 19 10 20 11
REMARK SMILES IDX 9 12 8 13 7 14 6 15 5 16 4 17 3 18 2 19 1 20
REMARK H PARENT
REMARK Flexibility Score: inf
ROOT
ATOM      1  C   UNL     1       2.179  71.156  13.217  1.00  0.00     0.000 C 
ENDROOT
BRANCH   1   2
ATOM      2  C   UNL     1       1.792  69.996  12.285  1.00  0.00     0.000 C 
BRANCH   2   3
ATOM      3  C   UNL     1       3.029  69.181  11.882  1.00  0.00     0.000 C 
BRANCH   3   4
ATOM      4  C   UNL     1       3.216  69.090  10.357  1.00  0.00     0.000 C 
BRANCH   4   5
ATOM      5  C   UNL     1       2.908  67.710   9.740  1.00  0.00     0.000 C 
BRANCH   5   6
ATOM      6  C   UNL     1       2.387  66.654  10.731  1.00  0.00     0.000 C 
BRANCH   6   7
ATOM      7  C   UNL     1       2.526  65.220  10.202  1.00  0.00     0.006 C 
BRANCH   7   8
ATOM      8  C   UNL     1       1.534  64.956   9.065  1.00  0.00     0.053 C 
BRANCH   8   9
ATOM      9  C   UNL     1       1.918  63.723   8.311  1.00  0.00     0.041 C 
ATOM     10  O   UNL     1       3.109  63.312   8.330  1.00  0.00    -0.550 OA
ATOM     11  O   UNL     1       0.971  63.052   7.546  1.00  0.00    -0.550 OA
ENDBRANCH   8   9
ENDBRANCH   7   8
ENDBRANCH   6   7
ENDBRANCH   5   6
ENDBRANCH   4   5
ENDBRANCH   3   4
ENDBRANCH   2   3
ENDBRANCH   1   2
BRANCH   1  12
ATOM     12  C   UNL     1       3.257  72.069  12.610  1.00  0.00     0.000 C 
BRANCH  12  13
ATOM     13  C   UNL     1       2.659  73.201  11.759  1.00  0.00    -0.000 C 
BRANCH  13  14
ATOM     14  C   UNL     1       3.017  73.082  10.266  1.00  0.00    -0.000 C 
BRANCH  14  15
ATOM     15  C   UNL     1       1.864  73.385   9.290  1.00  0.00    -0.000 C 
BRANCH  15  16
ATOM     16  C   UNL     1       0.559  72.669   9.663  1.00  0.00    -0.000 C 
BRANCH  16  17
ATOM     17  C   UNL     1       0.516  71.254   9.066  1.00  0.00    -0.000 C 
BRANCH  17  18
ATOM     18  C   UNL     1      -0.678  70.432   9.596  1.00  0.00    -0.000 C 
BRANCH  18  19
ATOM     19  C   UNL     1      -0.555  68.923   9.327  1.00  0.00    -0.003 C 
ATOM     20  C   UNL     1      -0.941  68.068  10.531  1.00  0.00     0.004 C 
ENDBRANCH  18  19
ENDBRANCH  17  18
ENDBRANCH  16  17
ENDBRANCH  15  16
ENDBRANCH  14  15
ENDBRANCH  13  14
ENDBRANCH  12  13
ENDBRANCH   1  12
TORSDOF 16
ENDMDL
