MODEL 1
REMARK VINA RESULT:    -4.702      0.000      0.000
REMARK INTER + INTRA:         -12.856
REMARK INTER:                 -10.200
REMARK INTRA:                  -2.655
REMARK UNBOUND:                -2.655
REMARK SMILES CCCCCCCCCCCCCCCCCCCCCC(=O)[O-]
REMARK SMILES IDX 12 1 11 2 10 3 9 4 8 5 7 6 6 7 5 8 4 9 3 10 2 11 1 12 13 13
REMARK SMILES IDX 14 14 15 15 16 16 17 17 18 18 19 19 20 20 21 21 22 22 23 23
REMARK SMILES IDX 24 24
REMARK H PARENT
REMARK Flexibility Score: inf
ROOT
ATOM      1  C   UNL     1      24.365   3.418  14.750  1.00  0.00     0.000 C 
ENDROOT
BRANCH   1   2
ATOM      2  C   UNL     1      23.498   4.632  15.132  1.00  0.00     0.000 C 
BRANCH   2   3
ATOM      3  C   UNL     1      23.314   5.610  13.954  1.00  0.00     0.000 C 
BRANCH   3   4
ATOM      4  C   UNL     1      22.922   7.034  14.389  1.00  0.00    -0.000 C 
BRANCH   4   5
ATOM      5  C   UNL     1      23.962   8.089  13.977  1.00  0.00    -0.000 C 
BRANCH   5   6
ATOM      6  C   UNL     1      24.658   8.755  15.178  1.00  0.00    -0.000 C 
BRANCH   6   7
ATOM      7  C   UNL     1      24.454   8.048  16.530  1.00  0.00    -0.000 C 
BRANCH   7   8
ATOM      8  C   UNL     1      23.789   8.945  17.587  1.00  0.00    -0.000 C 
BRANCH   8   9
ATOM      9  C   UNL     1      22.427   8.377  18.010  1.00  0.00    -0.000 C 
BRANCH   9  10
ATOM     10  C   UNL     1      21.273   9.378  17.821  1.00  0.00    -0.000 C 
BRANCH  10  11
ATOM     11  C   UNL     1      21.473  10.385  16.674  1.00  0.00    -0.003 C 
ATOM     12  C   UNL     1      20.393  11.466  16.632  1.00  0.00     0.004 C 
ENDBRANCH  10  11
ENDBRANCH   9  10
ENDBRANCH   8   9
ENDBRANCH   7   8
ENDBRANCH   6   7
ENDBRANCH   5   6
ENDBRANCH   4   5
ENDBRANCH   3   4
ENDBRANCH   2   3
ENDBRANCH   1   2
BRANCH   1  13
ATOM     13  C   UNL     1      24.957   3.535  13.337  1.00  0.00     0.000 C 
BRANCH  13  14
ATOM     14  C   UNL     1      26.387   2.980  13.249  1.00  0.00     0.000 C 
BRANCH  14  15
ATOM     15  C   UNL     1      27.322   3.982  12.560  1.00  0.00     0.000 C 
BRANCH  15  16
ATOM     16  C   UNL     1      27.929   4.956  13.580  1.00  0.00     0.000 C 
BRANCH  16  17
ATOM     17  C   UNL     1      27.041   6.187  13.821  1.00  0.00     0.000 C 
BRANCH  17  18
ATOM     18  C   UNL     1      27.816   7.510  13.688  1.00  0.00     0.000 C 
BRANCH  18  19
ATOM     19  C   UNL     1      28.424   7.706  12.288  1.00  0.00     0.000 C 
BRANCH  19  20
ATOM     20  C   UNL     1      28.107   9.064  11.627  1.00  0.00     0.006 C 
BRANCH  20  21
ATOM     21  C   UNL     1      26.880   9.785  12.209  1.00  0.00     0.053 C 
BRANCH  21  22
ATOM     22  C   UNL     1      27.093  11.264  12.315  1.00  0.00     0.041 C 
ATOM     23  O   UNL     1      26.196  12.063  11.937  1.00  0.00    -0.550 OA
ATOM     24  O   UNL     1      28.292  11.761  12.809  1.00  0.00    -0.550 OA
ENDBRANCH  21  22
ENDBRANCH  20  21
ENDBRANCH  19  20
ENDBRANCH  18  19
ENDBRANCH  17  18
ENDBRANCH  16  17
ENDBRANCH  15  16
ENDBRANCH  14  15
ENDBRANCH  13  14
ENDBRANCH   1  13
TORSDOF 20
ENDMDL
MODEL 2
REMARK VINA RESULT:    -4.655      8.178      9.428
REMARK INTER + INTRA:         -12.753
REMARK INTER:                 -11.389
REMARK INTRA:                  -1.364
REMARK UNBOUND:                -2.655
REMARK SMILES CCCCCCCCCCCCCCCCCCCCCC(=O)[O-]
REMARK SMILES IDX 12 1 11 2 10 3 9 4 8 5 7 6 6 7 5 8 4 9 3 10 2 11 1 12 13 13
REMARK SMILES IDX 14 14 15 15 16 16 17 17 18 18 19 19 20 20 21 21 22 22 23 23
REMARK SMILES IDX 24 24
REMARK H PARENT
REMARK Flexibility Score: inf
ROOT
ATOM      1  C   UNL     1      18.305   7.053   4.485  1.00  0.00     0.000 C 
ENDROOT
BRANCH   1   2
ATOM      2  C   UNL     1      17.964   8.204   5.448  1.00  0.00     0.000 C 
BRANCH   2   3
ATOM      3  C   UNL     1      17.672   7.702   6.877  1.00  0.00     0.000 C 
BRANCH   3   4
ATOM      4  C   UNL     1      18.159   8.659   7.980  1.00  0.00    -0.000 C 
BRANCH   4   5
ATOM      5  C   UNL     1      17.016   9.167   8.874  1.00  0.00    -0.000 C 
BRANCH   5   6
ATOM      6  C   UNL     1      17.506  10.025  10.055  1.00  0.00    -0.000 C 
BRANCH   6   7
ATOM      7  C   UNL     1      16.829  11.400  10.194  1.00  0.00    -0.000 C 
BRANCH   7   8
ATOM      8  C   UNL     1      17.721  12.445  10.882  1.00  0.00    -0.000 C 
BRANCH   8   9
ATOM      9  C   UNL     1      19.203  12.060  10.774  1.00  0.00    -0.000 C 
BRANCH   9  10
ATOM     10  C   UNL     1      19.963  12.211  12.104  1.00  0.00    -0.000 C 
BRANCH  10  11
ATOM     11  C   UNL     1      20.413  13.646  12.431  1.00  0.00    -0.003 C 
ATOM     12  C   UNL     1      19.419  14.398  13.315  1.00  0.00     0.004 C 
ENDBRANCH  10  11
ENDBRANCH   9  10
ENDBRANCH   8   9
ENDBRANCH   7   8
ENDBRANCH   6   7
ENDBRANCH   5   6
ENDBRANCH   4   5
ENDBRANCH   3   4
ENDBRANCH   2   3
ENDBRANCH   1   2
BRANCH   1  13
ATOM     13  C   UNL     1      19.462   7.398   3.535  1.00  0.00     0.000 C 
BRANCH  13  14
ATOM     14  C   UNL     1      20.552   6.315   3.514  1.00  0.00     0.000 C 
BRANCH  14  15
ATOM     15  C   UNL     1      20.225   5.190   4.505  1.00  0.00     0.000 C 
BRANCH  15  16
ATOM     16  C   UNL     1      21.478   4.764   5.284  1.00  0.00     0.000 C 
BRANCH  16  17
ATOM     17  C   UNL     1      21.676   5.578   6.572  1.00  0.00     0.000 C 
BRANCH  17  18
ATOM     18  C   UNL     1      23.145   5.978   6.798  1.00  0.00     0.000 C 
BRANCH  18  19
ATOM     19  C   UNL     1      24.051   5.614   5.608  1.00  0.00     0.000 C 
BRANCH  19  20
ATOM     20  C   UNL     1      25.319   4.817   5.978  1.00  0.00     0.006 C 
BRANCH  20  21
ATOM     21  C   UNL     1      25.056   3.548   6.804  1.00  0.00     0.053 C 
BRANCH  21  22
ATOM     22  C   UNL     1      26.296   3.046   7.479  1.00  0.00     0.041 C 
ATOM     23  O   UNL     1      26.969   2.117   6.961  1.00  0.00    -0.550 OA
ATOM     24  O   UNL     1      26.695   3.588   8.693  1.00  0.00    -0.550 OA
ENDBRANCH  21  22
ENDBRANCH  20  21
ENDBRANCH  19  20
ENDBRANCH  18  19
ENDBRANCH  17  18
ENDBRANCH  16  17
ENDBRANCH  15  16
ENDBRANCH  14  15
ENDBRANCH  13  14
ENDBRANCH   1  13
TORSDOF 20
ENDMDL
MODEL 3
REMARK VINA RESULT:    -4.621      9.121     12.058
REMARK INTER + INTRA:         -12.679
REMARK INTER:                 -10.893
REMARK INTRA:                  -1.786
REMARK UNBOUND:                -2.655
REMARK SMILES CCCCCCCCCCCCCCCCCCCCCC(=O)[O-]
REMARK SMILES IDX 12 1 11 2 10 3 9 4 8 5 7 6 6 7 5 8 4 9 3 10 2 11 1 12 13 13
REMARK SMILES IDX 14 14 15 15 16 16 17 17 18 18 19 19 20 20 21 21 22 22 23 23
REMARK SMILES IDX 24 24
REMARK H PARENT
REMARK Flexibility Score: inf
ROOT
ATOM      1  C   UNL     1      16.307   7.567   7.361  1.00  0.00     0.000 C 
ENDROOT
BRANCH   1   2
ATOM      2  C   UNL     1      17.578   7.128   6.612  1.00  0.00     0.000 C 
BRANCH   2   3
ATOM      3  C   UNL     1      17.928   8.080   5.450  1.00  0.00     0.000 C 
BRANCH   3   4
ATOM      4  C   UNL     1      17.281   7.684   4.111  1.00  0.00    -0.000 C 
BRANCH   4   5
ATOM      5  C   UNL     1      18.250   7.804   2.923  1.00  0.00    -0.000 C 
BRANCH   5   6
ATOM      6  C   UNL     1      19.690   7.386   3.273  1.00  0.00    -0.000 C 
BRANCH   6   7
ATOM      7  C   UNL     1      20.025   5.905   3.019  1.00  0.00    -0.000 C 
BRANCH   7   8
ATOM      8  C   UNL     1      20.276   5.111   4.312  1.00  0.00    -0.000 C 
BRANCH   8   9
ATOM      9  C   UNL     1      21.252   5.856   5.233  1.00  0.00    -0.000 C 
BRANCH   9  10
ATOM     10  C   UNL     1      21.824   4.964   6.350  1.00  0.00    -0.000 C 
BRANCH  10  11
ATOM     11  C   UNL     1      23.275   5.283   6.751  1.00  0.00    -0.003 C 
ATOM     12  C   UNL     1      24.185   5.540   5.552  1.00  0.00     0.004 C 
ENDBRANCH  10  11
ENDBRANCH   9  10
ENDBRANCH   8   9
ENDBRANCH   7   8
ENDBRANCH   6   7
ENDBRANCH   5   6
ENDBRANCH   4   5
ENDBRANCH   3   4
ENDBRANCH   2   3
ENDBRANCH   1   2
BRANCH   1  13
ATOM     13  C   UNL     1      16.323   9.057   7.733  1.00  0.00     0.000 C 
BRANCH  13  14
ATOM     14  C   UNL     1      15.504   9.359   8.997  1.00  0.00     0.000 C 
BRANCH  14  15
ATOM     15  C   UNL     1      16.235  10.366   9.895  1.00  0.00     0.000 C 
BRANCH  15  16
ATOM     16  C   UNL     1      17.601   9.819  10.335  1.00  0.00     0.000 C 
BRANCH  16  17
ATOM     17  C   UNL     1      18.728  10.850  10.174  1.00  0.00     0.000 C 
BRANCH  17  18
ATOM     18  C   UNL     1      19.274  11.345  11.525  1.00  0.00     0.000 C 
BRANCH  18  19
ATOM     19  C   UNL     1      19.152  12.869  11.695  1.00  0.00     0.000 C 
BRANCH  19  20
ATOM     20  C   UNL     1      17.973  13.515  10.938  1.00  0.00     0.006 C 
BRANCH  20  21
ATOM     21  C   UNL     1      16.949  14.226  11.837  1.00  0.00     0.053 C 
BRANCH  21  22
ATOM     22  C   UNL     1      15.707  14.602  11.090  1.00  0.00     0.041 C 
ATOM     23  O   UNL     1      15.170  15.726  11.277  1.00  0.00    -0.550 OA
ATOM     24  O   UNL     1      15.127  13.703  10.205  1.00  0.00    -0.550 OA
ENDBRANCH  21  22
ENDBRANCH  20  21
ENDBRANCH  19  20
ENDBRANCH  18  19
ENDBRANCH  17  18
ENDBRANCH  16  17
ENDBRANCH  15  16
ENDBRANCH  14  15
ENDBRANCH  13  14
ENDBRANCH   1  13
TORSDOF 20
ENDMDL
MODEL 4
REMARK VINA RESULT:    -4.600      9.458     12.154
REMARK INTER + INTRA:         -12.634
REMARK INTER:                 -10.320
REMARK INTRA:                  -2.314
REMARK UNBOUND:                -2.655
REMARK SMILES CCCCCCCCCCCCCCCCCCCCCC(=O)[O-]
REMARK SMILES IDX 12 1 11 2 10 3 9 4 8 5 7 6 6 7 5 8 4 9 3 10 2 11 1 12 13 13
REMARK SMILES IDX 14 14 15 15 16 16 17 17 18 18 19 19 20 20 21 21 22 22 23 23
REMARK SMILES IDX 24 24
REMARK H PARENT
REMARK Flexibility Score: inf
ROOT
ATOM      1  C   UNL     1      17.115   7.758   3.791  1.00  0.00     0.000 C 
ENDROOT
BRANCH   1   2
ATOM      2  C   UNL     1      18.026   7.616   2.558  1.00  0.00     0.000 C 
BRANCH   2   3
ATOM      3  C   UNL     1      19.518   7.784   2.914  1.00  0.00     0.000 C 
BRANCH   3   4
ATOM      4  C   UNL     1      20.399   6.607   2.457  1.00  0.00    -0.000 C 
BRANCH   4   5
ATOM      5  C   UNL     1      19.844   5.243   2.897  1.00  0.00    -0.000 C 
BRANCH   5   6
ATOM      6  C   UNL     1      20.302   4.828   4.307  1.00  0.00    -0.000 C 
BRANCH   6   7
ATOM      7  C   UNL     1      21.361   5.743   4.949  1.00  0.00    -0.000 C 
BRANCH   7   8
ATOM      8  C   UNL     1      21.560   5.476   6.450  1.00  0.00    -0.000 C 
BRANCH   8   9
ATOM      9  C   UNL     1      23.020   5.713   6.861  1.00  0.00    -0.000 C 
BRANCH   9  10
ATOM     10  C   UNL     1      23.985   5.748   5.662  1.00  0.00    -0.000 C 
BRANCH  10  11
ATOM     11  C   UNL     1      25.223   4.845   5.802  1.00  0.00    -0.003 C 
ATOM     12  C   UNL     1      25.175   3.953   7.041  1.00  0.00     0.004 C 
ENDBRANCH  10  11
ENDBRANCH   9  10
ENDBRANCH   8   9
ENDBRANCH   7   8
ENDBRANCH   6   7
ENDBRANCH   5   6
ENDBRANCH   4   5
ENDBRANCH   3   4
ENDBRANCH   2   3
ENDBRANCH   1   2
BRANCH   1  13
ATOM     13  C   UNL     1      16.702   6.401   4.382  1.00  0.00     0.000 C 
BRANCH  13  14
ATOM     14  C   UNL     1      17.176   6.220   5.832  1.00  0.00     0.000 C 
BRANCH  14  15
ATOM     15  C   UNL     1      18.075   7.386   6.264  1.00  0.00     0.000 C 
BRANCH  15  16
ATOM     16  C   UNL     1      17.365   8.272   7.298  1.00  0.00     0.000 C 
BRANCH  16  17
ATOM     17  C   UNL     1      16.122   7.597   7.898  1.00  0.00     0.000 C 
BRANCH  17  18
ATOM     18  C   UNL     1      15.079   8.614   8.392  1.00  0.00     0.000 C 
BRANCH  18  19
ATOM     19  C   UNL     1      15.638  10.045   8.486  1.00  0.00     0.000 C 
BRANCH  19  20
ATOM     20  C   UNL     1      15.907  10.543   9.921  1.00  0.00     0.006 C 
BRANCH  20  21
ATOM     21  C   UNL     1      17.339  10.300  10.423  1.00  0.00     0.053 C 
BRANCH  21  22
ATOM     22  C   UNL     1      18.093  11.579  10.623  1.00  0.00     0.041 C 
ATOM     23  O   UNL     1      19.346  11.565  10.742  1.00  0.00    -0.550 OA
ATOM     24  O   UNL     1      17.409  12.785  10.702  1.00  0.00    -0.550 OA
ENDBRANCH  21  22
ENDBRANCH  20  21
ENDBRANCH  19  20
ENDBRANCH  18  19
ENDBRANCH  17  18
ENDBRANCH  16  17
ENDBRANCH  15  16
ENDBRANCH  14  15
ENDBRANCH  13  14
ENDBRANCH   1  13
TORSDOF 20
ENDMDL
MODEL 5
REMARK VINA RESULT:    -4.580      3.365      6.560
REMARK INTER + INTRA:         -12.591
REMARK INTER:                  -9.663
REMARK INTRA:                  -2.928
REMARK UNBOUND:                -2.655
REMARK SMILES CCCCCCCCCCCCCCCCCCCCCC(=O)[O-]
REMARK SMILES IDX 12 1 11 2 10 3 9 4 8 5 7 6 6 7 5 8 4 9 3 10 2 11 1 12 13 13
REMARK SMILES IDX 14 14 15 15 16 16 17 17 18 18 19 19 20 20 21 21 22 22 23 23
REMARK SMILES IDX 24 24
REMARK H PARENT
REMARK Flexibility Score: inf
ROOT
ATOM      1  C   UNL     1      26.784   7.027  14.956  1.00  0.00     0.000 C 
ENDROOT
BRANCH   1   2
ATOM      2  C   UNL     1      28.290   7.301  15.119  1.00  0.00     0.000 C 
BRANCH   2   3
ATOM      3  C   UNL     1      29.045   7.227  13.775  1.00  0.00     0.000 C 
BRANCH   3   4
ATOM      4  C   UNL     1      28.126   7.324  12.545  1.00  0.00    -0.000 C 
BRANCH   4   5
ATOM      5  C   UNL     1      28.369   8.598  11.719  1.00  0.00    -0.000 C 
BRANCH   5   6
ATOM      6  C   UNL     1      29.755   9.223  11.964  1.00  0.00    -0.000 C 
BRANCH   6   7
ATOM      7  C   UNL     1      29.749  10.723  12.309  1.00  0.00    -0.000 C 
BRANCH   7   8
ATOM      8  C   UNL     1      29.427  11.002  13.786  1.00  0.00    -0.000 C 
BRANCH   8   9
ATOM      9  C   UNL     1      28.429  12.160  13.921  1.00  0.00    -0.000 C 
BRANCH   9  10
ATOM     10  C   UNL     1      27.001  11.688  14.248  1.00  0.00    -0.000 C 
BRANCH  10  11
ATOM     11  C   UNL     1      25.941  12.057  13.194  1.00  0.00    -0.003 C 
ATOM     12  C   UNL     1      24.544  12.231  13.786  1.00  0.00     0.004 C 
ENDBRANCH  10  11
ENDBRANCH   9  10
ENDBRANCH   8   9
ENDBRANCH   7   8
ENDBRANCH   6   7
ENDBRANCH   5   6
ENDBRANCH   4   5
ENDBRANCH   3   4
ENDBRANCH   2   3
ENDBRANCH   1   2
BRANCH   1  13
ATOM     13  C   UNL     1      25.927   8.282  15.178  1.00  0.00     0.000 C 
BRANCH  13  14
ATOM     14  C   UNL     1      24.950   8.543  14.022  1.00  0.00     0.000 C 
BRANCH  14  15
ATOM     15  C   UNL     1      23.531   8.092  14.392  1.00  0.00     0.000 C 
BRANCH  15  16
ATOM     16  C   UNL     1      22.893   7.292  13.246  1.00  0.00     0.000 C 
BRANCH  16  17
ATOM     17  C   UNL     1      22.563   5.847  13.649  1.00  0.00     0.000 C 
BRANCH  17  18
ATOM     18  C   UNL     1      23.231   5.435  14.973  1.00  0.00     0.000 C 
BRANCH  18  19
ATOM     19  C   UNL     1      24.014   4.115  14.861  1.00  0.00     0.000 C 
BRANCH  19  20
ATOM     20  C   UNL     1      25.039   4.064  13.708  1.00  0.00     0.006 C 
BRANCH  20  21
ATOM     21  C   UNL     1      25.797   2.733  13.587  1.00  0.00     0.053 C 
BRANCH  21  22
ATOM     22  C   UNL     1      26.134   2.402  12.166  1.00  0.00     0.041 C 
ATOM     23  O   UNL     1      25.636   1.385  11.616  1.00  0.00    -0.550 OA
ATOM     24  O   UNL     1      27.017   3.204  11.455  1.00  0.00    -0.550 OA
ENDBRANCH  21  22
ENDBRANCH  20  21
ENDBRANCH  19  20
ENDBRANCH  18  19
ENDBRANCH  17  18
ENDBRANCH  16  17
ENDBRANCH  15  16
ENDBRANCH  14  15
ENDBRANCH  13  14
ENDBRANCH   1  13
TORSDOF 20
ENDMDL
MODEL 6
REMARK VINA RESULT:    -4.480      1.943      6.946
REMARK INTER + INTRA:         -12.373
REMARK INTER:                 -10.024
REMARK INTRA:                  -2.349
REMARK UNBOUND:                -2.655
REMARK SMILES CCCCCCCCCCCCCCCCCCCCCC(=O)[O-]
REMARK SMILES IDX 12 1 11 2 10 3 9 4 8 5 7 6 6 7 5 8 4 9 3 10 2 11 1 12 13 13
REMARK SMILES IDX 14 14 15 15 16 16 17 17 18 18 19 19 20 20 21 21 22 22 23 23
REMARK SMILES IDX 24 24
REMARK H PARENT
REMARK Flexibility Score: inf
ROOT
ATOM      1  C   UNL     1      24.596   7.606  14.085  1.00  0.00     0.000 C 
ENDROOT
BRANCH   1   2
ATOM      2  C   UNL     1      23.181   7.257  13.590  1.00  0.00     0.000 C 
BRANCH   2   3
ATOM      3  C   UNL     1      22.885   5.747  13.690  1.00  0.00     0.000 C 
BRANCH   3   4
ATOM      4  C   UNL     1      23.418   5.096  14.979  1.00  0.00    -0.000 C 
BRANCH   4   5
ATOM      5  C   UNL     1      24.214   3.809  14.711  1.00  0.00    -0.000 C 
BRANCH   5   6
ATOM      6  C   UNL     1      24.919   3.807  13.343  1.00  0.00    -0.000 C 
BRANCH   6   7
ATOM      7  C   UNL     1      26.283   3.095  13.307  1.00  0.00    -0.000 C 
BRANCH   7   8
ATOM      8  C   UNL     1      27.429   4.007  12.840  1.00  0.00    -0.000 C 
BRANCH   8   9
ATOM      9  C   UNL     1      27.496   5.284  13.689  1.00  0.00    -0.000 C 
BRANCH   9  10
ATOM     10  C   UNL     1      27.950   6.516  12.887  1.00  0.00    -0.000 C 
BRANCH  10  11
ATOM     11  C   UNL     1      28.490   7.679  13.739  1.00  0.00    -0.003 C 
ATOM     12  C   UNL     1      29.940   8.034  13.417  1.00  0.00     0.004 C 
ENDBRANCH  10  11
ENDBRANCH   9  10
ENDBRANCH   8   9
ENDBRANCH   7   8
ENDBRANCH   6   7
ENDBRANCH   5   6
ENDBRANCH   4   5
ENDBRANCH   3   4
ENDBRANCH   2   3
ENDBRANCH   1   2
BRANCH   1  13
ATOM     13  C   UNL     1      24.584   8.451  15.368  1.00  0.00     0.000 C 
BRANCH  13  14
ATOM     14  C   UNL     1      23.161   8.770  15.851  1.00  0.00     0.000 C 
BRANCH  14  15
ATOM     15  C   UNL     1      22.864   8.069  17.183  1.00  0.00     0.000 C 
BRANCH  15  16
ATOM     16  C   UNL     1      21.819   8.850  17.993  1.00  0.00     0.000 C 
BRANCH  16  17
ATOM     17  C   UNL     1      22.145  10.348  18.086  1.00  0.00     0.000 C 
BRANCH  17  18
ATOM     18  C   UNL     1      20.882  11.224  18.161  1.00  0.00     0.000 C 
BRANCH  18  19
ATOM     19  C   UNL     1      20.088  11.238  16.843  1.00  0.00     0.000 C 
BRANCH  19  20
ATOM     20  C   UNL     1      20.645  12.184  15.759  1.00  0.00     0.006 C 
BRANCH  20  21
ATOM     21  C   UNL     1      21.223  11.472  14.526  1.00  0.00     0.053 C 
BRANCH  21  22
ATOM     22  C   UNL     1      21.568  12.431  13.429  1.00  0.00     0.041 C 
ATOM     23  O   UNL     1      20.684  12.809  12.616  1.00  0.00    -0.550 OA
ATOM     24  O   UNL     1      22.871  12.889  13.288  1.00  0.00    -0.550 OA
ENDBRANCH  21  22
ENDBRANCH  20  21
ENDBRANCH  19  20
ENDBRANCH  18  19
ENDBRANCH  17  18
ENDBRANCH  16  17
ENDBRANCH  15  16
ENDBRANCH  14  15
ENDBRANCH  13  14
ENDBRANCH   1  13
TORSDOF 20
ENDMDL
MODEL 7
REMARK VINA RESULT:    -4.431      9.449     12.054
REMARK INTER + INTRA:         -12.266
REMARK INTER:                  -9.975
REMARK INTRA:                  -2.291
REMARK UNBOUND:                -2.655
REMARK SMILES CCCCCCCCCCCCCCCCCCCCCC(=O)[O-]
REMARK SMILES IDX 12 1 11 2 10 3 9 4 8 5 7 6 6 7 5 8 4 9 3 10 2 11 1 12 13 13
REMARK SMILES IDX 14 14 15 15 16 16 17 17 18 18 19 19 20 20 21 21 22 22 23 23
REMARK SMILES IDX 24 24
REMARK H PARENT
REMARK Flexibility Score: inf
ROOT
ATOM      1  C   UNL     1      18.514   7.603   2.818  1.00  0.00     0.000 C 
ENDROOT
BRANCH   1   2
ATOM      2  C   UNL     1      19.996   7.341   2.493  1.00  0.00     0.000 C 
BRANCH   2   3
ATOM      3  C   UNL     1      20.246   5.885   2.047  1.00  0.00     0.000 C 
BRANCH   3   4
ATOM      4  C   UNL     1      18.975   5.016   2.033  1.00  0.00    -0.000 C 
BRANCH   4   5
ATOM      5  C   UNL     1      19.070   3.808   2.979  1.00  0.00    -0.000 C 
BRANCH   5   6
ATOM      6  C   UNL     1      20.158   3.968   4.057  1.00  0.00    -0.000 C 
BRANCH   6   7
ATOM      7  C   UNL     1      19.643   4.033   5.506  1.00  0.00    -0.000 C 
BRANCH   7   8
ATOM      8  C   UNL     1      20.193   5.235   6.290  1.00  0.00    -0.000 C 
BRANCH   8   9
ATOM      9  C   UNL     1      21.509   5.735   5.677  1.00  0.00    -0.000 C 
BRANCH   9  10
ATOM     10  C   UNL     1      22.751   5.276   6.462  1.00  0.00    -0.000 C 
BRANCH  10  11
ATOM     11  C   UNL     1      23.911   4.759   5.593  1.00  0.00    -0.003 C 
ATOM     12  C   UNL     1      25.177   4.467   6.396  1.00  0.00     0.004 C 
ENDBRANCH  10  11
ENDBRANCH   9  10
ENDBRANCH   8   9
ENDBRANCH   7   8
ENDBRANCH   6   7
ENDBRANCH   5   6
ENDBRANCH   4   5
ENDBRANCH   3   4
ENDBRANCH   2   3
ENDBRANCH   1   2
BRANCH   1  13
ATOM     13  C   UNL     1      18.257   7.765   4.324  1.00  0.00     0.000 C 
BRANCH  13  14
ATOM     14  C   UNL     1      16.767   7.933   4.654  1.00  0.00     0.000 C 
BRANCH  14  15
ATOM     15  C   UNL     1      16.559   8.136   6.161  1.00  0.00     0.000 C 
BRANCH  15  16
ATOM     16  C   UNL     1      17.846   7.823   6.939  1.00  0.00     0.000 C 
BRANCH  16  17
ATOM     17  C   UNL     1      18.082   8.799   8.102  1.00  0.00     0.000 C 
BRANCH  17  18
ATOM     18  C   UNL     1      16.808   9.059   8.924  1.00  0.00     0.000 C 
BRANCH  18  19
ATOM     19  C   UNL     1      16.925  10.296   9.832  1.00  0.00     0.000 C 
BRANCH  19  20
ATOM     20  C   UNL     1      18.235  10.384  10.643  1.00  0.00     0.006 C 
BRANCH  20  21
ATOM     21  C   UNL     1      19.028  11.684  10.434  1.00  0.00     0.053 C 
BRANCH  21  22
ATOM     22  C   UNL     1      18.470  12.821  11.233  1.00  0.00     0.041 C 
ATOM     23  O   UNL     1      18.882  13.036  12.404  1.00  0.00    -0.550 OA
ATOM     24  O   UNL     1      17.477  13.629  10.696  1.00  0.00    -0.550 OA
ENDBRANCH  21  22
ENDBRANCH  20  21
ENDBRANCH  19  20
ENDBRANCH  18  19
ENDBRANCH  17  18
ENDBRANCH  16  17
ENDBRANCH  15  16
ENDBRANCH  14  15
ENDBRANCH  13  14
ENDBRANCH   1  13
TORSDOF 20
ENDMDL
MODEL 8
REMARK VINA RESULT:    -4.397      2.278      6.747
REMARK INTER + INTRA:         -12.193
REMARK INTER:                  -9.819
REMARK INTRA:                  -2.374
REMARK UNBOUND:                -2.655
REMARK SMILES CCCCCCCCCCCCCCCCCCCCCC(=O)[O-]
REMARK SMILES IDX 12 1 11 2 10 3 9 4 8 5 7 6 6 7 5 8 4 9 3 10 2 11 1 12 13 13
REMARK SMILES IDX 14 14 15 15 16 16 17 17 18 18 19 19 20 20 21 21 22 22 23 23
REMARK SMILES IDX 24 24
REMARK H PARENT
REMARK Flexibility Score: inf
ROOT
ATOM      1  C   UNL     1      26.015   9.101  15.007  1.00  0.00     0.000 C 
ENDROOT
BRANCH   1   2
ATOM      2  C   UNL     1      25.929   8.320  13.683  1.00  0.00     0.000 C 
BRANCH   2   3
ATOM      3  C   UNL     1      27.295   8.228  12.972  1.00  0.00     0.000 C 
BRANCH   3   4
ATOM      4  C   UNL     1      28.115   6.987  13.367  1.00  0.00    -0.000 C 
BRANCH   4   5
ATOM      5  C   UNL     1      27.235   5.811  13.820  1.00  0.00    -0.000 C 
BRANCH   5   6
ATOM      6  C   UNL     1      27.619   4.476  13.157  1.00  0.00    -0.000 C 
BRANCH   6   7
ATOM      7  C   UNL     1      26.608   3.332  13.350  1.00  0.00    -0.000 C 
BRANCH   7   8
ATOM      8  C   UNL     1      25.145   3.794  13.246  1.00  0.00    -0.000 C 
BRANCH   8   9
ATOM      9  C   UNL     1      24.385   3.506  14.548  1.00  0.00    -0.000 C 
BRANCH   9  10
ATOM     10  C   UNL     1      23.492   4.678  14.994  1.00  0.00    -0.000 C 
BRANCH  10  11
ATOM     11  C   UNL     1      23.561   5.923  14.092  1.00  0.00    -0.003 C 
ATOM     12  C   UNL     1      22.283   6.148  13.286  1.00  0.00     0.004 C 
ENDBRANCH  10  11
ENDBRANCH   9  10
ENDBRANCH   8   9
ENDBRANCH   7   8
ENDBRANCH   6   7
ENDBRANCH   5   6
ENDBRANCH   4   5
ENDBRANCH   3   4
ENDBRANCH   2   3
ENDBRANCH   1   2
BRANCH   1  13
ATOM     13  C   UNL     1      25.228   8.429  16.143  1.00  0.00     0.000 C 
BRANCH  13  14
ATOM     14  C   UNL     1      23.793   8.963  16.263  1.00  0.00     0.000 C 
BRANCH  14  15
ATOM     15  C   UNL     1      22.898   7.965  17.010  1.00  0.00     0.000 C 
BRANCH  15  16
ATOM     16  C   UNL     1      21.929   8.695  17.953  1.00  0.00     0.000 C 
BRANCH  16  17
ATOM     17  C   UNL     1      22.309  10.169  18.161  1.00  0.00     0.000 C 
BRANCH  17  18
ATOM     18  C   UNL     1      21.115  11.119  17.970  1.00  0.00     0.000 C 
BRANCH  18  19
ATOM     19  C   UNL     1      20.431  10.950  16.602  1.00  0.00     0.000 C 
BRANCH  19  20
ATOM     20  C   UNL     1      21.157  11.633  15.424  1.00  0.00     0.006 C 
BRANCH  20  21
ATOM     21  C   UNL     1      20.262  12.536  14.560  1.00  0.00     0.053 C 
BRANCH  21  22
ATOM     22  C   UNL     1      20.385  12.223  13.101  1.00  0.00     0.041 C 
ATOM     23  O   UNL     1      20.219  11.045  12.688  1.00  0.00    -0.550 OA
ATOM     24  O   UNL     1      20.707  13.228  12.198  1.00  0.00    -0.550 OA
ENDBRANCH  21  22
ENDBRANCH  20  21
ENDBRANCH  19  20
ENDBRANCH  18  19
ENDBRANCH  17  18
ENDBRANCH  16  17
ENDBRANCH  15  16
ENDBRANCH  14  15
ENDBRANCH  13  14
ENDBRANCH   1  13
TORSDOF 20
ENDMDL
MODEL 9
REMARK VINA RESULT:    -4.393      3.539      7.215
REMARK INTER + INTRA:         -12.184
REMARK INTER:                 -10.060
REMARK INTRA:                  -2.124
REMARK UNBOUND:                -2.655
REMARK SMILES CCCCCCCCCCCCCCCCCCCCCC(=O)[O-]
REMARK SMILES IDX 12 1 11 2 10 3 9 4 8 5 7 6 6 7 5 8 4 9 3 10 2 11 1 12 13 13
REMARK SMILES IDX 14 14 15 15 16 16 17 17 18 18 19 19 20 20 21 21 22 22 23 23
REMARK SMILES IDX 24 24
REMARK H PARENT
REMARK Flexibility Score: inf
ROOT
ATOM      1  C   UNL     1      28.491   7.759  14.170  1.00  0.00     0.000 C 
ENDROOT
BRANCH   1   2
ATOM      2  C   UNL     1      28.240   7.270  12.732  1.00  0.00     0.000 C 
BRANCH   2   3
ATOM      3  C   UNL     1      28.394   8.402  11.696  1.00  0.00     0.000 C 
BRANCH   3   4
ATOM      4  C   UNL     1      29.344   9.526  12.146  1.00  0.00    -0.000 C 
BRANCH   4   5
ATOM      5  C   UNL     1      28.630  10.877  12.314  1.00  0.00    -0.000 C 
BRANCH   5   6
ATOM      6  C   UNL     1      27.095  10.760  12.271  1.00  0.00    -0.000 C 
BRANCH   6   7
ATOM      7  C   UNL     1      26.330  12.087  12.425  1.00  0.00    -0.000 C 
BRANCH   7   8
ATOM      8  C   UNL     1      27.223  13.324  12.242  1.00  0.00    -0.000 C 
BRANCH   8   9
ATOM      9  C   UNL     1      26.639  14.271  11.183  1.00  0.00    -0.000 C 
BRANCH   9  10
ATOM     10  C   UNL     1      27.601  15.410  10.800  1.00  0.00    -0.000 C 
BRANCH  10  11
ATOM     11  C   UNL     1      27.046  16.828  11.027  1.00  0.00    -0.003 C 
ATOM     12  C   UNL     1      25.800  16.848  11.911  1.00  0.00     0.004 C 
ENDBRANCH  10  11
ENDBRANCH   9  10
ENDBRANCH   8   9
ENDBRANCH   7   8
ENDBRANCH   6   7
ENDBRANCH   5   6
ENDBRANCH   4   5
ENDBRANCH   3   4
ENDBRANCH   2   3
ENDBRANCH   1   2
BRANCH   1  13
ATOM     13  C   UNL     1      27.192   7.924  14.974  1.00  0.00     0.000 C 
BRANCH  13  14
ATOM     14  C   UNL     1      25.959   7.411  14.215  1.00  0.00     0.000 C 
BRANCH  14  15
ATOM     15  C   UNL     1      24.803   8.416  14.307  1.00  0.00     0.000 C 
BRANCH  15  16
ATOM     16  C   UNL     1      23.506   7.722  14.747  1.00  0.00     0.000 C 
BRANCH  16  17
ATOM     17  C   UNL     1      23.179   6.487  13.893  1.00  0.00     0.000 C 
BRANCH  17  18
ATOM     18  C   UNL     1      22.927   5.230  14.744  1.00  0.00     0.000 C 
BRANCH  18  19
ATOM     19  C   UNL     1      24.220   4.460  15.068  1.00  0.00     0.000 C 
BRANCH  19  20
ATOM     20  C   UNL     1      24.740   3.557  13.931  1.00  0.00     0.006 C 
BRANCH  20  21
ATOM     21  C   UNL     1      26.138   3.927  13.410  1.00  0.00     0.053 C 
BRANCH  21  22
ATOM     22  C   UNL     1      26.683   2.896  12.471  1.00  0.00     0.041 C 
ATOM     23  O   UNL     1      27.898   2.916  12.143  1.00  0.00    -0.550 OA
ATOM     24  O   UNL     1      25.844   1.926  11.939  1.00  0.00    -0.550 OA
ENDBRANCH  21  22
ENDBRANCH  20  21
ENDBRANCH  19  20
ENDBRANCH  18  19
ENDBRANCH  17  18
ENDBRANCH  16  17
ENDBRANCH  15  16
ENDBRANCH  14  15
ENDBRANCH  13  14
ENDBRANCH   1  13
TORSDOF 20
ENDMDL
