MODEL 1
REMARK VINA RESULT:    -3.076      0.000      0.000
REMARK INTER + INTRA:         -10.339
REMARK INTER:                  -6.673
REMARK INTRA:                  -3.666
REMARK UNBOUND:                -3.666
REMARK SMILES CCCCCCCCCCCCCCCCCCCCCC(=O)[O-]
REMARK SMILES IDX 12 1 11 2 10 3 9 4 8 5 7 6 6 7 5 8 4 9 3 10 2 11 1 12 13 13
REMARK SMILES IDX 14 14 15 15 16 16 17 17 18 18 19 19 20 20 21 21 22 22 23 23
REMARK SMILES IDX 24 24
REMARK H PARENT
REMARK Flexibility Score: inf
ROOT
ATOM      1  C   UNL     1      41.697  11.956  13.725  1.00  0.00     0.000 C 
ENDROOT
BRANCH   1   2
ATOM      2  C   UNL     1      40.743  11.267  12.737  1.00  0.00     0.000 C 
BRANCH   2   3
ATOM      3  C   UNL     1      39.467  12.095  12.539  1.00  0.00     0.000 C 
BRANCH   3   4
ATOM      4  C   UNL     1      38.252  11.392  13.161  1.00  0.00    -0.000 C 
BRANCH   4   5
ATOM      5  C   UNL     1      38.373   9.854  13.118  1.00  0.00    -0.000 C 
BRANCH   5   6
ATOM      6  C   UNL     1      37.956   9.159  14.425  1.00  0.00    -0.000 C 
BRANCH   6   7
ATOM      7  C   UNL     1      38.947   9.401  15.577  1.00  0.00    -0.000 C 
BRANCH   7   8
ATOM      8  C   UNL     1      38.326  10.203  16.731  1.00  0.00    -0.000 C 
BRANCH   8   9
ATOM      9  C   UNL     1      39.016   9.929  18.080  1.00  0.00    -0.000 C 
BRANCH   9  10
ATOM     10  C   UNL     1      39.144   8.418  18.371  1.00  0.00    -0.000 C 
BRANCH  10  11
ATOM     11  C   UNL     1      40.571   7.980  18.741  1.00  0.00    -0.003 C 
ATOM     12  C   UNL     1      41.639   8.981  18.306  1.00  0.00     0.004 C 
ENDBRANCH  10  11
ENDBRANCH   9  10
ENDBRANCH   8   9
ENDBRANCH   7   8
ENDBRANCH   6   7
ENDBRANCH   5   6
ENDBRANCH   4   5
ENDBRANCH   3   4
ENDBRANCH   2   3
ENDBRANCH   1   2
BRANCH   1  13
ATOM     13  C   UNL     1      41.088  12.120  15.129  1.00  0.00     0.000 C 
BRANCH  13  14
ATOM     14  C   UNL     1      42.028  12.748  16.180  1.00  0.00     0.000 C 
BRANCH  14  15
ATOM     15  C   UNL     1      41.574  12.591  17.644  1.00  0.00     0.000 C 
BRANCH  15  16
ATOM     16  C   UNL     1      40.816  13.798  18.227  1.00  0.00     0.000 C 
BRANCH  16  17
ATOM     17  C   UNL     1      39.363  13.485  18.647  1.00  0.00     0.000 C 
BRANCH  17  18
ATOM     18  C   UNL     1      38.328  14.302  17.855  1.00  0.00     0.000 C 
BRANCH  18  19
ATOM     19  C   UNL     1      38.121  13.774  16.423  1.00  0.00     0.000 C 
BRANCH  19  20
ATOM     20  C   UNL     1      38.330  14.818  15.304  1.00  0.00     0.006 C 
BRANCH  20  21
ATOM     21  C   UNL     1      38.837  16.187  15.791  1.00  0.00     0.053 C 
BRANCH  21  22
ATOM     22  C   UNL     1      40.311  16.349  15.577  1.00  0.00     0.041 C 
ATOM     23  O   UNL     1      40.914  15.619  14.746  1.00  0.00    -0.550 OA
ATOM     24  O   UNL     1      41.026  17.266  16.336  1.00  0.00    -0.550 OA
ENDBRANCH  21  22
ENDBRANCH  20  21
ENDBRANCH  19  20
ENDBRANCH  18  19
ENDBRANCH  17  18
ENDBRANCH  16  17
ENDBRANCH  15  16
ENDBRANCH  14  15
ENDBRANCH  13  14
ENDBRANCH   1  13
TORSDOF 20
ENDMDL
MODEL 2
REMARK VINA RESULT:    -2.829      2.330      5.716
REMARK INTER + INTRA:          -9.802
REMARK INTER:                  -6.100
REMARK INTRA:                  -3.702
REMARK UNBOUND:                -3.666
REMARK SMILES CCCCCCCCCCCCCCCCCCCCCC(=O)[O-]
REMARK SMILES IDX 12 1 11 2 10 3 9 4 8 5 7 6 6 7 5 8 4 9 3 10 2 11 1 12 13 13
REMARK SMILES IDX 14 14 15 15 16 16 17 17 18 18 19 19 20 20 21 21 22 22 23 23
REMARK SMILES IDX 24 24
REMARK H PARENT
REMARK Flexibility Score: inf
ROOT
ATOM      1  C   UNL     1      40.836  13.258  14.450  1.00  0.00     0.000 C 
ENDROOT
BRANCH   1   2
ATOM      2  C   UNL     1      41.577  12.027  14.992  1.00  0.00     0.000 C 
BRANCH   2   3
ATOM      3  C   UNL     1      42.338  12.368  16.281  1.00  0.00     0.000 C 
BRANCH   3   4
ATOM      4  C   UNL     1      41.812  11.543  17.465  1.00  0.00    -0.000 C 
BRANCH   4   5
ATOM      5  C   UNL     1      40.778  10.482  17.033  1.00  0.00    -0.000 C 
BRANCH   5   6
ATOM      6  C   UNL     1      39.576  10.359  17.985  1.00  0.00    -0.000 C 
BRANCH   6   7
ATOM      7  C   UNL     1      39.395  11.594  18.885  1.00  0.00    -0.000 C 
BRANCH   7   8
ATOM      8  C   UNL     1      38.109  12.373  18.567  1.00  0.00    -0.000 C 
BRANCH   8   9
ATOM      9  C   UNL     1      38.293  13.896  18.692  1.00  0.00    -0.000 C 
BRANCH   9  10
ATOM     10  C   UNL     1      39.781  14.295  18.783  1.00  0.00    -0.000 C 
BRANCH  10  11
ATOM     11  C   UNL     1      40.011  15.816  18.820  1.00  0.00    -0.003 C 
ATOM     12  C   UNL     1      40.599  16.367  17.523  1.00  0.00     0.004 C 
ENDBRANCH  10  11
ENDBRANCH   9  10
ENDBRANCH   8   9
ENDBRANCH   7   8
ENDBRANCH   6   7
ENDBRANCH   5   6
ENDBRANCH   4   5
ENDBRANCH   3   4
ENDBRANCH   2   3
ENDBRANCH   1   2
BRANCH   1  13
ATOM     13  C   UNL     1      39.563  13.591  15.249  1.00  0.00     0.000 C 
BRANCH  13  14
ATOM     14  C   UNL     1      38.248  13.072  14.630  1.00  0.00     0.000 C 
BRANCH  14  15
ATOM     15  C   UNL     1      37.875  11.624  15.000  1.00  0.00     0.000 C 
BRANCH  15  16
ATOM     16  C   UNL     1      38.273  10.558  13.961  1.00  0.00     0.000 C 
BRANCH  16  17
ATOM     17  C   UNL     1      38.172   9.107  14.478  1.00  0.00     0.000 C 
BRANCH  17  18
ATOM     18  C   UNL     1      38.805   8.089  13.514  1.00  0.00     0.000 C 
BRANCH  18  19
ATOM     19  C   UNL     1      39.037   8.667  12.105  1.00  0.00     0.000 C 
BRANCH  19  20
ATOM     20  C   UNL     1      40.513   8.722  11.655  1.00  0.00     0.006 C 
BRANCH  20  21
ATOM     21  C   UNL     1      41.178  10.102  11.805  1.00  0.00     0.053 C 
BRANCH  21  22
ATOM     22  C   UNL     1      40.494  11.148  10.979  1.00  0.00     0.041 C 
ATOM     23  O   UNL     1      39.802  12.042  11.535  1.00  0.00    -0.550 OA
ATOM     24  O   UNL     1      40.574  11.101   9.593  1.00  0.00    -0.550 OA
ENDBRANCH  21  22
ENDBRANCH  20  21
ENDBRANCH  19  20
ENDBRANCH  18  19
ENDBRANCH  17  18
ENDBRANCH  16  17
ENDBRANCH  15  16
ENDBRANCH  14  15
ENDBRANCH  13  14
ENDBRANCH   1  13
TORSDOF 20
ENDMDL
MODEL 3
REMARK VINA RESULT:    -2.636      1.593      2.509
REMARK INTER + INTRA:          -9.383
REMARK INTER:                  -5.989
REMARK INTRA:                  -3.395
REMARK UNBOUND:                -3.666
REMARK SMILES CCCCCCCCCCCCCCCCCCCCCC(=O)[O-]
REMARK SMILES IDX 12 1 11 2 10 3 9 4 8 5 7 6 6 7 5 8 4 9 3 10 2 11 1 12 13 13
REMARK SMILES IDX 14 14 15 15 16 16 17 17 18 18 19 19 20 20 21 21 22 22 23 23
REMARK SMILES IDX 24 24
REMARK H PARENT
REMARK Flexibility Score: inf
ROOT
ATOM      1  C   UNL     1      40.416  12.206  14.407  1.00  0.00     0.000 C 
ENDROOT
BRANCH   1   2
ATOM      2  C   UNL     1      41.290  12.111  13.147  1.00  0.00     0.000 C 
BRANCH   2   3
ATOM      3  C   UNL     1      41.035  10.795  12.401  1.00  0.00     0.000 C 
BRANCH   3   4
ATOM      4  C   UNL     1      39.533  10.481  12.336  1.00  0.00    -0.000 C 
BRANCH   4   5
ATOM      5  C   UNL     1      39.247   8.965  12.314  1.00  0.00    -0.000 C 
BRANCH   5   6
ATOM      6  C   UNL     1      38.503   8.453  13.560  1.00  0.00    -0.000 C 
BRANCH   6   7
ATOM      7  C   UNL     1      38.071   9.586  14.508  1.00  0.00    -0.000 C 
BRANCH   7   8
ATOM      8  C   UNL     1      38.162   9.183  15.989  1.00  0.00    -0.000 C 
BRANCH   8   9
ATOM      9  C   UNL     1      39.547   9.469  16.596  1.00  0.00    -0.000 C 
BRANCH   9  10
ATOM     10  C   UNL     1      39.457   9.858  18.088  1.00  0.00    -0.000 C 
BRANCH  10  11
ATOM     11  C   UNL     1      40.753  10.474  18.643  1.00  0.00    -0.003 C 
ATOM     12  C   UNL     1      41.749  10.864  17.553  1.00  0.00     0.004 C 
ENDBRANCH  10  11
ENDBRANCH   9  10
ENDBRANCH   8   9
ENDBRANCH   7   8
ENDBRANCH   6   7
ENDBRANCH   5   6
ENDBRANCH   4   5
ENDBRANCH   3   4
ENDBRANCH   2   3
ENDBRANCH   1   2
BRANCH   1  13
ATOM     13  C   UNL     1      39.709  13.566  14.544  1.00  0.00     0.000 C 
BRANCH  13  14
ATOM     14  C   UNL     1      38.257  13.500  15.063  1.00  0.00     0.000 C 
BRANCH  14  15
ATOM     15  C   UNL     1      38.085  12.846  16.447  1.00  0.00     0.000 C 
BRANCH  15  16
ATOM     16  C   UNL     1      38.016  13.828  17.632  1.00  0.00     0.000 C 
BRANCH  16  17
ATOM     17  C   UNL     1      39.196  13.705  18.621  1.00  0.00     0.000 C 
BRANCH  17  18
ATOM     18  C   UNL     1      40.502  14.294  18.060  1.00  0.00     0.000 C 
BRANCH  18  19
ATOM     19  C   UNL     1      41.137  15.336  18.998  1.00  0.00     0.000 C 
BRANCH  19  20
ATOM     20  C   UNL     1      40.547  16.759  18.890  1.00  0.00     0.006 C 
BRANCH  20  21
ATOM     21  C   UNL     1      40.544  17.346  17.467  1.00  0.00     0.053 C 
BRANCH  21  22
ATOM     22  C   UNL     1      39.159  17.659  16.990  1.00  0.00     0.041 C 
ATOM     23  O   UNL     1      38.582  16.894  16.173  1.00  0.00    -0.550 OA
ATOM     24  O   UNL     1      38.529  18.826  17.405  1.00  0.00    -0.550 OA
ENDBRANCH  21  22
ENDBRANCH  20  21
ENDBRANCH  19  20
ENDBRANCH  18  19
ENDBRANCH  17  18
ENDBRANCH  16  17
ENDBRANCH  15  16
ENDBRANCH  14  15
ENDBRANCH  13  14
ENDBRANCH   1  13
TORSDOF 20
ENDMDL
MODEL 4
REMARK VINA RESULT:    -2.547      1.592      2.695
REMARK INTER + INTRA:          -9.191
REMARK INTER:                  -5.865
REMARK INTRA:                  -3.325
REMARK UNBOUND:                -3.666
REMARK SMILES CCCCCCCCCCCCCCCCCCCCCC(=O)[O-]
REMARK SMILES IDX 12 1 11 2 10 3 9 4 8 5 7 6 6 7 5 8 4 9 3 10 2 11 1 12 13 13
REMARK SMILES IDX 14 14 15 15 16 16 17 17 18 18 19 19 20 20 21 21 22 22 23 23
REMARK SMILES IDX 24 24
REMARK H PARENT
REMARK Flexibility Score: inf
ROOT
ATOM      1  C   UNL     1      41.151  11.680  13.678  1.00  0.00     0.000 C 
ENDROOT
BRANCH   1   2
ATOM      2  C   UNL     1      40.723  10.950  12.396  1.00  0.00     0.000 C 
BRANCH   2   3
ATOM      3  C   UNL     1      39.624   9.921  12.692  1.00  0.00     0.000 C 
BRANCH   3   4
ATOM      4  C   UNL     1      38.776  10.352  13.898  1.00  0.00    -0.000 C 
BRANCH   4   5
ATOM      5  C   UNL     1      37.976   9.181  14.507  1.00  0.00    -0.000 C 
BRANCH   5   6
ATOM      6  C   UNL     1      38.203   8.990  16.016  1.00  0.00    -0.000 C 
BRANCH   6   7
ATOM      7  C   UNL     1      39.497   9.655  16.517  1.00  0.00    -0.000 C 
BRANCH   7   8
ATOM      8  C   UNL     1      39.440  10.004  18.012  1.00  0.00    -0.000 C 
BRANCH   8   9
ATOM      9  C   UNL     1      40.680  10.786  18.485  1.00  0.00    -0.000 C 
BRANCH   9  10
ATOM     10  C   UNL     1      41.771  10.858  17.395  1.00  0.00    -0.000 C 
BRANCH  10  11
ATOM     11  C   UNL     1      42.520  12.202  17.360  1.00  0.00    -0.003 C 
ATOM     12  C   UNL     1      43.111  12.596  18.712  1.00  0.00     0.004 C 
ENDBRANCH  10  11
ENDBRANCH   9  10
ENDBRANCH   8   9
ENDBRANCH   7   8
ENDBRANCH   6   7
ENDBRANCH   5   6
ENDBRANCH   4   5
ENDBRANCH   3   4
ENDBRANCH   2   3
ENDBRANCH   1   2
BRANCH   1  13
ATOM     13  C   UNL     1      41.129  13.213  13.530  1.00  0.00     0.000 C 
BRANCH  13  14
ATOM     14  C   UNL     1      40.009  13.930  14.314  1.00  0.00     0.000 C 
BRANCH  14  15
ATOM     15  C   UNL     1      39.651  13.298  15.673  1.00  0.00     0.000 C 
BRANCH  15  16
ATOM     16  C   UNL     1      38.401  13.882  16.358  1.00  0.00     0.000 C 
BRANCH  16  17
ATOM     17  C   UNL     1      38.189  13.388  17.806  1.00  0.00     0.000 C 
BRANCH  17  18
ATOM     18  C   UNL     1      38.642  14.418  18.855  1.00  0.00     0.000 C 
BRANCH  18  19
ATOM     19  C   UNL     1      40.168  14.434  19.054  1.00  0.00     0.000 C 
BRANCH  19  20
ATOM     20  C   UNL     1      40.818  15.835  19.023  1.00  0.00     0.006 C 
BRANCH  20  21
ATOM     21  C   UNL     1      39.818  17.004  19.001  1.00  0.00     0.053 C 
BRANCH  21  22
ATOM     22  C   UNL     1      39.801  17.704  17.676  1.00  0.00     0.041 C 
ATOM     23  O   UNL     1      40.827  17.703  16.946  1.00  0.00    -0.550 OA
ATOM     24  O   UNL     1      38.671  18.405  17.275  1.00  0.00    -0.550 OA
ENDBRANCH  21  22
ENDBRANCH  20  21
ENDBRANCH  19  20
ENDBRANCH  18  19
ENDBRANCH  17  18
ENDBRANCH  16  17
ENDBRANCH  15  16
ENDBRANCH  14  15
ENDBRANCH  13  14
ENDBRANCH   1  13
TORSDOF 20
ENDMDL
MODEL 5
REMARK VINA RESULT:    -2.416      2.216      4.550
REMARK INTER + INTRA:          -8.907
REMARK INTER:                  -6.604
REMARK INTRA:                  -2.303
REMARK UNBOUND:                -3.666
REMARK SMILES CCCCCCCCCCCCCCCCCCCCCC(=O)[O-]
REMARK SMILES IDX 12 1 11 2 10 3 9 4 8 5 7 6 6 7 5 8 4 9 3 10 2 11 1 12 13 13
REMARK SMILES IDX 14 14 15 15 16 16 17 17 18 18 19 19 20 20 21 21 22 22 23 23
REMARK SMILES IDX 24 24
REMARK H PARENT
REMARK Flexibility Score: inf
ROOT
ATOM      1  C   UNL     1      40.871  14.180  13.833  1.00  0.00     0.000 C 
ENDROOT
BRANCH   1   2
ATOM      2  C   UNL     1      39.781  13.104  13.715  1.00  0.00     0.000 C 
BRANCH   2   3
ATOM      3  C   UNL     1      40.135  11.871  14.556  1.00  0.00     0.000 C 
BRANCH   3   4
ATOM      4  C   UNL     1      38.991  11.514  15.517  1.00  0.00    -0.000 C 
BRANCH   4   5
ATOM      5  C   UNL     1      38.774   9.991  15.638  1.00  0.00    -0.000 C 
BRANCH   5   6
ATOM      6  C   UNL     1      37.875   9.400  14.538  1.00  0.00    -0.000 C 
BRANCH   6   7
ATOM      7  C   UNL     1      38.381   8.044  14.014  1.00  0.00    -0.000 C 
BRANCH   7   8
ATOM      8  C   UNL     1      39.262   8.187  12.762  1.00  0.00    -0.000 C 
BRANCH   8   9
ATOM      9  C   UNL     1      38.565   8.972  11.636  1.00  0.00    -0.000 C 
BRANCH   9  10
ATOM     10  C   UNL     1      39.038  10.440  11.572  1.00  0.00    -0.000 C 
BRANCH  10  11
ATOM     11  C   UNL     1      40.361  10.630  10.809  1.00  0.00    -0.003 C 
ATOM     12  C   UNL     1      41.595  10.385  11.674  1.00  0.00     0.004 C 
ENDBRANCH  10  11
ENDBRANCH   9  10
ENDBRANCH   8   9
ENDBRANCH   7   8
ENDBRANCH   6   7
ENDBRANCH   5   6
ENDBRANCH   4   5
ENDBRANCH   3   4
ENDBRANCH   2   3
ENDBRANCH   1   2
BRANCH   1  13
ATOM     13  C   UNL     1      40.782  14.981  15.145  1.00  0.00     0.000 C 
BRANCH  13  14
ATOM     14  C   UNL     1      39.623  15.998  15.214  1.00  0.00     0.000 C 
BRANCH  14  15
ATOM     15  C   UNL     1      38.405  15.549  16.042  1.00  0.00     0.000 C 
BRANCH  15  16
ATOM     16  C   UNL     1      38.080  16.432  17.262  1.00  0.00     0.000 C 
BRANCH  16  17
ATOM     17  C   UNL     1      39.315  17.112  17.893  1.00  0.00     0.000 C 
BRANCH  17  18
ATOM     18  C   UNL     1      39.842  16.357  19.125  1.00  0.00     0.000 C 
BRANCH  18  19
ATOM     19  C   UNL     1      41.113  15.540  18.824  1.00  0.00     0.000 C 
BRANCH  19  20
ATOM     20  C   UNL     1      40.921  14.007  18.825  1.00  0.00     0.006 C 
BRANCH  20  21
ATOM     21  C   UNL     1      42.228  13.198  18.763  1.00  0.00     0.053 C 
BRANCH  21  22
ATOM     22  C   UNL     1      42.225  12.211  17.635  1.00  0.00     0.041 C 
ATOM     23  O   UNL     1      42.499  12.586  16.464  1.00  0.00    -0.550 OA
ATOM     24  O   UNL     1      41.863  10.890  17.868  1.00  0.00    -0.550 OA
ENDBRANCH  21  22
ENDBRANCH  20  21
ENDBRANCH  19  20
ENDBRANCH  18  19
ENDBRANCH  17  18
ENDBRANCH  16  17
ENDBRANCH  15  16
ENDBRANCH  14  15
ENDBRANCH  13  14
ENDBRANCH   1  13
TORSDOF 20
ENDMDL
MODEL 6
REMARK VINA RESULT:    -2.376      1.831      6.057
REMARK INTER + INTRA:          -8.821
REMARK INTER:                  -6.393
REMARK INTRA:                  -2.428
REMARK UNBOUND:                -3.666
REMARK SMILES CCCCCCCCCCCCCCCCCCCCCC(=O)[O-]
REMARK SMILES IDX 12 1 11 2 10 3 9 4 8 5 7 6 6 7 5 8 4 9 3 10 2 11 1 12 13 13
REMARK SMILES IDX 14 14 15 15 16 16 17 17 18 18 19 19 20 20 21 21 22 22 23 23
REMARK SMILES IDX 24 24
REMARK H PARENT
REMARK Flexibility Score: inf
ROOT
ATOM      1  C   UNL     1      38.847   9.365  15.144  1.00  0.00     0.000 C 
ENDROOT
BRANCH   1   2
ATOM      2  C   UNL     1      38.328   8.772  16.462  1.00  0.00     0.000 C 
BRANCH   2   3
ATOM      3  C   UNL     1      38.676   9.682  17.647  1.00  0.00     0.000 C 
BRANCH   3   4
ATOM      4  C   UNL     1      39.435  10.932  17.177  1.00  0.00    -0.000 C 
BRANCH   4   5
ATOM      5  C   UNL     1      40.383  11.490  18.259  1.00  0.00    -0.000 C 
BRANCH   5   6
ATOM      6  C   UNL     1      39.817  12.701  19.021  1.00  0.00    -0.000 C 
BRANCH   6   7
ATOM      7  C   UNL     1      38.509  13.234  18.411  1.00  0.00    -0.000 C 
BRANCH   7   8
ATOM      8  C   UNL     1      38.181  14.662  18.875  1.00  0.00    -0.000 C 
BRANCH   8   9
ATOM      9  C   UNL     1      38.651  15.732  17.871  1.00  0.00    -0.000 C 
BRANCH   9  10
ATOM     10  C   UNL     1      38.982  17.072  18.563  1.00  0.00    -0.000 C 
BRANCH  10  11
ATOM     11  C   UNL     1      39.912  17.978  17.739  1.00  0.00    -0.003 C 
ATOM     12  C   UNL     1      41.358  17.960  18.228  1.00  0.00     0.004 C 
ENDBRANCH  10  11
ENDBRANCH   9  10
ENDBRANCH   8   9
ENDBRANCH   7   8
ENDBRANCH   6   7
ENDBRANCH   5   6
ENDBRANCH   4   5
ENDBRANCH   3   4
ENDBRANCH   2   3
ENDBRANCH   1   2
BRANCH   1  13
ATOM     13  C   UNL     1      37.875   9.154  13.969  1.00  0.00     0.000 C 
BRANCH  13  14
ATOM     14  C   UNL     1      38.338   8.127  12.913  1.00  0.00     0.000 C 
BRANCH  14  15
ATOM     15  C   UNL     1      39.863   7.967  12.778  1.00  0.00     0.000 C 
BRANCH  15  16
ATOM     16  C   UNL     1      40.488   8.652  11.548  1.00  0.00     0.000 C 
BRANCH  16  17
ATOM     17  C   UNL     1      40.938  10.108  11.799  1.00  0.00     0.000 C 
BRANCH  17  18
ATOM     18  C   UNL     1      39.964  11.140  11.205  1.00  0.00     0.000 C 
BRANCH  18  19
ATOM     19  C   UNL     1      39.789  12.379  12.101  1.00  0.00     0.000 C 
BRANCH  19  20
ATOM     20  C   UNL     1      40.063  12.145  13.603  1.00  0.00     0.006 C 
BRANCH  20  21
ATOM     21  C   UNL     1      39.733  13.344  14.509  1.00  0.00     0.053 C 
BRANCH  21  22
ATOM     22  C   UNL     1      40.923  13.796  15.300  1.00  0.00     0.041 C 
ATOM     23  O   UNL     1      40.993  14.983  15.716  1.00  0.00    -0.550 OA
ATOM     24  O   UNL     1      41.978  12.922  15.527  1.00  0.00    -0.550 OA
ENDBRANCH  21  22
ENDBRANCH  20  21
ENDBRANCH  19  20
ENDBRANCH  18  19
ENDBRANCH  17  18
ENDBRANCH  16  17
ENDBRANCH  15  16
ENDBRANCH  14  15
ENDBRANCH  13  14
ENDBRANCH   1  13
TORSDOF 20
ENDMDL
