MODEL 1
REMARK VINA RESULT:     0.331      0.000      0.000
REMARK INTER + INTRA:          -0.255
REMARK INTER:                   0.833
REMARK INTRA:                  -1.089
REMARK UNBOUND:                -1.089
REMARK SMILES CCCCCCCCCCCCCCCCCCCCCCCCCCCC(=O)[O-]
REMARK SMILES IDX 15 1 16 2 17 3 18 4 19 5 20 6 21 7 22 8 23 9 24 10 25 11
REMARK SMILES IDX 26 12 27 13 28 14 29 15 30 16 14 17 13 18 12 19 11 20 10 21
REMARK SMILES IDX 9 22 8 23 7 24 6 25 5 26 4 27 3 28 2 29 1 30
REMARK H PARENT
REMARK Flexibility Score: inf
ROOT
ATOM      1  C   UNL     1      -8.252   8.425   4.555  1.00  0.00     0.000 C 
ENDROOT
BRANCH   1   2
ATOM      2  C   UNL     1      -9.410   7.412   4.607  1.00  0.00     0.000 C 
BRANCH   2   3
ATOM      3  C   UNL     1     -10.050   7.306   6.002  1.00  0.00     0.000 C 
BRANCH   3   4
ATOM      4  C   UNL     1      -9.765   5.962   6.698  1.00  0.00     0.000 C 
BRANCH   4   5
ATOM      5  C   UNL     1      -8.379   5.844   7.372  1.00  0.00     0.000 C 
BRANCH   5   6
ATOM      6  C   UNL     1      -7.822   7.144   7.979  1.00  0.00     0.000 C 
BRANCH   6   7
ATOM      7  C   UNL     1      -8.346   7.417   9.398  1.00  0.00     0.000 C 
BRANCH   7   8
ATOM      8  C   UNL     1      -8.664   8.902   9.644  1.00  0.00     0.000 C 
BRANCH   8   9
ATOM      9  C   UNL     1      -7.417   9.806   9.723  1.00  0.00     0.000 C 
BRANCH   9  10
ATOM     10  C   UNL     1      -6.369   9.455   8.651  1.00  0.00     0.000 C 
BRANCH  10  11
ATOM     11  C   UNL     1      -4.927   9.728   9.126  1.00  0.00     0.000 C 
BRANCH  11  12
ATOM     12  C   UNL     1      -4.115   8.448   9.412  1.00  0.00     0.006 C 
BRANCH  12  13
ATOM     13  C   UNL     1      -4.493   7.248   8.532  1.00  0.00     0.053 C 
BRANCH  13  14
ATOM     14  C   UNL     1      -4.100   5.944   9.159  1.00  0.00     0.041 C 
ATOM     15  O   UNL     1      -2.944   5.793   9.636  1.00  0.00    -0.550 OA
ATOM     16  O   UNL     1      -5.012   4.898   9.224  1.00  0.00    -0.550 OA
ENDBRANCH  13  14
ENDBRANCH  12  13
ENDBRANCH  11  12
ENDBRANCH  10  11
ENDBRANCH   9  10
ENDBRANCH   8   9
ENDBRANCH   7   8
ENDBRANCH   6   7
ENDBRANCH   5   6
ENDBRANCH   4   5
ENDBRANCH   3   4
ENDBRANCH   2   3
ENDBRANCH   1   2
BRANCH   1  17
ATOM     17  C   UNL     1      -8.556   9.724   3.790  1.00  0.00     0.000 C 
BRANCH  17  18
ATOM     18  C   UNL     1      -8.323   9.600   2.277  1.00  0.00     0.000 C 
BRANCH  18  19
ATOM     19  C   UNL     1      -9.642   9.288   1.551  1.00  0.00     0.000 C 
BRANCH  19  20
ATOM     20  C   UNL     1      -9.438   8.874   0.082  1.00  0.00     0.000 C 
BRANCH  20  21
ATOM     21  C   UNL     1      -9.283  10.049  -0.905  1.00  0.00     0.000 C 
BRANCH  21  22
ATOM     22  C   UNL     1      -9.837   9.770  -2.321  1.00  0.00    -0.000 C 
BRANCH  22  23
ATOM     23  C   UNL     1     -10.122   8.280  -2.593  1.00  0.00    -0.000 C 
BRANCH  23  24
ATOM     24  C   UNL     1      -9.858   7.828  -4.042  1.00  0.00    -0.000 C 
BRANCH  24  25
ATOM     25  C   UNL     1     -10.093   6.327  -4.317  1.00  0.00    -0.000 C 
BRANCH  25  26
ATOM     26  C   UNL     1     -10.123   5.929  -5.803  1.00  0.00    -0.000 C 
BRANCH  26  27
ATOM     27  C   UNL     1      -9.735   4.462  -6.039  1.00  0.00    -0.000 C 
BRANCH  27  28
ATOM     28  C   UNL     1      -9.716   4.136  -7.538  1.00  0.00    -0.000 C 
BRANCH  28  29
ATOM     29  C   UNL     1      -9.859   5.407  -8.381  1.00  0.00    -0.003 C 
ATOM     30  C   UNL     1     -10.117   5.070  -9.845  1.00  0.00     0.004 C 
ENDBRANCH  28  29
ENDBRANCH  27  28
ENDBRANCH  26  27
ENDBRANCH  25  26
ENDBRANCH  24  25
ENDBRANCH  23  24
ENDBRANCH  22  23
ENDBRANCH  21  22
ENDBRANCH  20  21
ENDBRANCH  19  20
ENDBRANCH  18  19
ENDBRANCH  17  18
ENDBRANCH   1  17
TORSDOF 26
ENDMDL
MODEL 2
REMARK VINA RESULT:     1.739      5.452     10.992
REMARK INTER + INTRA:           3.294
REMARK INTER:                   5.142
REMARK INTRA:                  -1.847
REMARK UNBOUND:                -1.089
REMARK SMILES CCCCCCCCCCCCCCCCCCCCCCCCCCCC(=O)[O-]
REMARK SMILES IDX 15 1 16 2 17 3 18 4 19 5 20 6 21 7 22 8 23 9 24 10 25 11
REMARK SMILES IDX 26 12 27 13 28 14 29 15 30 16 14 17 13 18 12 19 11 20 10 21
REMARK SMILES IDX 9 22 8 23 7 24 6 25 5 26 4 27 3 28 2 29 1 30
REMARK H PARENT
REMARK Flexibility Score: inf
ROOT
ATOM      1  C   UNL     1      -8.699   9.580   5.101  1.00  0.00     0.000 C 
ENDROOT
BRANCH   1   2
ATOM      2  C   UNL     1      -9.138   9.479   3.629  1.00  0.00     0.000 C 
BRANCH   2   3
ATOM      3  C   UNL     1      -7.956   9.552   2.646  1.00  0.00     0.000 C 
BRANCH   3   4
ATOM      4  C   UNL     1      -7.270   8.192   2.424  1.00  0.00     0.000 C 
BRANCH   4   5
ATOM      5  C   UNL     1      -5.735   8.184   2.605  1.00  0.00     0.000 C 
BRANCH   5   6
ATOM      6  C   UNL     1      -4.952   7.317   1.602  1.00  0.00     0.000 C 
BRANCH   6   7
ATOM      7  C   UNL     1      -3.559   6.916   2.113  1.00  0.00     0.000 C 
BRANCH   7   8
ATOM      8  C   UNL     1      -2.841   5.925   1.180  1.00  0.00     0.000 C 
BRANCH   8   9
ATOM      9  C   UNL     1      -2.331   4.654   1.889  1.00  0.00     0.000 C 
BRANCH   9  10
ATOM     10  C   UNL     1      -1.658   3.670   0.915  1.00  0.00     0.000 C 
BRANCH  10  11
ATOM     11  C   UNL     1      -0.286   3.181   1.426  1.00  0.00     0.000 C 
BRANCH  11  12
ATOM     12  C   UNL     1       0.885   4.111   1.049  1.00  0.00     0.006 C 
BRANCH  12  13
ATOM     13  C   UNL     1       1.053   5.325   1.976  1.00  0.00     0.053 C 
BRANCH  13  14
ATOM     14  C   UNL     1       1.116   4.927   3.420  1.00  0.00     0.041 C 
ATOM     15  O   UNL     1       1.096   3.710   3.743  1.00  0.00    -0.550 OA
ATOM     16  O   UNL     1       1.206   5.900   4.408  1.00  0.00    -0.550 OA
ENDBRANCH  13  14
ENDBRANCH  12  13
ENDBRANCH  11  12
ENDBRANCH  10  11
ENDBRANCH   9  10
ENDBRANCH   8   9
ENDBRANCH   7   8
ENDBRANCH   6   7
ENDBRANCH   5   6
ENDBRANCH   4   5
ENDBRANCH   3   4
ENDBRANCH   2   3
ENDBRANCH   1   2
BRANCH   1  17
ATOM     17  C   UNL     1      -8.526   8.234   5.824  1.00  0.00     0.000 C 
BRANCH  17  18
ATOM     18  C   UNL     1      -9.783   7.796   6.589  1.00  0.00     0.000 C 
BRANCH  18  19
ATOM     19  C   UNL     1      -9.649   6.339   7.061  1.00  0.00     0.000 C 
BRANCH  19  20
ATOM     20  C   UNL     1      -8.274   6.031   7.683  1.00  0.00     0.000 C 
BRANCH  20  21
ATOM     21  C   UNL     1      -8.250   6.020   9.224  1.00  0.00     0.000 C 
BRANCH  21  22
ATOM     22  C   UNL     1      -9.476   6.692   9.885  1.00  0.00    -0.000 C 
BRANCH  22  23
ATOM     23  C   UNL     1      -9.382   8.229   9.949  1.00  0.00    -0.000 C 
BRANCH  23  24
ATOM     24  C   UNL     1      -7.954   8.781  10.125  1.00  0.00    -0.000 C 
BRANCH  24  25
ATOM     25  C   UNL     1      -7.483   9.752   9.022  1.00  0.00    -0.000 C 
BRANCH  25  26
ATOM     26  C   UNL     1      -6.094   9.450   8.432  1.00  0.00    -0.000 C 
BRANCH  26  27
ATOM     27  C   UNL     1      -4.952   9.708   9.425  1.00  0.00    -0.000 C 
BRANCH  27  28
ATOM     28  C   UNL     1      -4.168   8.419   9.704  1.00  0.00    -0.000 C 
BRANCH  28  29
ATOM     29  C   UNL     1      -4.968   7.184   9.277  1.00  0.00    -0.003 C 
ATOM     30  C   UNL     1      -4.044   6.040   8.878  1.00  0.00     0.004 C 
ENDBRANCH  28  29
ENDBRANCH  27  28
ENDBRANCH  26  27
ENDBRANCH  25  26
ENDBRANCH  24  25
ENDBRANCH  23  24
ENDBRANCH  22  23
ENDBRANCH  21  22
ENDBRANCH  20  21
ENDBRANCH  19  20
ENDBRANCH  18  19
ENDBRANCH  17  18
ENDBRANCH   1  17
TORSDOF 26
ENDMDL
MODEL 3
REMARK VINA RESULT:     1.919      5.202     10.678
REMARK INTER + INTRA:           3.747
REMARK INTER:                   5.270
REMARK INTRA:                  -1.523
REMARK UNBOUND:                -1.089
REMARK SMILES CCCCCCCCCCCCCCCCCCCCCCCCCCCC(=O)[O-]
REMARK SMILES IDX 15 1 16 2 17 3 18 4 19 5 20 6 21 7 22 8 23 9 24 10 25 11
REMARK SMILES IDX 26 12 27 13 28 14 29 15 30 16 14 17 13 18 12 19 11 20 10 21
REMARK SMILES IDX 9 22 8 23 7 24 6 25 5 26 4 27 3 28 2 29 1 30
REMARK H PARENT
REMARK Flexibility Score: inf
ROOT
ATOM      1  C   UNL     1      -9.017   8.871   4.669  1.00  0.00     0.000 C 
ENDROOT
BRANCH   1   2
ATOM      2  C   UNL     1      -9.493  10.125   3.913  1.00  0.00     0.000 C 
BRANCH   2   3
ATOM      3  C   UNL     1      -9.820   9.844   2.436  1.00  0.00     0.000 C 
BRANCH   3   4
ATOM      4  C   UNL     1      -8.567   9.611   1.573  1.00  0.00     0.000 C 
BRANCH   4   5
ATOM      5  C   UNL     1      -7.719   8.375   1.950  1.00  0.00     0.000 C 
BRANCH   5   6
ATOM      6  C   UNL     1      -6.194   8.589   1.943  1.00  0.00     0.000 C 
BRANCH   6   7
ATOM      7  C   UNL     1      -5.425   7.452   2.634  1.00  0.00     0.000 C 
BRANCH   7   8
ATOM      8  C   UNL     1      -4.005   7.261   2.073  1.00  0.00     0.000 C 
BRANCH   8   9
ATOM      9  C   UNL     1      -3.697   5.819   1.622  1.00  0.00     0.000 C 
BRANCH   9  10
ATOM     10  C   UNL     1      -2.186   5.551   1.506  1.00  0.00     0.000 C 
BRANCH  10  11
ATOM     11  C   UNL     1      -1.833   4.064   1.722  1.00  0.00     0.000 C 
BRANCH  11  12
ATOM     12  C   UNL     1      -0.425   3.681   1.223  1.00  0.00     0.006 C 
BRANCH  12  13
ATOM     13  C   UNL     1       0.617   4.803   1.344  1.00  0.00     0.053 C 
BRANCH  13  14
ATOM     14  C   UNL     1       1.100   4.975   2.753  1.00  0.00     0.041 C 
ATOM     15  O   UNL     1       1.836   5.950   3.056  1.00  0.00    -0.550 OA
ATOM     16  O   UNL     1       0.729   4.063   3.734  1.00  0.00    -0.550 OA
ENDBRANCH  13  14
ENDBRANCH  12  13
ENDBRANCH  11  12
ENDBRANCH  10  11
ENDBRANCH   9  10
ENDBRANCH   8   9
ENDBRANCH   7   8
ENDBRANCH   6   7
ENDBRANCH   5   6
ENDBRANCH   4   5
ENDBRANCH   3   4
ENDBRANCH   2   3
ENDBRANCH   1   2
BRANCH   1  17
ATOM     17  C   UNL     1     -10.095   7.797   4.894  1.00  0.00     0.000 C 
BRANCH  17  18
ATOM     18  C   UNL     1      -9.535   6.501   5.498  1.00  0.00     0.000 C 
BRANCH  18  19
ATOM     19  C   UNL     1      -8.973   6.759   6.906  1.00  0.00     0.000 C 
BRANCH  19  20
ATOM     20  C   UNL     1     -10.058   7.162   7.923  1.00  0.00     0.000 C 
BRANCH  20  21
ATOM     21  C   UNL     1     -10.047   8.651   8.322  1.00  0.00     0.000 C 
BRANCH  21  22
ATOM     22  C   UNL     1      -8.753   9.405   7.939  1.00  0.00    -0.000 C 
BRANCH  22  23
ATOM     23  C   UNL     1      -7.912   9.848   9.151  1.00  0.00    -0.000 C 
BRANCH  23  24
ATOM     24  C   UNL     1      -6.393   9.909   8.895  1.00  0.00    -0.000 C 
BRANCH  24  25
ATOM     25  C   UNL     1      -5.507   9.504  10.092  1.00  0.00    -0.000 C 
BRANCH  25  26
ATOM     26  C   UNL     1      -4.931   8.078  10.029  1.00  0.00    -0.000 C 
BRANCH  26  27
ATOM     27  C   UNL     1      -6.012   6.991  10.119  1.00  0.00    -0.000 C 
BRANCH  27  28
ATOM     28  C   UNL     1      -5.622   5.760   9.291  1.00  0.00    -0.000 C 
BRANCH  28  29
ATOM     29  C   UNL     1      -6.401   4.521   9.745  1.00  0.00    -0.003 C 
ATOM     30  C   UNL     1      -7.891   4.676   9.464  1.00  0.00     0.004 C 
ENDBRANCH  28  29
ENDBRANCH  27  28
ENDBRANCH  26  27
ENDBRANCH  25  26
ENDBRANCH  24  25
ENDBRANCH  23  24
ENDBRANCH  22  23
ENDBRANCH  21  22
ENDBRANCH  20  21
ENDBRANCH  19  20
ENDBRANCH  18  19
ENDBRANCH  17  18
ENDBRANCH   1  17
TORSDOF 26
ENDMDL
MODEL 4
REMARK VINA RESULT:     2.202      5.518     10.675
REMARK INTER + INTRA:           4.461
REMARK INTER:                   6.522
REMARK INTRA:                  -2.061
REMARK UNBOUND:                -1.089
REMARK SMILES CCCCCCCCCCCCCCCCCCCCCCCCCCCC(=O)[O-]
REMARK SMILES IDX 15 1 16 2 17 3 18 4 19 5 20 6 21 7 22 8 23 9 24 10 25 11
REMARK SMILES IDX 26 12 27 13 28 14 29 15 30 16 14 17 13 18 12 19 11 20 10 21
REMARK SMILES IDX 9 22 8 23 7 24 6 25 5 26 4 27 3 28 2 29 1 30
REMARK H PARENT
REMARK Flexibility Score: inf
ROOT
ATOM      1  C   UNL     1      -9.237   7.157   5.238  1.00  0.00     0.000 C 
ENDROOT
BRANCH   1   2
ATOM      2  C   UNL     1      -8.477   8.409   4.766  1.00  0.00     0.000 C 
BRANCH   2   3
ATOM      3  C   UNL     1      -9.168   9.119   3.589  1.00  0.00     0.000 C 
BRANCH   3   4
ATOM      4  C   UNL     1      -8.347   9.073   2.287  1.00  0.00     0.000 C 
BRANCH   4   5
ATOM      5  C   UNL     1      -7.053   8.230   2.348  1.00  0.00     0.000 C 
BRANCH   5   6
ATOM      6  C   UNL     1      -5.758   9.018   2.616  1.00  0.00     0.000 C 
BRANCH   6   7
ATOM      7  C   UNL     1      -4.523   8.390   1.951  1.00  0.00     0.000 C 
BRANCH   7   8
ATOM      8  C   UNL     1      -4.194   6.991   2.500  1.00  0.00     0.000 C 
BRANCH   8   9
ATOM      9  C   UNL     1      -2.894   6.385   1.933  1.00  0.00     0.000 C 
BRANCH   9  10
ATOM     10  C   UNL     1      -3.036   4.886   1.614  1.00  0.00     0.000 C 
BRANCH  10  11
ATOM     11  C   UNL     1      -1.922   4.376   0.675  1.00  0.00     0.000 C 
BRANCH  11  12
ATOM     12  C   UNL     1      -0.797   3.612   1.403  1.00  0.00     0.006 C 
BRANCH  12  13
ATOM     13  C   UNL     1       0.585   4.275   1.307  1.00  0.00     0.053 C 
BRANCH  13  14
ATOM     14  C   UNL     1       1.059   4.784   2.635  1.00  0.00     0.041 C 
ATOM     15  O   UNL     1       1.439   5.979   2.756  1.00  0.00    -0.550 OA
ATOM     16  O   UNL     1       1.074   3.943   3.740  1.00  0.00    -0.550 OA
ENDBRANCH  13  14
ENDBRANCH  12  13
ENDBRANCH  11  12
ENDBRANCH  10  11
ENDBRANCH   9  10
ENDBRANCH   8   9
ENDBRANCH   7   8
ENDBRANCH   6   7
ENDBRANCH   5   6
ENDBRANCH   4   5
ENDBRANCH   3   4
ENDBRANCH   2   3
ENDBRANCH   1   2
BRANCH   1  17
ATOM     17  C   UNL     1      -9.923   7.289   6.608  1.00  0.00     0.000 C 
BRANCH  17  18
ATOM     18  C   UNL     1      -9.940   8.730   7.136  1.00  0.00     0.000 C 
BRANCH  18  19
ATOM     19  C   UNL     1      -9.731   8.751   8.659  1.00  0.00     0.000 C 
BRANCH  19  20
ATOM     20  C   UNL     1      -8.873   9.939   9.134  1.00  0.00     0.000 C 
BRANCH  20  21
ATOM     21  C   UNL     1      -7.625   9.549   9.951  1.00  0.00     0.000 C 
BRANCH  21  22
ATOM     22  C   UNL     1      -6.336   9.393   9.112  1.00  0.00    -0.000 C 
BRANCH  22  23
ATOM     23  C   UNL     1      -6.484   8.428   7.921  1.00  0.00    -0.000 C 
BRANCH  23  24
ATOM     24  C   UNL     1      -6.714   6.954   8.309  1.00  0.00    -0.000 C 
BRANCH  24  25
ATOM     25  C   UNL     1      -6.166   6.545   9.693  1.00  0.00    -0.000 C 
BRANCH  25  26
ATOM     26  C   UNL     1      -6.376   5.067  10.070  1.00  0.00    -0.000 C 
BRANCH  26  27
ATOM     27  C   UNL     1      -7.362   4.346   9.140  1.00  0.00    -0.000 C 
BRANCH  27  28
ATOM     28  C   UNL     1      -8.265   3.393   9.934  1.00  0.00    -0.000 C 
BRANCH  28  29
ATOM     29  C   UNL     1      -9.686   3.953  10.056  1.00  0.00    -0.003 C 
ATOM     30  C   UNL     1      -9.691   5.473   9.931  1.00  0.00     0.004 C 
ENDBRANCH  28  29
ENDBRANCH  27  28
ENDBRANCH  26  27
ENDBRANCH  25  26
ENDBRANCH  24  25
ENDBRANCH  23  24
ENDBRANCH  22  23
ENDBRANCH  21  22
ENDBRANCH  20  21
ENDBRANCH  19  20
ENDBRANCH  18  19
ENDBRANCH  17  18
ENDBRANCH   1  17
TORSDOF 26
ENDMDL
MODEL 5
REMARK VINA RESULT:     2.566      7.949     12.255
REMARK INTER + INTRA:           5.377
REMARK INTER:                   7.235
REMARK INTRA:                  -1.858
REMARK UNBOUND:                -1.089
REMARK SMILES CCCCCCCCCCCCCCCCCCCCCCCCCCCC(=O)[O-]
REMARK SMILES IDX 15 1 16 2 17 3 18 4 19 5 20 6 21 7 22 8 23 9 24 10 25 11
REMARK SMILES IDX 26 12 27 13 28 14 29 15 30 16 14 17 13 18 12 19 11 20 10 21
REMARK SMILES IDX 9 22 8 23 7 24 6 25 5 26 4 27 3 28 2 29 1 30
REMARK H PARENT
REMARK Flexibility Score: inf
ROOT
ATOM      1  C   UNL     1      -5.834   8.599   2.629  1.00  0.00     0.000 C 
ENDROOT
BRANCH   1   2
ATOM      2  C   UNL     1      -5.442   7.168   2.218  1.00  0.00     0.000 C 
BRANCH   2   3
ATOM      3  C   UNL     1      -3.951   7.036   1.862  1.00  0.00     0.000 C 
BRANCH   3   4
ATOM      4  C   UNL     1      -3.428   5.591   1.973  1.00  0.00     0.000 C 
BRANCH   4   5
ATOM      5  C   UNL     1      -2.222   5.249   1.069  1.00  0.00     0.000 C 
BRANCH   5   6
ATOM      6  C   UNL     1      -1.410   4.009   1.486  1.00  0.00     0.000 C 
BRANCH   6   7
ATOM      7  C   UNL     1       0.099   4.171   1.247  1.00  0.00     0.000 C 
BRANCH   7   8
ATOM      8  C   UNL     1       0.740   2.929   0.602  1.00  0.00     0.000 C 
BRANCH   8   9
ATOM      9  C   UNL     1       1.359   3.192  -0.786  1.00  0.00     0.000 C 
BRANCH   9  10
ATOM     10  C   UNL     1       2.264   2.038  -1.252  1.00  0.00     0.000 C 
BRANCH  10  11
ATOM     11  C   UNL     1       2.071   0.760  -0.409  1.00  0.00     0.000 C 
BRANCH  11  12
ATOM     12  C   UNL     1       3.387   0.025  -0.083  1.00  0.00     0.006 C 
BRANCH  12  13
ATOM     13  C   UNL     1       3.639  -1.230  -0.932  1.00  0.00     0.053 C 
BRANCH  13  14
ATOM     14  C   UNL     1       2.425  -2.106  -1.017  1.00  0.00     0.041 C 
ATOM     15  O   UNL     1       1.803  -2.430   0.030  1.00  0.00    -0.550 OA
ATOM     16  O   UNL     1       1.975  -2.558  -2.251  1.00  0.00    -0.550 OA
ENDBRANCH  13  14
ENDBRANCH  12  13
ENDBRANCH  11  12
ENDBRANCH  10  11
ENDBRANCH   9  10
ENDBRANCH   8   9
ENDBRANCH   7   8
ENDBRANCH   6   7
ENDBRANCH   5   6
ENDBRANCH   4   5
ENDBRANCH   3   4
ENDBRANCH   2   3
ENDBRANCH   1   2
BRANCH   1  17
ATOM     17  C   UNL     1      -7.347   8.874   2.669  1.00  0.00     0.000 C 
BRANCH  17  18
ATOM     18  C   UNL     1      -7.819   9.442   4.016  1.00  0.00     0.000 C 
BRANCH  18  19
ATOM     19  C   UNL     1      -9.350   9.355   4.131  1.00  0.00     0.000 C 
BRANCH  19  20
ATOM     20  C   UNL     1      -9.878   7.910   4.068  1.00  0.00     0.000 C 
BRANCH  20  21
ATOM     21  C   UNL     1      -9.363   6.984   5.188  1.00  0.00     0.000 C 
BRANCH  21  22
ATOM     22  C   UNL     1      -9.745   7.437   6.616  1.00  0.00    -0.000 C 
BRANCH  22  23
ATOM     23  C   UNL     1      -9.209   6.512   7.724  1.00  0.00    -0.000 C 
BRANCH  23  24
ATOM     24  C   UNL     1      -7.836   5.877   7.427  1.00  0.00    -0.000 C 
BRANCH  24  25
ATOM     25  C   UNL     1      -7.127   5.243   8.643  1.00  0.00    -0.000 C 
BRANCH  25  26
ATOM     26  C   UNL     1      -6.392   6.234   9.563  1.00  0.00    -0.000 C 
BRANCH  26  27
ATOM     27  C   UNL     1      -5.330   7.062   8.826  1.00  0.00    -0.000 C 
BRANCH  27  28
ATOM     28  C   UNL     1      -5.122   8.419   9.511  1.00  0.00    -0.000 C 
BRANCH  28  29
ATOM     29  C   UNL     1      -6.054   9.482   8.920  1.00  0.00    -0.003 C 
ATOM     30  C   UNL     1      -6.358   9.195   7.454  1.00  0.00     0.004 C 
ENDBRANCH  28  29
ENDBRANCH  27  28
ENDBRANCH  26  27
ENDBRANCH  25  26
ENDBRANCH  24  25
ENDBRANCH  23  24
ENDBRANCH  22  23
ENDBRANCH  21  22
ENDBRANCH  20  21
ENDBRANCH  19  20
ENDBRANCH  18  19
ENDBRANCH  17  18
ENDBRANCH   1  17
TORSDOF 26
ENDMDL
MODEL 6
REMARK VINA RESULT:     2.650      7.191     11.976
REMARK INTER + INTRA:           5.589
REMARK INTER:                   7.376
REMARK INTRA:                  -1.787
REMARK UNBOUND:                -1.089
REMARK SMILES CCCCCCCCCCCCCCCCCCCCCCCCCCCC(=O)[O-]
REMARK SMILES IDX 15 1 16 2 17 3 18 4 19 5 20 6 21 7 22 8 23 9 24 10 25 11
REMARK SMILES IDX 26 12 27 13 28 14 29 15 30 16 14 17 13 18 12 19 11 20 10 21
REMARK SMILES IDX 9 22 8 23 7 24 6 25 5 26 4 27 3 28 2 29 1 30
REMARK H PARENT
REMARK Flexibility Score: inf
ROOT
ATOM      1  C   UNL     1      -7.190   9.115   4.173  1.00  0.00     0.000 C 
ENDROOT
BRANCH   1   2
ATOM      2  C   UNL     1      -6.192   9.236   3.007  1.00  0.00     0.000 C 
BRANCH   2   3
ATOM      3  C   UNL     1      -5.863   7.879   2.360  1.00  0.00     0.000 C 
BRANCH   3   4
ATOM      4  C   UNL     1      -4.350   7.608   2.261  1.00  0.00     0.000 C 
BRANCH   4   5
ATOM      5  C   UNL     1      -3.956   6.273   1.589  1.00  0.00     0.000 C 
BRANCH   5   6
ATOM      6  C   UNL     1      -2.490   5.842   1.778  1.00  0.00     0.000 C 
BRANCH   6   7
ATOM      7  C   UNL     1      -2.085   4.674   0.865  1.00  0.00     0.000 C 
BRANCH   7   8
ATOM      8  C   UNL     1      -1.033   3.750   1.504  1.00  0.00     0.000 C 
BRANCH   8   9
ATOM      9  C   UNL     1       0.422   4.115   1.146  1.00  0.00     0.000 C 
BRANCH   9  10
ATOM     10  C   UNL     1       1.025   3.161   0.099  1.00  0.00     0.000 C 
BRANCH  10  11
ATOM     11  C   UNL     1       1.542   1.849   0.727  1.00  0.00     0.000 C 
BRANCH  11  12
ATOM     12  C   UNL     1       2.341   0.964  -0.252  1.00  0.00     0.006 C 
BRANCH  12  13
ATOM     13  C   UNL     1       3.107  -0.187   0.416  1.00  0.00     0.053 C 
BRANCH  13  14
ATOM     14  C   UNL     1       3.307  -1.346  -0.514  1.00  0.00     0.041 C 
ATOM     15  O   UNL     1       4.457  -1.828  -0.687  1.00  0.00    -0.550 OA
ATOM     16  O   UNL     1       2.222  -1.899  -1.182  1.00  0.00    -0.550 OA
ENDBRANCH  13  14
ENDBRANCH  12  13
ENDBRANCH  11  12
ENDBRANCH  10  11
ENDBRANCH   9  10
ENDBRANCH   8   9
ENDBRANCH   7   8
ENDBRANCH   6   7
ENDBRANCH   5   6
ENDBRANCH   4   5
ENDBRANCH   3   4
ENDBRANCH   2   3
ENDBRANCH   1   2
BRANCH   1  17
ATOM     17  C   UNL     1      -8.671   9.078   3.763  1.00  0.00     0.000 C 
BRANCH  17  18
ATOM     18  C   UNL     1      -9.251   7.657   3.729  1.00  0.00     0.000 C 
BRANCH  18  19
ATOM     19  C   UNL     1     -10.037   7.363   5.018  1.00  0.00     0.000 C 
BRANCH  19  20
ATOM     20  C   UNL     1      -9.238   6.527   6.034  1.00  0.00     0.000 C 
BRANCH  20  21
ATOM     21  C   UNL     1      -9.107   7.162   7.433  1.00  0.00     0.000 C 
BRANCH  21  22
ATOM     22  C   UNL     1      -9.021   8.705   7.427  1.00  0.00    -0.000 C 
BRANCH  22  23
ATOM     23  C   UNL     1      -8.714   9.315   8.808  1.00  0.00    -0.000 C 
BRANCH  23  24
ATOM     24  C   UNL     1      -7.223   9.319   9.195  1.00  0.00    -0.000 C 
BRANCH  24  25
ATOM     25  C   UNL     1      -6.253   8.863   8.084  1.00  0.00    -0.000 C 
BRANCH  25  26
ATOM     26  C   UNL     1      -4.885   8.357   8.575  1.00  0.00    -0.000 C 
BRANCH  26  27
ATOM     27  C   UNL     1      -4.972   7.592   9.904  1.00  0.00    -0.000 C 
BRANCH  27  28
ATOM     28  C   UNL     1      -4.990   6.077   9.664  1.00  0.00    -0.000 C 
BRANCH  28  29
ATOM     29  C   UNL     1      -6.373   5.609   9.200  1.00  0.00    -0.003 C 
ATOM     30  C   UNL     1      -6.781   4.319   9.902  1.00  0.00     0.004 C 
ENDBRANCH  28  29
ENDBRANCH  27  28
ENDBRANCH  26  27
ENDBRANCH  25  26
ENDBRANCH  24  25
ENDBRANCH  23  24
ENDBRANCH  22  23
ENDBRANCH  21  22
ENDBRANCH  20  21
ENDBRANCH  19  20
ENDBRANCH  18  19
ENDBRANCH  17  18
ENDBRANCH   1  17
TORSDOF 26
ENDMDL
MODEL 7
REMARK VINA RESULT:     2.663      7.778     12.157
REMARK INTER + INTRA:           5.622
REMARK INTER:                   7.772
REMARK INTRA:                  -2.150
REMARK UNBOUND:                -1.089
REMARK SMILES CCCCCCCCCCCCCCCCCCCCCCCCCCCC(=O)[O-]
REMARK SMILES IDX 15 1 16 2 17 3 18 4 19 5 20 6 21 7 22 8 23 9 24 10 25 11
REMARK SMILES IDX 26 12 27 13 28 14 29 15 30 16 14 17 13 18 12 19 11 20 10 21
REMARK SMILES IDX 9 22 8 23 7 24 6 25 5 26 4 27 3 28 2 29 1 30
REMARK H PARENT
REMARK Flexibility Score: inf
ROOT
ATOM      1  C   UNL     1      -6.216   8.956   3.062  1.00  0.00     0.000 C 
ENDROOT
BRANCH   1   2
ATOM      2  C   UNL     1      -5.845   7.667   2.305  1.00  0.00     0.000 C 
BRANCH   2   3
ATOM      3  C   UNL     1      -4.325   7.448   2.207  1.00  0.00     0.000 C 
BRANCH   3   4
ATOM      4  C   UNL     1      -3.949   6.049   1.686  1.00  0.00     0.000 C 
BRANCH   4   5
ATOM      5  C   UNL     1      -2.434   5.785   1.524  1.00  0.00     0.000 C 
BRANCH   5   6
ATOM      6  C   UNL     1      -2.048   4.341   1.155  1.00  0.00     0.000 C 
BRANCH   6   7
ATOM      7  C   UNL     1      -0.783   3.854   1.880  1.00  0.00     0.000 C 
BRANCH   7   8
ATOM      8  C   UNL     1       0.500   4.077   1.060  1.00  0.00     0.000 C 
BRANCH   8   9
ATOM      9  C   UNL     1       1.107   2.783   0.480  1.00  0.00     0.000 C 
BRANCH   9  10
ATOM     10  C   UNL     1       1.376   2.888  -1.032  1.00  0.00     0.000 C 
BRANCH  10  11
ATOM     11  C   UNL     1       2.234   1.719  -1.560  1.00  0.00     0.000 C 
BRANCH  11  12
ATOM     12  C   UNL     1       2.436   0.584  -0.535  1.00  0.00     0.006 C 
BRANCH  12  13
ATOM     13  C   UNL     1       3.672  -0.291  -0.794  1.00  0.00     0.053 C 
BRANCH  13  14
ATOM     14  C   UNL     1       3.329  -1.749  -0.847  1.00  0.00     0.041 C 
ATOM     15  O   UNL     1       4.035  -2.589  -0.228  1.00  0.00    -0.550 OA
ATOM     16  O   UNL     1       2.225  -2.181  -1.571  1.00  0.00    -0.550 OA
ENDBRANCH  13  14
ENDBRANCH  12  13
ENDBRANCH  11  12
ENDBRANCH  10  11
ENDBRANCH   9  10
ENDBRANCH   8   9
ENDBRANCH   7   8
ENDBRANCH   6   7
ENDBRANCH   5   6
ENDBRANCH   4   5
ENDBRANCH   3   4
ENDBRANCH   2   3
ENDBRANCH   1   2
BRANCH   1  17
ATOM     17  C   UNL     1      -7.724   9.192   3.247  1.00  0.00     0.000 C 
BRANCH  17  18
ATOM     18  C   UNL     1      -8.539   7.891   3.260  1.00  0.00     0.000 C 
BRANCH  18  19
ATOM     19  C   UNL     1      -8.851   7.462   4.703  1.00  0.00     0.000 C 
BRANCH  19  20
ATOM     20  C   UNL     1      -9.781   8.446   5.437  1.00  0.00     0.000 C 
BRANCH  20  21
ATOM     21  C   UNL     1      -9.276   8.903   6.819  1.00  0.00     0.000 C 
BRANCH  21  22
ATOM     22  C   UNL     1      -8.135   9.946   6.768  1.00  0.00    -0.000 C 
BRANCH  22  23
ATOM     23  C   UNL     1      -6.731   9.338   6.954  1.00  0.00    -0.000 C 
BRANCH  23  24
ATOM     24  C   UNL     1      -6.270   9.216   8.419  1.00  0.00    -0.000 C 
BRANCH  24  25
ATOM     25  C   UNL     1      -4.927   8.484   8.628  1.00  0.00    -0.000 C 
BRANCH  25  26
ATOM     26  C   UNL     1      -4.923   7.429   9.750  1.00  0.00    -0.000 C 
BRANCH  26  27
ATOM     27  C   UNL     1      -5.160   6.004   9.232  1.00  0.00    -0.000 C 
BRANCH  27  28
ATOM     28  C   UNL     1      -6.327   5.339   9.973  1.00  0.00    -0.000 C 
BRANCH  28  29
ATOM     29  C   UNL     1      -7.390   4.837   8.990  1.00  0.00    -0.003 C 
ATOM     30  C   UNL     1      -7.494   5.754   7.777  1.00  0.00     0.004 C 
ENDBRANCH  28  29
ENDBRANCH  27  28
ENDBRANCH  26  27
ENDBRANCH  25  26
ENDBRANCH  24  25
ENDBRANCH  23  24
ENDBRANCH  22  23
ENDBRANCH  21  22
ENDBRANCH  20  21
ENDBRANCH  19  20
ENDBRANCH  18  19
ENDBRANCH  17  18
ENDBRANCH   1  17
TORSDOF 26
ENDMDL
MODEL 8
REMARK VINA RESULT:     2.768      7.816      9.281
REMARK INTER + INTRA:           5.887
REMARK INTER:                   7.639
REMARK INTRA:                  -1.752
REMARK UNBOUND:                -1.089
REMARK SMILES CCCCCCCCCCCCCCCCCCCCCCCCCCCC(=O)[O-]
REMARK SMILES IDX 15 1 16 2 17 3 18 4 19 5 20 6 21 7 22 8 23 9 24 10 25 11
REMARK SMILES IDX 26 12 27 13 28 14 29 15 30 16 14 17 13 18 12 19 11 20 10 21
REMARK SMILES IDX 9 22 8 23 7 24 6 25 5 26 4 27 3 28 2 29 1 30
REMARK H PARENT
REMARK Flexibility Score: inf
ROOT
ATOM      1  C   UNL     1      -4.417   7.658   2.231  1.00  0.00     0.000 C 
ENDROOT
BRANCH   1   2
ATOM      2  C   UNL     1      -5.936   7.515   2.437  1.00  0.00     0.000 C 
BRANCH   2   3
ATOM      3  C   UNL     1      -6.568   8.750   3.102  1.00  0.00     0.000 C 
BRANCH   3   4
ATOM      4  C   UNL     1      -7.805   9.276   2.350  1.00  0.00     0.000 C 
BRANCH   4   5
ATOM      5  C   UNL     1      -9.153   9.101   3.085  1.00  0.00     0.000 C 
BRANCH   5   6
ATOM      6  C   UNL     1      -9.809   7.715   2.947  1.00  0.00     0.000 C 
BRANCH   6   7
ATOM      7  C   UNL     1      -9.737   6.886   4.239  1.00  0.00     0.000 C 
BRANCH   7   8
ATOM      8  C   UNL     1      -9.684   7.755   5.507  1.00  0.00     0.000 C 
BRANCH   8   9
ATOM      9  C   UNL     1      -8.652   7.281   6.550  1.00  0.00     0.000 C 
BRANCH   9  10
ATOM     10  C   UNL     1      -8.804   8.007   7.899  1.00  0.00     0.000 C 
BRANCH  10  11
ATOM     11  C   UNL     1      -8.134   7.242   9.059  1.00  0.00     0.000 C 
BRANCH  11  12
ATOM     12  C   UNL     1      -7.165   6.136   8.596  1.00  0.00     0.006 C 
BRANCH  12  13
ATOM     13  C   UNL     1      -5.986   5.887   9.549  1.00  0.00     0.053 C 
BRANCH  13  14
ATOM     14  C   UNL     1      -4.712   6.493   9.040  1.00  0.00     0.041 C 
ATOM     15  O   UNL     1      -4.597   7.744   8.950  1.00  0.00    -0.550 OA
ATOM     16  O   UNL     1      -3.649   5.677   8.674  1.00  0.00    -0.550 OA
ENDBRANCH  13  14
ENDBRANCH  12  13
ENDBRANCH  11  12
ENDBRANCH  10  11
ENDBRANCH   9  10
ENDBRANCH   8   9
ENDBRANCH   7   8
ENDBRANCH   6   7
ENDBRANCH   5   6
ENDBRANCH   4   5
ENDBRANCH   3   4
ENDBRANCH   2   3
ENDBRANCH   1   2
BRANCH   1  17
ATOM     17  C   UNL     1      -3.802   6.680   1.215  1.00  0.00     0.000 C 
BRANCH  17  18
ATOM     18  C   UNL     1      -3.123   5.473   1.878  1.00  0.00     0.000 C 
BRANCH  18  19
ATOM     19  C   UNL     1      -1.827   5.107   1.136  1.00  0.00     0.000 C 
BRANCH  19  20
ATOM     20  C   UNL     1      -1.465   3.615   1.254  1.00  0.00     0.000 C 
BRANCH  20  21
ATOM     21  C   UNL     1      -0.079   3.333   1.865  1.00  0.00     0.000 C 
BRANCH  21  22
ATOM     22  C   UNL     1       1.090   4.055   1.157  1.00  0.00    -0.000 C 
BRANCH  22  23
ATOM     23  C   UNL     1       1.226   3.699  -0.336  1.00  0.00    -0.000 C 
BRANCH  23  24
ATOM     24  C   UNL     1       1.068   2.200  -0.658  1.00  0.00    -0.000 C 
BRANCH  24  25
ATOM     25  C   UNL     1       2.384   1.393  -0.699  1.00  0.00    -0.000 C 
BRANCH  25  26
ATOM     26  C   UNL     1       2.473   0.234   0.310  1.00  0.00    -0.000 C 
BRANCH  26  27
ATOM     27  C   UNL     1       3.735  -0.621   0.130  1.00  0.00    -0.000 C 
BRANCH  27  28
ATOM     28  C   UNL     1       3.607  -1.534  -1.096  1.00  0.00    -0.000 C 
BRANCH  28  29
ATOM     29  C   UNL     1       2.273  -2.286  -1.086  1.00  0.00    -0.003 C 
ATOM     30  C   UNL     1       1.865  -2.703  -2.495  1.00  0.00     0.004 C 
ENDBRANCH  28  29
ENDBRANCH  27  28
ENDBRANCH  26  27
ENDBRANCH  25  26
ENDBRANCH  24  25
ENDBRANCH  23  24
ENDBRANCH  22  23
ENDBRANCH  21  22
ENDBRANCH  20  21
ENDBRANCH  19  20
ENDBRANCH  18  19
ENDBRANCH  17  18
ENDBRANCH   1  17
TORSDOF 26
ENDMDL
MODEL 9
REMARK VINA RESULT:     2.806      5.590     11.161
REMARK INTER + INTRA:           5.982
REMARK INTER:                   6.538
REMARK INTRA:                  -0.556
REMARK UNBOUND:                -1.089
REMARK SMILES CCCCCCCCCCCCCCCCCCCCCCCCCCCC(=O)[O-]
REMARK SMILES IDX 15 1 16 2 17 3 18 4 19 5 20 6 21 7 22 8 23 9 24 10 25 11
REMARK SMILES IDX 26 12 27 13 28 14 29 15 30 16 14 17 13 18 12 19 11 20 10 21
REMARK SMILES IDX 9 22 8 23 7 24 6 25 5 26 4 27 3 28 2 29 1 30
REMARK H PARENT
REMARK Flexibility Score: inf
ROOT
ATOM      1  C   UNL     1      -8.106   9.402   4.841  1.00  0.00     0.000 C 
ENDROOT
BRANCH   1   2
ATOM      2  C   UNL     1      -7.267  10.008   3.701  1.00  0.00     0.000 C 
BRANCH   2   3
ATOM      3  C   UNL     1      -6.979   9.002   2.573  1.00  0.00     0.000 C 
BRANCH   3   4
ATOM      4  C   UNL     1      -5.481   8.676   2.422  1.00  0.00     0.000 C 
BRANCH   4   5
ATOM      5  C   UNL     1      -5.161   7.286   1.826  1.00  0.00     0.000 C 
BRANCH   5   6
ATOM      6  C   UNL     1      -3.705   6.812   1.992  1.00  0.00     0.000 C 
BRANCH   6   7
ATOM      7  C   UNL     1      -3.322   5.693   1.012  1.00  0.00     0.000 C 
BRANCH   7   8
ATOM      8  C   UNL     1      -1.951   5.068   1.323  1.00  0.00     0.000 C 
BRANCH   8   9
ATOM      9  C   UNL     1      -1.674   3.754   0.564  1.00  0.00     0.000 C 
BRANCH   9  10
ATOM     10  C   UNL     1      -0.183   3.370   0.579  1.00  0.00     0.000 C 
BRANCH  10  11
ATOM     11  C   UNL     1       0.605   4.114   1.678  1.00  0.00     0.000 C 
BRANCH  11  12
ATOM     12  C   UNL     1       0.800   3.291   2.968  1.00  0.00     0.006 C 
BRANCH  12  13
ATOM     13  C   UNL     1       1.366   4.091   4.150  1.00  0.00     0.053 C 
BRANCH  13  14
ATOM     14  C   UNL     1       1.485   5.553   3.837  1.00  0.00     0.041 C 
ATOM     15  O   UNL     1       1.287   6.412   4.737  1.00  0.00    -0.550 OA
ATOM     16  O   UNL     1       1.822   5.966   2.554  1.00  0.00    -0.550 OA
ENDBRANCH  13  14
ENDBRANCH  12  13
ENDBRANCH  11  12
ENDBRANCH  10  11
ENDBRANCH   9  10
ENDBRANCH   8   9
ENDBRANCH   7   8
ENDBRANCH   6   7
ENDBRANCH   5   6
ENDBRANCH   4   5
ENDBRANCH   3   4
ENDBRANCH   2   3
ENDBRANCH   1   2
BRANCH   1  17
ATOM     17  C   UNL     1      -8.262   7.873   4.795  1.00  0.00     0.000 C 
BRANCH  17  18
ATOM     18  C   UNL     1      -9.678   7.401   5.153  1.00  0.00     0.000 C 
BRANCH  18  19
ATOM     19  C   UNL     1      -9.645   6.469   6.376  1.00  0.00     0.000 C 
BRANCH  19  20
ATOM     20  C   UNL     1      -9.078   7.150   7.636  1.00  0.00     0.000 C 
BRANCH  20  21
ATOM     21  C   UNL     1     -10.030   7.159   8.848  1.00  0.00     0.000 C 
BRANCH  21  22
ATOM     22  C   UNL     1      -9.712   6.088   9.917  1.00  0.00    -0.000 C 
BRANCH  22  23
ATOM     23  C   UNL     1      -8.759   4.983   9.424  1.00  0.00    -0.000 C 
BRANCH  23  24
ATOM     24  C   UNL     1      -7.327   5.067   9.989  1.00  0.00    -0.000 C 
BRANCH  24  25
ATOM     25  C   UNL     1      -6.302   5.782   9.083  1.00  0.00    -0.000 C 
BRANCH  25  26
ATOM     26  C   UNL     1      -4.919   6.015   9.716  1.00  0.00    -0.000 C 
BRANCH  26  27
ATOM     27  C   UNL     1      -4.387   7.437   9.486  1.00  0.00    -0.000 C 
BRANCH  27  28
ATOM     28  C   UNL     1      -5.353   8.482  10.061  1.00  0.00    -0.000 C 
BRANCH  28  29
ATOM     29  C   UNL     1      -6.273   9.040   8.970  1.00  0.00    -0.003 C 
ATOM     30  C   UNL     1      -7.290  10.015   9.553  1.00  0.00     0.004 C 
ENDBRANCH  28  29
ENDBRANCH  27  28
ENDBRANCH  26  27
ENDBRANCH  25  26
ENDBRANCH  24  25
ENDBRANCH  23  24
ENDBRANCH  22  23
ENDBRANCH  21  22
ENDBRANCH  20  21
ENDBRANCH  19  20
ENDBRANCH  18  19
ENDBRANCH  17  18
ENDBRANCH   1  17
TORSDOF 26
ENDMDL
