MODEL 1
REMARK VINA RESULT:     3.979      0.000      0.000
REMARK INTER + INTRA:           9.521
REMARK INTER:                   8.631
REMARK INTRA:                   0.890
REMARK UNBOUND:                 0.890
REMARK SMILES CCCCCCCCCCCCCCCCCCCCCC(=O)[O-]
REMARK SMILES IDX 12 1 11 2 10 3 9 4 8 5 7 6 6 7 5 8 4 9 3 10 2 11 1 12 13 13
REMARK SMILES IDX 14 14 15 15 16 16 17 17 18 18 19 19 20 20 21 21 22 22 23 23
REMARK SMILES IDX 24 24
REMARK H PARENT
REMARK Flexibility Score: inf
ROOT
ATOM      1  C   UNL     1      35.333 106.998 267.067  1.00  0.00     0.000 C 
ENDROOT
BRANCH   1   2
ATOM      2  C   UNL     1      34.877 107.888 265.894  1.00  0.00     0.000 C 
BRANCH   2   3
ATOM      3  C   UNL     1      34.888 107.206 264.509  1.00  0.00     0.000 C 
BRANCH   3   4
ATOM      4  C   UNL     1      35.496 105.792 264.485  1.00  0.00    -0.000 C 
BRANCH   4   5
ATOM      5  C   UNL     1      35.573 105.200 263.071  1.00  0.00    -0.000 C 
BRANCH   5   6
ATOM      6  C   UNL     1      36.241 106.188 262.101  1.00  0.00    -0.000 C 
BRANCH   6   7
ATOM      7  C   UNL     1      37.667 106.576 262.531  1.00  0.00    -0.000 C 
BRANCH   7   8
ATOM      8  C   UNL     1      38.791 105.699 261.941  1.00  0.00    -0.000 C 
BRANCH   8   9
ATOM      9  C   UNL     1      38.860 105.662 260.404  1.00  0.00    -0.000 C 
BRANCH   9  10
ATOM     10  C   UNL     1      37.666 104.930 259.769  1.00  0.00    -0.000 C 
BRANCH  10  11
ATOM     11  C   UNL     1      37.316 105.477 258.377  1.00  0.00    -0.003 C 
ATOM     12  C   UNL     1      35.894 106.031 258.298  1.00  0.00     0.004 C 
ENDBRANCH  10  11
ENDBRANCH   9  10
ENDBRANCH   8   9
ENDBRANCH   7   8
ENDBRANCH   6   7
ENDBRANCH   5   6
ENDBRANCH   4   5
ENDBRANCH   3   4
ENDBRANCH   2   3
ENDBRANCH   1   2
BRANCH   1  13
ATOM     13  C   UNL     1      34.876 105.530 266.984  1.00  0.00     0.000 C 
BRANCH  13  14
ATOM     14  C   UNL     1      35.521 104.642 268.058  1.00  0.00     0.000 C 
BRANCH  14  15
ATOM     15  C   UNL     1      34.948 104.964 269.447  1.00  0.00     0.000 C 
BRANCH  15  16
ATOM     16  C   UNL     1      34.999 106.465 269.778  1.00  0.00     0.000 C 
BRANCH  16  17
ATOM     17  C   UNL     1      36.154 106.820 270.730  1.00  0.00     0.000 C 
BRANCH  17  18
ATOM     18  C   UNL     1      37.528 106.429 270.161  1.00  0.00     0.000 C 
BRANCH  18  19
ATOM     19  C   UNL     1      38.628 106.406 271.237  1.00  0.00     0.000 C 
BRANCH  19  20
ATOM     20  C   UNL     1      38.285 105.480 272.419  1.00  0.00     0.006 C 
BRANCH  20  21
ATOM     21  C   UNL     1      38.427 103.980 272.111  1.00  0.00     0.053 C 
BRANCH  21  22
ATOM     22  C   UNL     1      38.984 103.221 273.276  1.00  0.00     0.041 C 
ATOM     23  O   UNL     1      40.177 102.815 273.256  1.00  0.00    -0.550 OA
ATOM     24  O   UNL     1      38.194 102.982 274.395  1.00  0.00    -0.550 OA
ENDBRANCH  21  22
ENDBRANCH  20  21
ENDBRANCH  19  20
ENDBRANCH  18  19
ENDBRANCH  17  18
ENDBRANCH  16  17
ENDBRANCH  15  16
ENDBRANCH  14  15
ENDBRANCH  13  14
ENDBRANCH   1  13
TORSDOF 20
ENDMDL
MODEL 2
REMARK VINA RESULT:     3.993      1.057      1.629
REMARK INTER + INTRA:           9.551
REMARK INTER:                   9.670
REMARK INTRA:                  -0.119
REMARK UNBOUND:                 0.890
REMARK SMILES CCCCCCCCCCCCCCCCCCCCCC(=O)[O-]
REMARK SMILES IDX 12 1 11 2 10 3 9 4 8 5 7 6 6 7 5 8 4 9 3 10 2 11 1 12 13 13
REMARK SMILES IDX 14 14 15 15 16 16 17 17 18 18 19 19 20 20 21 21 22 22 23 23
REMARK SMILES IDX 24 24
REMARK H PARENT
REMARK Flexibility Score: inf
ROOT
ATOM      1  C   UNL     1      35.171 107.831 266.257  1.00  0.00     0.000 C 
ENDROOT
BRANCH   1   2
ATOM      2  C   UNL     1      34.875 106.848 265.106  1.00  0.00     0.000 C 
BRANCH   2   3
ATOM      3  C   UNL     1      34.995 105.354 265.472  1.00  0.00     0.000 C 
BRANCH   3   4
ATOM      4  C   UNL     1      35.594 104.461 264.371  1.00  0.00    -0.000 C 
BRANCH   4   5
ATOM      5  C   UNL     1      35.438 105.060 262.966  1.00  0.00    -0.000 C 
BRANCH   5   6
ATOM      6  C   UNL     1      36.346 106.286 262.791  1.00  0.00    -0.000 C 
BRANCH   6   7
ATOM      7  C   UNL     1      37.204 106.219 261.515  1.00  0.00    -0.000 C 
BRANCH   7   8
ATOM      8  C   UNL     1      36.994 104.960 260.649  1.00  0.00    -0.000 C 
BRANCH   8   9
ATOM      9  C   UNL     1      37.973 104.799 259.472  1.00  0.00    -0.000 C 
BRANCH   9  10
ATOM     10  C   UNL     1      37.345 105.168 258.118  1.00  0.00    -0.000 C 
BRANCH  10  11
ATOM     11  C   UNL     1      35.995 105.885 258.273  1.00  0.00    -0.003 C 
ATOM     12  C   UNL     1      36.127 107.407 258.252  1.00  0.00     0.004 C 
ENDBRANCH  10  11
ENDBRANCH   9  10
ENDBRANCH   8   9
ENDBRANCH   7   8
ENDBRANCH   6   7
ENDBRANCH   5   6
ENDBRANCH   4   5
ENDBRANCH   3   4
ENDBRANCH   2   3
ENDBRANCH   1   2
BRANCH   1  13
ATOM     13  C   UNL     1      34.875 107.287 267.666  1.00  0.00     0.000 C 
BRANCH  13  14
ATOM     14  C   UNL     1      34.963 108.368 268.754  1.00  0.00     0.000 C 
BRANCH  14  15
ATOM     15  C   UNL     1      35.138 107.731 270.142  1.00  0.00     0.000 C 
BRANCH  15  16
ATOM     16  C   UNL     1      35.376 106.213 270.073  1.00  0.00     0.000 C 
BRANCH  16  17
ATOM     17  C   UNL     1      36.792 105.859 269.589  1.00  0.00     0.000 C 
BRANCH  17  18
ATOM     18  C   UNL     1      37.883 106.325 270.568  1.00  0.00     0.000 C 
BRANCH  18  19
ATOM     19  C   UNL     1      37.832 105.573 271.910  1.00  0.00     0.000 C 
BRANCH  19  20
ATOM     20  C   UNL     1      38.386 104.139 271.810  1.00  0.00     0.006 C 
BRANCH  20  21
ATOM     21  C   UNL     1      38.121 103.271 273.051  1.00  0.00     0.053 C 
BRANCH  21  22
ATOM     22  C   UNL     1      39.345 103.124 273.903  1.00  0.00     0.041 C 
ATOM     23  O   UNL     1      40.418 102.692 273.402  1.00  0.00    -0.550 OA
ATOM     24  O   UNL     1      39.309 103.488 275.244  1.00  0.00    -0.550 OA
ENDBRANCH  21  22
ENDBRANCH  20  21
ENDBRANCH  19  20
ENDBRANCH  18  19
ENDBRANCH  17  18
ENDBRANCH  16  17
ENDBRANCH  15  16
ENDBRANCH  14  15
ENDBRANCH  13  14
ENDBRANCH   1  13
TORSDOF 20
ENDMDL
MODEL 3
REMARK VINA RESULT:     4.087      4.895     10.553
REMARK INTER + INTRA:           9.755
REMARK INTER:                   9.798
REMARK INTRA:                  -0.043
REMARK UNBOUND:                 0.890
REMARK SMILES CCCCCCCCCCCCCCCCCCCCCC(=O)[O-]
REMARK SMILES IDX 12 1 11 2 10 3 9 4 8 5 7 6 6 7 5 8 4 9 3 10 2 11 1 12 13 13
REMARK SMILES IDX 14 14 15 15 16 16 17 17 18 18 19 19 20 20 21 21 22 22 23 23
REMARK SMILES IDX 24 24
REMARK H PARENT
REMARK Flexibility Score: inf
ROOT
ATOM      1  C   UNL     1      35.496 107.642 265.646  1.00  0.00     0.000 C 
ENDROOT
BRANCH   1   2
ATOM      2  C   UNL     1      34.954 108.787 266.525  1.00  0.00     0.000 C 
BRANCH   2   3
ATOM      3  C   UNL     1      34.934 108.499 268.041  1.00  0.00     0.000 C 
BRANCH   3   4
ATOM      4  C   UNL     1      36.038 107.548 268.537  1.00  0.00    -0.000 C 
BRANCH   4   5
ATOM      5  C   UNL     1      35.491 106.189 268.999  1.00  0.00    -0.000 C 
BRANCH   5   6
ATOM      6  C   UNL     1      36.101 105.786 270.350  1.00  0.00    -0.000 C 
BRANCH   6   7
ATOM      7  C   UNL     1      37.537 106.305 270.538  1.00  0.00    -0.000 C 
BRANCH   7   8
ATOM      8  C   UNL     1      38.242 105.834 271.827  1.00  0.00    -0.000 C 
BRANCH   8   9
ATOM      9  C   UNL     1      38.440 104.312 271.952  1.00  0.00    -0.000 C 
BRANCH   9  10
ATOM     10  C   UNL     1      39.011 103.894 273.316  1.00  0.00    -0.000 C 
BRANCH  10  11
ATOM     11  C   UNL     1      38.677 102.436 273.670  1.00  0.00    -0.003 C 
ATOM     12  C   UNL     1      38.365 102.243 275.153  1.00  0.00     0.004 C 
ENDBRANCH  10  11
ENDBRANCH   9  10
ENDBRANCH   8   9
ENDBRANCH   7   8
ENDBRANCH   6   7
ENDBRANCH   5   6
ENDBRANCH   4   5
ENDBRANCH   3   4
ENDBRANCH   2   3
ENDBRANCH   1   2
BRANCH   1  13
ATOM     13  C   UNL     1      34.969 106.242 266.008  1.00  0.00     0.000 C 
BRANCH  13  14
ATOM     14  C   UNL     1      34.921 105.292 264.802  1.00  0.00     0.000 C 
BRANCH  14  15
ATOM     15  C   UNL     1      34.875 106.084 263.486  1.00  0.00     0.000 C 
BRANCH  15  16
ATOM     16  C   UNL     1      35.982 105.668 262.503  1.00  0.00     0.000 C 
BRANCH  16  17
ATOM     17  C   UNL     1      37.367 106.196 262.916  1.00  0.00     0.000 C 
BRANCH  17  18
ATOM     18  C   UNL     1      38.236 106.579 261.707  1.00  0.00     0.000 C 
BRANCH  18  19
ATOM     19  C   UNL     1      38.612 105.363 260.841  1.00  0.00     0.000 C 
BRANCH  19  20
ATOM     20  C   UNL     1      37.541 105.031 259.785  1.00  0.00     0.006 C 
BRANCH  20  21
ATOM     21  C   UNL     1      37.518 105.990 258.584  1.00  0.00     0.053 C 
BRANCH  21  22
ATOM     22  C   UNL     1      36.123 106.397 258.220  1.00  0.00     0.041 C 
ATOM     23  O   UNL     1      35.277 105.527 257.880  1.00  0.00    -0.550 OA
ATOM     24  O   UNL     1      35.748 107.734 258.280  1.00  0.00    -0.550 OA
ENDBRANCH  21  22
ENDBRANCH  20  21
ENDBRANCH  19  20
ENDBRANCH  18  19
ENDBRANCH  17  18
ENDBRANCH  16  17
ENDBRANCH  15  16
ENDBRANCH  14  15
ENDBRANCH  13  14
ENDBRANCH   1  13
TORSDOF 20
ENDMDL
MODEL 4
REMARK VINA RESULT:     4.160      3.272      4.885
REMARK INTER + INTRA:           9.914
REMARK INTER:                  11.397
REMARK INTRA:                  -1.483
REMARK UNBOUND:                 0.890
REMARK SMILES CCCCCCCCCCCCCCCCCCCCCC(=O)[O-]
REMARK SMILES IDX 12 1 11 2 10 3 9 4 8 5 7 6 6 7 5 8 4 9 3 10 2 11 1 12 13 13
REMARK SMILES IDX 14 14 15 15 16 16 17 17 18 18 19 19 20 20 21 21 22 22 23 23
REMARK SMILES IDX 24 24
REMARK H PARENT
REMARK Flexibility Score: inf
ROOT
ATOM      1  C   UNL     1      35.979 106.947 263.743  1.00  0.00     0.000 C 
ENDROOT
BRANCH   1   2
ATOM      2  C   UNL     1      37.399 106.479 263.365  1.00  0.00     0.000 C 
BRANCH   2   3
ATOM      3  C   UNL     1      38.298 107.557 262.726  1.00  0.00     0.000 C 
BRANCH   3   4
ATOM      4  C   UNL     1      39.811 107.327 262.894  1.00  0.00    -0.000 C 
BRANCH   4   5
ATOM      5  C   UNL     1      40.267 105.957 262.372  1.00  0.00    -0.000 C 
BRANCH   5   6
ATOM      6  C   UNL     1      39.972 105.820 260.870  1.00  0.00    -0.000 C 
BRANCH   6   7
ATOM      7  C   UNL     1      38.750 104.932 260.578  1.00  0.00    -0.000 C 
BRANCH   7   8
ATOM      8  C   UNL     1      38.092 105.153 259.200  1.00  0.00    -0.000 C 
BRANCH   8   9
ATOM      9  C   UNL     1      36.607 104.761 259.109  1.00  0.00    -0.000 C 
BRANCH   9  10
ATOM     10  C   UNL     1      35.761 105.796 258.348  1.00  0.00    -0.000 C 
BRANCH  10  11
ATOM     11  C   UNL     1      36.270 107.232 258.551  1.00  0.00    -0.003 C 
ATOM     12  C   UNL     1      35.297 108.285 258.022  1.00  0.00     0.004 C 
ENDBRANCH  10  11
ENDBRANCH   9  10
ENDBRANCH   8   9
ENDBRANCH   7   8
ENDBRANCH   6   7
ENDBRANCH   5   6
ENDBRANCH   4   5
ENDBRANCH   3   4
ENDBRANCH   2   3
ENDBRANCH   1   2
BRANCH   1  13
ATOM     13  C   UNL     1      34.900 105.850 263.696  1.00  0.00     0.000 C 
BRANCH  13  14
ATOM     14  C   UNL     1      35.442 104.501 263.204  1.00  0.00     0.000 C 
BRANCH  14  15
ATOM     15  C   UNL     1      35.669 103.541 264.383  1.00  0.00     0.000 C 
BRANCH  15  16
ATOM     16  C   UNL     1      34.888 103.952 265.642  1.00  0.00     0.000 C 
BRANCH  16  17
ATOM     17  C   UNL     1      35.771 104.676 266.674  1.00  0.00     0.000 C 
BRANCH  17  18
ATOM     18  C   UNL     1      35.663 104.059 268.078  1.00  0.00     0.000 C 
BRANCH  18  19
ATOM     19  C   UNL     1      34.878 104.951 269.057  1.00  0.00     0.000 C 
BRANCH  19  20
ATOM     20  C   UNL     1      35.646 106.229 269.442  1.00  0.00     0.006 C 
BRANCH  20  21
ATOM     21  C   UNL     1      34.910 107.536 269.102  1.00  0.00     0.053 C 
BRANCH  21  22
ATOM     22  C   UNL     1      35.540 108.248 267.944  1.00  0.00     0.041 C 
ATOM     23  O   UNL     1      36.640 107.848 267.476  1.00  0.00    -0.550 OA
ATOM     24  O   UNL     1      34.901 109.338 267.364  1.00  0.00    -0.550 OA
ENDBRANCH  21  22
ENDBRANCH  20  21
ENDBRANCH  19  20
ENDBRANCH  18  19
ENDBRANCH  17  18
ENDBRANCH  16  17
ENDBRANCH  15  16
ENDBRANCH  14  15
ENDBRANCH  13  14
ENDBRANCH   1  13
TORSDOF 20
ENDMDL
MODEL 5
REMARK VINA RESULT:     4.199      1.167      2.334
REMARK INTER + INTRA:           9.997
REMARK INTER:                  11.077
REMARK INTRA:                  -1.080
REMARK UNBOUND:                 0.890
REMARK SMILES CCCCCCCCCCCCCCCCCCCCCC(=O)[O-]
REMARK SMILES IDX 12 1 11 2 10 3 9 4 8 5 7 6 6 7 5 8 4 9 3 10 2 11 1 12 13 13
REMARK SMILES IDX 14 14 15 15 16 16 17 17 18 18 19 19 20 20 21 21 22 22 23 23
REMARK SMILES IDX 24 24
REMARK H PARENT
REMARK Flexibility Score: inf
ROOT
ATOM      1  C   UNL     1      35.510 107.543 266.198  1.00  0.00     0.000 C 
ENDROOT
BRANCH   1   2
ATOM      2  C   UNL     1      35.143 106.671 264.980  1.00  0.00     0.000 C 
BRANCH   2   3
ATOM      3  C   UNL     1      35.045 105.157 265.261  1.00  0.00     0.000 C 
BRANCH   3   4
ATOM      4  C   UNL     1      35.391 104.249 264.067  1.00  0.00    -0.000 C 
BRANCH   4   5
ATOM      5  C   UNL     1      35.035 104.882 262.714  1.00  0.00    -0.000 C 
BRANCH   5   6
ATOM      6  C   UNL     1      35.741 104.147 261.565  1.00  0.00    -0.000 C 
BRANCH   6   7
ATOM      7  C   UNL     1      35.897 105.016 260.304  1.00  0.00    -0.000 C 
BRANCH   7   8
ATOM      8  C   UNL     1      37.223 105.798 260.206  1.00  0.00    -0.000 C 
BRANCH   8   9
ATOM      9  C   UNL     1      38.447 105.099 260.827  1.00  0.00    -0.000 C 
BRANCH   9  10
ATOM     10  C   UNL     1      39.604 106.068 261.118  1.00  0.00    -0.000 C 
BRANCH  10  11
ATOM     11  C   UNL     1      39.594 106.575 262.568  1.00  0.00    -0.003 C 
ATOM     12  C   UNL     1      38.182 106.793 263.109  1.00  0.00     0.004 C 
ENDBRANCH  10  11
ENDBRANCH   9  10
ENDBRANCH   8   9
ENDBRANCH   7   8
ENDBRANCH   6   7
ENDBRANCH   5   6
ENDBRANCH   4   5
ENDBRANCH   3   4
ENDBRANCH   2   3
ENDBRANCH   1   2
BRANCH   1  13
ATOM     13  C   UNL     1      35.063 106.977 267.558  1.00  0.00     0.000 C 
BRANCH  13  14
ATOM     14  C   UNL     1      34.878 108.065 268.626  1.00  0.00     0.000 C 
BRANCH  14  15
ATOM     15  C   UNL     1      34.937 107.459 270.037  1.00  0.00     0.000 C 
BRANCH  15  16
ATOM     16  C   UNL     1      35.038 105.925 270.021  1.00  0.00     0.000 C 
BRANCH  16  17
ATOM     17  C   UNL     1      36.491 105.431 269.906  1.00  0.00     0.000 C 
BRANCH  17  18
ATOM     18  C   UNL     1      37.509 106.479 270.385  1.00  0.00     0.000 C 
BRANCH  18  19
ATOM     19  C   UNL     1      38.356 105.981 271.570  1.00  0.00     0.000 C 
BRANCH  19  20
ATOM     20  C   UNL     1      38.640 104.469 271.504  1.00  0.00     0.006 C 
BRANCH  20  21
ATOM     21  C   UNL     1      37.959 103.648 272.612  1.00  0.00     0.053 C 
BRANCH  21  22
ATOM     22  C   UNL     1      38.944 103.150 273.625  1.00  0.00     0.041 C 
ATOM     23  O   UNL     1      38.594 102.992 274.825  1.00  0.00    -0.550 OA
ATOM     24  O   UNL     1      40.242 102.836 273.239  1.00  0.00    -0.550 OA
ENDBRANCH  21  22
ENDBRANCH  20  21
ENDBRANCH  19  20
ENDBRANCH  18  19
ENDBRANCH  17  18
ENDBRANCH  16  17
ENDBRANCH  15  16
ENDBRANCH  14  15
ENDBRANCH  13  14
ENDBRANCH   1  13
TORSDOF 20
ENDMDL
MODEL 6
REMARK VINA RESULT:     4.497      3.843      5.548
REMARK INTER + INTRA:          10.644
REMARK INTER:                   7.316
REMARK INTRA:                   3.328
REMARK UNBOUND:                 0.890
REMARK SMILES CCCCCCCCCCCCCCCCCCCCCC(=O)[O-]
REMARK SMILES IDX 12 1 11 2 10 3 9 4 8 5 7 6 6 7 5 8 4 9 3 10 2 11 1 12 13 13
REMARK SMILES IDX 14 14 15 15 16 16 17 17 18 18 19 19 20 20 21 21 22 22 23 23
REMARK SMILES IDX 24 24
REMARK H PARENT
REMARK Flexibility Score: inf
ROOT
ATOM      1  C   UNL     1      35.546 104.830 266.654  1.00  0.00     0.000 C 
ENDROOT
BRANCH   1   2
ATOM      2  C   UNL     1      34.876 103.521 266.188  1.00  0.00     0.000 C 
BRANCH   2   3
ATOM      3  C   UNL     1      35.696 102.686 265.183  1.00  0.00     0.000 C 
BRANCH   3   4
ATOM      4  C   UNL     1      34.988 102.397 263.847  1.00  0.00    -0.000 C 
BRANCH   4   5
ATOM      5  C   UNL     1      35.010 103.597 262.889  1.00  0.00    -0.000 C 
BRANCH   5   6
ATOM      6  C   UNL     1      35.378 103.152 261.465  1.00  0.00    -0.000 C 
BRANCH   6   7
ATOM      7  C   UNL     1      36.161 104.224 260.686  1.00  0.00    -0.000 C 
BRANCH   7   8
ATOM      8  C   UNL     1      37.582 103.810 260.249  1.00  0.00    -0.000 C 
BRANCH   8   9
ATOM      9  C   UNL     1      38.424 104.925 259.603  1.00  0.00    -0.000 C 
BRANCH   9  10
ATOM     10  C   UNL     1      37.578 106.128 259.153  1.00  0.00    -0.000 C 
BRANCH  10  11
ATOM     11  C   UNL     1      36.403 105.714 258.254  1.00  0.00    -0.003 C 
ATOM     12  C   UNL     1      35.387 106.839 258.052  1.00  0.00     0.004 C 
ENDBRANCH  10  11
ENDBRANCH   9  10
ENDBRANCH   8   9
ENDBRANCH   7   8
ENDBRANCH   6   7
ENDBRANCH   5   6
ENDBRANCH   4   5
ENDBRANCH   3   4
ENDBRANCH   2   3
ENDBRANCH   1   2
BRANCH   1  13
ATOM     13  C   UNL     1      34.919 105.469 267.907  1.00  0.00     0.000 C 
BRANCH  13  14
ATOM     14  C   UNL     1      35.851 105.433 269.126  1.00  0.00     0.000 C 
BRANCH  14  15
ATOM     15  C   UNL     1      35.578 106.625 270.057  1.00  0.00     0.000 C 
BRANCH  15  16
ATOM     16  C   UNL     1      35.524 107.965 269.304  1.00  0.00     0.000 C 
BRANCH  16  17
ATOM     17  C   UNL     1      34.883 107.834 267.912  1.00  0.00     0.000 C 
BRANCH  17  18
ATOM     18  C   UNL     1      35.568 108.725 266.862  1.00  0.00     0.000 C 
BRANCH  18  19
ATOM     19  C   UNL     1      36.317 107.908 265.793  1.00  0.00     0.000 C 
BRANCH  19  20
ATOM     20  C   UNL     1      35.375 107.312 264.731  1.00  0.00     0.006 C 
BRANCH  20  21
ATOM     21  C   UNL     1      35.932 106.070 264.016  1.00  0.00     0.053 C 
BRANCH  21  22
ATOM     22  C   UNL     1      36.902 106.435 262.934  1.00  0.00     0.041 C 
ATOM     23  O   UNL     1      36.484 106.768 261.794  1.00  0.00    -0.550 OA
ATOM     24  O   UNL     1      38.268 106.433 263.193  1.00  0.00    -0.550 OA
ENDBRANCH  21  22
ENDBRANCH  20  21
ENDBRANCH  19  20
ENDBRANCH  18  19
ENDBRANCH  17  18
ENDBRANCH  16  17
ENDBRANCH  15  16
ENDBRANCH  14  15
ENDBRANCH  13  14
ENDBRANCH   1  13
TORSDOF 20
ENDMDL
MODEL 7
REMARK VINA RESULT:     4.952      3.429      9.728
REMARK INTER + INTRA:          11.631
REMARK INTER:                  11.620
REMARK INTRA:                   0.011
REMARK UNBOUND:                 0.890
REMARK SMILES CCCCCCCCCCCCCCCCCCCCCC(=O)[O-]
REMARK SMILES IDX 12 1 11 2 10 3 9 4 8 5 7 6 6 7 5 8 4 9 3 10 2 11 1 12 13 13
REMARK SMILES IDX 14 14 15 15 16 16 17 17 18 18 19 19 20 20 21 21 22 22 23 23
REMARK SMILES IDX 24 24
REMARK H PARENT
REMARK Flexibility Score: inf
ROOT
ATOM      1  C   UNL     1      35.110 106.107 264.396  1.00  0.00     0.000 C 
ENDROOT
BRANCH   1   2
ATOM      2  C   UNL     1      35.287 105.199 265.630  1.00  0.00     0.000 C 
BRANCH   2   3
ATOM      3  C   UNL     1      34.878 105.833 266.976  1.00  0.00     0.000 C 
BRANCH   3   4
ATOM      4  C   UNL     1      34.904 107.372 267.005  1.00  0.00    -0.000 C 
BRANCH   4   5
ATOM      5  C   UNL     1      35.095 107.938 268.420  1.00  0.00    -0.000 C 
BRANCH   5   6
ATOM      6  C   UNL     1      35.154 106.806 269.457  1.00  0.00    -0.000 C 
BRANCH   6   7
ATOM      7  C   UNL     1      36.515 106.089 269.484  1.00  0.00    -0.000 C 
BRANCH   7   8
ATOM      8  C   UNL     1      37.257 106.141 270.836  1.00  0.00    -0.000 C 
BRANCH   8   9
ATOM      9  C   UNL     1      38.216 104.968 271.107  1.00  0.00    -0.000 C 
BRANCH   9  10
ATOM     10  C   UNL     1      38.497 104.760 272.604  1.00  0.00    -0.000 C 
BRANCH  10  11
ATOM     11  C   UNL     1      38.506 103.275 272.998  1.00  0.00    -0.003 C 
ATOM     12  C   UNL     1      38.605 103.063 274.509  1.00  0.00     0.004 C 
ENDBRANCH  10  11
ENDBRANCH   9  10
ENDBRANCH   8   9
ENDBRANCH   7   8
ENDBRANCH   6   7
ENDBRANCH   5   6
ENDBRANCH   4   5
ENDBRANCH   3   4
ENDBRANCH   2   3
ENDBRANCH   1   2
BRANCH   1  13
ATOM     13  C   UNL     1      35.011 105.362 263.052  1.00  0.00     0.000 C 
BRANCH  13  14
ATOM     14  C   UNL     1      34.877 103.842 263.221  1.00  0.00     0.000 C 
BRANCH  14  15
ATOM     15  C   UNL     1      35.210 103.116 261.907  1.00  0.00     0.000 C 
BRANCH  15  16
ATOM     16  C   UNL     1      36.393 103.755 261.160  1.00  0.00     0.000 C 
BRANCH  16  17
ATOM     17  C   UNL     1      36.070 104.043 259.684  1.00  0.00     0.000 C 
BRANCH  17  18
ATOM     18  C   UNL     1      37.117 104.954 259.019  1.00  0.00     0.000 C 
BRANCH  18  19
ATOM     19  C   UNL     1      36.865 106.446 259.300  1.00  0.00     0.000 C 
BRANCH  19  20
ATOM     20  C   UNL     1      37.338 106.875 260.702  1.00  0.00     0.006 C 
BRANCH  20  21
ATOM     21  C   UNL     1      38.275 105.869 261.390  1.00  0.00     0.053 C 
BRANCH  21  22
ATOM     22  C   UNL     1      39.049 106.499 262.507  1.00  0.00     0.041 C 
ATOM     23  O   UNL     1      40.309 106.510 262.477  1.00  0.00    -0.550 OA
ATOM     24  O   UNL     1      38.380 107.097 263.569  1.00  0.00    -0.550 OA
ENDBRANCH  21  22
ENDBRANCH  20  21
ENDBRANCH  19  20
ENDBRANCH  18  19
ENDBRANCH  17  18
ENDBRANCH  16  17
ENDBRANCH  15  16
ENDBRANCH  14  15
ENDBRANCH  13  14
ENDBRANCH   1  13
TORSDOF 20
ENDMDL
MODEL 8
REMARK VINA RESULT:     5.853      3.624      9.307
REMARK INTER + INTRA:          13.587
REMARK INTER:                  13.211
REMARK INTRA:                   0.376
REMARK UNBOUND:                 0.890
REMARK SMILES CCCCCCCCCCCCCCCCCCCCCC(=O)[O-]
REMARK SMILES IDX 12 1 11 2 10 3 9 4 8 5 7 6 6 7 5 8 4 9 3 10 2 11 1 12 13 13
REMARK SMILES IDX 14 14 15 15 16 16 17 17 18 18 19 19 20 20 21 21 22 22 23 23
REMARK SMILES IDX 24 24
REMARK H PARENT
REMARK Flexibility Score: inf
ROOT
ATOM      1  C   UNL     1      35.674 106.034 263.655  1.00  0.00     0.000 C 
ENDROOT
BRANCH   1   2
ATOM      2  C   UNL     1      34.881 105.557 264.889  1.00  0.00     0.000 C 
BRANCH   2   3
ATOM      3  C   UNL     1      34.885 106.528 266.088  1.00  0.00     0.000 C 
BRANCH   3   4
ATOM      4  C   UNL     1      35.786 107.765 265.920  1.00  0.00    -0.000 C 
BRANCH   4   5
ATOM      5  C   UNL     1      35.883 108.609 267.199  1.00  0.00    -0.000 C 
BRANCH   5   6
ATOM      6  C   UNL     1      34.877 108.122 268.253  1.00  0.00    -0.000 C 
BRANCH   6   7
ATOM      7  C   UNL     1      35.105 106.657 268.667  1.00  0.00    -0.000 C 
BRANCH   7   8
ATOM      8  C   UNL     1      35.736 106.460 270.061  1.00  0.00    -0.000 C 
BRANCH   8   9
ATOM      9  C   UNL     1      36.463 105.120 270.272  1.00  0.00    -0.000 C 
BRANCH   9  10
ATOM     10  C   UNL     1      37.794 105.275 271.026  1.00  0.00    -0.000 C 
BRANCH  10  11
ATOM     11  C   UNL     1      38.254 106.739 271.109  1.00  0.00    -0.003 C 
ATOM     12  C   UNL     1      38.969 107.208 269.843  1.00  0.00     0.004 C 
ENDBRANCH  10  11
ENDBRANCH   9  10
ENDBRANCH   8   9
ENDBRANCH   7   8
ENDBRANCH   6   7
ENDBRANCH   5   6
ENDBRANCH   4   5
ENDBRANCH   3   4
ENDBRANCH   2   3
ENDBRANCH   1   2
BRANCH   1  13
ATOM     13  C   UNL     1      36.177 104.909 262.733  1.00  0.00     0.000 C 
BRANCH  13  14
ATOM     14  C   UNL     1      35.189 103.739 262.624  1.00  0.00     0.000 C 
BRANCH  14  15
ATOM     15  C   UNL     1      35.327 103.033 261.265  1.00  0.00     0.000 C 
BRANCH  15  16
ATOM     16  C   UNL     1      36.659 103.349 260.565  1.00  0.00     0.000 C 
BRANCH  16  17
ATOM     17  C   UNL     1      36.465 103.812 259.110  1.00  0.00     0.000 C 
BRANCH  17  18
ATOM     18  C   UNL     1      37.322 105.041 258.764  1.00  0.00     0.000 C 
BRANCH  18  19
ATOM     19  C   UNL     1      36.750 106.344 259.349  1.00  0.00     0.000 C 
BRANCH  19  20
ATOM     20  C   UNL     1      37.391 106.723 260.697  1.00  0.00     0.006 C 
BRANCH  20  21
ATOM     21  C   UNL     1      38.726 106.015 260.985  1.00  0.00     0.053 C 
BRANCH  21  22
ATOM     22  C   UNL     1      39.340 106.480 262.270  1.00  0.00     0.041 C 
ATOM     23  O   UNL     1      38.666 107.168 263.082  1.00  0.00    -0.550 OA
ATOM     24  O   UNL     1      40.649 106.132 262.583  1.00  0.00    -0.550 OA
ENDBRANCH  21  22
ENDBRANCH  20  21
ENDBRANCH  19  20
ENDBRANCH  18  19
ENDBRANCH  17  18
ENDBRANCH  16  17
ENDBRANCH  15  16
ENDBRANCH  14  15
ENDBRANCH  13  14
ENDBRANCH   1  13
TORSDOF 20
ENDMDL
