MODEL 1
REMARK VINA RESULT:    -3.159      0.000      0.000
REMARK INTER + INTRA:          -9.025
REMARK INTER:                  -6.114
REMARK INTRA:                  -2.910
REMARK UNBOUND:                -2.910
REMARK SMILES CCCCCCCCCCCCCCCCCC(=O)[O-]
REMARK SMILES IDX 10 1 11 2 12 3 13 4 14 5 15 6 16 7 17 8 18 9 19 10 20 11
REMARK SMILES IDX 9 12 8 13 7 14 6 15 5 16 4 17 3 18 2 19 1 20
REMARK H PARENT
REMARK Flexibility Score: inf
ROOT
ATOM      1  C   UNL     1      60.610  -0.242  94.981  1.00  0.00     0.000 C 
ENDROOT
BRANCH   1   2
ATOM      2  C   UNL     1      61.054  -1.656  94.575  1.00  0.00     0.000 C 
BRANCH   2   3
ATOM      3  C   UNL     1      60.521  -2.074  93.196  1.00  0.00     0.000 C 
BRANCH   3   4
ATOM      4  C   UNL     1      59.999  -0.881  92.377  1.00  0.00     0.000 C 
BRANCH   4   5
ATOM      5  C   UNL     1      58.772  -1.242  91.524  1.00  0.00     0.000 C 
BRANCH   5   6
ATOM      6  C   UNL     1      57.791  -0.065  91.374  1.00  0.00     0.000 C 
BRANCH   6   7
ATOM      7  C   UNL     1      57.675   0.774  92.658  1.00  0.00     0.006 C 
BRANCH   7   8
ATOM      8  C   UNL     1      57.088   2.169  92.404  1.00  0.00     0.053 C 
BRANCH   8   9
ATOM      9  C   UNL     1      55.744   2.294  93.049  1.00  0.00     0.041 C 
ATOM     10  O   UNL     1      54.816   1.504  92.736  1.00  0.00    -0.550 OA
ATOM     11  O   UNL     1      55.503   3.314  93.961  1.00  0.00    -0.550 OA
ENDBRANCH   8   9
ENDBRANCH   7   8
ENDBRANCH   6   7
ENDBRANCH   5   6
ENDBRANCH   4   5
ENDBRANCH   3   4
ENDBRANCH   2   3
ENDBRANCH   1   2
BRANCH   1  12
ATOM     12  C   UNL     1      60.568  -0.096  96.507  1.00  0.00     0.000 C 
BRANCH  12  13
ATOM     13  C   UNL     1      59.963   1.255  96.914  1.00  0.00    -0.000 C 
BRANCH  13  14
ATOM     14  C   UNL     1      58.734   1.639  96.071  1.00  0.00    -0.000 C 
BRANCH  14  15
ATOM     15  C   UNL     1      57.382   1.553  96.806  1.00  0.00    -0.000 C 
BRANCH  15  16
ATOM     16  C   UNL     1      56.348   0.604  96.172  1.00  0.00    -0.000 C 
BRANCH  16  17
ATOM     17  C   UNL     1      56.186  -0.709  96.957  1.00  0.00    -0.000 C 
BRANCH  17  18
ATOM     18  C   UNL     1      57.243  -1.758  96.574  1.00  0.00    -0.000 C 
BRANCH  18  19
ATOM     19  C   UNL     1      57.456  -1.857  95.055  1.00  0.00    -0.003 C 
ATOM     20  C   UNL     1      56.430  -2.788  94.417  1.00  0.00     0.004 C 
ENDBRANCH  18  19
ENDBRANCH  17  18
ENDBRANCH  16  17
ENDBRANCH  15  16
ENDBRANCH  14  15
ENDBRANCH  13  14
ENDBRANCH  12  13
ENDBRANCH   1  12
TORSDOF 16
ENDMDL
MODEL 2
REMARK VINA RESULT:    -3.066      4.780      7.418
REMARK INTER + INTRA:          -8.845
REMARK INTER:                  -6.839
REMARK INTRA:                  -2.006
REMARK UNBOUND:                -2.910
REMARK SMILES CCCCCCCCCCCCCCCCCC(=O)[O-]
REMARK SMILES IDX 10 1 11 2 12 3 13 4 14 5 15 6 16 7 17 8 18 9 19 10 20 11
REMARK SMILES IDX 9 12 8 13 7 14 6 15 5 16 4 17 3 18 2 19 1 20
REMARK H PARENT
REMARK Flexibility Score: inf
ROOT
ATOM      1  C   UNL     1      56.791   4.673  94.735  1.00  0.00     0.000 C 
ENDROOT
BRANCH   1   2
ATOM      2  C   UNL     1      56.365   3.214  94.961  1.00  0.00     0.000 C 
BRANCH   2   3
ATOM      3  C   UNL     1      57.547   2.234  94.901  1.00  0.00     0.000 C 
BRANCH   3   4
ATOM      4  C   UNL     1      57.707   1.419  96.196  1.00  0.00     0.000 C 
BRANCH   4   5
ATOM      5  C   UNL     1      58.807   1.977  97.113  1.00  0.00     0.000 C 
BRANCH   5   6
ATOM      6  C   UNL     1      60.176   1.322  96.859  1.00  0.00     0.000 C 
BRANCH   6   7
ATOM      7  C   UNL     1      60.060  -0.173  96.515  1.00  0.00     0.006 C 
BRANCH   7   8
ATOM      8  C   UNL     1      61.051  -0.611  95.429  1.00  0.00     0.053 C 
BRANCH   8   9
ATOM      9  C   UNL     1      60.318  -1.041  94.198  1.00  0.00     0.041 C 
ATOM     10  O   UNL     1      59.791  -0.184  93.442  1.00  0.00    -0.550 OA
ATOM     11  O   UNL     1      60.174  -2.394  93.911  1.00  0.00    -0.550 OA
ENDBRANCH   8   9
ENDBRANCH   7   8
ENDBRANCH   6   7
ENDBRANCH   5   6
ENDBRANCH   4   5
ENDBRANCH   3   4
ENDBRANCH   2   3
ENDBRANCH   1   2
BRANCH   1  12
ATOM     12  C   UNL     1      57.541   5.222  95.955  1.00  0.00     0.000 C 
BRANCH  12  13
ATOM     13  C   UNL     1      59.024   5.453  95.630  1.00  0.00    -0.000 C 
BRANCH  13  14
ATOM     14  C   UNL     1      59.761   6.238  96.729  1.00  0.00    -0.000 C 
BRANCH  14  15
ATOM     15  C   UNL     1      60.762   7.295  96.220  1.00  0.00    -0.000 C 
BRANCH  15  16
ATOM     16  C   UNL     1      60.557   8.716  96.775  1.00  0.00    -0.000 C 
BRANCH  16  17
ATOM     17  C   UNL     1      59.781   9.627  95.808  1.00  0.00    -0.000 C 
BRANCH  17  18
ATOM     18  C   UNL     1      59.845   9.130  94.354  1.00  0.00    -0.000 C 
BRANCH  18  19
ATOM     19  C   UNL     1      58.469   8.713  93.810  1.00  0.00    -0.003 C 
ATOM     20  C   UNL     1      57.393   8.847  94.883  1.00  0.00     0.004 C 
ENDBRANCH  18  19
ENDBRANCH  17  18
ENDBRANCH  16  17
ENDBRANCH  15  16
ENDBRANCH  14  15
ENDBRANCH  13  14
ENDBRANCH  12  13
ENDBRANCH   1  12
TORSDOF 16
ENDMDL
MODEL 3
REMARK VINA RESULT:    -3.053      2.537      4.632
REMARK INTER + INTRA:          -8.818
REMARK INTER:                  -6.038
REMARK INTRA:                  -2.781
REMARK UNBOUND:                -2.910
REMARK SMILES CCCCCCCCCCCCCCCCCC(=O)[O-]
REMARK SMILES IDX 10 1 11 2 12 3 13 4 14 5 15 6 16 7 17 8 18 9 19 10 20 11
REMARK SMILES IDX 9 12 8 13 7 14 6 15 5 16 4 17 3 18 2 19 1 20
REMARK H PARENT
REMARK Flexibility Score: inf
ROOT
ATOM      1  C   UNL     1      58.431  -0.421  91.600  1.00  0.00     0.000 C 
ENDROOT
BRANCH   1   2
ATOM      2  C   UNL     1      57.230   0.434  92.032  1.00  0.00     0.000 C 
BRANCH   2   3
ATOM      3  C   UNL     1      57.534   1.312  93.255  1.00  0.00     0.000 C 
BRANCH   3   4
ATOM      4  C   UNL     1      56.300   2.085  93.751  1.00  0.00     0.000 C 
BRANCH   4   5
ATOM      5  C   UNL     1      56.672   3.308  94.605  1.00  0.00     0.000 C 
BRANCH   5   6
ATOM      6  C   UNL     1      57.261   2.916  95.972  1.00  0.00     0.000 C 
BRANCH   6   7
ATOM      7  C   UNL     1      58.453   3.800  96.376  1.00  0.00     0.006 C 
BRANCH   7   8
ATOM      8  C   UNL     1      58.526   5.103  95.568  1.00  0.00     0.053 C 
BRANCH   8   9
ATOM      9  C   UNL     1      59.292   6.142  96.324  1.00  0.00     0.041 C 
ATOM     10  O   UNL     1      60.549   6.165  96.273  1.00  0.00    -0.550 OA
ATOM     11  O   UNL     1      58.618   7.057  97.125  1.00  0.00    -0.550 OA
ENDBRANCH   8   9
ENDBRANCH   7   8
ENDBRANCH   6   7
ENDBRANCH   5   6
ENDBRANCH   4   5
ENDBRANCH   3   4
ENDBRANCH   2   3
ENDBRANCH   1   2
BRANCH   1  12
ATOM     12  C   UNL     1      59.628  -0.198  92.532  1.00  0.00     0.000 C 
BRANCH  12  13
ATOM     13  C   UNL     1      60.266  -1.534  92.938  1.00  0.00    -0.000 C 
BRANCH  13  14
ATOM     14  C   UNL     1      60.581  -1.615  94.442  1.00  0.00    -0.000 C 
BRANCH  14  15
ATOM     15  C   UNL     1      60.680  -0.256  95.164  1.00  0.00    -0.000 C 
BRANCH  15  16
ATOM     16  C   UNL     1      59.534   0.053  96.145  1.00  0.00    -0.000 C 
BRANCH  16  17
ATOM     17  C   UNL     1      58.507  -1.088  96.239  1.00  0.00    -0.000 C 
BRANCH  17  18
ATOM     18  C   UNL     1      57.060  -0.573  96.317  1.00  0.00    -0.000 C 
BRANCH  18  19
ATOM     19  C   UNL     1      56.067  -1.485  95.580  1.00  0.00    -0.003 C 
ATOM     20  C   UNL     1      56.772  -2.310  94.508  1.00  0.00     0.004 C 
ENDBRANCH  18  19
ENDBRANCH  17  18
ENDBRANCH  16  17
ENDBRANCH  15  16
ENDBRANCH  14  15
ENDBRANCH  13  14
ENDBRANCH  12  13
ENDBRANCH   1  12
TORSDOF 16
ENDMDL
MODEL 4
REMARK VINA RESULT:    -3.023      3.750      5.834
REMARK INTER + INTRA:          -8.761
REMARK INTER:                  -7.192
REMARK INTRA:                  -1.569
REMARK UNBOUND:                -2.910
REMARK SMILES CCCCCCCCCCCCCCCCCC(=O)[O-]
REMARK SMILES IDX 10 1 11 2 12 3 13 4 14 5 15 6 16 7 17 8 18 9 19 10 20 11
REMARK SMILES IDX 9 12 8 13 7 14 6 15 5 16 4 17 3 18 2 19 1 20
REMARK H PARENT
REMARK Flexibility Score: inf
ROOT
ATOM      1  C   UNL     1      60.159   1.285  96.777  1.00  0.00     0.000 C 
ENDROOT
BRANCH   1   2
ATOM      2  C   UNL     1      58.702   1.233  96.290  1.00  0.00     0.000 C 
BRANCH   2   3
ATOM      3  C   UNL     1      57.868   2.426  96.782  1.00  0.00     0.000 C 
BRANCH   3   4
ATOM      4  C   UNL     1      58.521   3.781  96.453  1.00  0.00     0.000 C 
BRANCH   4   5
ATOM      5  C   UNL     1      57.534   4.771  95.812  1.00  0.00     0.000 C 
BRANCH   5   6
ATOM      6  C   UNL     1      58.077   6.211  95.786  1.00  0.00     0.000 C 
BRANCH   6   7
ATOM      7  C   UNL     1      59.532   6.283  95.292  1.00  0.00     0.006 C 
BRANCH   7   8
ATOM      8  C   UNL     1      60.486   6.871  96.340  1.00  0.00     0.053 C 
BRANCH   8   9
ATOM      9  C   UNL     1      60.942   8.233  95.922  1.00  0.00     0.041 C 
ATOM     10  O   UNL     1      61.125   9.132  96.784  1.00  0.00    -0.550 OA
ATOM     11  O   UNL     1      61.120   8.524  94.575  1.00  0.00    -0.550 OA
ENDBRANCH   8   9
ENDBRANCH   7   8
ENDBRANCH   6   7
ENDBRANCH   5   6
ENDBRANCH   4   5
ENDBRANCH   3   4
ENDBRANCH   2   3
ENDBRANCH   1   2
BRANCH   1  12
ATOM     12  C   UNL     1      60.816  -0.097  96.690  1.00  0.00     0.000 C 
BRANCH  12  13
ATOM     13  C   UNL     1      60.129  -0.968  95.628  1.00  0.00    -0.000 C 
BRANCH  13  14
ATOM     14  C   UNL     1      61.076  -1.379  94.487  1.00  0.00    -0.000 C 
BRANCH  14  15
ATOM     15  C   UNL     1      60.432  -1.431  93.087  1.00  0.00    -0.000 C 
BRANCH  15  16
ATOM     16  C   UNL     1      59.575  -0.207  92.711  1.00  0.00    -0.000 C 
BRANCH  16  17
ATOM     17  C   UNL     1      58.289  -0.590  91.960  1.00  0.00    -0.000 C 
BRANCH  17  18
ATOM     18  C   UNL     1      57.037  -0.489  92.847  1.00  0.00    -0.000 C 
BRANCH  18  19
ATOM     19  C   UNL     1      56.643  -1.837  93.469  1.00  0.00    -0.003 C 
ATOM     20  C   UNL     1      56.499  -1.721  94.984  1.00  0.00     0.004 C 
ENDBRANCH  18  19
ENDBRANCH  17  18
ENDBRANCH  16  17
ENDBRANCH  15  16
ENDBRANCH  14  15
ENDBRANCH  13  14
ENDBRANCH  12  13
ENDBRANCH   1  12
TORSDOF 16
ENDMDL
MODEL 5
REMARK VINA RESULT:    -3.011      4.066      6.237
REMARK INTER + INTRA:          -8.738
REMARK INTER:                  -7.155
REMARK INTRA:                  -1.582
REMARK UNBOUND:                -2.910
REMARK SMILES CCCCCCCCCCCCCCCCCC(=O)[O-]
REMARK SMILES IDX 10 1 11 2 12 3 13 4 14 5 15 6 16 7 17 8 18 9 19 10 20 11
REMARK SMILES IDX 9 12 8 13 7 14 6 15 5 16 4 17 3 18 2 19 1 20
REMARK H PARENT
REMARK Flexibility Score: inf
ROOT
ATOM      1  C   UNL     1      57.325   2.692  95.688  1.00  0.00     0.000 C 
ENDROOT
BRANCH   1   2
ATOM      2  C   UNL     1      57.821   3.214  97.045  1.00  0.00     0.000 C 
BRANCH   2   3
ATOM      3  C   UNL     1      57.861   4.749  97.113  1.00  0.00     0.000 C 
BRANCH   3   4
ATOM      4  C   UNL     1      58.779   5.365  96.043  1.00  0.00     0.000 C 
BRANCH   4   5
ATOM      5  C   UNL     1      60.239   5.477  96.512  1.00  0.00     0.000 C 
BRANCH   5   6
ATOM      6  C   UNL     1      60.902   6.794  96.070  1.00  0.00     0.000 C 
BRANCH   6   7
ATOM      7  C   UNL     1      61.001   6.919  94.541  1.00  0.00     0.006 C 
BRANCH   7   8
ATOM      8  C   UNL     1      60.733   8.346  94.043  1.00  0.00     0.053 C 
BRANCH   8   9
ATOM      9  C   UNL     1      59.531   8.918  94.724  1.00  0.00     0.041 C 
ATOM     10  O   UNL     1      58.376   8.540  94.396  1.00  0.00    -0.550 OA
ATOM     11  O   UNL     1      59.683   9.907  95.690  1.00  0.00    -0.550 OA
ENDBRANCH   8   9
ENDBRANCH   7   8
ENDBRANCH   6   7
ENDBRANCH   5   6
ENDBRANCH   4   5
ENDBRANCH   3   4
ENDBRANCH   2   3
ENDBRANCH   1   2
BRANCH   1  12
ATOM     12  C   UNL     1      58.136   1.471  95.240  1.00  0.00     0.000 C 
BRANCH  12  13
ATOM     13  C   UNL     1      59.183   1.088  96.296  1.00  0.00    -0.000 C 
BRANCH  13  14
ATOM     14  C   UNL     1      59.665  -0.368  96.160  1.00  0.00    -0.000 C 
BRANCH  14  15
ATOM     15  C   UNL     1      60.948  -0.558  95.327  1.00  0.00    -0.000 C 
BRANCH  15  16
ATOM     16  C   UNL     1      60.772  -1.353  94.020  1.00  0.00    -0.000 C 
BRANCH  16  17
ATOM     17  C   UNL     1      59.338  -1.876  93.830  1.00  0.00    -0.000 C 
BRANCH  17  18
ATOM     18  C   UNL     1      58.706  -1.397  92.512  1.00  0.00    -0.000 C 
BRANCH  18  19
ATOM     19  C   UNL     1      59.354  -0.110  91.979  1.00  0.00    -0.003 C 
ATOM     20  C   UNL     1      58.578   0.440  90.786  1.00  0.00     0.004 C 
ENDBRANCH  18  19
ENDBRANCH  17  18
ENDBRANCH  16  17
ENDBRANCH  15  16
ENDBRANCH  14  15
ENDBRANCH  13  14
ENDBRANCH  12  13
ENDBRANCH   1  12
TORSDOF 16
ENDMDL
MODEL 6
REMARK VINA RESULT:    -3.003      3.321      5.375
REMARK INTER + INTRA:          -8.723
REMARK INTER:                  -7.069
REMARK INTRA:                  -1.654
REMARK UNBOUND:                -2.910
REMARK SMILES CCCCCCCCCCCCCCCCCC(=O)[O-]
REMARK SMILES IDX 10 1 11 2 12 3 13 4 14 5 15 6 16 7 17 8 18 9 19 10 20 11
REMARK SMILES IDX 9 12 8 13 7 14 6 15 5 16 4 17 3 18 2 19 1 20
REMARK H PARENT
REMARK Flexibility Score: inf
ROOT
ATOM      1  C   UNL     1      59.661   1.701  96.963  1.00  0.00     0.000 C 
ENDROOT
BRANCH   1   2
ATOM      2  C   UNL     1      60.702   0.589  96.762  1.00  0.00     0.000 C 
BRANCH   2   3
ATOM      3  C   UNL     1      60.145  -0.614  95.985  1.00  0.00     0.000 C 
BRANCH   3   4
ATOM      4  C   UNL     1      61.024  -1.000  94.782  1.00  0.00     0.000 C 
BRANCH   4   5
ATOM      5  C   UNL     1      60.210  -1.601  93.625  1.00  0.00     0.000 C 
BRANCH   5   6
ATOM      6  C   UNL     1      59.887  -0.566  92.531  1.00  0.00     0.000 C 
BRANCH   6   7
ATOM      7  C   UNL     1      58.557   0.162  92.783  1.00  0.00     0.006 C 
BRANCH   7   8
ATOM      8  C   UNL     1      57.473  -0.762  93.354  1.00  0.00     0.053 C 
BRANCH   8   9
ATOM      9  C   UNL     1      56.131  -0.108  93.266  1.00  0.00     0.041 C 
ATOM     10  O   UNL     1      56.037   1.147  93.249  1.00  0.00    -0.550 OA
ATOM     11  O   UNL     1      54.978  -0.884  93.252  1.00  0.00    -0.550 OA
ENDBRANCH   8   9
ENDBRANCH   7   8
ENDBRANCH   6   7
ENDBRANCH   5   6
ENDBRANCH   4   5
ENDBRANCH   3   4
ENDBRANCH   2   3
ENDBRANCH   1   2
BRANCH   1  12
ATOM     12  C   UNL     1      58.317   1.315  96.334  1.00  0.00     0.000 C 
BRANCH  12  13
ATOM     13  C   UNL     1      57.396   2.537  96.209  1.00  0.00    -0.000 C 
BRANCH  13  14
ATOM     14  C   UNL     1      58.101   3.856  96.569  1.00  0.00    -0.000 C 
BRANCH  14  15
ATOM     15  C   UNL     1      57.754   5.054  95.662  1.00  0.00    -0.000 C 
BRANCH  15  16
ATOM     16  C   UNL     1      58.954   5.906  95.209  1.00  0.00    -0.000 C 
BRANCH  16  17
ATOM     17  C   UNL     1      60.099   5.914  96.236  1.00  0.00    -0.000 C 
BRANCH  17  18
ATOM     18  C   UNL     1      60.965   7.181  96.143  1.00  0.00    -0.000 C 
BRANCH  18  19
ATOM     19  C   UNL     1      60.768   7.937  94.820  1.00  0.00    -0.003 C 
ATOM     20  C   UNL     1      60.179   9.323  95.063  1.00  0.00     0.004 C 
ENDBRANCH  18  19
ENDBRANCH  17  18
ENDBRANCH  16  17
ENDBRANCH  15  16
ENDBRANCH  14  15
ENDBRANCH  13  14
ENDBRANCH  12  13
ENDBRANCH   1  12
TORSDOF 16
ENDMDL
MODEL 7
REMARK VINA RESULT:    -2.996      1.883      4.825
REMARK INTER + INTRA:          -8.708
REMARK INTER:                  -5.754
REMARK INTRA:                  -2.954
REMARK UNBOUND:                -2.910
REMARK SMILES CCCCCCCCCCCCCCCCCC(=O)[O-]
REMARK SMILES IDX 10 1 11 2 12 3 13 4 14 5 15 6 16 7 17 8 18 9 19 10 20 11
REMARK SMILES IDX 9 12 8 13 7 14 6 15 5 16 4 17 3 18 2 19 1 20
REMARK H PARENT
REMARK Flexibility Score: inf
ROOT
ATOM      1  C   UNL     1      58.360   1.624  95.445  1.00  0.00     0.000 C 
ENDROOT
BRANCH   1   2
ATOM      2  C   UNL     1      56.843   1.508  95.658  1.00  0.00     0.000 C 
BRANCH   2   3
ATOM      3  C   UNL     1      56.328   0.069  95.496  1.00  0.00     0.000 C 
BRANCH   3   4
ATOM      4  C   UNL     1      56.138  -0.647  96.845  1.00  0.00     0.000 C 
BRANCH   4   5
ATOM      5  C   UNL     1      56.845  -2.012  96.894  1.00  0.00     0.000 C 
BRANCH   5   6
ATOM      6  C   UNL     1      55.874  -3.186  96.673  1.00  0.00     0.000 C 
BRANCH   6   7
ATOM      7  C   UNL     1      56.000  -3.798  95.267  1.00  0.00     0.006 C 
BRANCH   7   8
ATOM      8  C   UNL     1      54.642  -3.971  94.572  1.00  0.00     0.053 C 
BRANCH   8   9
ATOM      9  C   UNL     1      54.138  -2.652  94.079  1.00  0.00     0.041 C 
ATOM     10  O   UNL     1      53.247  -2.035  94.720  1.00  0.00    -0.550 OA
ATOM     11  O   UNL     1      54.616  -2.126  92.885  1.00  0.00    -0.550 OA
ENDBRANCH   8   9
ENDBRANCH   7   8
ENDBRANCH   6   7
ENDBRANCH   5   6
ENDBRANCH   4   5
ENDBRANCH   3   4
ENDBRANCH   2   3
ENDBRANCH   1   2
BRANCH   1  12
ATOM     12  C   UNL     1      59.104   1.621  96.786  1.00  0.00     0.000 C 
BRANCH  12  13
ATOM     13  C   UNL     1      60.394   0.794  96.698  1.00  0.00    -0.000 C 
BRANCH  13  14
ATOM     14  C   UNL     1      60.169  -0.603  96.093  1.00  0.00    -0.000 C 
BRANCH  14  15
ATOM     15  C   UNL     1      61.125  -0.981  94.944  1.00  0.00    -0.000 C 
BRANCH  15  16
ATOM     16  C   UNL     1      60.441  -1.360  93.617  1.00  0.00    -0.000 C 
BRANCH  16  17
ATOM     17  C   UNL     1      59.048  -1.980  93.821  1.00  0.00    -0.000 C 
BRANCH  17  18
ATOM     18  C   UNL     1      58.028  -1.493  92.778  1.00  0.00    -0.000 C 
BRANCH  18  19
ATOM     19  C   UNL     1      58.598  -0.405  91.856  1.00  0.00    -0.003 C 
ATOM     20  C   UNL     1      57.753   0.864  91.918  1.00  0.00     0.004 C 
ENDBRANCH  18  19
ENDBRANCH  17  18
ENDBRANCH  16  17
ENDBRANCH  15  16
ENDBRANCH  14  15
ENDBRANCH  13  14
ENDBRANCH  12  13
ENDBRANCH   1  12
TORSDOF 16
ENDMDL
MODEL 8
REMARK VINA RESULT:    -2.988      4.266      6.955
REMARK INTER + INTRA:          -8.693
REMARK INTER:                  -7.160
REMARK INTRA:                  -1.532
REMARK UNBOUND:                -2.910
REMARK SMILES CCCCCCCCCCCCCCCCCC(=O)[O-]
REMARK SMILES IDX 10 1 11 2 12 3 13 4 14 5 15 6 16 7 17 8 18 9 19 10 20 11
REMARK SMILES IDX 9 12 8 13 7 14 6 15 5 16 4 17 3 18 2 19 1 20
REMARK H PARENT
REMARK Flexibility Score: inf
ROOT
ATOM      1  C   UNL     1      56.460   2.273  95.819  1.00  0.00     0.000 C 
ENDROOT
BRANCH   1   2
ATOM      2  C   UNL     1      57.541   1.873  96.834  1.00  0.00     0.000 C 
BRANCH   2   3
ATOM      3  C   UNL     1      58.945   1.809  96.213  1.00  0.00     0.000 C 
BRANCH   3   4
ATOM      4  C   UNL     1      59.965   1.104  97.125  1.00  0.00     0.000 C 
BRANCH   4   5
ATOM      5  C   UNL     1      60.624  -0.109  96.447  1.00  0.00     0.000 C 
BRANCH   5   6
ATOM      6  C   UNL     1      59.840  -0.594  95.215  1.00  0.00     0.000 C 
BRANCH   6   7
ATOM      7  C   UNL     1      60.758  -0.949  94.034  1.00  0.00     0.006 C 
BRANCH   7   8
ATOM      8  C   UNL     1      60.758  -2.449  93.711  1.00  0.00     0.053 C 
BRANCH   8   9
ATOM      9  C   UNL     1      60.428  -2.672  92.269  1.00  0.00     0.041 C 
ATOM     10  O   UNL     1      59.569  -1.951  91.697  1.00  0.00    -0.550 OA
ATOM     11  O   UNL     1      61.034  -3.708  91.569  1.00  0.00    -0.550 OA
ENDBRANCH   8   9
ENDBRANCH   7   8
ENDBRANCH   6   7
ENDBRANCH   5   6
ENDBRANCH   4   5
ENDBRANCH   3   4
ENDBRANCH   2   3
ENDBRANCH   1   2
BRANCH   1  12
ATOM     12  C   UNL     1      57.068   3.052  94.647  1.00  0.00     0.000 C 
BRANCH  12  13
ATOM     13  C   UNL     1      56.609   4.518  94.662  1.00  0.00    -0.000 C 
BRANCH  13  14
ATOM     14  C   UNL     1      57.769   5.505  94.875  1.00  0.00    -0.000 C 
BRANCH  14  15
ATOM     15  C   UNL     1      58.163   5.746  96.347  1.00  0.00    -0.000 C 
BRANCH  15  16
ATOM     16  C   UNL     1      59.609   5.361  96.712  1.00  0.00    -0.000 C 
BRANCH  16  17
ATOM     17  C   UNL     1      60.649   6.338  96.135  1.00  0.00    -0.000 C 
BRANCH  17  18
ATOM     18  C   UNL     1      60.250   7.809  96.338  1.00  0.00    -0.000 C 
BRANCH  18  19
ATOM     19  C   UNL     1      60.239   8.605  95.024  1.00  0.00    -0.003 C 
ATOM     20  C   UNL     1      61.047   9.892  95.156  1.00  0.00     0.004 C 
ENDBRANCH  18  19
ENDBRANCH  17  18
ENDBRANCH  16  17
ENDBRANCH  15  16
ENDBRANCH  14  15
ENDBRANCH  13  14
ENDBRANCH  12  13
ENDBRANCH   1  12
TORSDOF 16
ENDMDL
MODEL 9
REMARK VINA RESULT:    -2.954      1.556      3.909
REMARK INTER + INTRA:          -8.628
REMARK INTER:                  -5.840
REMARK INTRA:                  -2.789
REMARK UNBOUND:                -2.910
REMARK SMILES CCCCCCCCCCCCCCCCCC(=O)[O-]
REMARK SMILES IDX 10 1 11 2 12 3 13 4 14 5 15 6 16 7 17 8 18 9 19 10 20 11
REMARK SMILES IDX 9 12 8 13 7 14 6 15 5 16 4 17 3 18 2 19 1 20
REMARK H PARENT
REMARK Flexibility Score: inf
ROOT
ATOM      1  C   UNL     1      59.904  -0.452  95.860  1.00  0.00     0.000 C 
ENDROOT
BRANCH   1   2
ATOM      2  C   UNL     1      60.376   0.764  96.673  1.00  0.00     0.000 C 
BRANCH   2   3
ATOM      3  C   UNL     1      59.260   1.796  96.901  1.00  0.00     0.000 C 
BRANCH   3   4
ATOM      4  C   UNL     1      57.891   1.310  96.392  1.00  0.00     0.000 C 
BRANCH   4   5
ATOM      5  C   UNL     1      57.043   2.448  95.802  1.00  0.00     0.000 C 
BRANCH   5   6
ATOM      6  C   UNL     1      56.997   2.414  94.264  1.00  0.00     0.000 C 
BRANCH   6   7
ATOM      7  C   UNL     1      57.111   0.987  93.703  1.00  0.00     0.006 C 
BRANCH   7   8
ATOM      8  C   UNL     1      58.140   0.876  92.569  1.00  0.00     0.053 C 
BRANCH   8   9
ATOM      9  C   UNL     1      57.453   0.609  91.267  1.00  0.00     0.041 C 
ATOM     10  O   UNL     1      56.207   0.437  91.231  1.00  0.00    -0.550 OA
ATOM     11  O   UNL     1      58.197   0.503  90.098  1.00  0.00    -0.550 OA
ENDBRANCH   8   9
ENDBRANCH   7   8
ENDBRANCH   6   7
ENDBRANCH   5   6
ENDBRANCH   4   5
ENDBRANCH   3   4
ENDBRANCH   2   3
ENDBRANCH   1   2
BRANCH   1  12
ATOM     12  C   UNL     1      60.750  -0.627  94.593  1.00  0.00     0.000 C 
BRANCH  12  13
ATOM     13  C   UNL     1      60.752  -2.091  94.131  1.00  0.00    -0.000 C 
BRANCH  13  14
ATOM     14  C   UNL     1      59.930  -2.315  92.849  1.00  0.00    -0.000 C 
BRANCH  14  15
ATOM     15  C   UNL     1      58.766  -3.317  92.985  1.00  0.00    -0.000 C 
BRANCH  15  16
ATOM     16  C   UNL     1      57.375  -2.686  93.184  1.00  0.00    -0.000 C 
BRANCH  16  17
ATOM     17  C   UNL     1      56.708  -3.119  94.500  1.00  0.00    -0.000 C 
BRANCH  17  18
ATOM     18  C   UNL     1      56.992  -2.143  95.654  1.00  0.00    -0.000 C 
BRANCH  18  19
ATOM     19  C   UNL     1      55.782  -1.953  96.581  1.00  0.00    -0.003 C 
ATOM     20  C   UNL     1      54.856  -0.860  96.056  1.00  0.00     0.004 C 
ENDBRANCH  18  19
ENDBRANCH  17  18
ENDBRANCH  16  17
ENDBRANCH  15  16
ENDBRANCH  14  15
ENDBRANCH  13  14
ENDBRANCH  12  13
ENDBRANCH   1  12
TORSDOF 16
ENDMDL
