MODEL 1
REMARK VINA RESULT:    -6.106      0.000      0.000
REMARK INTER + INTRA:          -6.687
REMARK INTER:                  -6.641
REMARK INTRA:                  -0.046
REMARK UNBOUND:                -0.046
REMARK SMILES COc1cc2ccc(=O)oc2cc1O
REMARK SMILES IDX 3 1 13 2 12 3 11 4 5 5 4 6 6 7 7 8 8 9 9 10 10 11 2 12 1 13
REMARK SMILES IDX 14 14
REMARK H PARENT 14 15
REMARK Flexibility Score: inf
ROOT
ATOM      1  C   UNL     1     -31.202  -2.410 -19.818  1.00  0.00     0.161 A 
ATOM      2  C   UNL     1     -32.575  -2.413 -20.133  1.00  0.00     0.161 A 
ATOM      3  C   UNL     1     -33.500  -2.979 -19.248  1.00  0.00     0.098 A 
ATOM      4  C   UNL     1     -33.072  -3.546 -18.045  1.00  0.00     0.142 A 
ATOM      5  C   UNL     1     -31.699  -3.549 -17.722  1.00  0.00     0.022 A 
ATOM      6  C   UNL     1     -30.770  -2.982 -18.605  1.00  0.00     0.062 A 
ATOM      7  C   UNL     1     -31.302  -4.125 -16.510  1.00  0.00     0.019 A 
ATOM      8  C   UNL     1     -32.264  -4.675 -15.666  1.00  0.00     0.094 A 
ATOM      9  C   UNL     1     -33.608  -4.637 -16.052  1.00  0.00     0.336 A 
ATOM     10  O   UNL     1     -34.492  -5.129 -15.304  1.00  0.00    -0.246 OA
ATOM     11  O   UNL     1     -33.958  -4.083 -17.211  1.00  0.00    -0.423 OA
ENDROOT
BRANCH   1  12
ATOM     12  O   UNL     1     -30.302  -1.833 -20.729  1.00  0.00    -0.493 OA
ATOM     13  C   UNL     1     -28.947  -2.241 -20.894  1.00  0.00     0.278 C 
ENDBRANCH   1  12
BRANCH   2  14
ATOM     14  O   UNL     1     -33.041  -1.856 -21.323  1.00  0.00    -0.504 OA
ATOM     15  H   UNL     1     -33.745  -2.308 -21.893  1.00  0.00     0.293 HD
ENDBRANCH   2  14
TORSDOF 2
ENDMDL
MODEL 2
REMARK VINA RESULT:    -5.805      4.648      7.387
REMARK INTER + INTRA:          -6.359
REMARK INTER:                  -6.315
REMARK INTRA:                  -0.044
REMARK UNBOUND:                -0.046
REMARK SMILES COc1cc2ccc(=O)oc2cc1O
REMARK SMILES IDX 3 1 13 2 12 3 11 4 5 5 4 6 6 7 7 8 8 9 9 10 10 11 2 12 1 13
REMARK SMILES IDX 14 14
REMARK H PARENT 14 15
REMARK Flexibility Score: inf
ROOT
ATOM      1  C   UNL     1     -35.161  -5.768 -15.022  1.00  0.00     0.161 A 
ATOM      2  C   UNL     1     -35.509  -5.385 -13.711  1.00  0.00     0.161 A 
ATOM      3  C   UNL     1     -36.630  -5.944 -13.087  1.00  0.00     0.098 A 
ATOM      4  C   UNL     1     -37.416  -6.886 -13.757  1.00  0.00     0.142 A 
ATOM      5  C   UNL     1     -37.076  -7.274 -15.069  1.00  0.00     0.022 A 
ATOM      6  C   UNL     1     -35.954  -6.717 -15.697  1.00  0.00     0.062 A 
ATOM      7  C   UNL     1     -37.883  -8.218 -15.713  1.00  0.00     0.019 A 
ATOM      8  C   UNL     1     -38.989  -8.743 -15.047  1.00  0.00     0.094 A 
ATOM      9  C   UNL     1     -39.264  -8.310 -13.746  1.00  0.00     0.336 A 
ATOM     10  O   UNL     1     -40.258  -8.772 -13.126  1.00  0.00    -0.246 OA
ATOM     11  O   UNL     1     -38.481  -7.411 -13.156  1.00  0.00    -0.423 OA
ENDROOT
BRANCH   1  12
ATOM     12  O   UNL     1     -34.029  -5.187 -15.617  1.00  0.00    -0.493 OA
ATOM     13  C   UNL     1     -33.419  -5.654 -16.816  1.00  0.00     0.278 C 
ENDBRANCH   1  12
BRANCH   2  14
ATOM     14  O   UNL     1     -34.749  -4.449 -13.010  1.00  0.00    -0.504 OA
ATOM     15  H   UNL     1     -34.982  -3.463 -12.997  1.00  0.00     0.293 HD
ENDBRANCH   2  14
TORSDOF 2
ENDMDL
MODEL 3
REMARK VINA RESULT:    -5.792      4.757      8.445
REMARK INTER + INTRA:          -6.345
REMARK INTER:                  -6.285
REMARK INTRA:                  -0.061
REMARK UNBOUND:                -0.046
REMARK SMILES COc1cc2ccc(=O)oc2cc1O
REMARK SMILES IDX 3 1 13 2 12 3 11 4 5 5 4 6 6 7 7 8 8 9 9 10 10 11 2 12 1 13
REMARK SMILES IDX 14 14
REMARK H PARENT 14 15
REMARK Flexibility Score: inf
ROOT
ATOM      1  C   UNL     1     -38.538  -7.393 -13.754  1.00  0.00     0.161 A 
ATOM      2  C   UNL     1     -38.519  -8.051 -15.000  1.00  0.00     0.161 A 
ATOM      3  C   UNL     1     -37.495  -7.790 -15.918  1.00  0.00     0.098 A 
ATOM      4  C   UNL     1     -36.483  -6.878 -15.610  1.00  0.00     0.142 A 
ATOM      5  C   UNL     1     -36.495  -6.215 -14.365  1.00  0.00     0.022 A 
ATOM      6  C   UNL     1     -37.518  -6.473 -13.442  1.00  0.00     0.062 A 
ATOM      7  C   UNL     1     -35.468  -5.307 -14.086  1.00  0.00     0.019 A 
ATOM      8  C   UNL     1     -34.473  -5.085 -15.037  1.00  0.00     0.094 A 
ATOM      9  C   UNL     1     -34.527  -5.779 -16.250  1.00  0.00     0.336 A 
ATOM     10  O   UNL     1     -33.638  -5.592 -17.122  1.00  0.00    -0.246 OA
ATOM     11  O   UNL     1     -35.515  -6.637 -16.490  1.00  0.00    -0.423 OA
ENDROOT
BRANCH   1  12
ATOM     12  O   UNL     1     -39.580  -7.679 -12.856  1.00  0.00    -0.493 OA
ATOM     13  C   UNL     1     -40.787  -6.930 -12.756  1.00  0.00     0.278 C 
ENDBRANCH   1  12
BRANCH   2  14
ATOM     14  O   UNL     1     -39.511  -8.968 -15.344  1.00  0.00    -0.504 OA
ATOM     15  H   UNL     1     -39.303  -9.838 -15.820  1.00  0.00     0.293 HD
ENDBRANCH   2  14
TORSDOF 2
ENDMDL
MODEL 4
REMARK VINA RESULT:    -5.770      2.476      4.079
REMARK INTER + INTRA:          -6.322
REMARK INTER:                  -6.269
REMARK INTRA:                  -0.053
REMARK UNBOUND:                -0.046
REMARK SMILES COc1cc2ccc(=O)oc2cc1O
REMARK SMILES IDX 3 1 13 2 12 3 11 4 5 5 4 6 6 7 7 8 8 9 9 10 10 11 2 12 1 13
REMARK SMILES IDX 14 14
REMARK H PARENT 14 15
REMARK Flexibility Score: inf
ROOT
ATOM      1  C   UNL     1     -31.101  -5.278 -16.751  1.00  0.00     0.161 A 
ATOM      2  C   UNL     1     -30.866  -3.975 -17.231  1.00  0.00     0.161 A 
ATOM      3  C   UNL     1     -31.929  -3.196 -17.703  1.00  0.00     0.098 A 
ATOM      4  C   UNL     1     -33.231  -3.701 -17.702  1.00  0.00     0.142 A 
ATOM      5  C   UNL     1     -33.475  -5.005 -17.224  1.00  0.00     0.022 A 
ATOM      6  C   UNL     1     -32.414  -5.789 -16.750  1.00  0.00     0.062 A 
ATOM      7  C   UNL     1     -34.790  -5.483 -17.237  1.00  0.00     0.019 A 
ATOM      8  C   UNL     1     -35.811  -4.666 -17.717  1.00  0.00     0.094 A 
ATOM      9  C   UNL     1     -35.494  -3.383 -18.176  1.00  0.00     0.336 A 
ATOM     10  O   UNL     1     -36.402  -2.629 -18.615  1.00  0.00    -0.246 OA
ATOM     11  O   UNL     1     -34.235  -2.954 -18.153  1.00  0.00    -0.423 OA
ENDROOT
BRANCH   1  12
ATOM     12  O   UNL     1     -30.011  -6.032 -16.284  1.00  0.00    -0.493 OA
ATOM     13  C   UNL     1     -29.706  -7.358 -16.707  1.00  0.00     0.278 C 
ENDBRANCH   1  12
BRANCH   2  14
ATOM     14  O   UNL     1     -29.580  -3.435 -17.247  1.00  0.00    -0.504 OA
ATOM     15  H   UNL     1     -29.295  -2.698 -16.613  1.00  0.00     0.293 HD
ENDBRANCH   2  14
TORSDOF 2
ENDMDL
MODEL 5
REMARK VINA RESULT:    -5.744      1.413      1.829
REMARK INTER + INTRA:          -6.293
REMARK INTER:                  -6.248
REMARK INTRA:                  -0.046
REMARK UNBOUND:                -0.046
REMARK SMILES COc1cc2ccc(=O)oc2cc1O
REMARK SMILES IDX 3 1 13 2 12 3 11 4 5 5 4 6 6 7 7 8 8 9 9 10 10 11 2 12 1 13
REMARK SMILES IDX 14 14
REMARK H PARENT 14 15
REMARK Flexibility Score: inf
ROOT
ATOM      1  C   UNL     1     -31.949  -2.985 -18.750  1.00  0.00     0.161 A 
ATOM      2  C   UNL     1     -33.116  -2.693 -19.484  1.00  0.00     0.161 A 
ATOM      3  C   UNL     1     -34.372  -3.049 -18.981  1.00  0.00     0.098 A 
ATOM      4  C   UNL     1     -34.483  -3.695 -17.748  1.00  0.00     0.142 A 
ATOM      5  C   UNL     1     -33.321  -3.992 -17.006  1.00  0.00     0.022 A 
ATOM      6  C   UNL     1     -32.061  -3.637 -17.506  1.00  0.00     0.062 A 
ATOM      7  C   UNL     1     -33.465  -4.641 -15.775  1.00  0.00     0.019 A 
ATOM      8  C   UNL     1     -34.740  -4.973 -15.321  1.00  0.00     0.094 A 
ATOM      9  C   UNL     1     -35.848  -4.647 -16.111  1.00  0.00     0.336 A 
ATOM     10  O   UNL     1     -37.008  -4.939 -15.719  1.00  0.00    -0.246 OA
ATOM     11  O   UNL     1     -35.682  -4.030 -17.278  1.00  0.00    -0.423 OA
ENDROOT
BRANCH   1  12
ATOM     12  O   UNL     1     -30.704  -2.613 -19.284  1.00  0.00    -0.493 OA
ATOM     13  C   UNL     1     -29.487  -3.318 -19.061  1.00  0.00     0.278 C 
ENDBRANCH   1  12
BRANCH   2  14
ATOM     14  O   UNL     1     -33.045  -2.048 -20.718  1.00  0.00    -0.504 OA
ATOM     15  H   UNL     1     -33.329  -1.083 -20.841  1.00  0.00     0.293 HD
ENDBRANCH   2  14
TORSDOF 2
ENDMDL
MODEL 6
REMARK VINA RESULT:    -5.722      1.974      3.042
REMARK INTER + INTRA:          -6.269
REMARK INTER:                  -6.209
REMARK INTRA:                  -0.060
REMARK UNBOUND:                -0.046
REMARK SMILES COc1cc2ccc(=O)oc2cc1O
REMARK SMILES IDX 3 1 13 2 12 3 11 4 5 5 4 6 6 7 7 8 8 9 9 10 10 11 2 12 1 13
REMARK SMILES IDX 14 14
REMARK H PARENT 14 15
REMARK Flexibility Score: inf
ROOT
ATOM      1  C   UNL     1     -32.221  -2.915 -18.634  1.00  0.00     0.161 A 
ATOM      2  C   UNL     1     -31.598  -3.469 -17.498  1.00  0.00     0.161 A 
ATOM      3  C   UNL     1     -32.271  -4.414 -16.715  1.00  0.00     0.098 A 
ATOM      4  C   UNL     1     -33.566  -4.817 -17.051  1.00  0.00     0.142 A 
ATOM      5  C   UNL     1     -34.197  -4.268 -18.186  1.00  0.00     0.022 A 
ATOM      6  C   UNL     1     -33.526  -3.321 -18.973  1.00  0.00     0.062 A 
ATOM      7  C   UNL     1     -35.494  -4.692 -18.496  1.00  0.00     0.019 A 
ATOM      8  C   UNL     1     -36.119  -5.635 -17.683  1.00  0.00     0.094 A 
ATOM      9  C   UNL     1     -35.431  -6.136 -16.573  1.00  0.00     0.336 A 
ATOM     10  O   UNL     1     -35.978  -6.989 -15.826  1.00  0.00    -0.246 OA
ATOM     11  O   UNL     1     -34.198  -5.715 -16.301  1.00  0.00    -0.423 OA
ENDROOT
BRANCH   1  12
ATOM     12  O   UNL     1     -31.516  -1.969 -19.397  1.00  0.00    -0.493 OA
ATOM     13  C   UNL     1     -30.724  -2.282 -20.539  1.00  0.00     0.278 C 
ENDBRANCH   1  12
BRANCH   2  14
ATOM     14  O   UNL     1     -30.307  -3.092 -17.130  1.00  0.00    -0.504 OA
ATOM     15  H   UNL     1     -30.088  -2.738 -16.206  1.00  0.00     0.293 HD
ENDBRANCH   2  14
TORSDOF 2
ENDMDL
MODEL 7
REMARK VINA RESULT:    -5.640      7.228      9.004
REMARK INTER + INTRA:          -6.180
REMARK INTER:                  -6.117
REMARK INTRA:                  -0.064
REMARK UNBOUND:                -0.046
REMARK SMILES COc1cc2ccc(=O)oc2cc1O
REMARK SMILES IDX 3 1 13 2 12 3 11 4 5 5 4 6 6 7 7 8 8 9 9 10 10 11 2 12 1 13
REMARK SMILES IDX 14 14
REMARK H PARENT 14 15
REMARK Flexibility Score: inf
ROOT
ATOM      1  C   UNL     1     -37.193  -3.945 -12.604  1.00  0.00     0.161 A 
ATOM      2  C   UNL     1     -36.203  -4.876 -12.978  1.00  0.00     0.161 A 
ATOM      3  C   UNL     1     -36.552  -6.204 -13.249  1.00  0.00     0.098 A 
ATOM      4  C   UNL     1     -37.882  -6.620 -13.152  1.00  0.00     0.142 A 
ATOM      5  C   UNL     1     -38.879  -5.695 -12.777  1.00  0.00     0.022 A 
ATOM      6  C   UNL     1     -38.534  -4.364 -12.505  1.00  0.00     0.062 A 
ATOM      7  C   UNL     1     -40.201  -6.143 -12.688  1.00  0.00     0.019 A 
ATOM      8  C   UNL     1     -40.494  -7.476 -12.969  1.00  0.00     0.094 A 
ATOM      9  C   UNL     1     -39.453  -8.336 -13.334  1.00  0.00     0.336 A 
ATOM     10  O   UNL     1     -39.696  -9.544 -13.592  1.00  0.00    -0.246 OA
ATOM     11  O   UNL     1     -38.204  -7.885 -13.411  1.00  0.00    -0.423 OA
ENDROOT
BRANCH   1  12
ATOM     12  O   UNL     1     -36.808  -2.620 -12.339  1.00  0.00    -0.493 OA
ATOM     13  C   UNL     1     -36.761  -2.037 -11.041  1.00  0.00     0.278 C 
ENDBRANCH   1  12
BRANCH   2  14
ATOM     14  O   UNL     1     -34.865  -4.498 -13.087  1.00  0.00    -0.504 OA
ATOM     15  H   UNL     1     -34.569  -3.531 -13.022  1.00  0.00     0.293 HD
ENDBRANCH   2  14
TORSDOF 2
ENDMDL
MODEL 8
REMARK VINA RESULT:    -5.485      2.000      5.231
REMARK INTER + INTRA:          -6.012
REMARK INTER:                  -5.960
REMARK INTRA:                  -0.052
REMARK UNBOUND:                -0.046
REMARK SMILES COc1cc2ccc(=O)oc2cc1O
REMARK SMILES IDX 3 1 13 2 12 3 11 4 5 5 4 6 6 7 7 8 8 9 9 10 10 11 2 12 1 13
REMARK SMILES IDX 14 14
REMARK H PARENT 14 15
REMARK Flexibility Score: inf
ROOT
ATOM      1  C   UNL     1     -35.086  -5.689 -16.614  1.00  0.00     0.161 A 
ATOM      2  C   UNL     1     -35.719  -5.209 -17.778  1.00  0.00     0.161 A 
ATOM      3  C   UNL     1     -35.042  -4.339 -18.640  1.00  0.00     0.098 A 
ATOM      4  C   UNL     1     -33.734  -3.938 -18.357  1.00  0.00     0.142 A 
ATOM      5  C   UNL     1     -33.093  -4.413 -17.194  1.00  0.00     0.022 A 
ATOM      6  C   UNL     1     -33.767  -5.285 -16.328  1.00  0.00     0.062 A 
ATOM      7  C   UNL     1     -31.783  -3.993 -16.938  1.00  0.00     0.019 A 
ATOM      8  C   UNL     1     -31.155  -3.126 -17.830  1.00  0.00     0.094 A 
ATOM      9  C   UNL     1     -31.854  -2.695 -18.962  1.00  0.00     0.336 A 
ATOM     10  O   UNL     1     -31.305  -1.911 -19.780  1.00  0.00    -0.246 OA
ATOM     11  O   UNL     1     -33.099  -3.110 -19.182  1.00  0.00    -0.423 OA
ENDROOT
BRANCH   1  12
ATOM     12  O   UNL     1     -35.795  -6.562 -15.772  1.00  0.00    -0.493 OA
ATOM     13  C   UNL     1     -35.908  -6.406 -14.361  1.00  0.00     0.278 C 
ENDBRANCH   1  12
BRANCH   2  14
ATOM     14  O   UNL     1     -37.024  -5.587 -18.095  1.00  0.00    -0.504 OA
ATOM     15  H   UNL     1     -37.398  -5.505 -19.033  1.00  0.00     0.293 HD
ENDBRANCH   2  14
TORSDOF 2
ENDMDL
MODEL 9
REMARK VINA RESULT:    -5.421      5.287      7.526
REMARK INTER + INTRA:          -5.942
REMARK INTER:                  -5.892
REMARK INTRA:                  -0.049
REMARK UNBOUND:                -0.046
REMARK SMILES COc1cc2ccc(=O)oc2cc1O
REMARK SMILES IDX 3 1 13 2 12 3 11 4 5 5 4 6 6 7 7 8 8 9 9 10 10 11 2 12 1 13
REMARK SMILES IDX 14 14
REMARK H PARENT 14 15
REMARK Flexibility Score: inf
ROOT
ATOM      1  C   UNL     1     -36.233  -5.086 -15.308  1.00  0.00     0.161 A 
ATOM      2  C   UNL     1     -35.843  -6.316 -15.875  1.00  0.00     0.161 A 
ATOM      3  C   UNL     1     -36.541  -7.489 -15.564  1.00  0.00     0.098 A 
ATOM      4  C   UNL     1     -37.630  -7.453 -14.690  1.00  0.00     0.142 A 
ATOM      5  C   UNL     1     -38.027  -6.227 -14.117  1.00  0.00     0.022 A 
ATOM      6  C   UNL     1     -37.331  -5.050 -14.426  1.00  0.00     0.062 A 
ATOM      7  C   UNL     1     -39.122  -6.224 -13.246  1.00  0.00     0.019 A 
ATOM      8  C   UNL     1     -39.781  -7.420 -12.970  1.00  0.00     0.094 A 
ATOM      9  C   UNL     1     -39.330  -8.598 -13.575  1.00  0.00     0.336 A 
ATOM     10  O   UNL     1     -39.912  -9.689 -13.339  1.00  0.00    -0.246 OA
ATOM     11  O   UNL     1     -38.287  -8.573 -14.400  1.00  0.00    -0.423 OA
ENDROOT
BRANCH   1  12
ATOM     12  O   UNL     1     -35.510  -3.929 -15.642  1.00  0.00    -0.493 OA
ATOM     13  C   UNL     1     -36.100  -2.669 -15.945  1.00  0.00     0.278 C 
ENDBRANCH   1  12
BRANCH   2  14
ATOM     14  O   UNL     1     -34.761  -6.392 -16.752  1.00  0.00    -0.504 OA
ATOM     15  H   UNL     1     -34.188  -5.587 -16.976  1.00  0.00     0.293 HD
ENDBRANCH   2  14
TORSDOF 2
ENDMDL
