MODEL 1
REMARK VINA RESULT:    20.161      0.000      0.000
REMARK INTER + INTRA:          37.083
REMARK INTER:                  37.840
REMARK INTRA:                  -0.757
REMARK UNBOUND:                -0.757
REMARK SMILES CCCCCCCCC=CCCCCCCCC(=O)[O-]
REMARK SMILES IDX 10 1 9 2 11 3 12 4 13 5 14 6 15 7 16 8 17 9 18 10 19 11
REMARK SMILES IDX 20 12 8 13 7 14 6 15 5 16 4 17 3 18 2 19 1 20
REMARK H PARENT
REMARK Flexibility Score: inf
ROOT
ATOM      1  C   UNL     1     -38.748  22.125 -18.382  1.00  0.00    -0.031 C 
ATOM      2  C   UNL     1     -37.940  22.845 -19.181  1.00  0.00    -0.031 C 
ENDROOT
BRANCH   1   3
ATOM      3  C   UNL     1     -40.248  22.023 -18.520  1.00  0.00     0.027 C 
BRANCH   3   4
ATOM      4  C   UNL     1     -40.986  23.240 -17.940  1.00  0.00     0.004 C 
BRANCH   4   5
ATOM      5  C   UNL     1     -42.140  22.832 -17.010  1.00  0.00     0.000 C 
BRANCH   5   6
ATOM      6  C   UNL     1     -42.407  23.865 -15.901  1.00  0.00     0.000 C 
BRANCH   6   7
ATOM      7  C   UNL     1     -42.793  23.272 -14.534  1.00  0.00     0.000 C 
BRANCH   7   8
ATOM      8  C   UNL     1     -41.913  23.793 -13.385  1.00  0.00     0.006 C 
BRANCH   8   9
ATOM      9  C   UNL     1     -40.547  24.283 -13.880  1.00  0.00     0.053 C 
BRANCH   9  10
ATOM     10  C   UNL     1     -39.524  24.277 -12.786  1.00  0.00     0.041 C 
ATOM     11  O   UNL     1     -39.829  24.667 -11.628  1.00  0.00    -0.550 OA
ATOM     12  O   UNL     1     -38.223  23.870 -13.055  1.00  0.00    -0.550 OA
ENDBRANCH   9  10
ENDBRANCH   8   9
ENDBRANCH   7   8
ENDBRANCH   6   7
ENDBRANCH   5   6
ENDBRANCH   4   5
ENDBRANCH   3   4
ENDBRANCH   1   3
BRANCH   2  13
ATOM     13  C   UNL     1     -38.390  23.699 -20.345  1.00  0.00     0.027 C 
BRANCH  13  14
ATOM     14  C   UNL     1     -37.462  24.906 -20.566  1.00  0.00     0.004 C 
BRANCH  14  15
ATOM     15  C   UNL     1     -37.946  25.917 -21.627  1.00  0.00     0.000 C 
BRANCH  15  16
ATOM     16  C   UNL     1     -37.279  27.302 -21.572  1.00  0.00     0.000 C 
BRANCH  16  17
ATOM     17  C   UNL     1     -38.243  28.442 -21.944  1.00  0.00    -0.000 C 
BRANCH  17  18
ATOM     18  C   UNL     1     -38.395  29.486 -20.824  1.00  0.00    -0.000 C 
BRANCH  18  19
ATOM     19  C   UNL     1     -39.821  30.029 -20.629  1.00  0.00    -0.003 C 
ATOM     20  C   UNL     1     -40.817  29.477 -21.648  1.00  0.00     0.004 C 
ENDBRANCH  18  19
ENDBRANCH  17  18
ENDBRANCH  16  17
ENDBRANCH  15  16
ENDBRANCH  14  15
ENDBRANCH  13  14
ENDBRANCH   2  13
TORSDOF 15
ENDMDL
MODEL 2
REMARK VINA RESULT:    20.510      3.334      8.313
REMARK INTER + INTRA:          37.737
REMARK INTER:                  38.594
REMARK INTRA:                  -0.857
REMARK UNBOUND:                -0.757
REMARK SMILES CCCCCCCCC=CCCCCCCCC(=O)[O-]
REMARK SMILES IDX 10 1 9 2 11 3 12 4 13 5 14 6 15 7 16 8 17 9 18 10 19 11
REMARK SMILES IDX 20 12 8 13 7 14 6 15 5 16 4 17 3 18 2 19 1 20
REMARK H PARENT
REMARK Flexibility Score: inf
ROOT
ATOM      1  C   UNL     1     -40.449  22.188 -18.503  1.00  0.00    -0.031 C 
ATOM      2  C   UNL     1     -41.600  22.423 -17.846  1.00  0.00    -0.031 C 
ENDROOT
BRANCH   1   3
ATOM      3  C   UNL     1     -39.176  22.986 -18.349  1.00  0.00     0.027 C 
BRANCH   3   4
ATOM      4  C   UNL     1     -37.976  22.337 -19.057  1.00  0.00     0.004 C 
BRANCH   4   5
ATOM      5  C   UNL     1     -37.491  23.166 -20.257  1.00  0.00     0.000 C 
BRANCH   5   6
ATOM      6  C   UNL     1     -38.284  24.472 -20.440  1.00  0.00     0.000 C 
BRANCH   6   7
ATOM      7  C   UNL     1     -37.530  25.598 -21.170  1.00  0.00     0.000 C 
BRANCH   7   8
ATOM      8  C   UNL     1     -38.460  26.509 -21.990  1.00  0.00     0.006 C 
BRANCH   8   9
ATOM      9  C   UNL     1     -37.864  27.907 -22.195  1.00  0.00     0.053 C 
BRANCH   9  10
ATOM     10  C   UNL     1     -38.658  28.960 -21.485  1.00  0.00     0.041 C 
ATOM     11  O   UNL     1     -39.888  29.097 -21.723  1.00  0.00    -0.550 OA
ATOM     12  O   UNL     1     -38.032  29.812 -20.585  1.00  0.00    -0.550 OA
ENDBRANCH   9  10
ENDBRANCH   8   9
ENDBRANCH   7   8
ENDBRANCH   6   7
ENDBRANCH   5   6
ENDBRANCH   4   5
ENDBRANCH   3   4
ENDBRANCH   1   3
BRANCH   2  13
ATOM     13  C   UNL     1     -41.832  23.543 -16.856  1.00  0.00     0.027 C 
BRANCH  13  14
ATOM     14  C   UNL     1     -42.644  23.073 -15.636  1.00  0.00     0.004 C 
BRANCH  14  15
ATOM     15  C   UNL     1     -42.551  23.988 -14.398  1.00  0.00     0.000 C 
BRANCH  15  16
ATOM     16  C   UNL     1     -42.300  23.269 -13.061  1.00  0.00     0.000 C 
BRANCH  16  17
ATOM     17  C   UNL     1     -42.060  24.244 -11.895  1.00  0.00    -0.000 C 
BRANCH  17  18
ATOM     18  C   UNL     1     -40.586  24.664 -11.761  1.00  0.00    -0.000 C 
BRANCH  18  19
ATOM     19  C   UNL     1     -39.592  23.819 -12.577  1.00  0.00    -0.003 C 
ATOM     20  C   UNL     1     -38.824  24.635 -13.616  1.00  0.00     0.004 C 
ENDBRANCH  18  19
ENDBRANCH  17  18
ENDBRANCH  16  17
ENDBRANCH  15  16
ENDBRANCH  14  15
ENDBRANCH  13  14
ENDBRANCH   2  13
TORSDOF 15
ENDMDL
MODEL 3
REMARK VINA RESULT:    20.611      0.790      1.524
REMARK INTER + INTRA:          37.927
REMARK INTER:                  38.733
REMARK INTRA:                  -0.807
REMARK UNBOUND:                -0.757
REMARK SMILES CCCCCCCCC=CCCCCCCCC(=O)[O-]
REMARK SMILES IDX 10 1 9 2 11 3 12 4 13 5 14 6 15 7 16 8 17 9 18 10 19 11
REMARK SMILES IDX 20 12 8 13 7 14 6 15 5 16 4 17 3 18 2 19 1 20
REMARK H PARENT
REMARK Flexibility Score: inf
ROOT
ATOM      1  C   UNL     1     -40.214  21.705 -18.483  1.00  0.00    -0.031 C 
ATOM      2  C   UNL     1     -38.893  21.688 -18.740  1.00  0.00    -0.031 C 
ENDROOT
BRANCH   1   3
ATOM      3  C   UNL     1     -41.051  22.948 -18.293  1.00  0.00     0.027 C 
BRANCH   3   4
ATOM      4  C   UNL     1     -42.099  22.797 -17.178  1.00  0.00     0.004 C 
BRANCH   4   5
ATOM      5  C   UNL     1     -41.820  23.730 -15.988  1.00  0.00     0.000 C 
BRANCH   5   6
ATOM      6  C   UNL     1     -42.756  23.471 -14.795  1.00  0.00     0.000 C 
BRANCH   6   7
ATOM      7  C   UNL     1     -42.487  24.339 -13.553  1.00  0.00     0.000 C 
BRANCH   7   8
ATOM      8  C   UNL     1     -41.624  23.626 -12.498  1.00  0.00     0.006 C 
BRANCH   8   9
ATOM      9  C   UNL     1     -40.419  24.473 -12.071  1.00  0.00     0.053 C 
BRANCH   9  10
ATOM     10  C   UNL     1     -39.215  24.193 -12.917  1.00  0.00     0.041 C 
ATOM     11  O   UNL     1     -38.308  23.426 -12.498  1.00  0.00    -0.550 OA
ATOM     12  O   UNL     1     -39.080  24.807 -14.155  1.00  0.00    -0.550 OA
ENDBRANCH   9  10
ENDBRANCH   8   9
ENDBRANCH   7   8
ENDBRANCH   6   7
ENDBRANCH   5   6
ENDBRANCH   4   5
ENDBRANCH   3   4
ENDBRANCH   1   3
BRANCH   2  13
ATOM     13  C   UNL     1     -38.007  22.907 -18.860  1.00  0.00     0.027 C 
BRANCH  13  14
ATOM     14  C   UNL     1     -37.891  23.393 -20.316  1.00  0.00     0.004 C 
BRANCH  14  15
ATOM     15  C   UNL     1     -37.429  24.856 -20.481  1.00  0.00     0.000 C 
BRANCH  15  16
ATOM     16  C   UNL     1     -38.186  25.672 -21.543  1.00  0.00     0.000 C 
BRANCH  16  17
ATOM     17  C   UNL     1     -37.611  27.087 -21.729  1.00  0.00    -0.000 C 
BRANCH  17  18
ATOM     18  C   UNL     1     -38.688  28.128 -22.081  1.00  0.00    -0.000 C 
BRANCH  18  19
ATOM     19  C   UNL     1     -38.710  29.373 -21.176  1.00  0.00    -0.003 C 
ATOM     20  C   UNL     1     -40.121  29.899 -20.916  1.00  0.00     0.004 C 
ENDBRANCH  18  19
ENDBRANCH  17  18
ENDBRANCH  16  17
ENDBRANCH  15  16
ENDBRANCH  14  15
ENDBRANCH  13  14
ENDBRANCH   2  13
TORSDOF 15
ENDMDL
MODEL 4
REMARK VINA RESULT:    21.107      4.304      8.469
REMARK INTER + INTRA:          38.858
REMARK INTER:                  39.624
REMARK INTRA:                  -0.766
REMARK UNBOUND:                -0.757
REMARK SMILES CCCCCCCCC=CCCCCCCCC(=O)[O-]
REMARK SMILES IDX 10 1 9 2 11 3 12 4 13 5 14 6 15 7 16 8 17 9 18 10 19 11
REMARK SMILES IDX 20 12 8 13 7 14 6 15 5 16 4 17 3 18 2 19 1 20
REMARK H PARENT
REMARK Flexibility Score: inf
ROOT
ATOM      1  C   UNL     1     -37.180  26.507 -21.439  1.00  0.00    -0.031 C 
ATOM      2  C   UNL     1     -36.994  25.367 -20.748  1.00  0.00    -0.031 C 
ENDROOT
BRANCH   1   3
ATOM      3  C   UNL     1     -38.504  27.002 -21.969  1.00  0.00     0.027 C 
BRANCH   3   4
ATOM      4  C   UNL     1     -38.533  28.525 -22.176  1.00  0.00     0.004 C 
BRANCH   4   5
ATOM      5  C   UNL     1     -38.669  29.289 -20.848  1.00  0.00     0.000 C 
BRANCH   5   6
ATOM      6  C   UNL     1     -39.994  30.064 -20.738  1.00  0.00     0.000 C 
BRANCH   6   7
ATOM      7  C   UNL     1     -41.144  29.518 -21.603  1.00  0.00     0.000 C 
BRANCH   7   8
ATOM      8  C   UNL     1     -41.664  30.542 -22.626  1.00  0.00     0.006 C 
BRANCH   8   9
ATOM      9  C   UNL     1     -43.196  30.598 -22.661  1.00  0.00     0.053 C 
BRANCH   9  10
ATOM     10  C   UNL     1     -43.735  31.646 -21.736  1.00  0.00     0.041 C 
ATOM     11  O   UNL     1     -43.183  31.857 -20.624  1.00  0.00    -0.550 OA
ATOM     12  O   UNL     1     -44.869  32.366 -22.090  1.00  0.00    -0.550 OA
ENDBRANCH   9  10
ENDBRANCH   8   9
ENDBRANCH   7   8
ENDBRANCH   6   7
ENDBRANCH   5   6
ENDBRANCH   4   5
ENDBRANCH   3   4
ENDBRANCH   1   3
BRANCH   2  13
ATOM     13  C   UNL     1     -38.073  24.367 -20.401  1.00  0.00     0.027 C 
BRANCH  13  14
ATOM     14  C   UNL     1     -37.487  23.070 -19.814  1.00  0.00     0.004 C 
BRANCH  14  15
ATOM     15  C   UNL     1     -38.450  22.267 -18.914  1.00  0.00     0.000 C 
BRANCH  15  16
ATOM     16  C   UNL     1     -39.617  23.070 -18.314  1.00  0.00     0.000 C 
BRANCH  16  17
ATOM     17  C   UNL     1     -40.922  22.258 -18.237  1.00  0.00    -0.000 C 
BRANCH  17  18
ATOM     18  C   UNL     1     -42.024  22.972 -17.434  1.00  0.00    -0.000 C 
BRANCH  18  19
ATOM     19  C   UNL     1     -41.522  23.821 -16.253  1.00  0.00    -0.003 C 
ATOM     20  C   UNL     1     -42.443  23.757 -15.036  1.00  0.00     0.004 C 
ENDBRANCH  18  19
ENDBRANCH  17  18
ENDBRANCH  16  17
ENDBRANCH  15  16
ENDBRANCH  14  15
ENDBRANCH  13  14
ENDBRANCH   2  13
TORSDOF 15
ENDMDL
MODEL 5
REMARK VINA RESULT:    21.263      1.932      3.905
REMARK INTER + INTRA:          39.152
REMARK INTER:                  39.908
REMARK INTRA:                  -0.756
REMARK UNBOUND:                -0.757
REMARK SMILES CCCCCCCCC=CCCCCCCCC(=O)[O-]
REMARK SMILES IDX 10 1 9 2 11 3 12 4 13 5 14 6 15 7 16 8 17 9 18 10 19 11
REMARK SMILES IDX 20 12 8 13 7 14 6 15 5 16 4 17 3 18 2 19 1 20
REMARK H PARENT
REMARK Flexibility Score: inf
ROOT
ATOM      1  C   UNL     1     -36.995  25.252 -20.577  1.00  0.00    -0.031 C 
ATOM      2  C   UNL     1     -37.089  26.417 -21.244  1.00  0.00    -0.031 C 
ENDROOT
BRANCH   1   3
ATOM      3  C   UNL     1     -38.098  24.229 -20.444  1.00  0.00     0.027 C 
BRANCH   3   4
ATOM      4  C   UNL     1     -37.602  22.886 -19.885  1.00  0.00     0.004 C 
BRANCH   4   5
ATOM      5  C   UNL     1     -38.450  22.402 -18.698  1.00  0.00     0.000 C 
BRANCH   5   6
ATOM      6  C   UNL     1     -39.800  23.133 -18.590  1.00  0.00     0.000 C 
BRANCH   6   7
ATOM      7  C   UNL     1     -40.950  22.301 -17.996  1.00  0.00     0.000 C 
BRANCH   7   8
ATOM      8  C   UNL     1     -42.124  23.165 -17.504  1.00  0.00     0.006 C 
BRANCH   8   9
ATOM      9  C   UNL     1     -41.811  23.859 -16.173  1.00  0.00     0.053 C 
BRANCH   9  10
ATOM     10  C   UNL     1     -42.594  23.269 -15.041  1.00  0.00     0.041 C 
ATOM     11  O   UNL     1     -43.379  22.306 -15.245  1.00  0.00    -0.550 OA
ATOM     12  O   UNL     1     -42.481  23.807 -13.765  1.00  0.00    -0.550 OA
ENDBRANCH   9  10
ENDBRANCH   8   9
ENDBRANCH   7   8
ENDBRANCH   6   7
ENDBRANCH   5   6
ENDBRANCH   4   5
ENDBRANCH   3   4
ENDBRANCH   1   3
BRANCH   2  13
ATOM     13  C   UNL     1     -38.323  26.922 -21.958  1.00  0.00     0.027 C 
BRANCH  13  14
ATOM     14  C   UNL     1     -38.255  28.436 -22.223  1.00  0.00     0.004 C 
BRANCH  14  15
ATOM     15  C   UNL     1     -38.464  29.327 -20.981  1.00  0.00     0.000 C 
BRANCH  15  16
ATOM     16  C   UNL     1     -39.901  29.838 -20.769  1.00  0.00     0.000 C 
BRANCH  16  17
ATOM     17  C   UNL     1     -40.899  29.242 -21.776  1.00  0.00    -0.000 C 
BRANCH  17  18
ATOM     18  C   UNL     1     -41.849  30.296 -22.371  1.00  0.00    -0.000 C 
BRANCH  18  19
ATOM     19  C   UNL     1     -42.916  30.833 -21.401  1.00  0.00    -0.003 C 
ATOM     20  C   UNL     1     -43.938  31.745 -22.078  1.00  0.00     0.004 C 
ENDBRANCH  18  19
ENDBRANCH  17  18
ENDBRANCH  16  17
ENDBRANCH  15  16
ENDBRANCH  14  15
ENDBRANCH  13  14
ENDBRANCH   2  13
TORSDOF 15
ENDMDL
MODEL 6
REMARK VINA RESULT:    21.484      4.494      6.727
REMARK INTER + INTRA:          39.567
REMARK INTER:                  40.483
REMARK INTRA:                  -0.916
REMARK UNBOUND:                -0.757
REMARK SMILES CCCCCCCCC=CCCCCCCCC(=O)[O-]
REMARK SMILES IDX 10 1 9 2 11 3 12 4 13 5 14 6 15 7 16 8 17 9 18 10 19 11
REMARK SMILES IDX 20 12 8 13 7 14 6 15 5 16 4 17 3 18 2 19 1 20
REMARK H PARENT
REMARK Flexibility Score: inf
ROOT
ATOM      1  C   UNL     1     -39.578  24.642 -14.310  1.00  0.00    -0.031 C 
ATOM      2  C   UNL     1     -40.670  24.656 -15.096  1.00  0.00    -0.031 C 
ENDROOT
BRANCH   1   3
ATOM      3  C   UNL     1     -39.489  23.996 -12.948  1.00  0.00     0.027 C 
BRANCH   3   4
ATOM      4  C   UNL     1     -39.611  25.008 -11.798  1.00  0.00     0.004 C 
BRANCH   4   5
ATOM      5  C   UNL     1     -40.843  24.742 -10.918  1.00  0.00     0.000 C 
BRANCH   5   6
ATOM      6  C   UNL     1     -42.033  24.176 -11.711  1.00  0.00     0.000 C 
BRANCH   6   7
ATOM      7  C   UNL     1     -43.405  24.769 -11.345  1.00  0.00     0.000 C 
BRANCH   7   8
ATOM      8  C   UNL     1     -43.719  24.669  -9.842  1.00  0.00     0.006 C 
BRANCH   8   9
ATOM      9  C   UNL     1     -44.800  25.667  -9.411  1.00  0.00     0.053 C 
BRANCH   9  10
ATOM     10  C   UNL     1     -45.277  25.403  -8.016  1.00  0.00     0.041 C 
ATOM     11  O   UNL     1     -46.422  24.917  -7.817  1.00  0.00    -0.550 OA
ATOM     12  O   UNL     1     -44.468  25.725  -6.934  1.00  0.00    -0.550 OA
ENDBRANCH   9  10
ENDBRANCH   8   9
ENDBRANCH   7   8
ENDBRANCH   6   7
ENDBRANCH   5   6
ENDBRANCH   4   5
ENDBRANCH   3   4
ENDBRANCH   1   3
BRANCH   2  13
ATOM     13  C   UNL     1     -42.010  24.049 -14.746  1.00  0.00     0.027 C 
BRANCH  13  14
ATOM     14  C   UNL     1     -42.742  23.515 -15.990  1.00  0.00     0.004 C 
BRANCH  14  15
ATOM     15  C   UNL     1     -41.880  23.422 -17.265  1.00  0.00     0.000 C 
BRANCH  15  16
ATOM     16  C   UNL     1     -41.825  22.033 -17.926  1.00  0.00     0.000 C 
BRANCH  16  17
ATOM     17  C   UNL     1     -40.412  21.657 -18.406  1.00  0.00    -0.000 C 
BRANCH  17  18
ATOM     18  C   UNL     1     -39.482  22.875 -18.537  1.00  0.00    -0.000 C 
BRANCH  18  19
ATOM     19  C   UNL     1     -37.982  22.543 -18.622  1.00  0.00    -0.003 C 
ATOM     20  C   UNL     1     -37.649  21.555 -19.739  1.00  0.00     0.004 C 
ENDBRANCH  18  19
ENDBRANCH  17  18
ENDBRANCH  16  17
ENDBRANCH  15  16
ENDBRANCH  14  15
ENDBRANCH  13  14
ENDBRANCH   2  13
TORSDOF 15
ENDMDL
MODEL 7
REMARK VINA RESULT:    21.651      3.515      8.221
REMARK INTER + INTRA:          39.880
REMARK INTER:                  39.860
REMARK INTRA:                   0.020
REMARK UNBOUND:                -0.757
REMARK SMILES CCCCCCCCC=CCCCCCCCC(=O)[O-]
REMARK SMILES IDX 10 1 9 2 11 3 12 4 13 5 14 6 15 7 16 8 17 9 18 10 19 11
REMARK SMILES IDX 20 12 8 13 7 14 6 15 5 16 4 17 3 18 2 19 1 20
REMARK H PARENT
REMARK Flexibility Score: inf
ROOT
ATOM      1  C   UNL     1     -37.816  22.993 -19.357  1.00  0.00    -0.031 C 
ATOM      2  C   UNL     1     -38.533  22.193 -18.547  1.00  0.00    -0.031 C 
ENDROOT
BRANCH   1   3
ATOM      3  C   UNL     1     -38.381  23.846 -20.468  1.00  0.00     0.027 C 
BRANCH   3   4
ATOM      4  C   UNL     1     -37.439  24.987 -20.882  1.00  0.00     0.004 C 
BRANCH   4   5
ATOM      5  C   UNL     1     -38.175  26.100 -21.646  1.00  0.00     0.000 C 
BRANCH   5   6
ATOM      6  C   UNL     1     -37.423  27.442 -21.617  1.00  0.00     0.000 C 
BRANCH   6   7
ATOM      7  C   UNL     1     -38.264  28.671 -22.006  1.00  0.00     0.000 C 
BRANCH   7   8
ATOM      8  C   UNL     1     -38.447  29.665 -20.846  1.00  0.00     0.006 C 
BRANCH   8   9
ATOM      9  C   UNL     1     -39.926  29.935 -20.545  1.00  0.00     0.053 C 
BRANCH   9  10
ATOM     10  C   UNL     1     -40.812  29.490 -21.668  1.00  0.00     0.041 C 
ATOM     11  O   UNL     1     -41.396  30.339 -22.392  1.00  0.00    -0.550 OA
ATOM     12  O   UNL     1     -41.017  28.134 -21.894  1.00  0.00    -0.550 OA
ENDBRANCH   9  10
ENDBRANCH   8   9
ENDBRANCH   7   8
ENDBRANCH   6   7
ENDBRANCH   5   6
ENDBRANCH   4   5
ENDBRANCH   3   4
ENDBRANCH   1   3
BRANCH   2  13
ATOM     13  C   UNL     1     -40.029  21.986 -18.619  1.00  0.00     0.027 C 
BRANCH  13  14
ATOM     14  C   UNL     1     -40.806  23.262 -18.250  1.00  0.00     0.004 C 
BRANCH  14  15
ATOM     15  C   UNL     1     -41.869  23.084 -17.147  1.00  0.00     0.000 C 
BRANCH  15  16
ATOM     16  C   UNL     1     -41.562  23.787 -15.813  1.00  0.00     0.000 C 
BRANCH  16  17
ATOM     17  C   UNL     1     -42.746  23.748 -14.832  1.00  0.00    -0.000 C 
BRANCH  17  18
ATOM     18  C   UNL     1     -42.364  23.175 -13.456  1.00  0.00    -0.000 C 
BRANCH  18  19
ATOM     19  C   UNL     1     -41.647  24.161 -12.517  1.00  0.00    -0.003 C 
ATOM     20  C   UNL     1     -40.143  24.245 -12.771  1.00  0.00     0.004 C 
ENDBRANCH  18  19
ENDBRANCH  17  18
ENDBRANCH  16  17
ENDBRANCH  15  16
ENDBRANCH  14  15
ENDBRANCH  13  14
ENDBRANCH   2  13
TORSDOF 15
ENDMDL
MODEL 8
REMARK VINA RESULT:    21.990      4.243      8.404
REMARK INTER + INTRA:          40.516
REMARK INTER:                  41.391
REMARK INTRA:                  -0.874
REMARK UNBOUND:                -0.757
REMARK SMILES CCCCCCCCC=CCCCCCCCC(=O)[O-]
REMARK SMILES IDX 10 1 9 2 11 3 12 4 13 5 14 6 15 7 16 8 17 9 18 10 19 11
REMARK SMILES IDX 20 12 8 13 7 14 6 15 5 16 4 17 3 18 2 19 1 20
REMARK H PARENT
REMARK Flexibility Score: inf
ROOT
ATOM      1  C   UNL     1     -38.013  25.437 -21.685  1.00  0.00    -0.031 C 
ATOM      2  C   UNL     1     -38.279  24.289 -21.034  1.00  0.00    -0.031 C 
ENDROOT
BRANCH   1   3
ATOM      3  C   UNL     1     -37.142  26.556 -21.166  1.00  0.00     0.027 C 
BRANCH   3   4
ATOM      4  C   UNL     1     -37.346  27.874 -21.928  1.00  0.00     0.004 C 
BRANCH   4   5
ATOM      5  C   UNL     1     -38.795  28.381 -21.836  1.00  0.00     0.000 C 
BRANCH   5   6
ATOM      6  C   UNL     1     -38.911  29.729 -21.104  1.00  0.00     0.000 C 
BRANCH   6   7
ATOM      7  C   UNL     1     -40.264  29.987 -20.418  1.00  0.00     0.000 C 
BRANCH   7   8
ATOM      8  C   UNL     1     -41.464  29.563 -21.282  1.00  0.00     0.006 C 
BRANCH   8   9
ATOM      9  C   UNL     1     -41.832  30.628 -22.322  1.00  0.00     0.053 C 
BRANCH   9  10
ATOM     10  C   UNL     1     -43.284  30.991 -22.258  1.00  0.00     0.041 C 
ATOM     11  O   UNL     1     -44.078  30.594 -23.151  1.00  0.00    -0.550 OA
ATOM     12  O   UNL     1     -43.753  31.796 -21.227  1.00  0.00    -0.550 OA
ENDBRANCH   9  10
ENDBRANCH   8   9
ENDBRANCH   7   8
ENDBRANCH   6   7
ENDBRANCH   5   6
ENDBRANCH   4   5
ENDBRANCH   3   4
ENDBRANCH   1   3
BRANCH   2  13
ATOM     13  C   UNL     1     -37.774  23.926 -19.656  1.00  0.00     0.027 C 
BRANCH  13  14
ATOM     14  C   UNL     1     -38.340  22.579 -19.173  1.00  0.00     0.004 C 
BRANCH  14  15
ATOM     15  C   UNL     1     -39.384  22.679 -18.040  1.00  0.00     0.000 C 
BRANCH  15  16
ATOM     16  C   UNL     1     -40.799  22.195 -18.401  1.00  0.00     0.000 C 
BRANCH  16  17
ATOM     17  C   UNL     1     -41.858  22.634 -17.375  1.00  0.00    -0.000 C 
BRANCH  17  18
ATOM     18  C   UNL     1     -41.541  23.996 -16.734  1.00  0.00    -0.000 C 
BRANCH  18  19
ATOM     19  C   UNL     1     -41.881  24.107 -15.238  1.00  0.00    -0.003 C 
ATOM     20  C   UNL     1     -42.992  23.152 -14.804  1.00  0.00     0.004 C 
ENDBRANCH  18  19
ENDBRANCH  17  18
ENDBRANCH  16  17
ENDBRANCH  15  16
ENDBRANCH  14  15
ENDBRANCH  13  14
ENDBRANCH   2  13
TORSDOF 15
ENDMDL
MODEL 9
REMARK VINA RESULT:    22.064      4.991      9.503
REMARK INTER + INTRA:          40.654
REMARK INTER:                  41.221
REMARK INTRA:                  -0.568
REMARK UNBOUND:                -0.757
REMARK SMILES CCCCCCCCC=CCCCCCCCC(=O)[O-]
REMARK SMILES IDX 10 1 9 2 11 3 12 4 13 5 14 6 15 7 16 8 17 9 18 10 19 11
REMARK SMILES IDX 20 12 8 13 7 14 6 15 5 16 4 17 3 18 2 19 1 20
REMARK H PARENT
REMARK Flexibility Score: inf
ROOT
ATOM      1  C   UNL     1     -37.921  22.801 -19.796  1.00  0.00    -0.031 C 
ATOM      2  C   UNL     1     -38.866  22.286 -18.989  1.00  0.00    -0.031 C 
ENDROOT
BRANCH   1   3
ATOM      3  C   UNL     1     -37.527  24.258 -19.861  1.00  0.00     0.027 C 
BRANCH   3   4
ATOM      4  C   UNL     1     -37.999  24.947 -21.151  1.00  0.00     0.004 C 
BRANCH   4   5
ATOM      5  C   UNL     1     -37.359  26.332 -21.339  1.00  0.00     0.000 C 
BRANCH   5   6
ATOM      6  C   UNL     1     -38.116  27.207 -22.353  1.00  0.00     0.000 C 
BRANCH   6   7
ATOM      7  C   UNL     1     -37.791  28.710 -22.291  1.00  0.00     0.000 C 
BRANCH   7   8
ATOM      8  C   UNL     1     -37.007  29.205 -23.519  1.00  0.00     0.006 C 
BRANCH   8   9
ATOM      9  C   UNL     1     -36.898  30.734 -23.556  1.00  0.00     0.053 C 
BRANCH   9  10
ATOM     10  C   UNL     1     -36.806  31.252 -24.958  1.00  0.00     0.041 C 
ATOM     11  O   UNL     1     -37.323  32.359 -25.262  1.00  0.00    -0.550 OA
ATOM     12  O   UNL     1     -36.178  30.493 -25.938  1.00  0.00    -0.550 OA
ENDBRANCH   9  10
ENDBRANCH   8   9
ENDBRANCH   7   8
ENDBRANCH   6   7
ENDBRANCH   5   6
ENDBRANCH   4   5
ENDBRANCH   3   4
ENDBRANCH   1   3
BRANCH   2  13
ATOM     13  C   UNL     1     -39.720  23.075 -18.022  1.00  0.00     0.027 C 
BRANCH  13  14
ATOM     14  C   UNL     1     -41.120  22.458 -17.855  1.00  0.00     0.004 C 
BRANCH  14  15
ATOM     15  C   UNL     1     -42.175  23.393 -17.227  1.00  0.00     0.000 C 
BRANCH  15  16
ATOM     16  C   UNL     1     -42.521  23.105 -15.756  1.00  0.00     0.000 C 
BRANCH  16  17
ATOM     17  C   UNL     1     -41.901  24.126 -14.787  1.00  0.00    -0.000 C 
BRANCH  17  18
ATOM     18  C   UNL     1     -42.223  23.824 -13.313  1.00  0.00    -0.000 C 
BRANCH  18  19
ATOM     19  C   UNL     1     -41.048  24.010 -12.338  1.00  0.00    -0.003 C 
ATOM     20  C   UNL     1     -39.732  24.342 -13.041  1.00  0.00     0.004 C 
ENDBRANCH  18  19
ENDBRANCH  17  18
ENDBRANCH  16  17
ENDBRANCH  15  16
ENDBRANCH  14  15
ENDBRANCH  13  14
ENDBRANCH   2  13
TORSDOF 15
ENDMDL
