MODEL 1
REMARK VINA RESULT:    -4.964      0.000      0.000
REMARK INTER + INTRA:         -13.569
REMARK INTER:                 -10.769
REMARK INTRA:                  -2.800
REMARK UNBOUND:                -2.800
REMARK SMILES CCCCCCCCCCCCCCCCCCCCCC(=O)[O-]
REMARK SMILES IDX 12 1 11 2 10 3 9 4 8 5 7 6 6 7 5 8 4 9 3 10 2 11 1 12 13 13
REMARK SMILES IDX 14 14 15 15 16 16 17 17 18 18 19 19 20 20 21 21 22 22 23 23
REMARK SMILES IDX 24 24
REMARK H PARENT
REMARK Flexibility Score: inf
ROOT
ATOM      1  C   UNL     1     -17.159  -5.352  18.838  1.00  0.00     0.000 C 
ENDROOT
BRANCH   1   2
ATOM      2  C   UNL     1     -17.784  -5.627  17.461  1.00  0.00     0.000 C 
BRANCH   2   3
ATOM      3  C   UNL     1     -17.241  -4.698  16.365  1.00  0.00     0.000 C 
BRANCH   3   4
ATOM      4  C   UNL     1     -16.017  -5.315  15.678  1.00  0.00    -0.000 C 
BRANCH   4   5
ATOM      5  C   UNL     1     -14.859  -4.308  15.605  1.00  0.00    -0.000 C 
BRANCH   5   6
ATOM      6  C   UNL     1     -13.930  -4.380  16.829  1.00  0.00    -0.000 C 
BRANCH   6   7
ATOM      7  C   UNL     1     -13.689  -3.001  17.469  1.00  0.00    -0.000 C 
BRANCH   7   8
ATOM      8  C   UNL     1     -14.812  -2.596  18.440  1.00  0.00    -0.000 C 
BRANCH   8   9
ATOM      9  C   UNL     1     -15.731  -1.507  17.858  1.00  0.00    -0.000 C 
BRANCH   9  10
ATOM     10  C   UNL     1     -15.292  -0.084  18.249  1.00  0.00    -0.000 C 
BRANCH  10  11
ATOM     11  C   UNL     1     -14.720   0.760  17.095  1.00  0.00    -0.003 C 
ATOM     12  C   UNL     1     -14.846   0.078  15.733  1.00  0.00     0.004 C 
ENDBRANCH  10  11
ENDBRANCH   9  10
ENDBRANCH   8   9
ENDBRANCH   7   8
ENDBRANCH   6   7
ENDBRANCH   5   6
ENDBRANCH   4   5
ENDBRANCH   3   4
ENDBRANCH   2   3
ENDBRANCH   1   2
BRANCH   1  13
ATOM     13  C   UNL     1     -16.091  -6.391  19.224  1.00  0.00     0.000 C 
BRANCH  13  14
ATOM     14  C   UNL     1     -15.068  -5.832  20.226  1.00  0.00     0.000 C 
BRANCH  14  15
ATOM     15  C   UNL     1     -15.157  -6.522  21.599  1.00  0.00     0.000 C 
BRANCH  15  16
ATOM     16  C   UNL     1     -16.386  -6.077  22.407  1.00  0.00     0.000 C 
BRANCH  16  17
ATOM     17  C   UNL     1     -16.534  -4.545  22.468  1.00  0.00     0.000 C 
BRANCH  17  18
ATOM     18  C   UNL     1     -17.982  -4.088  22.225  1.00  0.00     0.000 C 
BRANCH  18  19
ATOM     19  C   UNL     1     -19.004  -5.210  22.468  1.00  0.00     0.000 C 
BRANCH  19  20
ATOM     20  C   UNL     1     -20.020  -4.802  23.541  1.00  0.00     0.006 C 
BRANCH  20  21
ATOM     21  C   UNL     1     -21.067  -5.900  23.755  1.00  0.00     0.053 C 
BRANCH  21  22
ATOM     22  C   UNL     1     -22.346  -5.315  24.261  1.00  0.00     0.041 C 
ATOM     23  O   UNL     1     -22.396  -4.105  24.610  1.00  0.00    -0.550 OA
ATOM     24  O   UNL     1     -23.496  -6.091  24.306  1.00  0.00    -0.550 OA
ENDBRANCH  21  22
ENDBRANCH  20  21
ENDBRANCH  19  20
ENDBRANCH  18  19
ENDBRANCH  17  18
ENDBRANCH  16  17
ENDBRANCH  15  16
ENDBRANCH  14  15
ENDBRANCH  13  14
ENDBRANCH   1  13
TORSDOF 20
ENDMDL
MODEL 2
REMARK VINA RESULT:    -4.946      3.780      5.389
REMARK INTER + INTRA:         -13.529
REMARK INTER:                 -10.031
REMARK INTRA:                  -3.498
REMARK UNBOUND:                -2.800
REMARK SMILES CCCCCCCCCCCCCCCCCCCCCC(=O)[O-]
REMARK SMILES IDX 12 1 11 2 10 3 9 4 8 5 7 6 6 7 5 8 4 9 3 10 2 11 1 12 13 13
REMARK SMILES IDX 14 14 15 15 16 16 17 17 18 18 19 19 20 20 21 21 22 22 23 23
REMARK SMILES IDX 24 24
REMARK H PARENT
REMARK Flexibility Score: inf
ROOT
ATOM      1  C   UNL     1     -15.443  -5.822  20.004  1.00  0.00     0.000 C 
ENDROOT
BRANCH   1   2
ATOM      2  C   UNL     1     -15.151  -6.745  18.810  1.00  0.00     0.000 C 
BRANCH   2   3
ATOM      3  C   UNL     1     -15.607  -6.147  17.471  1.00  0.00     0.000 C 
BRANCH   3   4
ATOM      4  C   UNL     1     -14.446  -5.441  16.761  1.00  0.00    -0.000 C 
BRANCH   4   5
ATOM      5  C   UNL     1     -14.755  -3.952  16.546  1.00  0.00    -0.000 C 
BRANCH   5   6
ATOM      6  C   UNL     1     -13.957  -3.037  17.491  1.00  0.00    -0.000 C 
BRANCH   6   7
ATOM      7  C   UNL     1     -14.784  -2.576  18.704  1.00  0.00    -0.000 C 
BRANCH   7   8
ATOM      8  C   UNL     1     -15.903  -1.593  18.317  1.00  0.00    -0.000 C 
BRANCH   8   9
ATOM      9  C   UNL     1     -17.215  -1.865  19.075  1.00  0.00    -0.000 C 
BRANCH   9  10
ATOM     10  C   UNL     1     -17.842  -3.225  18.715  1.00  0.00    -0.000 C 
BRANCH  10  11
ATOM     11  C   UNL     1     -18.387  -3.329  17.278  1.00  0.00    -0.003 C 
ATOM     12  C   UNL     1     -18.933  -4.716  16.943  1.00  0.00     0.004 C 
ENDBRANCH  10  11
ENDBRANCH   9  10
ENDBRANCH   8   9
ENDBRANCH   7   8
ENDBRANCH   6   7
ENDBRANCH   5   6
ENDBRANCH   4   5
ENDBRANCH   3   4
ENDBRANCH   2   3
ENDBRANCH   1   2
BRANCH   1  13
ATOM     13  C   UNL     1     -15.020  -6.439  21.349  1.00  0.00     0.000 C 
BRANCH  13  14
ATOM     14  C   UNL     1     -15.987  -6.076  22.489  1.00  0.00     0.000 C 
BRANCH  14  15
ATOM     15  C   UNL     1     -17.372  -5.652  21.967  1.00  0.00     0.000 C 
BRANCH  15  16
ATOM     16  C   UNL     1     -17.826  -4.295  22.527  1.00  0.00     0.000 C 
BRANCH  16  17
ATOM     17  C   UNL     1     -16.723  -3.223  22.452  1.00  0.00     0.000 C 
BRANCH  17  18
ATOM     18  C   UNL     1     -16.989  -2.043  23.403  1.00  0.00     0.000 C 
BRANCH  18  19
ATOM     19  C   UNL     1     -16.462  -0.710  22.851  1.00  0.00     0.000 C 
BRANCH  19  20
ATOM     20  C   UNL     1     -15.182  -0.923  22.034  1.00  0.00     0.006 C 
BRANCH  20  21
ATOM     21  C   UNL     1     -14.126   0.132  22.378  1.00  0.00     0.053 C 
BRANCH  21  22
ATOM     22  C   UNL     1     -14.238   1.306  21.460  1.00  0.00     0.041 C 
ATOM     23  O   UNL     1     -13.900   2.454  21.853  1.00  0.00    -0.550 OA
ATOM     24  O   UNL     1     -14.672   1.127  20.153  1.00  0.00    -0.550 OA
ENDBRANCH  21  22
ENDBRANCH  20  21
ENDBRANCH  19  20
ENDBRANCH  18  19
ENDBRANCH  17  18
ENDBRANCH  16  17
ENDBRANCH  15  16
ENDBRANCH  14  15
ENDBRANCH  13  14
ENDBRANCH   1  13
TORSDOF 20
ENDMDL
MODEL 3
REMARK VINA RESULT:    -4.945      8.972     12.409
REMARK INTER + INTRA:         -13.526
REMARK INTER:                  -9.616
REMARK INTRA:                  -3.911
REMARK UNBOUND:                -2.800
REMARK SMILES CCCCCCCCCCCCCCCCCCCCCC(=O)[O-]
REMARK SMILES IDX 12 1 11 2 10 3 9 4 8 5 7 6 6 7 5 8 4 9 3 10 2 11 1 12 13 13
REMARK SMILES IDX 14 14 15 15 16 16 17 17 18 18 19 19 20 20 21 21 22 22 23 23
REMARK SMILES IDX 24 24
REMARK H PARENT
REMARK Flexibility Score: inf
ROOT
ATOM      1  C   UNL     1     -16.202  -0.433  30.762  1.00  0.00     0.000 C 
ENDROOT
BRANCH   1   2
ATOM      2  C   UNL     1     -16.804  -0.739  29.381  1.00  0.00     0.000 C 
BRANCH   2   3
ATOM      3  C   UNL     1     -18.143  -0.025  29.145  1.00  0.00     0.000 C 
BRANCH   3   4
ATOM      4  C   UNL     1     -19.050  -0.135  30.377  1.00  0.00    -0.000 C 
BRANCH   4   5
ATOM      5  C   UNL     1     -19.974   1.087  30.492  1.00  0.00    -0.000 C 
BRANCH   5   6
ATOM      6  C   UNL     1     -20.289   1.459  31.950  1.00  0.00    -0.000 C 
BRANCH   6   7
ATOM      7  C   UNL     1     -19.023   1.797  32.760  1.00  0.00    -0.000 C 
BRANCH   7   8
ATOM      8  C   UNL     1     -18.374   3.119  32.316  1.00  0.00    -0.000 C 
BRANCH   8   9
ATOM      9  C   UNL     1     -16.914   2.938  31.865  1.00  0.00    -0.000 C 
BRANCH   9  10
ATOM     10  C   UNL     1     -16.733   3.112  30.345  1.00  0.00    -0.000 C 
BRANCH  10  11
ATOM     11  C   UNL     1     -17.780   4.013  29.665  1.00  0.00    -0.003 C 
ATOM     12  C   UNL     1     -18.089   3.594  28.228  1.00  0.00     0.004 C 
ENDBRANCH  10  11
ENDBRANCH   9  10
ENDBRANCH   8   9
ENDBRANCH   7   8
ENDBRANCH   6   7
ENDBRANCH   5   6
ENDBRANCH   4   5
ENDBRANCH   3   4
ENDBRANCH   2   3
ENDBRANCH   1   2
BRANCH   1  13
ATOM     13  C   UNL     1     -14.747   0.062  30.679  1.00  0.00     0.000 C 
BRANCH  13  14
ATOM     14  C   UNL     1     -13.894  -0.789  29.724  1.00  0.00     0.000 C 
BRANCH  14  15
ATOM     15  C   UNL     1     -13.332   0.034  28.551  1.00  0.00     0.000 C 
BRANCH  15  16
ATOM     16  C   UNL     1     -13.839   1.484  28.548  1.00  0.00     0.000 C 
BRANCH  16  17
ATOM     17  C   UNL     1     -14.805   1.775  27.384  1.00  0.00     0.000 C 
BRANCH  17  18
ATOM     18  C   UNL     1     -14.862   0.619  26.371  1.00  0.00     0.000 C 
BRANCH  18  19
ATOM     19  C   UNL     1     -16.292   0.328  25.889  1.00  0.00     0.000 C 
BRANCH  19  20
ATOM     20  C   UNL     1     -16.299  -0.079  24.411  1.00  0.00     0.006 C 
BRANCH  20  21
ATOM     21  C   UNL     1     -15.051   0.439  23.689  1.00  0.00     0.053 C 
BRANCH  21  22
ATOM     22  C   UNL     1     -15.397   1.596  22.807  1.00  0.00     0.041 C 
ATOM     23  O   UNL     1     -15.199   2.775  23.202  1.00  0.00    -0.550 OA
ATOM     24  O   UNL     1     -15.895   1.371  21.531  1.00  0.00    -0.550 OA
ENDBRANCH  21  22
ENDBRANCH  20  21
ENDBRANCH  19  20
ENDBRANCH  18  19
ENDBRANCH  17  18
ENDBRANCH  16  17
ENDBRANCH  15  16
ENDBRANCH  14  15
ENDBRANCH  13  14
ENDBRANCH   1  13
TORSDOF 20
ENDMDL
MODEL 4
REMARK VINA RESULT:    -4.899      2.866      3.791
REMARK INTER + INTRA:         -13.427
REMARK INTER:                  -9.936
REMARK INTRA:                  -3.490
REMARK UNBOUND:                -2.800
REMARK SMILES CCCCCCCCCCCCCCCCCCCCCC(=O)[O-]
REMARK SMILES IDX 12 1 11 2 10 3 9 4 8 5 7 6 6 7 5 8 4 9 3 10 2 11 1 12 13 13
REMARK SMILES IDX 14 14 15 15 16 16 17 17 18 18 19 19 20 20 21 21 22 22 23 23
REMARK SMILES IDX 24 24
REMARK H PARENT
REMARK Flexibility Score: inf
ROOT
ATOM      1  C   UNL     1     -15.511  -6.754  18.933  1.00  0.00     0.000 C 
ENDROOT
BRANCH   1   2
ATOM      2  C   UNL     1     -14.663  -6.485  17.680  1.00  0.00     0.000 C 
BRANCH   2   3
ATOM      3  C   UNL     1     -15.508  -6.366  16.404  1.00  0.00     0.000 C 
BRANCH   3   4
ATOM      4  C   UNL     1     -15.510  -4.926  15.879  1.00  0.00    -0.000 C 
BRANCH   4   5
ATOM      5  C   UNL     1     -14.332  -4.127  16.457  1.00  0.00    -0.000 C 
BRANCH   5   6
ATOM      6  C   UNL     1     -14.776  -2.820  17.135  1.00  0.00    -0.000 C 
BRANCH   6   7
ATOM      7  C   UNL     1     -16.252  -2.853  17.571  1.00  0.00    -0.000 C 
BRANCH   7   8
ATOM      8  C   UNL     1     -16.424  -2.671  19.089  1.00  0.00    -0.000 C 
BRANCH   8   9
ATOM      9  C   UNL     1     -15.107  -2.294  19.791  1.00  0.00    -0.000 C 
BRANCH   9  10
ATOM     10  C   UNL     1     -15.278  -1.147  20.805  1.00  0.00    -0.000 C 
BRANCH  10  11
ATOM     11  C   UNL     1     -14.807   0.233  20.310  1.00  0.00    -0.003 C 
ATOM     12  C   UNL     1     -14.712   1.271  21.428  1.00  0.00     0.004 C 
ENDBRANCH  10  11
ENDBRANCH   9  10
ENDBRANCH   8   9
ENDBRANCH   7   8
ENDBRANCH   6   7
ENDBRANCH   5   6
ENDBRANCH   4   5
ENDBRANCH   3   4
ENDBRANCH   2   3
ENDBRANCH   1   2
BRANCH   1  13
ATOM     13  C   UNL     1     -15.043  -5.939  20.153  1.00  0.00     0.000 C 
BRANCH  13  14
ATOM     14  C   UNL     1     -15.045  -6.771  21.446  1.00  0.00     0.000 C 
BRANCH  14  15
ATOM     15  C   UNL     1     -15.957  -6.166  22.529  1.00  0.00     0.000 C 
BRANCH  15  16
ATOM     16  C   UNL     1     -16.530  -4.799  22.124  1.00  0.00     0.000 C 
BRANCH  16  17
ATOM     17  C   UNL     1     -18.047  -4.694  22.371  1.00  0.00     0.000 C 
BRANCH  17  18
ATOM     18  C   UNL     1     -18.784  -6.004  22.047  1.00  0.00     0.000 C 
BRANCH  18  19
ATOM     19  C   UNL     1     -18.702  -6.374  20.558  1.00  0.00     0.000 C 
BRANCH  19  20
ATOM     20  C   UNL     1     -19.245  -5.240  19.681  1.00  0.00     0.006 C 
BRANCH  20  21
ATOM     21  C   UNL     1     -18.883  -5.459  18.208  1.00  0.00     0.053 C 
BRANCH  21  22
ATOM     22  C   UNL     1     -20.083  -5.899  17.432  1.00  0.00     0.041 C 
ATOM     23  O   UNL     1     -20.329  -7.125  17.284  1.00  0.00    -0.550 OA
ATOM     24  O   UNL     1     -20.958  -4.954  16.911  1.00  0.00    -0.550 OA
ENDBRANCH  21  22
ENDBRANCH  20  21
ENDBRANCH  19  20
ENDBRANCH  18  19
ENDBRANCH  17  18
ENDBRANCH  16  17
ENDBRANCH  15  16
ENDBRANCH  14  15
ENDBRANCH  13  14
ENDBRANCH   1  13
TORSDOF 20
ENDMDL
MODEL 5
REMARK VINA RESULT:    -4.891     12.357     14.754
REMARK INTER + INTRA:         -13.409
REMARK INTER:                 -11.144
REMARK INTRA:                  -2.265
REMARK UNBOUND:                -2.800
REMARK SMILES CCCCCCCCCCCCCCCCCCCCCC(=O)[O-]
REMARK SMILES IDX 12 1 11 2 10 3 9 4 8 5 7 6 6 7 5 8 4 9 3 10 2 11 1 12 13 13
REMARK SMILES IDX 14 14 15 15 16 16 17 17 18 18 19 19 20 20 21 21 22 22 23 23
REMARK SMILES IDX 24 24
REMARK H PARENT
REMARK Flexibility Score: inf
ROOT
ATOM      1  C   UNL     1     -16.352   3.391  30.356  1.00  0.00     0.000 C 
ENDROOT
BRANCH   1   2
ATOM      2  C   UNL     1     -15.143   4.340  30.339  1.00  0.00     0.000 C 
BRANCH   2   3
ATOM      3  C   UNL     1     -15.488   5.751  30.837  1.00  0.00     0.000 C 
BRANCH   3   4
ATOM      4  C   UNL     1     -14.434   6.767  30.382  1.00  0.00    -0.000 C 
BRANCH   4   5
ATOM      5  C   UNL     1     -14.295   6.770  28.852  1.00  0.00    -0.000 C 
BRANCH   5   6
ATOM      6  C   UNL     1     -14.538   8.158  28.235  1.00  0.00    -0.000 C 
BRANCH   6   7
ATOM      7  C   UNL     1     -14.042   9.300  29.140  1.00  0.00    -0.000 C 
BRANCH   7   8
ATOM      8  C   UNL     1     -15.177  10.244  29.575  1.00  0.00    -0.000 C 
BRANCH   8   9
ATOM      9  C   UNL     1     -15.136  10.560  31.081  1.00  0.00    -0.000 C 
BRANCH   9  10
ATOM     10  C   UNL     1     -16.115   9.697  31.900  1.00  0.00    -0.000 C 
BRANCH  10  11
ATOM     11  C   UNL     1     -15.493   8.984  33.115  1.00  0.00    -0.003 C 
ATOM     12  C   UNL     1     -13.976   9.146  33.194  1.00  0.00     0.004 C 
ENDBRANCH  10  11
ENDBRANCH   9  10
ENDBRANCH   8   9
ENDBRANCH   7   8
ENDBRANCH   6   7
ENDBRANCH   5   6
ENDBRANCH   4   5
ENDBRANCH   3   4
ENDBRANCH   2   3
ENDBRANCH   1   2
BRANCH   1  13
ATOM     13  C   UNL     1     -16.559   2.719  31.726  1.00  0.00     0.000 C 
BRANCH  13  14
ATOM     14  C   UNL     1     -17.981   2.933  32.273  1.00  0.00     0.000 C 
BRANCH  14  15
ATOM     15  C   UNL     1     -18.711   1.604  32.540  1.00  0.00     0.000 C 
BRANCH  15  16
ATOM     16  C   UNL     1     -19.199   0.927  31.250  1.00  0.00     0.000 C 
BRANCH  16  17
ATOM     17  C   UNL     1     -18.755  -0.544  31.147  1.00  0.00     0.000 C 
BRANCH  17  18
ATOM     18  C   UNL     1     -18.385  -0.943  29.708  1.00  0.00     0.000 C 
BRANCH  18  19
ATOM     19  C   UNL     1     -17.394   0.036  29.061  1.00  0.00     0.000 C 
BRANCH  19  20
ATOM     20  C   UNL     1     -16.177  -0.707  28.498  1.00  0.00     0.006 C 
BRANCH  20  21
ATOM     21  C   UNL     1     -15.376   0.187  27.546  1.00  0.00     0.053 C 
BRANCH  21  22
ATOM     22  C   UNL     1     -14.054   0.543  28.147  1.00  0.00     0.041 C 
ATOM     23  O   UNL     1     -13.761   1.748  28.366  1.00  0.00    -0.550 OA
ATOM     24  O   UNL     1     -13.163  -0.458  28.509  1.00  0.00    -0.550 OA
ENDBRANCH  21  22
ENDBRANCH  20  21
ENDBRANCH  19  20
ENDBRANCH  18  19
ENDBRANCH  17  18
ENDBRANCH  16  17
ENDBRANCH  15  16
ENDBRANCH  14  15
ENDBRANCH  13  14
ENDBRANCH   1  13
TORSDOF 20
ENDMDL
MODEL 6
REMARK VINA RESULT:    -4.873     13.587     16.471
REMARK INTER + INTRA:         -13.371
REMARK INTER:                 -10.893
REMARK INTRA:                  -2.478
REMARK UNBOUND:                -2.800
REMARK SMILES CCCCCCCCCCCCCCCCCCCCCC(=O)[O-]
REMARK SMILES IDX 12 1 11 2 10 3 9 4 8 5 7 6 6 7 5 8 4 9 3 10 2 11 1 12 13 13
REMARK SMILES IDX 14 14 15 15 16 16 17 17 18 18 19 19 20 20 21 21 22 22 23 23
REMARK SMILES IDX 24 24
REMARK H PARENT
REMARK Flexibility Score: inf
ROOT
ATOM      1  C   UNL     1     -13.638   6.075  28.063  1.00  0.00     0.000 C 
ENDROOT
BRANCH   1   2
ATOM      2  C   UNL     1     -14.365   4.737  28.273  1.00  0.00     0.000 C 
BRANCH   2   3
ATOM      3  C   UNL     1     -13.399   3.564  28.497  1.00  0.00     0.000 C 
BRANCH   3   4
ATOM      4  C   UNL     1     -14.063   2.230  28.137  1.00  0.00    -0.000 C 
BRANCH   4   5
ATOM      5  C   UNL     1     -14.143   1.307  29.363  1.00  0.00    -0.000 C 
BRANCH   5   6
ATOM      6  C   UNL     1     -15.487   1.414  30.101  1.00  0.00    -0.000 C 
BRANCH   6   7
ATOM      7  C   UNL     1     -15.374   2.195  31.423  1.00  0.00    -0.000 C 
BRANCH   7   8
ATOM      8  C   UNL     1     -16.226   3.476  31.427  1.00  0.00    -0.000 C 
BRANCH   8   9
ATOM      9  C   UNL     1     -17.735   3.182  31.354  1.00  0.00    -0.000 C 
BRANCH   9  10
ATOM     10  C   UNL     1     -18.291   2.585  32.661  1.00  0.00    -0.000 C 
BRANCH  10  11
ATOM     11  C   UNL     1     -19.037   1.248  32.499  1.00  0.00    -0.003 C 
ATOM     12  C   UNL     1     -19.181   0.813  31.041  1.00  0.00     0.004 C 
ENDBRANCH  10  11
ENDBRANCH   9  10
ENDBRANCH   8   9
ENDBRANCH   7   8
ENDBRANCH   6   7
ENDBRANCH   5   6
ENDBRANCH   4   5
ENDBRANCH   3   4
ENDBRANCH   2   3
ENDBRANCH   1   2
BRANCH   1  13
ATOM     13  C   UNL     1     -13.997   7.120  29.135  1.00  0.00     0.000 C 
BRANCH  13  14
ATOM     14  C   UNL     1     -15.279   6.755  29.901  1.00  0.00     0.000 C 
BRANCH  14  15
ATOM     15  C   UNL     1     -15.162   7.044  31.409  1.00  0.00     0.000 C 
BRANCH  15  16
ATOM     16  C   UNL     1     -13.981   7.968  31.744  1.00  0.00     0.000 C 
BRANCH  16  17
ATOM     17  C   UNL     1     -14.370   9.101  32.712  1.00  0.00     0.000 C 
BRANCH  17  18
ATOM     18  C   UNL     1     -15.391  10.072  32.095  1.00  0.00     0.000 C 
BRANCH  18  19
ATOM     19  C   UNL     1     -14.811  10.870  30.919  1.00  0.00     0.000 C 
BRANCH  19  20
ATOM     20  C   UNL     1     -15.612  10.618  29.636  1.00  0.00     0.006 C 
BRANCH  20  21
ATOM     21  C   UNL     1     -15.471  11.789  28.658  1.00  0.00     0.053 C 
BRANCH  21  22
ATOM     22  C   UNL     1     -14.400  11.508  27.654  1.00  0.00     0.041 C 
ATOM     23  O   UNL     1     -13.268  12.049  27.766  1.00  0.00    -0.550 OA
ATOM     24  O   UNL     1     -14.635  10.614  26.618  1.00  0.00    -0.550 OA
ENDBRANCH  21  22
ENDBRANCH  20  21
ENDBRANCH  19  20
ENDBRANCH  18  19
ENDBRANCH  17  18
ENDBRANCH  16  17
ENDBRANCH  15  16
ENDBRANCH  14  15
ENDBRANCH  13  14
ENDBRANCH   1  13
TORSDOF 20
ENDMDL
MODEL 7
REMARK VINA RESULT:    -4.847      1.947      2.779
REMARK INTER + INTRA:         -13.314
REMARK INTER:                  -9.490
REMARK INTRA:                  -3.824
REMARK UNBOUND:                -2.800
REMARK SMILES CCCCCCCCCCCCCCCCCCCCCC(=O)[O-]
REMARK SMILES IDX 12 1 11 2 10 3 9 4 8 5 7 6 6 7 5 8 4 9 3 10 2 11 1 12 13 13
REMARK SMILES IDX 14 14 15 15 16 16 17 17 18 18 19 19 20 20 21 21 22 22 23 23
REMARK SMILES IDX 24 24
REMARK H PARENT
REMARK Flexibility Score: inf
ROOT
ATOM      1  C   UNL     1     -15.885  -6.342  17.052  1.00  0.00     0.000 C 
ENDROOT
BRANCH   1   2
ATOM      2  C   UNL     1     -15.908  -5.417  15.824  1.00  0.00     0.000 C 
BRANCH   2   3
ATOM      3  C   UNL     1     -14.553  -4.743  15.563  1.00  0.00     0.000 C 
BRANCH   3   4
ATOM      4  C   UNL     1     -13.856  -4.380  16.880  1.00  0.00    -0.000 C 
BRANCH   4   5
ATOM      5  C   UNL     1     -14.293  -2.991  17.370  1.00  0.00    -0.000 C 
BRANCH   5   6
ATOM      6  C   UNL     1     -14.761  -2.997  18.835  1.00  0.00    -0.000 C 
BRANCH   6   7
ATOM      7  C   UNL     1     -16.273  -2.744  18.973  1.00  0.00    -0.000 C 
BRANCH   7   8
ATOM      8  C   UNL     1     -16.913  -2.255  17.661  1.00  0.00    -0.000 C 
BRANCH   8   9
ATOM      9  C   UNL     1     -17.426  -0.807  17.759  1.00  0.00    -0.000 C 
BRANCH   9  10
ATOM     10  C   UNL     1     -16.288   0.231  17.764  1.00  0.00    -0.000 C 
BRANCH  10  11
ATOM     11  C   UNL     1     -15.536   0.378  16.429  1.00  0.00    -0.003 C 
ATOM     12  C   UNL     1     -14.053   0.703  16.608  1.00  0.00     0.004 C 
ENDBRANCH  10  11
ENDBRANCH   9  10
ENDBRANCH   8   9
ENDBRANCH   7   8
ENDBRANCH   6   7
ENDBRANCH   5   6
ENDBRANCH   4   5
ENDBRANCH   3   4
ENDBRANCH   2   3
ENDBRANCH   1   2
BRANCH   1  13
ATOM     13  C   UNL     1     -17.194  -6.288  17.860  1.00  0.00     0.000 C 
BRANCH  13  14
ATOM     14  C   UNL     1     -16.944  -6.278  19.377  1.00  0.00     0.000 C 
BRANCH  14  15
ATOM     15  C   UNL     1     -15.461  -6.497  19.727  1.00  0.00     0.000 C 
BRANCH  15  16
ATOM     16  C   UNL     1     -15.111  -6.025  21.147  1.00  0.00     0.000 C 
BRANCH  16  17
ATOM     17  C   UNL     1     -16.353  -5.878  22.046  1.00  0.00     0.000 C 
BRANCH  17  18
ATOM     18  C   UNL     1     -16.598  -4.420  22.469  1.00  0.00     0.000 C 
BRANCH  18  19
ATOM     19  C   UNL     1     -18.091  -4.065  22.528  1.00  0.00     0.000 C 
BRANCH  19  20
ATOM     20  C   UNL     1     -18.354  -2.694  21.894  1.00  0.00     0.006 C 
BRANCH  20  21
ATOM     21  C   UNL     1     -19.807  -2.575  21.421  1.00  0.00     0.053 C 
BRANCH  21  22
ATOM     22  C   UNL     1     -20.156  -3.705  20.506  1.00  0.00     0.041 C 
ATOM     23  O   UNL     1     -19.577  -3.823  19.394  1.00  0.00    -0.550 OA
ATOM     24  O   UNL     1     -21.088  -4.655  20.901  1.00  0.00    -0.550 OA
ENDBRANCH  21  22
ENDBRANCH  20  21
ENDBRANCH  19  20
ENDBRANCH  18  19
ENDBRANCH  17  18
ENDBRANCH  16  17
ENDBRANCH  15  16
ENDBRANCH  14  15
ENDBRANCH  13  14
ENDBRANCH   1  13
TORSDOF 20
ENDMDL
MODEL 8
REMARK VINA RESULT:    -4.846      2.930      5.091
REMARK INTER + INTRA:         -13.311
REMARK INTER:                  -9.876
REMARK INTRA:                  -3.435
REMARK UNBOUND:                -2.800
REMARK SMILES CCCCCCCCCCCCCCCCCCCCCC(=O)[O-]
REMARK SMILES IDX 12 1 11 2 10 3 9 4 8 5 7 6 6 7 5 8 4 9 3 10 2 11 1 12 13 13
REMARK SMILES IDX 14 14 15 15 16 16 17 17 18 18 19 19 20 20 21 21 22 22 23 23
REMARK SMILES IDX 24 24
REMARK H PARENT
REMARK Flexibility Score: inf
ROOT
ATOM      1  C   UNL     1     -15.882  -6.284  22.479  1.00  0.00     0.000 C 
ENDROOT
BRANCH   1   2
ATOM      2  C   UNL     1     -17.279  -5.966  21.921  1.00  0.00     0.000 C 
BRANCH   2   3
ATOM      3  C   UNL     1     -17.853  -4.652  22.470  1.00  0.00     0.000 C 
BRANCH   3   4
ATOM      4  C   UNL     1     -16.804  -3.534  22.427  1.00  0.00    -0.000 C 
BRANCH   4   5
ATOM      5  C   UNL     1     -16.735  -2.897  21.031  1.00  0.00    -0.000 C 
BRANCH   5   6
ATOM      6  C   UNL     1     -15.371  -2.249  20.739  1.00  0.00    -0.000 C 
BRANCH   6   7
ATOM      7  C   UNL     1     -15.378  -1.416  19.445  1.00  0.00    -0.000 C 
BRANCH   7   8
ATOM      8  C   UNL     1     -14.599  -2.091  18.303  1.00  0.00    -0.000 C 
BRANCH   8   9
ATOM      9  C   UNL     1     -15.028  -1.583  16.915  1.00  0.00    -0.000 C 
BRANCH   9  10
ATOM     10  C   UNL     1     -14.595  -0.128  16.652  1.00  0.00    -0.000 C 
BRANCH  10  11
ATOM     11  C   UNL     1     -15.717   0.807  16.167  1.00  0.00    -0.003 C 
ATOM     12  C   UNL     1     -17.033   0.606  16.918  1.00  0.00     0.004 C 
ENDBRANCH  10  11
ENDBRANCH   9  10
ENDBRANCH   8   9
ENDBRANCH   7   8
ENDBRANCH   6   7
ENDBRANCH   5   6
ENDBRANCH   4   5
ENDBRANCH   3   4
ENDBRANCH   2   3
ENDBRANCH   1   2
BRANCH   1  13
ATOM     13  C   UNL     1     -14.817  -6.410  21.375  1.00  0.00     0.000 C 
BRANCH  13  14
ATOM     14  C   UNL     1     -15.432  -6.740  20.004  1.00  0.00     0.000 C 
BRANCH  14  15
ATOM     15  C   UNL     1     -15.173  -5.634  18.965  1.00  0.00     0.000 C 
BRANCH  15  16
ATOM     16  C   UNL     1     -16.108  -5.732  17.750  1.00  0.00     0.000 C 
BRANCH  16  17
ATOM     17  C   UNL     1     -17.534  -6.172  18.131  1.00  0.00     0.000 C 
BRANCH  17  18
ATOM     18  C   UNL     1     -18.436  -4.980  18.492  1.00  0.00     0.000 C 
BRANCH  18  19
ATOM     19  C   UNL     1     -18.081  -3.712  17.701  1.00  0.00     0.000 C 
BRANCH  19  20
ATOM     20  C   UNL     1     -18.854  -3.656  16.379  1.00  0.00     0.006 C 
BRANCH  20  21
ATOM     21  C   UNL     1     -20.125  -2.811  16.518  1.00  0.00     0.053 C 
BRANCH  21  22
ATOM     22  C   UNL     1     -21.342  -3.675  16.429  1.00  0.00     0.041 C 
ATOM     23  O   UNL     1     -21.917  -3.849  15.323  1.00  0.00    -0.550 OA
ATOM     24  O   UNL     1     -21.816  -4.326  17.561  1.00  0.00    -0.550 OA
ENDBRANCH  21  22
ENDBRANCH  20  21
ENDBRANCH  19  20
ENDBRANCH  18  19
ENDBRANCH  17  18
ENDBRANCH  16  17
ENDBRANCH  15  16
ENDBRANCH  14  15
ENDBRANCH  13  14
ENDBRANCH   1  13
TORSDOF 20
ENDMDL
MODEL 9
REMARK VINA RESULT:    -4.839      3.595      6.986
REMARK INTER + INTRA:         -13.296
REMARK INTER:                  -9.445
REMARK INTRA:                  -3.851
REMARK UNBOUND:                -2.800
REMARK SMILES CCCCCCCCCCCCCCCCCCCCCC(=O)[O-]
REMARK SMILES IDX 12 1 11 2 10 3 9 4 8 5 7 6 6 7 5 8 4 9 3 10 2 11 1 12 13 13
REMARK SMILES IDX 14 14 15 15 16 16 17 17 18 18 19 19 20 20 21 21 22 22 23 23
REMARK SMILES IDX 24 24
REMARK H PARENT
REMARK Flexibility Score: inf
ROOT
ATOM      1  C   UNL     1     -16.529  -4.966  16.180  1.00  0.00     0.000 C 
ENDROOT
BRANCH   1   2
ATOM      2  C   UNL     1     -16.461  -6.073  17.245  1.00  0.00     0.000 C 
BRANCH   2   3
ATOM      3  C   UNL     1     -17.761  -6.202  18.052  1.00  0.00     0.000 C 
BRANCH   3   4
ATOM      4  C   UNL     1     -17.467  -6.317  19.552  1.00  0.00    -0.000 C 
BRANCH   4   5
ATOM      5  C   UNL     1     -15.956  -6.423  19.811  1.00  0.00    -0.000 C 
BRANCH   5   6
ATOM      6  C   UNL     1     -15.578  -6.098  21.266  1.00  0.00    -0.000 C 
BRANCH   6   7
ATOM      7  C   UNL     1     -16.785  -5.633  22.100  1.00  0.00    -0.000 C 
BRANCH   7   8
ATOM      8  C   UNL     1     -16.598  -4.217  22.672  1.00  0.00    -0.000 C 
BRANCH   8   9
ATOM      9  C   UNL     1     -17.911  -3.415  22.706  1.00  0.00    -0.000 C 
BRANCH   9  10
ATOM     10  C   UNL     1     -19.078  -4.152  22.022  1.00  0.00    -0.000 C 
BRANCH  10  11
ATOM     11  C   UNL     1     -20.257  -4.504  22.948  1.00  0.00    -0.003 C 
ATOM     12  C   UNL     1     -20.340  -5.995  23.274  1.00  0.00     0.004 C 
ENDBRANCH  10  11
ENDBRANCH   9  10
ENDBRANCH   8   9
ENDBRANCH   7   8
ENDBRANCH   6   7
ENDBRANCH   5   6
ENDBRANCH   4   5
ENDBRANCH   3   4
ENDBRANCH   2   3
ENDBRANCH   1   2
BRANCH   1  13
ATOM     13  C   UNL     1     -15.136  -4.502  15.716  1.00  0.00     0.000 C 
BRANCH  13  14
ATOM     14  C   UNL     1     -14.176  -4.267  16.894  1.00  0.00     0.000 C 
BRANCH  14  15
ATOM     15  C   UNL     1     -14.460  -2.943  17.626  1.00  0.00     0.000 C 
BRANCH  15  16
ATOM     16  C   UNL     1     -14.810  -3.148  19.108  1.00  0.00     0.000 C 
BRANCH  16  17
ATOM     17  C   UNL     1     -16.015  -2.300  19.558  1.00  0.00     0.000 C 
BRANCH  17  18
ATOM     18  C   UNL     1     -17.253  -2.531  18.676  1.00  0.00     0.000 C 
BRANCH  18  19
ATOM     19  C   UNL     1     -18.208  -1.328  18.674  1.00  0.00     0.000 C 
BRANCH  19  20
ATOM     20  C   UNL     1     -17.428  -0.009  18.624  1.00  0.00     0.006 C 
BRANCH  20  21
ATOM     21  C   UNL     1     -17.087   0.377  17.181  1.00  0.00     0.053 C 
BRANCH  21  22
ATOM     22  C   UNL     1     -15.606   0.445  16.992  1.00  0.00     0.041 C 
ATOM     23  O   UNL     1     -14.842   0.527  17.990  1.00  0.00    -0.550 OA
ATOM     24  O   UNL     1     -15.064   0.372  15.715  1.00  0.00    -0.550 OA
ENDBRANCH  21  22
ENDBRANCH  20  21
ENDBRANCH  19  20
ENDBRANCH  18  19
ENDBRANCH  17  18
ENDBRANCH  16  17
ENDBRANCH  15  16
ENDBRANCH  14  15
ENDBRANCH  13  14
ENDBRANCH   1  13
TORSDOF 20
ENDMDL
