MODEL 1
REMARK VINA RESULT:    -5.119      0.000      0.000
REMARK INTER + INTRA:          -6.157
REMARK INTER:                  -6.016
REMARK INTRA:                  -0.141
REMARK UNBOUND:                -0.141
REMARK SMILES O=C([O-])C=Cc1ccc(O)c(O)c1
REMARK SMILES IDX 6 1 13 2 7 3 11 4 8 5 9 6 5 7 4 8 2 9 1 10 3 11 12 12 10 14
REMARK H PARENT 12 13 10 15
REMARK Flexibility Score: inf
ROOT
ATOM      1  C   UNL     1      -9.295  -2.235  -0.208  1.00  0.00    -0.022 A 
ATOM      2  C   UNL     1      -9.662  -1.296   0.778  1.00  0.00     0.058 A 
ATOM      3  C   UNL     1      -9.001  -1.777  -1.503  1.00  0.00     0.012 A 
ATOM      4  C   UNL     1      -9.756   0.066   0.467  1.00  0.00     0.157 A 
ATOM      5  C   UNL     1      -9.096  -0.418  -1.815  1.00  0.00     0.051 A 
ATOM      6  C   UNL     1      -9.476   0.508  -0.835  1.00  0.00     0.157 A 
ENDROOT
BRANCH   1   7
ATOM      7  C   UNL     1      -9.171  -3.685   0.077  1.00  0.00     0.010 C 
ATOM      8  C   UNL     1      -8.151  -4.443  -0.349  1.00  0.00     0.025 C 
BRANCH   8   9
ATOM      9  C   UNL     1      -8.055  -5.879  -0.037  1.00  0.00     0.064 C 
ATOM     10  O   UNL     1      -8.769  -6.726  -0.636  1.00  0.00    -0.545 OA
ATOM     11  O   UNL     1      -7.161  -6.308   0.936  1.00  0.00    -0.545 OA
ENDBRANCH   8   9
ENDBRANCH   1   7
BRANCH   4  12
ATOM     12  O   UNL     1     -10.125   0.964   1.469  1.00  0.00    -0.504 OA
ATOM     13  H   UNL     1     -10.295   0.667   2.422  1.00  0.00     0.293 HD
ENDBRANCH   4  12
BRANCH   6  14
ATOM     14  O   UNL     1      -9.571   1.863  -1.151  1.00  0.00    -0.504 OA
ATOM     15  H   UNL     1      -9.655   2.179  -2.110  1.00  0.00     0.293 HD
ENDBRANCH   6  14
TORSDOF 4
ENDMDL
MODEL 2
REMARK VINA RESULT:    -4.907      0.795      1.870
REMARK INTER + INTRA:          -5.908
REMARK INTER:                  -5.786
REMARK INTRA:                  -0.122
REMARK UNBOUND:                -0.141
REMARK SMILES O=C([O-])C=Cc1ccc(O)c(O)c1
REMARK SMILES IDX 6 1 13 2 7 3 11 4 8 5 9 6 5 7 4 8 2 9 1 10 3 11 12 12 10 14
REMARK H PARENT 12 13 10 15
REMARK Flexibility Score: inf
ROOT
ATOM      1  C   UNL     1      -9.268  -2.337   0.070  1.00  0.00    -0.022 A 
ATOM      2  C   UNL     1      -9.000  -1.816  -1.212  1.00  0.00     0.058 A 
ATOM      3  C   UNL     1      -9.846  -1.497   1.036  1.00  0.00     0.012 A 
ATOM      4  C   UNL     1      -9.281  -0.477  -1.511  1.00  0.00     0.157 A 
ATOM      5  C   UNL     1     -10.125  -0.160   0.740  1.00  0.00     0.051 A 
ATOM      6  C   UNL     1      -9.842   0.357  -0.531  1.00  0.00     0.157 A 
ENDROOT
BRANCH   1   7
ATOM      7  C   UNL     1      -9.000  -3.751   0.430  1.00  0.00     0.010 C 
ATOM      8  C   UNL     1      -8.278  -4.589  -0.329  1.00  0.00     0.025 C 
BRANCH   8   9
ATOM      9  C   UNL     1      -8.022  -5.984   0.067  1.00  0.00     0.064 C 
ATOM     10  O   UNL     1      -8.712  -6.930  -0.397  1.00  0.00    -0.545 OA
ATOM     11  O   UNL     1      -7.001  -6.262   0.967  1.00  0.00    -0.545 OA
ENDBRANCH   8   9
ENDBRANCH   1   7
BRANCH   4  12
ATOM     12  O   UNL     1      -8.998   0.004  -2.790  1.00  0.00    -0.504 OA
ATOM     13  H   UNL     1      -9.219  -0.525  -3.624  1.00  0.00     0.293 HD
ENDBRANCH   4  12
BRANCH   6  14
ATOM     14  O   UNL     1     -10.119   1.691  -0.823  1.00  0.00    -0.504 OA
ATOM     15  H   UNL     1      -9.687   2.164  -1.609  1.00  0.00     0.293 HD
ENDBRANCH   6  14
TORSDOF 4
ENDMDL
MODEL 3
REMARK VINA RESULT:    -4.635      3.161      6.836
REMARK INTER + INTRA:          -5.589
REMARK INTER:                  -5.440
REMARK INTRA:                  -0.149
REMARK UNBOUND:                -0.141
REMARK SMILES O=C([O-])C=Cc1ccc(O)c(O)c1
REMARK SMILES IDX 6 1 13 2 7 3 11 4 8 5 9 6 5 7 4 8 2 9 1 10 3 11 12 12 10 14
REMARK H PARENT 12 13 10 15
REMARK Flexibility Score: inf
ROOT
ATOM      1  C   UNL     1      -6.716  -5.076   1.654  1.00  0.00    -0.022 A 
ATOM      2  C   UNL     1      -6.825  -5.987   2.725  1.00  0.00     0.058 A 
ATOM      3  C   UNL     1      -5.576  -5.127   0.836  1.00  0.00     0.012 A 
ATOM      4  C   UNL     1      -5.804  -6.910   2.984  1.00  0.00     0.157 A 
ATOM      5  C   UNL     1      -4.555  -6.045   1.094  1.00  0.00     0.051 A 
ATOM      6  C   UNL     1      -4.662  -6.938   2.169  1.00  0.00     0.157 A 
ENDROOT
BRANCH   1   7
ATOM      7  C   UNL     1      -7.777  -4.090   1.334  1.00  0.00     0.010 C 
ATOM      8  C   UNL     1      -7.999  -3.609   0.102  1.00  0.00     0.025 C 
BRANCH   8   9
ATOM      9  C   UNL     1      -9.070  -2.638  -0.180  1.00  0.00     0.064 C 
ATOM     10  O   UNL     1     -10.123  -2.609   0.510  1.00  0.00    -0.545 OA
ATOM     11  O   UNL     1      -8.915  -1.737  -1.227  1.00  0.00    -0.545 OA
ENDBRANCH   8   9
ENDBRANCH   1   7
BRANCH   4  12
ATOM     12  O   UNL     1      -5.947  -7.793   4.055  1.00  0.00    -0.504 OA
ATOM     13  H   UNL     1      -6.263  -7.486   4.966  1.00  0.00     0.293 HD
ENDBRANCH   4  12
BRANCH   6  14
ATOM     14  O   UNL     1      -3.641  -7.852   2.425  1.00  0.00    -0.504 OA
ATOM     15  H   UNL     1      -3.827  -8.845   2.506  1.00  0.00     0.293 HD
ENDBRANCH   6  14
TORSDOF 4
ENDMDL
MODEL 4
REMARK VINA RESULT:    -4.601     15.049     16.002
REMARK INTER + INTRA:          -5.549
REMARK INTER:                  -5.397
REMARK INTRA:                  -0.152
REMARK UNBOUND:                -0.141
REMARK SMILES O=C([O-])C=Cc1ccc(O)c(O)c1
REMARK SMILES IDX 6 1 13 2 7 3 11 4 8 5 9 6 5 7 4 8 2 9 1 10 3 11 12 12 10 14
REMARK H PARENT 12 13 10 15
REMARK Flexibility Score: inf
ROOT
ATOM      1  C   UNL     1       6.416  -1.291  -0.995  1.00  0.00    -0.022 A 
ATOM      2  C   UNL     1       7.265  -0.170  -1.093  1.00  0.00     0.058 A 
ATOM      3  C   UNL     1       6.804  -2.490  -1.613  1.00  0.00     0.012 A 
ATOM      4  C   UNL     1       8.463  -0.242  -1.816  1.00  0.00     0.157 A 
ATOM      5  C   UNL     1       7.997  -2.565  -2.336  1.00  0.00     0.051 A 
ATOM      6  C   UNL     1       8.830  -1.443  -2.444  1.00  0.00     0.157 A 
ENDROOT
BRANCH   1   7
ATOM      7  C   UNL     1       5.145  -1.265  -0.231  1.00  0.00     0.010 C 
ATOM      8  C   UNL     1       4.364  -2.339  -0.048  1.00  0.00     0.025 C 
BRANCH   8   9
ATOM      9  C   UNL     1       3.113  -2.278   0.727  1.00  0.00     0.064 C 
ATOM     10  O   UNL     1       2.736  -3.249   1.435  1.00  0.00    -0.545 OA
ATOM     11  O   UNL     1       2.335  -1.129   0.677  1.00  0.00    -0.545 OA
ENDBRANCH   8   9
ENDBRANCH   1   7
BRANCH   4  12
ATOM     12  O   UNL     1       9.276   0.889  -1.894  1.00  0.00    -0.504 OA
ATOM     13  H   UNL     1       8.996   1.779  -1.501  1.00  0.00     0.293 HD
ENDBRANCH   4  12
BRANCH   6  14
ATOM     14  O   UNL     1      10.019  -1.519  -3.167  1.00  0.00    -0.504 OA
ATOM     15  H   UNL     1      10.351  -0.742  -3.726  1.00  0.00     0.293 HD
ENDBRANCH   6  14
TORSDOF 4
ENDMDL
MODEL 5
REMARK VINA RESULT:    -4.572      2.014      6.334
REMARK INTER + INTRA:          -5.514
REMARK INTER:                  -5.389
REMARK INTRA:                  -0.126
REMARK UNBOUND:                -0.141
REMARK SMILES O=C([O-])C=Cc1ccc(O)c(O)c1
REMARK SMILES IDX 6 1 13 2 7 3 11 4 8 5 9 6 5 7 4 8 2 9 1 10 3 11 12 12 10 14
REMARK H PARENT 12 13 10 15
REMARK Flexibility Score: inf
ROOT
ATOM      1  C   UNL     1      -7.746  -4.565   0.666  1.00  0.00    -0.022 A 
ATOM      2  C   UNL     1      -6.355  -4.470   0.874  1.00  0.00     0.058 A 
ATOM      3  C   UNL     1      -8.347  -5.834   0.677  1.00  0.00     0.012 A 
ATOM      4  C   UNL     1      -5.581  -5.621   1.064  1.00  0.00     0.157 A 
ATOM      5  C   UNL     1      -7.576  -6.985   0.864  1.00  0.00     0.051 A 
ATOM      6  C   UNL     1      -6.192  -6.885   1.055  1.00  0.00     0.157 A 
ENDROOT
BRANCH   1   7
ATOM      7  C   UNL     1      -8.608  -3.373   0.473  1.00  0.00     0.010 C 
ATOM      8  C   UNL     1      -8.578  -2.601  -0.622  1.00  0.00     0.025 C 
BRANCH   8   9
ATOM      9  C   UNL     1      -9.458  -1.432  -0.783  1.00  0.00     0.064 C 
ATOM     10  O   UNL     1      -9.648  -0.909  -1.914  1.00  0.00    -0.545 OA
ATOM     11  O   UNL     1     -10.091  -0.896   0.331  1.00  0.00    -0.545 OA
ENDBRANCH   8   9
ENDBRANCH   1   7
BRANCH   4  12
ATOM     12  O   UNL     1      -4.206  -5.487   1.263  1.00  0.00    -0.504 OA
ATOM     13  H   UNL     1      -3.806  -4.675   1.716  1.00  0.00     0.293 HD
ENDBRANCH   4  12
BRANCH   6  14
ATOM     14  O   UNL     1      -5.425  -8.034   1.239  1.00  0.00    -0.504 OA
ATOM     15  H   UNL     1      -5.804  -8.858   1.691  1.00  0.00     0.293 HD
ENDBRANCH   6  14
TORSDOF 4
ENDMDL
MODEL 6
REMARK VINA RESULT:    -4.553      2.638      6.826
REMARK INTER + INTRA:          -5.492
REMARK INTER:                  -5.368
REMARK INTRA:                  -0.125
REMARK UNBOUND:                -0.141
REMARK SMILES O=C([O-])C=Cc1ccc(O)c(O)c1
REMARK SMILES IDX 6 1 13 2 7 3 11 4 8 5 9 6 5 7 4 8 2 9 1 10 3 11 12 12 10 14
REMARK H PARENT 12 13 10 15
REMARK Flexibility Score: inf
ROOT
ATOM      1  C   UNL     1      -7.164  -5.593   0.461  1.00  0.00    -0.022 A 
ATOM      2  C   UNL     1      -5.834  -5.371   0.872  1.00  0.00     0.058 A 
ATOM      3  C   UNL     1      -7.763  -6.831   0.748  1.00  0.00     0.012 A 
ATOM      4  C   UNL     1      -5.114  -6.373   1.533  1.00  0.00     0.157 A 
ATOM      5  C   UNL     1      -7.046  -7.833   1.405  1.00  0.00     0.051 A 
ATOM      6  C   UNL     1      -5.719  -7.612   1.797  1.00  0.00     0.157 A 
ENDROOT
BRANCH   1   7
ATOM      7  C   UNL     1      -7.971  -4.557  -0.230  1.00  0.00     0.010 C 
ATOM      8  C   UNL     1      -8.242  -3.353   0.293  1.00  0.00     0.025 C 
BRANCH   8   9
ATOM      9  C   UNL     1      -9.037  -2.345  -0.429  1.00  0.00     0.064 C 
ATOM     10  O   UNL     1     -10.125  -1.915   0.039  1.00  0.00    -0.545 OA
ATOM     11  O   UNL     1      -8.580  -1.859  -1.647  1.00  0.00    -0.545 OA
ENDBRANCH   8   9
ENDBRANCH   1   7
BRANCH   4  12
ATOM     12  O   UNL     1      -3.799  -6.117   1.921  1.00  0.00    -0.504 OA
ATOM     13  H   UNL     1      -3.481  -6.261   2.872  1.00  0.00     0.293 HD
ENDBRANCH   4  12
BRANCH   6  14
ATOM     14  O   UNL     1      -5.005  -8.615   2.451  1.00  0.00    -0.504 OA
ATOM     15  H   UNL     1      -4.235  -9.097   2.001  1.00  0.00     0.293 HD
ENDBRANCH   6  14
TORSDOF 4
ENDMDL
MODEL 7
REMARK VINA RESULT:    -4.497      2.090      6.162
REMARK INTER + INTRA:          -5.426
REMARK INTER:                  -5.301
REMARK INTRA:                  -0.125
REMARK UNBOUND:                -0.141
REMARK SMILES O=C([O-])C=Cc1ccc(O)c(O)c1
REMARK SMILES IDX 6 1 13 2 7 3 11 4 8 5 9 6 5 7 4 8 2 9 1 10 3 11 12 12 10 14
REMARK H PARENT 12 13 10 15
REMARK Flexibility Score: inf
ROOT
ATOM      1  C   UNL     1      -8.246  -3.869   0.992  1.00  0.00    -0.022 A 
ATOM      2  C   UNL     1      -7.133  -4.504   0.407  1.00  0.00     0.058 A 
ATOM      3  C   UNL     1      -8.651  -4.262   2.279  1.00  0.00     0.012 A 
ATOM      4  C   UNL     1      -6.457  -5.527   1.084  1.00  0.00     0.157 A 
ATOM      5  C   UNL     1      -7.979  -5.283   2.955  1.00  0.00     0.051 A 
ATOM      6  C   UNL     1      -6.883  -5.922   2.361  1.00  0.00     0.157 A 
ENDROOT
BRANCH   1   7
ATOM      7  C   UNL     1      -8.986  -2.773   0.319  1.00  0.00     0.010 C 
ATOM      8  C   UNL     1      -8.608  -2.224  -0.844  1.00  0.00     0.025 C 
BRANCH   8   9
ATOM      9  C   UNL     1      -9.375  -1.145  -1.489  1.00  0.00     0.064 C 
ATOM     10  O   UNL     1     -10.124  -0.386  -0.818  1.00  0.00    -0.545 OA
ATOM     11  O   UNL     1      -9.270  -0.959  -2.861  1.00  0.00    -0.545 OA
ENDBRANCH   8   9
ENDBRANCH   1   7
BRANCH   4  12
ATOM     12  O   UNL     1      -5.361  -6.135   0.470  1.00  0.00    -0.504 OA
ATOM     13  H   UNL     1      -4.715  -6.722   0.983  1.00  0.00     0.293 HD
ENDBRANCH   4  12
BRANCH   6  14
ATOM     14  O   UNL     1      -6.216  -6.942   3.038  1.00  0.00    -0.504 OA
ATOM     15  H   UNL     1      -5.953  -7.804   2.573  1.00  0.00     0.293 HD
ENDBRANCH   6  14
TORSDOF 4
ENDMDL
MODEL 8
REMARK VINA RESULT:    -4.478     16.677     17.724
REMARK INTER + INTRA:          -5.405
REMARK INTER:                  -5.262
REMARK INTRA:                  -0.143
REMARK UNBOUND:                -0.141
REMARK SMILES O=C([O-])C=Cc1ccc(O)c(O)c1
REMARK SMILES IDX 6 1 13 2 7 3 11 4 8 5 9 6 5 7 4 8 2 9 1 10 3 11 12 12 10 14
REMARK H PARENT 12 13 10 15
REMARK Flexibility Score: inf
ROOT
ATOM      1  C   UNL     1       8.670  -3.568   0.251  1.00  0.00    -0.022 A 
ATOM      2  C   UNL     1       8.018  -3.368  -0.982  1.00  0.00     0.058 A 
ATOM      3  C   UNL     1       8.763  -2.494   1.151  1.00  0.00     0.012 A 
ATOM      4  C   UNL     1       7.494  -2.113  -1.317  1.00  0.00     0.157 A 
ATOM      5  C   UNL     1       8.243  -1.240   0.818  1.00  0.00     0.051 A 
ATOM      6  C   UNL     1       7.610  -1.043  -0.416  1.00  0.00     0.157 A 
ENDROOT
BRANCH   1   7
ATOM      7  C   UNL     1       9.230  -4.882   0.655  1.00  0.00     0.010 C 
ATOM      8  C   UNL     1       9.080  -5.411   1.877  1.00  0.00     0.025 C 
BRANCH   8   9
ATOM      9  C   UNL     1       9.641  -6.724   2.238  1.00  0.00     0.064 C 
ATOM     10  O   UNL     1       9.690  -7.665   1.402  1.00  0.00    -0.545 OA
ATOM     11  O   UNL     1      10.125  -6.929   3.524  1.00  0.00    -0.545 OA
ENDBRANCH   8   9
ENDBRANCH   1   7
BRANCH   4  12
ATOM     12  O   UNL     1       6.859  -1.952  -2.549  1.00  0.00    -0.504 OA
ATOM     13  H   UNL     1       7.114  -2.500  -3.361  1.00  0.00     0.293 HD
ENDBRANCH   4  12
BRANCH   6  14
ATOM     14  O   UNL     1       7.093   0.209  -0.746  1.00  0.00    -0.504 OA
ATOM     15  H   UNL     1       6.517   0.733  -0.098  1.00  0.00     0.293 HD
ENDBRANCH   6  14
TORSDOF 4
ENDMDL
