MODEL 1
REMARK VINA RESULT:    38.242      0.000      0.000
REMARK INTER + INTRA:          44.665
REMARK INTER:                  44.949
REMARK INTRA:                  -0.284
REMARK UNBOUND:                -0.284
REMARK SMILES O=c1cc(-c2ccc(O)c(O)c2)oc2cc(O)cc(O)c12
REMARK SMILES IDX 4 1 3 2 2 3 1 4 21 5 19 6 18 7 16 8 15 9 14 10 13 11 5 12
REMARK SMILES IDX 6 13 7 14 8 15 12 16 10 17 9 18 11 20 20 22 17 24
REMARK H PARENT 9 19 11 21 20 23 17 25
REMARK Flexibility Score: inf
ROOT
ATOM      1  C   UNL     1      12.017  12.922   4.562  1.00  0.00     0.138 A 
ATOM      2  C   UNL     1      11.793  11.660   3.994  1.00  0.00     0.100 A 
ATOM      3  C   UNL     1      11.268  11.567   2.704  1.00  0.00     0.197 A 
ATOM      4  O   UNL     1      11.137  10.423   2.198  1.00  0.00    -0.289 OA
ATOM      5  C   UNL     1      10.935  12.744   1.995  1.00  0.00     0.107 A 
ATOM      6  C   UNL     1      10.355  12.770   0.691  1.00  0.00     0.134 A 
ATOM      7  C   UNL     1      10.177  13.997   0.039  1.00  0.00     0.093 A 
ATOM      8  C   UNL     1      10.498  15.200   0.666  1.00  0.00     0.123 A 
ATOM      9  C   UNL     1      11.016  15.189   1.962  1.00  0.00     0.094 A 
ATOM     10  C   UNL     1      11.239  13.980   2.625  1.00  0.00     0.146 A 
ATOM     11  O   UNL     1      11.746  14.012   3.852  1.00  0.00    -0.456 OA
ENDROOT
BRANCH   1  12
ATOM     12  C   UNL     1      12.572  13.078   5.930  1.00  0.00     0.021 A 
ATOM     13  C   UNL     1      12.138  14.146   6.735  1.00  0.00     0.016 A 
ATOM     14  C   UNL     1      12.640  14.310   8.028  1.00  0.00     0.051 A 
ATOM     15  C   UNL     1      13.575  13.409   8.544  1.00  0.00     0.157 A 
ATOM     16  C   UNL     1      13.505  12.165   6.459  1.00  0.00     0.062 A 
ATOM     17  C   UNL     1      14.008  12.329   7.759  1.00  0.00     0.158 A 
BRANCH  15  18
ATOM     18  O   UNL     1      14.059  13.601   9.838  1.00  0.00    -0.504 OA
ATOM     19  H   UNL     1      14.644  14.391  10.082  1.00  0.00     0.293 HD
ENDBRANCH  15  18
BRANCH  17  20
ATOM     20  O   UNL     1      14.932  11.421   8.272  1.00  0.00    -0.504 OA
ATOM     21  H   UNL     1      15.146  11.382   9.262  1.00  0.00     0.293 HD
ENDBRANCH  17  20
ENDBRANCH   1  12
BRANCH   6  22
ATOM     22  O   UNL     1       9.918  11.632   0.007  1.00  0.00    -0.507 OA
ATOM     23  H   UNL     1      10.135  10.683   0.269  1.00  0.00     0.293 HD
ENDBRANCH   6  22
BRANCH   8  24
ATOM     24  O   UNL     1      10.293  16.402  -0.007  1.00  0.00    -0.508 OA
ATOM     25  H   UNL     1      10.023  17.246   0.485  1.00  0.00     0.293 HD
ENDBRANCH   8  24
TORSDOF 5
ENDMDL
MODEL 2
REMARK VINA RESULT:    39.109      1.181      2.596
REMARK INTER + INTRA:          45.683
REMARK INTER:                  45.997
REMARK INTRA:                  -0.313
REMARK UNBOUND:                -0.284
REMARK SMILES O=c1cc(-c2ccc(O)c(O)c2)oc2cc(O)cc(O)c12
REMARK SMILES IDX 4 1 3 2 2 3 1 4 21 5 19 6 18 7 16 8 15 9 14 10 13 11 5 12
REMARK SMILES IDX 6 13 7 14 8 15 12 16 10 17 9 18 11 20 20 22 17 24
REMARK H PARENT 9 19 11 21 20 23 17 25
REMARK Flexibility Score: inf
ROOT
ATOM      1  C   UNL     1      11.877  13.521   4.771  1.00  0.00     0.138 A 
ATOM      2  C   UNL     1      11.185  14.665   4.348  1.00  0.00     0.100 A 
ATOM      3  C   UNL     1      10.618  14.696   3.074  1.00  0.00     0.197 A 
ATOM      4  O   UNL     1       9.950  15.710   2.746  1.00  0.00    -0.289 OA
ATOM      5  C   UNL     1      10.773  13.589   2.208  1.00  0.00     0.107 A 
ATOM      6  C   UNL     1      10.274  13.525   0.872  1.00  0.00     0.134 A 
ATOM      7  C   UNL     1      10.387  12.331   0.149  1.00  0.00     0.093 A 
ATOM      8  C   UNL     1      11.035  11.220   0.688  1.00  0.00     0.123 A 
ATOM      9  C   UNL     1      11.575  11.289   1.974  1.00  0.00     0.094 A 
ATOM     10  C   UNL     1      11.446  12.453   2.733  1.00  0.00     0.146 A 
ATOM     11  O   UNL     1      11.961  12.474   3.958  1.00  0.00    -0.456 OA
ENDROOT
BRANCH   1  12
ATOM     12  C   UNL     1      12.500  13.435   6.116  1.00  0.00     0.021 A 
ATOM     13  C   UNL     1      12.081  14.315   7.130  1.00  0.00     0.016 A 
ATOM     14  C   UNL     1      12.646  14.249   8.406  1.00  0.00     0.051 A 
ATOM     15  C   UNL     1      13.630  13.300   8.695  1.00  0.00     0.157 A 
ATOM     16  C   UNL     1      13.483  12.472   6.416  1.00  0.00     0.062 A 
ATOM     17  C   UNL     1      14.049  12.405   7.699  1.00  0.00     0.158 A 
BRANCH  15  18
ATOM     18  O   UNL     1      14.177  13.260   9.978  1.00  0.00    -0.504 OA
ATOM     19  H   UNL     1      15.116  12.923  10.152  1.00  0.00     0.293 HD
ENDBRANCH  15  18
BRANCH  17  20
ATOM     20  O   UNL     1      15.023  11.449   7.985  1.00  0.00    -0.504 OA
ATOM     21  H   UNL     1      15.844  11.337   7.402  1.00  0.00     0.293 HD
ENDBRANCH  17  20
ENDBRANCH   1  12
BRANCH   6  22
ATOM     22  O   UNL     1       9.686  14.604   0.206  1.00  0.00    -0.507 OA
ATOM     23  H   UNL     1       9.972  14.949  -0.697  1.00  0.00     0.293 HD
ENDBRANCH   6  22
BRANCH   8  24
ATOM     24  O   UNL     1      11.143  10.054  -0.065  1.00  0.00    -0.508 OA
ATOM     25  H   UNL     1      10.732   9.978  -0.989  1.00  0.00     0.293 HD
ENDBRANCH   8  24
TORSDOF 5
ENDMDL
MODEL 3
REMARK VINA RESULT:    39.244      1.360      7.411
REMARK INTER + INTRA:          45.842
REMARK INTER:                  46.120
REMARK INTRA:                  -0.278
REMARK UNBOUND:                -0.284
REMARK SMILES O=c1cc(-c2ccc(O)c(O)c2)oc2cc(O)cc(O)c12
REMARK SMILES IDX 4 1 3 2 2 3 1 4 21 5 19 6 18 7 16 8 15 9 14 10 13 11 5 12
REMARK SMILES IDX 6 13 7 14 8 15 12 16 10 17 9 18 11 20 20 22 17 24
REMARK H PARENT 9 19 11 21 20 23 17 25
REMARK Flexibility Score: inf
ROOT
ATOM      1  C   UNL     1      11.856  13.317   4.844  1.00  0.00     0.138 A 
ATOM      2  C   UNL     1      11.243  14.150   5.789  1.00  0.00     0.100 A 
ATOM      3  C   UNL     1      11.755  14.218   7.085  1.00  0.00     0.197 A 
ATOM      4  O   UNL     1      11.221  15.022   7.893  1.00  0.00    -0.289 OA
ATOM      5  C   UNL     1      12.867  13.421   7.444  1.00  0.00     0.107 A 
ATOM      6  C   UNL     1      13.449  13.378   8.746  1.00  0.00     0.134 A 
ATOM      7  C   UNL     1      14.621  12.640   8.955  1.00  0.00     0.093 A 
ATOM      8  C   UNL     1      15.197  11.896   7.926  1.00  0.00     0.123 A 
ATOM      9  C   UNL     1      14.606  11.889   6.661  1.00  0.00     0.094 A 
ATOM     10  C   UNL     1      13.457  12.643   6.413  1.00  0.00     0.146 A 
ATOM     11  O   UNL     1      12.933  12.621   5.192  1.00  0.00    -0.456 OA
ENDROOT
BRANCH   1  12
ATOM     12  C   UNL     1      11.352  13.206   3.452  1.00  0.00     0.021 A 
ATOM     13  C   UNL     1      11.238  11.937   2.856  1.00  0.00     0.016 A 
ATOM     14  C   UNL     1      10.759  11.806   1.551  1.00  0.00     0.051 A 
ATOM     15  C   UNL     1      10.377  12.935   0.821  1.00  0.00     0.157 A 
ATOM     16  C   UNL     1      10.953  14.340   2.717  1.00  0.00     0.062 A 
ATOM     17  C   UNL     1      10.470  14.207   1.406  1.00  0.00     0.158 A 
BRANCH  15  18
ATOM     18  O   UNL     1       9.905  12.772  -0.482  1.00  0.00    -0.504 OA
ATOM     19  H   UNL     1       9.177  13.361  -0.868  1.00  0.00     0.293 HD
ENDBRANCH  15  18
BRANCH  17  20
ATOM     20  O   UNL     1      10.079  15.336   0.686  1.00  0.00    -0.504 OA
ATOM     21  H   UNL     1      10.391  16.265   0.945  1.00  0.00     0.293 HD
ENDBRANCH  17  20
ENDBRANCH   1  12
BRANCH   6  22
ATOM     22  O   UNL     1      12.906  14.015   9.866  1.00  0.00    -0.507 OA
ATOM     23  H   UNL     1      11.924  14.192  10.010  1.00  0.00     0.293 HD
ENDBRANCH   6  22
BRANCH   8  24
ATOM     24  O   UNL     1      16.354  11.162   8.172  1.00  0.00    -0.508 OA
ATOM     25  H   UNL     1      16.666  10.962   9.115  1.00  0.00     0.293 HD
ENDBRANCH   8  24
TORSDOF 5
ENDMDL
MODEL 4
REMARK VINA RESULT:    39.258      2.961      4.250
REMARK INTER + INTRA:          45.858
REMARK INTER:                  46.122
REMARK INTRA:                  -0.263
REMARK UNBOUND:                -0.284
REMARK SMILES O=c1cc(-c2ccc(O)c(O)c2)oc2cc(O)cc(O)c12
REMARK SMILES IDX 4 1 3 2 2 3 1 4 21 5 19 6 18 7 16 8 15 9 14 10 13 11 5 12
REMARK SMILES IDX 6 13 7 14 8 15 12 16 10 17 9 18 11 20 20 22 17 24
REMARK H PARENT 9 19 11 21 20 23 17 25
REMARK Flexibility Score: inf
ROOT
ATOM      1  C   UNL     1      10.236  13.286   4.623  1.00  0.00     0.138 A 
ATOM      2  C   UNL     1      10.008  14.322   3.706  1.00  0.00     0.100 A 
ATOM      3  C   UNL     1      10.484  14.205   2.400  1.00  0.00     0.197 A 
ATOM      4  O   UNL     1      10.210  15.123   1.585  1.00  0.00    -0.289 OA
ATOM      5  C   UNL     1      11.221  13.060   2.020  1.00  0.00     0.107 A 
ATOM      6  C   UNL     1      11.790  12.851   0.728  1.00  0.00     0.134 A 
ATOM      7  C   UNL     1      12.400  11.625   0.431  1.00  0.00     0.093 A 
ATOM      8  C   UNL     1      12.514  10.625   1.396  1.00  0.00     0.123 A 
ATOM      9  C   UNL     1      12.009  10.839   2.679  1.00  0.00     0.094 A 
ATOM     10  C   UNL     1      11.364  12.037   2.995  1.00  0.00     0.146 A 
ATOM     11  O   UNL     1      10.884  12.196   4.224  1.00  0.00    -0.456 OA
ENDROOT
BRANCH   1  12
ATOM     12  C   UNL     1       9.752  13.358   6.024  1.00  0.00     0.021 A 
ATOM     13  C   UNL     1      10.592  13.891   7.019  1.00  0.00     0.016 A 
ATOM     14  C   UNL     1      10.157  13.977   8.343  1.00  0.00     0.051 A 
ATOM     15  C   UNL     1       8.877  13.543   8.698  1.00  0.00     0.157 A 
ATOM     16  C   UNL     1       8.458  12.934   6.384  1.00  0.00     0.062 A 
ATOM     17  C   UNL     1       8.021  13.022   7.714  1.00  0.00     0.158 A 
BRANCH  15  18
ATOM     18  O   UNL     1       8.472  13.640  10.029  1.00  0.00    -0.504 OA
ATOM     19  H   UNL     1       8.096  12.848  10.536  1.00  0.00     0.293 HD
ENDBRANCH  15  18
BRANCH  17  20
ATOM     20  O   UNL     1       6.739  12.597   8.060  1.00  0.00    -0.504 OA
ATOM     21  H   UNL     1       6.432  12.568   9.025  1.00  0.00     0.293 HD
ENDBRANCH  17  20
ENDBRANCH   1  12
BRANCH   6  22
ATOM     22  O   UNL     1      11.807  13.817  -0.283  1.00  0.00    -0.507 OA
ATOM     23  H   UNL     1      11.130  14.556  -0.386  1.00  0.00     0.293 HD
ENDBRANCH   6  22
BRANCH   8  24
ATOM     24  O   UNL     1      13.140   9.424   1.071  1.00  0.00    -0.508 OA
ATOM     25  H   UNL     1      12.977   8.965   0.182  1.00  0.00     0.293 HD
ENDBRANCH   8  24
TORSDOF 5
ENDMDL
MODEL 5
REMARK VINA RESULT:    40.126      2.630      3.084
REMARK INTER + INTRA:          46.879
REMARK INTER:                  47.146
REMARK INTRA:                  -0.266
REMARK UNBOUND:                -0.284
REMARK SMILES O=c1cc(-c2ccc(O)c(O)c2)oc2cc(O)cc(O)c12
REMARK SMILES IDX 4 1 3 2 2 3 1 4 21 5 19 6 18 7 16 8 15 9 14 10 13 11 5 12
REMARK SMILES IDX 6 13 7 14 8 15 12 16 10 17 9 18 11 20 20 22 17 24
REMARK H PARENT 9 19 11 21 20 23 17 25
REMARK Flexibility Score: inf
ROOT
ATOM      1  C   UNL     1      10.233  13.153   4.581  1.00  0.00     0.138 A 
ATOM      2  C   UNL     1      10.733  11.953   4.058  1.00  0.00     0.100 A 
ATOM      3  C   UNL     1      11.089  11.882   2.711  1.00  0.00     0.197 A 
ATOM      4  O   UNL     1      11.593  10.810   2.286  1.00  0.00    -0.289 OA
ATOM      5  C   UNL     1      10.912  13.010   1.876  1.00  0.00     0.107 A 
ATOM      6  C   UNL     1      11.202  13.041   0.479  1.00  0.00     0.134 A 
ATOM      7  C   UNL     1      11.097  14.250  -0.221  1.00  0.00     0.093 A 
ATOM      8  C   UNL     1      10.656  15.413   0.410  1.00  0.00     0.123 A 
ATOM      9  C   UNL     1      10.319  15.381   1.764  1.00  0.00     0.094 A 
ATOM     10  C   UNL     1      10.446  14.200   2.497  1.00  0.00     0.146 A 
ATOM     11  O   UNL     1      10.129  14.214   3.788  1.00  0.00    -0.456 OA
ENDROOT
BRANCH   1  12
ATOM     12  C   UNL     1       9.839  13.284   6.006  1.00  0.00     0.021 A 
ATOM     13  C   UNL     1      10.735  13.864   6.921  1.00  0.00     0.016 A 
ATOM     14  C   UNL     1      10.384  14.005   8.266  1.00  0.00     0.051 A 
ATOM     15  C   UNL     1       9.133  13.579   8.720  1.00  0.00     0.157 A 
ATOM     16  C   UNL     1       8.574  12.868   6.465  1.00  0.00     0.062 A 
ATOM     17  C   UNL     1       8.222  13.011   7.816  1.00  0.00     0.158 A 
BRANCH  15  18
ATOM     18  O   UNL     1       8.813  13.731  10.069  1.00  0.00    -0.504 OA
ATOM     19  H   UNL     1       8.847  14.632  10.532  1.00  0.00     0.293 HD
ENDBRANCH  15  18
BRANCH  17  20
ATOM     20  O   UNL     1       6.968  12.594   8.261  1.00  0.00    -0.504 OA
ATOM     21  H   UNL     1       6.259  13.259   8.550  1.00  0.00     0.293 HD
ENDBRANCH  17  20
ENDBRANCH   1  12
BRANCH   6  22
ATOM     22  O   UNL     1      11.568  11.918  -0.268  1.00  0.00    -0.507 OA
ATOM     23  H   UNL     1      12.024  11.100   0.106  1.00  0.00     0.293 HD
ENDBRANCH   6  22
BRANCH   8  24
ATOM     24  O   UNL     1      10.549  16.594  -0.321  1.00  0.00    -0.508 OA
ATOM     25  H   UNL     1      10.383  16.586  -1.320  1.00  0.00     0.293 HD
ENDBRANCH   8  24
TORSDOF 5
ENDMDL
