MODEL 1
REMARK VINA RESULT:     7.446      0.000      0.000
REMARK INTER + INTRA:          18.838
REMARK INTER:                  19.634
REMARK INTRA:                  -0.795
REMARK UNBOUND:                -0.795
REMARK SMILES CCCCCCCCCCCCCCCCCCCCCCCCCCCCCC(=O)[O-]
REMARK SMILES IDX 16 1 17 2 18 3 19 4 20 5 21 6 22 7 23 8 24 9 25 10 26 11
REMARK SMILES IDX 27 12 28 13 29 14 30 15 31 16 32 17 15 18 14 19 13 20 12 21
REMARK SMILES IDX 11 22 10 23 9 24 8 25 7 26 6 27 5 28 4 29 3 30 2 31 1 32
REMARK H PARENT
REMARK Flexibility Score: inf
ROOT
ATOM      1  C   UNL     1     -24.427  -3.386 -26.206  1.00  0.00     0.000 C 
ENDROOT
BRANCH   1   2
ATOM      2  C   UNL     1     -25.438  -3.649 -27.334  1.00  0.00     0.000 C 
BRANCH   2   3
ATOM      3  C   UNL     1     -26.721  -2.815 -27.196  1.00  0.00     0.000 C 
BRANCH   3   4
ATOM      4  C   UNL     1     -27.244  -2.299 -28.550  1.00  0.00     0.000 C 
BRANCH   4   5
ATOM      5  C   UNL     1     -28.546  -3.004 -28.988  1.00  0.00     0.000 C 
BRANCH   5   6
ATOM      6  C   UNL     1     -29.830  -2.338 -28.454  1.00  0.00     0.000 C 
BRANCH   6   7
ATOM      7  C   UNL     1     -30.816  -3.288 -27.756  1.00  0.00     0.000 C 
BRANCH   7   8
ATOM      8  C   UNL     1     -32.088  -2.577 -27.268  1.00  0.00     0.000 C 
BRANCH   8   9
ATOM      9  C   UNL     1     -31.803  -1.106 -26.928  1.00  0.00     0.000 C 
BRANCH   9  10
ATOM     10  C   UNL     1     -31.026  -0.929 -25.611  1.00  0.00     0.000 C 
BRANCH  10  11
ATOM     11  C   UNL     1     -31.003   0.503 -25.047  1.00  0.00     0.000 C 
BRANCH  11  12
ATOM     12  C   UNL     1     -31.743   1.513 -25.941  1.00  0.00     0.000 C 
BRANCH  12  13
ATOM     13  C   UNL     1     -30.819   2.624 -26.472  1.00  0.00     0.006 C 
BRANCH  13  14
ATOM     14  C   UNL     1     -31.541   3.933 -26.835  1.00  0.00     0.053 C 
BRANCH  14  15
ATOM     15  C   UNL     1     -30.754   4.762 -27.804  1.00  0.00     0.041 C 
ATOM     16  O   UNL     1     -31.324   5.284 -28.799  1.00  0.00    -0.550 OA
ATOM     17  O   UNL     1     -29.393   4.965 -27.604  1.00  0.00    -0.550 OA
ENDBRANCH  14  15
ENDBRANCH  13  14
ENDBRANCH  12  13
ENDBRANCH  11  12
ENDBRANCH  10  11
ENDBRANCH   9  10
ENDBRANCH   8   9
ENDBRANCH   7   8
ENDBRANCH   6   7
ENDBRANCH   5   6
ENDBRANCH   4   5
ENDBRANCH   3   4
ENDBRANCH   2   3
ENDBRANCH   1   2
BRANCH   1  18
ATOM     18  C   UNL     1     -24.207  -1.887 -25.943  1.00  0.00     0.000 C 
BRANCH  18  19
ATOM     19  C   UNL     1     -23.658  -1.143 -27.171  1.00  0.00     0.000 C 
BRANCH  19  20
ATOM     20  C   UNL     1     -23.096   0.234 -26.776  1.00  0.00     0.000 C 
BRANCH  20  21
ATOM     21  C   UNL     1     -21.828   0.135 -25.912  1.00  0.00     0.000 C 
BRANCH  21  22
ATOM     22  C   UNL     1     -21.801   1.174 -24.779  1.00  0.00     0.000 C 
BRANCH  22  23
ATOM     23  C   UNL     1     -21.953   2.614 -25.299  1.00  0.00     0.000 C 
BRANCH  23  24
ATOM     24  C   UNL     1     -20.624   3.209 -25.792  1.00  0.00    -0.000 C 
BRANCH  24  25
ATOM     25  C   UNL     1     -20.693   3.535 -27.288  1.00  0.00    -0.000 C 
BRANCH  25  26
ATOM     26  C   UNL     1     -21.875   4.465 -27.595  1.00  0.00    -0.000 C 
BRANCH  26  27
ATOM     27  C   UNL     1     -21.432   5.888 -27.982  1.00  0.00    -0.000 C 
BRANCH  27  28
ATOM     28  C   UNL     1     -20.399   5.965 -29.125  1.00  0.00    -0.000 C 
BRANCH  28  29
ATOM     29  C   UNL     1     -18.935   6.124 -28.675  1.00  0.00    -0.000 C 
BRANCH  29  30
ATOM     30  C   UNL     1     -18.396   4.882 -27.952  1.00  0.00    -0.000 C 
BRANCH  30  31
ATOM     31  C   UNL     1     -16.885   4.999 -27.714  1.00  0.00    -0.003 C 
ATOM     32  C   UNL     1     -16.228   5.875 -28.778  1.00  0.00     0.004 C 
ENDBRANCH  30  31
ENDBRANCH  29  30
ENDBRANCH  28  29
ENDBRANCH  27  28
ENDBRANCH  26  27
ENDBRANCH  25  26
ENDBRANCH  24  25
ENDBRANCH  23  24
ENDBRANCH  22  23
ENDBRANCH  21  22
ENDBRANCH  20  21
ENDBRANCH  19  20
ENDBRANCH  18  19
ENDBRANCH   1  18
TORSDOF 28
ENDMDL
MODEL 2
REMARK VINA RESULT:     9.434      2.447      2.958
REMARK INTER + INTRA:          24.082
REMARK INTER:                  24.903
REMARK INTRA:                  -0.821
REMARK UNBOUND:                -0.795
REMARK SMILES CCCCCCCCCCCCCCCCCCCCCCCCCCCCCC(=O)[O-]
REMARK SMILES IDX 16 1 17 2 18 3 19 4 20 5 21 6 22 7 23 8 24 9 25 10 26 11
REMARK SMILES IDX 27 12 28 13 29 14 30 15 31 16 32 17 15 18 14 19 13 20 12 21
REMARK SMILES IDX 11 22 10 23 9 24 8 25 7 26 6 27 5 28 4 29 3 30 2 31 1 32
REMARK H PARENT
REMARK Flexibility Score: inf
ROOT
ATOM      1  C   UNL     1     -24.383  -3.428 -26.291  1.00  0.00     0.000 C 
ENDROOT
BRANCH   1   2
ATOM      2  C   UNL     1     -25.389  -3.871 -27.368  1.00  0.00     0.000 C 
BRANCH   2   3
ATOM      3  C   UNL     1     -26.633  -2.971 -27.432  1.00  0.00     0.000 C 
BRANCH   3   4
ATOM      4  C   UNL     1     -27.189  -2.827 -28.861  1.00  0.00     0.000 C 
BRANCH   4   5
ATOM      5  C   UNL     1     -28.516  -3.591 -29.060  1.00  0.00     0.000 C 
BRANCH   5   6
ATOM      6  C   UNL     1     -29.775  -2.748 -28.771  1.00  0.00     0.000 C 
BRANCH   6   7
ATOM      7  C   UNL     1     -30.178  -2.664 -27.290  1.00  0.00     0.000 C 
BRANCH   7   8
ATOM      8  C   UNL     1     -31.634  -2.212 -27.093  1.00  0.00     0.000 C 
BRANCH   8   9
ATOM      9  C   UNL     1     -31.718  -1.029 -26.117  1.00  0.00     0.000 C 
BRANCH   9  10
ATOM     10  C   UNL     1     -31.593   0.339 -26.813  1.00  0.00     0.000 C 
BRANCH  10  11
ATOM     11  C   UNL     1     -30.914   1.441 -25.979  1.00  0.00     0.000 C 
BRANCH  11  12
ATOM     12  C   UNL     1     -31.788   1.941 -24.817  1.00  0.00     0.000 C 
BRANCH  12  13
ATOM     13  C   UNL     1     -31.402   1.306 -23.468  1.00  0.00     0.006 C 
BRANCH  13  14
ATOM     14  C   UNL     1     -31.019  -0.182 -23.552  1.00  0.00     0.053 C 
BRANCH  14  15
ATOM     15  C   UNL     1     -30.442  -0.690 -22.266  1.00  0.00     0.041 C 
ATOM     16  O   UNL     1     -31.134  -0.677 -21.213  1.00  0.00    -0.550 OA
ATOM     17  O   UNL     1     -29.144  -1.186 -22.232  1.00  0.00    -0.550 OA
ENDBRANCH  14  15
ENDBRANCH  13  14
ENDBRANCH  12  13
ENDBRANCH  11  12
ENDBRANCH  10  11
ENDBRANCH   9  10
ENDBRANCH   8   9
ENDBRANCH   7   8
ENDBRANCH   6   7
ENDBRANCH   5   6
ENDBRANCH   4   5
ENDBRANCH   3   4
ENDBRANCH   2   3
ENDBRANCH   1   2
BRANCH   1  18
ATOM     18  C   UNL     1     -24.264  -1.899 -26.184  1.00  0.00     0.000 C 
BRANCH  18  19
ATOM     19  C   UNL     1     -23.756  -1.250 -27.481  1.00  0.00     0.000 C 
BRANCH  19  20
ATOM     20  C   UNL     1     -23.159   0.140 -27.204  1.00  0.00     0.000 C 
BRANCH  20  21
ATOM     21  C   UNL     1     -21.888   0.082 -26.340  1.00  0.00     0.000 C 
BRANCH  21  22
ATOM     22  C   UNL     1     -21.967   1.002 -25.110  1.00  0.00     0.000 C 
BRANCH  22  23
ATOM     23  C   UNL     1     -22.374   2.439 -25.476  1.00  0.00     0.000 C 
BRANCH  23  24
ATOM     24  C   UNL     1     -21.178   3.301 -25.908  1.00  0.00    -0.000 C 
BRANCH  24  25
ATOM     25  C   UNL     1     -21.219   3.579 -27.416  1.00  0.00    -0.000 C 
BRANCH  25  26
ATOM     26  C   UNL     1     -21.930   4.907 -27.711  1.00  0.00    -0.000 C 
BRANCH  26  27
ATOM     27  C   UNL     1     -20.954   6.091 -27.843  1.00  0.00    -0.000 C 
BRANCH  27  28
ATOM     28  C   UNL     1     -19.781   5.869 -28.820  1.00  0.00    -0.000 C 
BRANCH  28  29
ATOM     29  C   UNL     1     -18.381   6.124 -28.232  1.00  0.00    -0.000 C 
BRANCH  29  30
ATOM     30  C   UNL     1     -17.434   4.930 -28.409  1.00  0.00    -0.000 C 
BRANCH  30  31
ATOM     31  C   UNL     1     -16.145   5.354 -29.123  1.00  0.00    -0.003 C 
ATOM     32  C   UNL     1     -15.042   4.316 -28.929  1.00  0.00     0.004 C 
ENDBRANCH  30  31
ENDBRANCH  29  30
ENDBRANCH  28  29
ENDBRANCH  27  28
ENDBRANCH  26  27
ENDBRANCH  25  26
ENDBRANCH  24  25
ENDBRANCH  23  24
ENDBRANCH  22  23
ENDBRANCH  21  22
ENDBRANCH  20  21
ENDBRANCH  19  20
ENDBRANCH  18  19
ENDBRANCH   1  18
TORSDOF 28
ENDMDL
MODEL 3
REMARK VINA RESULT:     9.921     10.521     13.892
REMARK INTER + INTRA:          25.364
REMARK INTER:                  26.649
REMARK INTRA:                  -1.285
REMARK UNBOUND:                -0.795
REMARK SMILES CCCCCCCCCCCCCCCCCCCCCCCCCCCCCC(=O)[O-]
REMARK SMILES IDX 16 1 17 2 18 3 19 4 20 5 21 6 22 7 23 8 24 9 25 10 26 11
REMARK SMILES IDX 27 12 28 13 29 14 30 15 31 16 32 17 15 18 14 19 13 20 12 21
REMARK SMILES IDX 11 22 10 23 9 24 8 25 7 26 6 27 5 28 4 29 3 30 2 31 1 32
REMARK H PARENT
REMARK Flexibility Score: inf
ROOT
ATOM      1  C   UNL     1     -17.241  -4.425 -21.939  1.00  0.00     0.000 C 
ENDROOT
BRANCH   1   2
ATOM      2  C   UNL     1     -16.996  -2.907 -21.958  1.00  0.00     0.000 C 
BRANCH   2   3
ATOM      3  C   UNL     1     -18.264  -2.100 -22.280  1.00  0.00     0.000 C 
BRANCH   3   4
ATOM      4  C   UNL     1     -18.847  -1.391 -21.044  1.00  0.00     0.000 C 
BRANCH   4   5
ATOM      5  C   UNL     1     -19.969  -0.394 -21.406  1.00  0.00     0.000 C 
BRANCH   5   6
ATOM      6  C   UNL     1     -20.833  -0.832 -22.606  1.00  0.00     0.000 C 
BRANCH   6   7
ATOM      7  C   UNL     1     -21.832   0.222 -23.110  1.00  0.00     0.000 C 
BRANCH   7   8
ATOM      8  C   UNL     1     -21.242   1.132 -24.199  1.00  0.00     0.000 C 
BRANCH   8   9
ATOM      9  C   UNL     1     -22.322   2.037 -24.809  1.00  0.00     0.000 C 
BRANCH   9  10
ATOM     10  C   UNL     1     -22.646   1.690 -26.274  1.00  0.00     0.000 C 
BRANCH  10  11
ATOM     11  C   UNL     1     -21.458   1.779 -27.249  1.00  0.00     0.000 C 
BRANCH  11  12
ATOM     12  C   UNL     1     -20.840   3.186 -27.318  1.00  0.00     0.000 C 
BRANCH  12  13
ATOM     13  C   UNL     1     -21.854   4.259 -27.756  1.00  0.00     0.006 C 
BRANCH  13  14
ATOM     14  C   UNL     1     -21.222   5.511 -28.388  1.00  0.00     0.053 C 
BRANCH  14  15
ATOM     15  C   UNL     1     -19.882   5.826 -27.796  1.00  0.00     0.041 C 
ATOM     16  O   UNL     1     -18.854   5.831 -28.525  1.00  0.00    -0.550 OA
ATOM     17  O   UNL     1     -19.770   6.124 -26.443  1.00  0.00    -0.550 OA
ENDBRANCH  14  15
ENDBRANCH  13  14
ENDBRANCH  12  13
ENDBRANCH  11  12
ENDBRANCH  10  11
ENDBRANCH   9  10
ENDBRANCH   8   9
ENDBRANCH   7   8
ENDBRANCH   6   7
ENDBRANCH   5   6
ENDBRANCH   4   5
ENDBRANCH   3   4
ENDBRANCH   2   3
ENDBRANCH   1   2
BRANCH   1  18
ATOM     18  C   UNL     1     -16.263  -5.172 -21.018  1.00  0.00     0.000 C 
BRANCH  18  19
ATOM     19  C   UNL     1     -16.834  -5.408 -19.611  1.00  0.00     0.000 C 
BRANCH  19  20
ATOM     20  C   UNL     1     -16.100  -4.551 -18.566  1.00  0.00     0.000 C 
BRANCH  20  21
ATOM     21  C   UNL     1     -14.610  -4.911 -18.439  1.00  0.00     0.000 C 
BRANCH  21  22
ATOM     22  C   UNL     1     -14.027  -4.540 -17.065  1.00  0.00     0.000 C 
BRANCH  22  23
ATOM     23  C   UNL     1     -14.548  -3.187 -16.552  1.00  0.00     0.000 C 
BRANCH  23  24
ATOM     24  C   UNL     1     -13.415  -2.202 -16.225  1.00  0.00    -0.000 C 
BRANCH  24  25
ATOM     25  C   UNL     1     -13.333  -1.944 -14.716  1.00  0.00    -0.000 C 
BRANCH  25  26
ATOM     26  C   UNL     1     -13.658  -3.218 -13.923  1.00  0.00    -0.000 C 
BRANCH  26  27
ATOM     27  C   UNL     1     -13.155  -3.162 -12.468  1.00  0.00    -0.000 C 
BRANCH  27  28
ATOM     28  C   UNL     1     -14.188  -3.577 -11.400  1.00  0.00    -0.000 C 
BRANCH  28  29
ATOM     29  C   UNL     1     -13.725  -3.413  -9.941  1.00  0.00    -0.000 C 
BRANCH  29  30
ATOM     30  C   UNL     1     -12.401  -4.132  -9.652  1.00  0.00    -0.000 C 
BRANCH  30  31
ATOM     31  C   UNL     1     -12.631  -5.629  -9.413  1.00  0.00    -0.003 C 
ATOM     32  C   UNL     1     -14.035  -5.890  -8.875  1.00  0.00     0.004 C 
ENDBRANCH  30  31
ENDBRANCH  29  30
ENDBRANCH  28  29
ENDBRANCH  27  28
ENDBRANCH  26  27
ENDBRANCH  25  26
ENDBRANCH  24  25
ENDBRANCH  23  24
ENDBRANCH  22  23
ENDBRANCH  21  22
ENDBRANCH  20  21
ENDBRANCH  19  20
ENDBRANCH  18  19
ENDBRANCH   1  18
TORSDOF 28
ENDMDL
MODEL 4
REMARK VINA RESULT:    10.114     11.155     15.267
REMARK INTER + INTRA:          25.875
REMARK INTER:                  26.630
REMARK INTRA:                  -0.755
REMARK UNBOUND:                -0.795
REMARK SMILES CCCCCCCCCCCCCCCCCCCCCCCCCCCCCC(=O)[O-]
REMARK SMILES IDX 16 1 17 2 18 3 19 4 20 5 21 6 22 7 23 8 24 9 25 10 26 11
REMARK SMILES IDX 27 12 28 13 29 14 30 15 31 16 32 17 15 18 14 19 13 20 12 21
REMARK SMILES IDX 11 22 10 23 9 24 8 25 7 26 6 27 5 28 4 29 3 30 2 31 1 32
REMARK H PARENT
REMARK Flexibility Score: inf
ROOT
ATOM      1  C   UNL     1     -16.459  -4.022 -21.604  1.00  0.00     0.000 C 
ENDROOT
BRANCH   1   2
ATOM      2  C   UNL     1     -17.058  -5.437 -21.531  1.00  0.00     0.000 C 
BRANCH   2   3
ATOM      3  C   UNL     1     -16.863  -6.100 -20.158  1.00  0.00     0.000 C 
BRANCH   3   4
ATOM      4  C   UNL     1     -16.537  -5.083 -19.048  1.00  0.00     0.000 C 
BRANCH   4   5
ATOM      5  C   UNL     1     -15.028  -4.770 -18.956  1.00  0.00     0.000 C 
BRANCH   5   6
ATOM      6  C   UNL     1     -14.334  -5.382 -17.722  1.00  0.00     0.000 C 
BRANCH   6   7
ATOM      7  C   UNL     1     -14.276  -4.470 -16.486  1.00  0.00     0.000 C 
BRANCH   7   8
ATOM      8  C   UNL     1     -14.683  -3.020 -16.794  1.00  0.00     0.000 C 
BRANCH   8   9
ATOM      9  C   UNL     1     -13.500  -2.060 -16.598  1.00  0.00     0.000 C 
BRANCH   9  10
ATOM     10  C   UNL     1     -13.084  -1.907 -15.123  1.00  0.00     0.000 C 
BRANCH  10  11
ATOM     11  C   UNL     1     -14.222  -2.068 -14.098  1.00  0.00     0.000 C 
BRANCH  11  12
ATOM     12  C   UNL     1     -14.221  -3.443 -13.409  1.00  0.00     0.000 C 
BRANCH  12  13
ATOM     13  C   UNL     1     -13.162  -3.548 -12.296  1.00  0.00     0.006 C 
BRANCH  13  14
ATOM     14  C   UNL     1     -13.727  -3.919 -10.914  1.00  0.00     0.053 C 
BRANCH  14  15
ATOM     15  C   UNL     1     -12.834  -3.466  -9.799  1.00  0.00     0.041 C 
ATOM     16  O   UNL     1     -12.146  -4.305  -9.158  1.00  0.00    -0.550 OA
ATOM     17  O   UNL     1     -12.753  -2.116  -9.475  1.00  0.00    -0.550 OA
ENDBRANCH  14  15
ENDBRANCH  13  14
ENDBRANCH  12  13
ENDBRANCH  11  12
ENDBRANCH  10  11
ENDBRANCH   9  10
ENDBRANCH   8   9
ENDBRANCH   7   8
ENDBRANCH   6   7
ENDBRANCH   5   6
ENDBRANCH   4   5
ENDBRANCH   3   4
ENDBRANCH   2   3
ENDBRANCH   1   2
BRANCH   1  18
ATOM     18  C   UNL     1     -17.349  -3.041 -22.386  1.00  0.00     0.000 C 
BRANCH  18  19
ATOM     19  C   UNL     1     -17.897  -1.905 -21.508  1.00  0.00     0.000 C 
BRANCH  19  20
ATOM     20  C   UNL     1     -19.434  -1.876 -21.540  1.00  0.00     0.000 C 
BRANCH  20  21
ATOM     21  C   UNL     1     -19.995  -0.526 -22.016  1.00  0.00     0.000 C 
BRANCH  21  22
ATOM     22  C   UNL     1     -21.245  -0.682 -22.897  1.00  0.00     0.000 C 
BRANCH  22  23
ATOM     23  C   UNL     1     -21.894   0.670 -23.241  1.00  0.00     0.000 C 
BRANCH  23  24
ATOM     24  C   UNL     1     -21.475   1.192 -24.624  1.00  0.00    -0.000 C 
BRANCH  24  25
ATOM     25  C   UNL     1     -22.633   1.934 -25.302  1.00  0.00    -0.000 C 
BRANCH  25  26
ATOM     26  C   UNL     1     -22.412   2.029 -26.819  1.00  0.00    -0.000 C 
BRANCH  26  27
ATOM     27  C   UNL     1     -21.068   2.685 -27.188  1.00  0.00    -0.000 C 
BRANCH  27  28
ATOM     28  C   UNL     1     -21.179   4.014 -27.964  1.00  0.00    -0.000 C 
BRANCH  28  29
ATOM     29  C   UNL     1     -20.905   5.282 -27.135  1.00  0.00    -0.000 C 
BRANCH  29  30
ATOM     30  C   UNL     1     -19.753   6.124 -27.699  1.00  0.00    -0.000 C 
BRANCH  30  31
ATOM     31  C   UNL     1     -18.396   5.549 -27.276  1.00  0.00    -0.003 C 
ATOM     32  C   UNL     1     -17.346   5.762 -28.364  1.00  0.00     0.004 C 
ENDBRANCH  30  31
ENDBRANCH  29  30
ENDBRANCH  28  29
ENDBRANCH  27  28
ENDBRANCH  26  27
ENDBRANCH  25  26
ENDBRANCH  24  25
ENDBRANCH  23  24
ENDBRANCH  22  23
ENDBRANCH  21  22
ENDBRANCH  20  21
ENDBRANCH  19  20
ENDBRANCH  18  19
ENDBRANCH   1  18
TORSDOF 28
ENDMDL
MODEL 5
REMARK VINA RESULT:    10.224      3.330      7.385
REMARK INTER + INTRA:          26.163
REMARK INTER:                  25.741
REMARK INTRA:                   0.423
REMARK UNBOUND:                -0.795
REMARK SMILES CCCCCCCCCCCCCCCCCCCCCCCCCCCCCC(=O)[O-]
REMARK SMILES IDX 16 1 17 2 18 3 19 4 20 5 21 6 22 7 23 8 24 9 25 10 26 11
REMARK SMILES IDX 27 12 28 13 29 14 30 15 31 16 32 17 15 18 14 19 13 20 12 21
REMARK SMILES IDX 11 22 10 23 9 24 8 25 7 26 6 27 5 28 4 29 3 30 2 31 1 32
REMARK H PARENT
REMARK Flexibility Score: inf
ROOT
ATOM      1  C   UNL     1     -31.566   0.277 -27.778  1.00  0.00     0.000 C 
ENDROOT
BRANCH   1   2
ATOM      2  C   UNL     1     -31.291   1.790 -27.730  1.00  0.00     0.000 C 
BRANCH   2   3
ATOM      3  C   UNL     1     -32.123   2.583 -28.750  1.00  0.00     0.000 C 
BRANCH   3   4
ATOM      4  C   UNL     1     -31.499   3.948 -29.094  1.00  0.00     0.000 C 
BRANCH   4   5
ATOM      5  C   UNL     1     -30.281   4.283 -28.206  1.00  0.00     0.000 C 
BRANCH   5   6
ATOM      6  C   UNL     1     -30.499   3.995 -26.707  1.00  0.00     0.000 C 
BRANCH   6   7
ATOM      7  C   UNL     1     -31.924   4.258 -26.192  1.00  0.00     0.000 C 
BRANCH   7   8
ATOM      8  C   UNL     1     -32.089   3.933 -24.699  1.00  0.00     0.000 C 
BRANCH   8   9
ATOM      9  C   UNL     1     -31.004   2.955 -24.223  1.00  0.00     0.000 C 
BRANCH   9  10
ATOM     10  C   UNL     1     -31.510   1.506 -24.097  1.00  0.00     0.000 C 
BRANCH  10  11
ATOM     11  C   UNL     1     -30.583   0.550 -23.323  1.00  0.00     0.000 C 
BRANCH  11  12
ATOM     12  C   UNL     1     -31.294  -0.732 -22.859  1.00  0.00     0.000 C 
BRANCH  12  13
ATOM     13  C   UNL     1     -30.389  -1.632 -21.996  1.00  0.00     0.006 C 
BRANCH  13  14
ATOM     14  C   UNL     1     -30.087  -1.073 -20.595  1.00  0.00     0.053 C 
BRANCH  14  15
ATOM     15  C   UNL     1     -28.913  -1.753 -19.958  1.00  0.00     0.041 C 
ATOM     16  O   UNL     1     -27.744  -1.499 -20.352  1.00  0.00    -0.550 OA
ATOM     17  O   UNL     1     -29.110  -2.660 -18.922  1.00  0.00    -0.550 OA
ENDBRANCH  14  15
ENDBRANCH  13  14
ENDBRANCH  12  13
ENDBRANCH  11  12
ENDBRANCH  10  11
ENDBRANCH   9  10
ENDBRANCH   8   9
ENDBRANCH   7   8
ENDBRANCH   6   7
ENDBRANCH   5   6
ENDBRANCH   4   5
ENDBRANCH   3   4
ENDBRANCH   2   3
ENDBRANCH   1   2
BRANCH   1  18
ATOM     18  C   UNL     1     -31.171  -0.439 -26.476  1.00  0.00     0.000 C 
BRANCH  18  19
ATOM     19  C   UNL     1     -31.438  -1.952 -26.525  1.00  0.00     0.000 C 
BRANCH  19  20
ATOM     20  C   UNL     1     -31.109  -2.526 -27.914  1.00  0.00     0.000 C 
BRANCH  20  21
ATOM     21  C   UNL     1     -29.704  -3.147 -27.984  1.00  0.00     0.000 C 
BRANCH  21  22
ATOM     22  C   UNL     1     -28.631  -2.260 -27.331  1.00  0.00     0.000 C 
BRANCH  22  23
ATOM     23  C   UNL     1     -27.260  -2.397 -28.015  1.00  0.00     0.000 C 
BRANCH  23  24
ATOM     24  C   UNL     1     -26.210  -3.057 -27.108  1.00  0.00    -0.000 C 
BRANCH  24  25
ATOM     25  C   UNL     1     -24.791  -2.679 -27.550  1.00  0.00    -0.000 C 
BRANCH  25  26
ATOM     26  C   UNL     1     -24.464  -1.229 -27.167  1.00  0.00    -0.000 C 
BRANCH  26  27
ATOM     27  C   UNL     1     -23.532  -0.537 -28.180  1.00  0.00    -0.000 C 
BRANCH  27  28
ATOM     28  C   UNL     1     -22.957   0.819 -27.722  1.00  0.00    -0.000 C 
BRANCH  28  29
ATOM     29  C   UNL     1     -22.556   0.893 -26.237  1.00  0.00    -0.000 C 
BRANCH  29  30
ATOM     30  C   UNL     1     -22.220   2.319 -25.782  1.00  0.00    -0.000 C 
BRANCH  30  31
ATOM     31  C   UNL     1     -20.823   2.733 -26.262  1.00  0.00    -0.003 C 
ATOM     32  C   UNL     1     -20.909   3.634 -27.491  1.00  0.00     0.004 C 
ENDBRANCH  30  31
ENDBRANCH  29  30
ENDBRANCH  28  29
ENDBRANCH  27  28
ENDBRANCH  26  27
ENDBRANCH  25  26
ENDBRANCH  24  25
ENDBRANCH  23  24
ENDBRANCH  22  23
ENDBRANCH  21  22
ENDBRANCH  20  21
ENDBRANCH  19  20
ENDBRANCH  18  19
ENDBRANCH   1  18
TORSDOF 28
ENDMDL
MODEL 6
REMARK VINA RESULT:    10.323      2.726     10.686
REMARK INTER + INTRA:          26.426
REMARK INTER:                  25.872
REMARK INTRA:                   0.554
REMARK UNBOUND:                -0.795
REMARK SMILES CCCCCCCCCCCCCCCCCCCCCCCCCCCCCC(=O)[O-]
REMARK SMILES IDX 16 1 17 2 18 3 19 4 20 5 21 6 22 7 23 8 24 9 25 10 26 11
REMARK SMILES IDX 27 12 28 13 29 14 30 15 31 16 32 17 15 18 14 19 13 20 12 21
REMARK SMILES IDX 11 22 10 23 9 24 8 25 7 26 6 27 5 28 4 29 3 30 2 31 1 32
REMARK H PARENT
REMARK Flexibility Score: inf
ROOT
ATOM      1  C   UNL     1     -22.849  -1.099 -27.263  1.00  0.00     0.000 C 
ENDROOT
BRANCH   1   2
ATOM      2  C   UNL     1     -22.823   0.108 -28.217  1.00  0.00     0.000 C 
BRANCH   2   3
ATOM      3  C   UNL     1     -22.696   1.451 -27.481  1.00  0.00     0.000 C 
BRANCH   3   4
ATOM      4  C   UNL     1     -22.241   2.595 -28.406  1.00  0.00     0.000 C 
BRANCH   4   5
ATOM      5  C   UNL     1     -22.389   3.984 -27.748  1.00  0.00     0.000 C 
BRANCH   5   6
ATOM      6  C   UNL     1     -22.041   5.161 -28.681  1.00  0.00     0.000 C 
BRANCH   6   7
ATOM      7  C   UNL     1     -20.969   6.123 -28.145  1.00  0.00     0.000 C 
BRANCH   7   8
ATOM      8  C   UNL     1     -19.657   6.059 -28.944  1.00  0.00     0.000 C 
BRANCH   8   9
ATOM      9  C   UNL     1     -18.795   4.869 -28.497  1.00  0.00     0.000 C 
BRANCH   9  10
ATOM     10  C   UNL     1     -18.988   4.506 -27.013  1.00  0.00     0.000 C 
BRANCH  10  11
ATOM     11  C   UNL     1     -19.512   3.082 -26.748  1.00  0.00     0.000 C 
BRANCH  11  12
ATOM     12  C   UNL     1     -20.635   3.040 -25.698  1.00  0.00     0.000 C 
BRANCH  12  13
ATOM     13  C   UNL     1     -20.937   1.612 -25.208  1.00  0.00     0.006 C 
BRANCH  13  14
ATOM     14  C   UNL     1     -21.594   1.541 -23.819  1.00  0.00     0.053 C 
BRANCH  14  15
ATOM     15  C   UNL     1     -22.005   0.145 -23.460  1.00  0.00     0.041 C 
ATOM     16  O   UNL     1     -21.296  -0.542 -22.678  1.00  0.00    -0.550 OA
ATOM     17  O   UNL     1     -23.176  -0.393 -23.982  1.00  0.00    -0.550 OA
ENDBRANCH  14  15
ENDBRANCH  13  14
ENDBRANCH  12  13
ENDBRANCH  11  12
ENDBRANCH  10  11
ENDBRANCH   9  10
ENDBRANCH   8   9
ENDBRANCH   7   8
ENDBRANCH   6   7
ENDBRANCH   5   6
ENDBRANCH   4   5
ENDBRANCH   3   4
ENDBRANCH   2   3
ENDBRANCH   1   2
BRANCH   1  18
ATOM     18  C   UNL     1     -24.266  -1.432 -26.767  1.00  0.00     0.000 C 
BRANCH  18  19
ATOM     19  C   UNL     1     -24.724  -2.840 -27.177  1.00  0.00     0.000 C 
BRANCH  19  20
ATOM     20  C   UNL     1     -26.257  -2.958 -27.127  1.00  0.00     0.000 C 
BRANCH  20  21
ATOM     21  C   UNL     1     -26.945  -2.305 -28.337  1.00  0.00     0.000 C 
BRANCH  21  22
ATOM     22  C   UNL     1     -28.402  -2.767 -28.509  1.00  0.00     0.000 C 
BRANCH  22  23
ATOM     23  C   UNL     1     -29.374  -1.998 -27.598  1.00  0.00     0.000 C 
BRANCH  23  24
ATOM     24  C   UNL     1     -30.722  -2.717 -27.431  1.00  0.00    -0.000 C 
BRANCH  24  25
ATOM     25  C   UNL     1     -31.874  -1.707 -27.358  1.00  0.00    -0.000 C 
BRANCH  25  26
ATOM     26  C   UNL     1     -31.390  -0.361 -26.801  1.00  0.00    -0.000 C 
BRANCH  26  27
ATOM     27  C   UNL     1     -30.995  -0.434 -25.315  1.00  0.00    -0.000 C 
BRANCH  27  28
ATOM     28  C   UNL     1     -30.999   0.916 -24.568  1.00  0.00    -0.000 C 
BRANCH  28  29
ATOM     29  C   UNL     1     -31.571   2.103 -25.363  1.00  0.00    -0.000 C 
BRANCH  29  30
ATOM     30  C   UNL     1     -30.493   3.111 -25.785  1.00  0.00    -0.000 C 
BRANCH  30  31
ATOM     31  C   UNL     1     -31.126   4.360 -26.412  1.00  0.00    -0.003 C 
ATOM     32  C   UNL     1     -30.803   4.452 -27.901  1.00  0.00     0.004 C 
ENDBRANCH  30  31
ENDBRANCH  29  30
ENDBRANCH  28  29
ENDBRANCH  27  28
ENDBRANCH  26  27
ENDBRANCH  25  26
ENDBRANCH  24  25
ENDBRANCH  23  24
ENDBRANCH  22  23
ENDBRANCH  21  22
ENDBRANCH  20  21
ENDBRANCH  19  20
ENDBRANCH  18  19
ENDBRANCH   1  18
TORSDOF 28
ENDMDL
