MODEL 1
REMARK VINA RESULT:    -6.226      0.000      0.000
REMARK INTER + INTRA:          -7.598
REMARK INTER:                  -7.318
REMARK INTRA:                  -0.280
REMARK UNBOUND:                -0.280
REMARK SMILES O=c1c(O)c(-c2ccc(O)cc2)oc2cc(O)cc(O)c12
REMARK SMILES IDX 5 1 3 2 2 3 1 4 21 5 19 6 18 7 16 8 15 9 14 10 13 11 6 12
REMARK SMILES IDX 7 13 8 14 9 15 12 16 11 17 10 18 4 20 20 22 17 24
REMARK H PARENT 10 19 4 21 20 23 17 25
REMARK Flexibility Score: inf
ROOT
ATOM      1  C   UNL     1      -0.277  -3.781  -4.507  1.00  0.00     0.180 A 
ATOM      2  C   UNL     1      -1.672  -3.603  -4.587  1.00  0.00     0.208 A 
ATOM      3  C   UNL     1      -2.200  -2.309  -4.470  1.00  0.00     0.238 A 
ATOM      4  O   UNL     1      -3.448  -2.139  -4.530  1.00  0.00    -0.285 OA
ATOM      5  C   UNL     1      -1.328  -1.214  -4.296  1.00  0.00     0.111 A 
ATOM      6  C   UNL     1      -1.778   0.123  -4.174  1.00  0.00     0.134 A 
ATOM      7  C   UNL     1      -0.846   1.158  -4.012  1.00  0.00     0.093 A 
ATOM      8  C   UNL     1       0.523   0.886  -3.971  1.00  0.00     0.123 A 
ATOM      9  C   UNL     1       0.974  -0.433  -4.091  1.00  0.00     0.094 A 
ATOM     10  C   UNL     1       0.061  -1.480  -4.251  1.00  0.00     0.146 A 
ATOM     11  O   UNL     1       0.515  -2.723  -4.357  1.00  0.00    -0.452 OA
ENDROOT
BRANCH   1  12
ATOM     12  C   UNL     1       0.353  -5.117  -4.602  1.00  0.00     0.021 A 
ATOM     13  C   UNL     1       0.404  -5.984  -3.496  1.00  0.00     0.016 A 
ATOM     14  C   UNL     1       1.028  -7.232  -3.603  1.00  0.00     0.047 A 
ATOM     15  C   UNL     1       1.618  -7.621  -4.812  1.00  0.00     0.115 A 
ATOM     16  C   UNL     1       0.966  -5.508  -5.805  1.00  0.00     0.016 A 
ATOM     17  C   UNL     1       1.587  -6.756  -5.910  1.00  0.00     0.047 A 
BRANCH  15  18
ATOM     18  O   UNL     1       2.239  -8.863  -4.933  1.00  0.00    -0.508 OA
ATOM     19  H   UNL     1       2.620  -9.344  -4.126  1.00  0.00     0.293 HD
ENDBRANCH  15  18
ENDBRANCH   1  12
BRANCH   2  20
ATOM     20  O   UNL     1      -2.511  -4.699  -4.810  1.00  0.00    -0.502 OA
ATOM     21  H   UNL     1      -2.547  -5.492  -4.180  1.00  0.00     0.293 HD
ENDBRANCH   2  20
BRANCH   6  22
ATOM     22  O   UNL     1      -3.139   0.429  -4.211  1.00  0.00    -0.507 OA
ATOM     23  H   UNL     1      -3.774  -0.037  -4.848  1.00  0.00     0.293 HD
ENDBRANCH   6  22
BRANCH   8  24
ATOM     24  O   UNL     1       1.427   1.932  -3.811  1.00  0.00    -0.508 OA
ATOM     25  H   UNL     1       2.338   1.918  -4.256  1.00  0.00     0.293 HD
ENDBRANCH   8  24
TORSDOF 5
ENDMDL
MODEL 2
REMARK VINA RESULT:    -5.691      1.918      6.933
REMARK INTER + INTRA:          -6.969
REMARK INTER:                  -6.671
REMARK INTRA:                  -0.298
REMARK UNBOUND:                -0.280
REMARK SMILES O=c1c(O)c(-c2ccc(O)cc2)oc2cc(O)cc(O)c12
REMARK SMILES IDX 5 1 3 2 2 3 1 4 21 5 19 6 18 7 16 8 15 9 14 10 13 11 6 12
REMARK SMILES IDX 7 13 8 14 9 15 12 16 11 17 10 18 4 20 20 22 17 24
REMARK H PARENT 10 19 4 21 20 23 17 25
REMARK Flexibility Score: inf
ROOT
ATOM      1  C   UNL     1      -0.365   0.074  -4.318  1.00  0.00     0.180 A 
ATOM      2  C   UNL     1      -1.624  -0.413  -4.720  1.00  0.00     0.208 A 
ATOM      3  C   UNL     1      -1.808  -1.798  -4.848  1.00  0.00     0.238 A 
ATOM      4  O   UNL     1      -2.927  -2.245  -5.218  1.00  0.00    -0.285 OA
ATOM      5  C   UNL     1      -0.742  -2.672  -4.553  1.00  0.00     0.111 A 
ATOM      6  C   UNL     1      -0.845  -4.081  -4.652  1.00  0.00     0.134 A 
ATOM      7  C   UNL     1       0.260  -4.884  -4.332  1.00  0.00     0.093 A 
ATOM      8  C   UNL     1       1.462  -4.309  -3.915  1.00  0.00     0.123 A 
ATOM      9  C   UNL     1       1.571  -2.918  -3.815  1.00  0.00     0.094 A 
ATOM     10  C   UNL     1       0.482  -2.100  -4.132  1.00  0.00     0.146 A 
ATOM     11  O   UNL     1       0.614  -0.782  -4.034  1.00  0.00    -0.452 OA
ENDROOT
BRANCH   1  12
ATOM     12  C   UNL     1      -0.087   1.521  -4.179  1.00  0.00     0.021 A 
ATOM     13  C   UNL     1       0.393   2.282  -5.260  1.00  0.00     0.016 A 
ATOM     14  C   UNL     1       0.672   3.643  -5.098  1.00  0.00     0.047 A 
ATOM     15  C   UNL     1       0.486   4.256  -3.852  1.00  0.00     0.115 A 
ATOM     16  C   UNL     1      -0.251   2.139  -2.928  1.00  0.00     0.016 A 
ATOM     17  C   UNL     1       0.027   3.501  -2.769  1.00  0.00     0.047 A 
BRANCH  15  18
ATOM     18  O   UNL     1       0.757   5.612  -3.679  1.00  0.00    -0.508 OA
ATOM     19  H   UNL     1       0.458   6.109  -2.848  1.00  0.00     0.293 HD
ENDBRANCH  15  18
ENDBRANCH   1  12
BRANCH   2  20
ATOM     20  O   UNL     1      -2.679   0.473  -4.959  1.00  0.00    -0.502 OA
ATOM     21  H   UNL     1      -2.699   1.409  -4.572  1.00  0.00     0.293 HD
ENDBRANCH   2  20
BRANCH   6  22
ATOM     22  O   UNL     1      -2.032  -4.687  -5.065  1.00  0.00    -0.507 OA
ATOM     23  H   UNL     1      -2.745  -4.970  -4.404  1.00  0.00     0.293 HD
ENDBRANCH   6  22
BRANCH   8  24
ATOM     24  O   UNL     1       2.543  -5.129  -3.601  1.00  0.00    -0.508 OA
ATOM     25  H   UNL     1       2.459  -5.883  -2.928  1.00  0.00     0.293 HD
ENDBRANCH   8  24
TORSDOF 5
ENDMDL
MODEL 3
REMARK VINA RESULT:    -5.624      2.083      6.767
REMARK INTER + INTRA:          -6.890
REMARK INTER:                  -6.600
REMARK INTRA:                  -0.290
REMARK UNBOUND:                -0.280
REMARK SMILES O=c1c(O)c(-c2ccc(O)cc2)oc2cc(O)cc(O)c12
REMARK SMILES IDX 5 1 3 2 2 3 1 4 21 5 19 6 18 7 16 8 15 9 14 10 13 11 6 12
REMARK SMILES IDX 7 13 8 14 9 15 12 16 11 17 10 18 4 20 20 22 17 24
REMARK H PARENT 10 19 4 21 20 23 17 25
REMARK Flexibility Score: inf
ROOT
ATOM      1  C   UNL     1       0.217  -1.892  -3.468  1.00  0.00     0.180 A 
ATOM      2  C   UNL     1      -0.021  -2.218  -2.119  1.00  0.00     0.208 A 
ATOM      3  C   UNL     1      -0.019  -3.567  -1.735  1.00  0.00     0.238 A 
ATOM      4  O   UNL     1      -0.241  -3.871  -0.531  1.00  0.00    -0.285 OA
ATOM      5  C   UNL     1       0.239  -4.565  -2.697  1.00  0.00     0.111 A 
ATOM      6  C   UNL     1       0.263  -5.947  -2.393  1.00  0.00     0.134 A 
ATOM      7  C   UNL     1       0.537  -6.878  -3.406  1.00  0.00     0.093 A 
ATOM      8  C   UNL     1       0.787  -6.456  -4.713  1.00  0.00     0.123 A 
ATOM      9  C   UNL     1       0.765  -5.092  -5.021  1.00  0.00     0.094 A 
ATOM     10  C   UNL     1       0.492  -4.148  -4.026  1.00  0.00     0.146 A 
ATOM     11  O   UNL     1       0.471  -2.859  -4.346  1.00  0.00    -0.452 OA
ENDROOT
BRANCH   1  12
ATOM     12  C   UNL     1       0.212  -0.494  -3.953  1.00  0.00     0.021 A 
ATOM     13  C   UNL     1      -0.944   0.087  -4.505  1.00  0.00     0.016 A 
ATOM     14  C   UNL     1      -0.918   1.403  -4.980  1.00  0.00     0.047 A 
ATOM     15  C   UNL     1       0.267   2.148  -4.921  1.00  0.00     0.115 A 
ATOM     16  C   UNL     1       1.401   0.254  -3.918  1.00  0.00     0.016 A 
ATOM     17  C   UNL     1       1.425   1.570  -4.392  1.00  0.00     0.047 A 
BRANCH  15  18
ATOM     18  O   UNL     1       0.306   3.460  -5.389  1.00  0.00    -0.508 OA
ATOM     19  H   UNL     1       1.161   4.003  -5.371  1.00  0.00     0.293 HD
ENDBRANCH  15  18
ENDBRANCH   1  12
BRANCH   2  20
ATOM     20  O   UNL     1      -0.225  -1.207  -1.175  1.00  0.00    -0.502 OA
ATOM     21  H   UNL     1       0.073  -1.297  -0.210  1.00  0.00     0.293 HD
ENDBRANCH   2  20
BRANCH   6  22
ATOM     22  O   UNL     1       0.018  -6.402  -1.097  1.00  0.00    -0.507 OA
ATOM     23  H   UNL     1      -0.894  -6.317  -0.664  1.00  0.00     0.293 HD
ENDBRANCH   6  22
BRANCH   8  24
ATOM     24  O   UNL     1       1.058  -7.401  -5.700  1.00  0.00    -0.508 OA
ATOM     25  H   UNL     1       1.117  -7.143  -6.679  1.00  0.00     0.293 HD
ENDBRANCH   8  24
TORSDOF 5
ENDMDL
MODEL 4
REMARK VINA RESULT:    -5.361      3.500      4.575
REMARK INTER + INTRA:          -6.581
REMARK INTER:                  -6.302
REMARK INTRA:                  -0.279
REMARK UNBOUND:                -0.280
REMARK SMILES O=c1c(O)c(-c2ccc(O)cc2)oc2cc(O)cc(O)c12
REMARK SMILES IDX 5 1 3 2 2 3 1 4 21 5 19 6 18 7 16 8 15 9 14 10 13 11 6 12
REMARK SMILES IDX 7 13 8 14 9 15 12 16 11 17 10 18 4 20 20 22 17 24
REMARK H PARENT 10 19 4 21 20 23 17 25
REMARK Flexibility Score: inf
ROOT
ATOM      1  C   UNL     1       0.038  -4.902  -1.385  1.00  0.00     0.180 A 
ATOM      2  C   UNL     1      -0.071  -5.525  -2.643  1.00  0.00     0.208 A 
ATOM      3  C   UNL     1      -0.730  -4.849  -3.681  1.00  0.00     0.238 A 
ATOM      4  O   UNL     1      -0.843  -5.401  -4.809  1.00  0.00    -0.285 OA
ATOM      5  C   UNL     1      -1.249  -3.558  -3.453  1.00  0.00     0.111 A 
ATOM      6  C   UNL     1      -1.922  -2.807  -4.446  1.00  0.00     0.134 A 
ATOM      7  C   UNL     1      -2.402  -1.524  -4.143  1.00  0.00     0.093 A 
ATOM      8  C   UNL     1      -2.222  -0.978  -2.870  1.00  0.00     0.123 A 
ATOM      9  C   UNL     1      -1.557  -1.715  -1.885  1.00  0.00     0.094 A 
ATOM     10  C   UNL     1      -1.073  -2.996  -2.166  1.00  0.00     0.146 A 
ATOM     11  O   UNL     1      -0.451  -3.676  -1.211  1.00  0.00    -0.452 OA
ENDROOT
BRANCH   1  12
ATOM     12  C   UNL     1       0.701  -5.558  -0.236  1.00  0.00     0.021 A 
ATOM     13  C   UNL     1       0.033  -6.518   0.546  1.00  0.00     0.016 A 
ATOM     14  C   UNL     1       0.672  -7.107   1.642  1.00  0.00     0.047 A 
ATOM     15  C   UNL     1       1.980  -6.733   1.978  1.00  0.00     0.115 A 
ATOM     16  C   UNL     1       2.005  -5.175   0.121  1.00  0.00     0.016 A 
ATOM     17  C   UNL     1       2.642  -5.766   1.217  1.00  0.00     0.047 A 
BRANCH  15  18
ATOM     18  O   UNL     1       2.628  -7.315   3.066  1.00  0.00    -0.508 OA
ATOM     19  H   UNL     1       2.255  -7.239   4.005  1.00  0.00     0.293 HD
ENDBRANCH  15  18
ENDBRANCH   1  12
BRANCH   2  20
ATOM     20  O   UNL     1       0.495  -6.785  -2.858  1.00  0.00    -0.502 OA
ATOM     21  H   UNL     1       1.221  -7.162  -2.259  1.00  0.00     0.293 HD
ENDBRANCH   2  20
BRANCH   6  22
ATOM     22  O   UNL     1      -2.119  -3.323  -5.728  1.00  0.00    -0.507 OA
ATOM     23  H   UNL     1      -2.914  -3.909  -5.952  1.00  0.00     0.293 HD
ENDBRANCH   6  22
BRANCH   8  24
ATOM     24  O   UNL     1      -2.706   0.298  -2.595  1.00  0.00    -0.508 OA
ATOM     25  H   UNL     1      -3.230   0.827  -3.284  1.00  0.00     0.293 HD
ENDBRANCH   8  24
TORSDOF 5
ENDMDL
MODEL 5
REMARK VINA RESULT:    -5.309      2.694      5.050
REMARK INTER + INTRA:          -6.520
REMARK INTER:                  -6.295
REMARK INTRA:                  -0.225
REMARK UNBOUND:                -0.280
REMARK SMILES O=c1c(O)c(-c2ccc(O)cc2)oc2cc(O)cc(O)c12
REMARK SMILES IDX 5 1 3 2 2 3 1 4 21 5 19 6 18 7 16 8 15 9 14 10 13 11 6 12
REMARK SMILES IDX 7 13 8 14 9 15 12 16 11 17 10 18 4 20 20 22 17 24
REMARK H PARENT 10 19 4 21 20 23 17 25
REMARK Flexibility Score: inf
ROOT
ATOM      1  C   UNL     1      -0.393   0.496  -3.835  1.00  0.00     0.180 A 
ATOM      2  C   UNL     1      -0.328   0.916  -2.492  1.00  0.00     0.208 A 
ATOM      3  C   UNL     1      -0.007   2.253  -2.213  1.00  0.00     0.238 A 
ATOM      4  O   UNL     1       0.064   2.638  -1.015  1.00  0.00    -0.285 OA
ATOM      5  C   UNL     1       0.223   3.151  -3.276  1.00  0.00     0.111 A 
ATOM      6  C   UNL     1       0.547   4.515  -3.081  1.00  0.00     0.134 A 
ATOM      7  C   UNL     1       0.753   5.347  -4.192  1.00  0.00     0.093 A 
ATOM      8  C   UNL     1       0.640   4.844  -5.490  1.00  0.00     0.123 A 
ATOM      9  C   UNL     1       0.320   3.497  -5.689  1.00  0.00     0.094 A 
ATOM     10  C   UNL     1       0.113   2.651  -4.596  1.00  0.00     0.146 A 
ATOM     11  O   UNL     1      -0.184   1.375  -4.812  1.00  0.00    -0.452 OA
ENDROOT
BRANCH   1  12
ATOM     12  C   UNL     1      -0.706  -0.901  -4.209  1.00  0.00     0.021 A 
ATOM     13  C   UNL     1      -1.978  -1.264  -4.689  1.00  0.00     0.016 A 
ATOM     14  C   UNL     1      -2.259  -2.595  -5.012  1.00  0.00     0.047 A 
ATOM     15  C   UNL     1      -1.277  -3.581  -4.848  1.00  0.00     0.115 A 
ATOM     16  C   UNL     1       0.265  -1.900  -4.028  1.00  0.00     0.016 A 
ATOM     17  C   UNL     1      -0.017  -3.230  -4.354  1.00  0.00     0.047 A 
BRANCH  15  18
ATOM     18  O   UNL     1      -1.544  -4.911  -5.169  1.00  0.00    -0.508 OA
ATOM     19  H   UNL     1      -2.076  -5.508  -4.548  1.00  0.00     0.293 HD
ENDBRANCH  15  18
ENDBRANCH   1  12
BRANCH   2  20
ATOM     20  O   UNL     1      -0.609   0.018  -1.458  1.00  0.00    -0.502 OA
ATOM     21  H   UNL     1      -0.436   0.240  -0.485  1.00  0.00     0.293 HD
ENDBRANCH   2  20
BRANCH   6  22
ATOM     22  O   UNL     1       0.667   5.049  -1.798  1.00  0.00    -0.507 OA
ATOM     23  H   UNL     1       1.565   5.133  -1.336  1.00  0.00     0.293 HD
ENDBRANCH   6  22
BRANCH   8  24
ATOM     24  O   UNL     1       0.847   5.691  -6.576  1.00  0.00    -0.508 OA
ATOM     25  H   UNL     1       0.116   5.871  -7.255  1.00  0.00     0.293 HD
ENDBRANCH   8  24
TORSDOF 5
ENDMDL
MODEL 6
REMARK VINA RESULT:    -5.269      2.351      7.342
REMARK INTER + INTRA:          -6.473
REMARK INTER:                  -6.214
REMARK INTRA:                  -0.260
REMARK UNBOUND:                -0.280
REMARK SMILES O=c1c(O)c(-c2ccc(O)cc2)oc2cc(O)cc(O)c12
REMARK SMILES IDX 5 1 3 2 2 3 1 4 21 5 19 6 18 7 16 8 15 9 14 10 13 11 6 12
REMARK SMILES IDX 7 13 8 14 9 15 12 16 11 17 10 18 4 20 20 22 17 24
REMARK H PARENT 10 19 4 21 20 23 17 25
REMARK Flexibility Score: inf
ROOT
ATOM      1  C   UNL     1       0.186   0.270  -3.982  1.00  0.00     0.180 A 
ATOM      2  C   UNL     1       1.304  -0.587  -3.982  1.00  0.00     0.208 A 
ATOM      3  C   UNL     1       1.097  -1.974  -3.966  1.00  0.00     0.238 A 
ATOM      4  O   UNL     1       2.090  -2.751  -3.955  1.00  0.00    -0.285 OA
ATOM      5  C   UNL     1      -0.219  -2.482  -3.972  1.00  0.00     0.111 A 
ATOM      6  C   UNL     1      -0.514  -3.867  -3.961  1.00  0.00     0.134 A 
ATOM      7  C   UNL     1      -1.851  -4.293  -3.978  1.00  0.00     0.093 A 
ATOM      8  C   UNL     1      -2.894  -3.366  -4.005  1.00  0.00     0.123 A 
ATOM      9  C   UNL     1      -2.609  -1.997  -4.016  1.00  0.00     0.094 A 
ATOM     10  C   UNL     1      -1.284  -1.551  -3.998  1.00  0.00     0.146 A 
ATOM     11  O   UNL     1      -1.041  -0.246  -4.003  1.00  0.00    -0.452 OA
ENDROOT
BRANCH   1  12
ATOM     12  C   UNL     1       0.323   1.743  -3.979  1.00  0.00     0.021 A 
ATOM     13  C   UNL     1       0.139   2.494  -2.804  1.00  0.00     0.016 A 
ATOM     14  C   UNL     1       0.249   3.888  -2.831  1.00  0.00     0.047 A 
ATOM     15  C   UNL     1       0.531   4.549  -4.034  1.00  0.00     0.115 A 
ATOM     16  C   UNL     1       0.584   2.416  -5.185  1.00  0.00     0.016 A 
ATOM     17  C   UNL     1       0.695   3.810  -5.209  1.00  0.00     0.047 A 
BRANCH  15  18
ATOM     18  O   UNL     1       0.645   5.937  -4.073  1.00  0.00    -0.508 OA
ATOM     19  H   UNL     1       1.290   6.432  -3.468  1.00  0.00     0.293 HD
ENDBRANCH  15  18
ENDBRANCH   1  12
BRANCH   2  20
ATOM     20  O   UNL     1       2.597  -0.058  -4.026  1.00  0.00    -0.502 OA
ATOM     21  H   UNL     1       3.117   0.173  -3.188  1.00  0.00     0.293 HD
ENDBRANCH   2  20
BRANCH   6  22
ATOM     22  O   UNL     1       0.505  -4.819  -3.935  1.00  0.00    -0.507 OA
ATOM     23  H   UNL     1       0.742  -5.325  -3.089  1.00  0.00     0.293 HD
ENDBRANCH   6  22
BRANCH   8  24
ATOM     24  O   UNL     1      -4.212  -3.816  -4.023  1.00  0.00    -0.508 OA
ATOM     25  H   UNL     1      -4.894  -3.486  -3.349  1.00  0.00     0.293 HD
ENDBRANCH   8  24
TORSDOF 5
ENDMDL
MODEL 7
REMARK VINA RESULT:    -5.196      3.661      6.743
REMARK INTER + INTRA:          -6.387
REMARK INTER:                  -6.097
REMARK INTRA:                  -0.290
REMARK UNBOUND:                -0.280
REMARK SMILES O=c1c(O)c(-c2ccc(O)cc2)oc2cc(O)cc(O)c12
REMARK SMILES IDX 5 1 3 2 2 3 1 4 21 5 19 6 18 7 16 8 15 9 14 10 13 11 6 12
REMARK SMILES IDX 7 13 8 14 9 15 12 16 11 17 10 18 4 20 20 22 17 24
REMARK H PARENT 10 19 4 21 20 23 17 25
REMARK Flexibility Score: inf
ROOT
ATOM      1  C   UNL     1      -0.390   2.361  -3.817  1.00  0.00     0.180 A 
ATOM      2  C   UNL     1      -0.555   2.860  -2.511  1.00  0.00     0.208 A 
ATOM      3  C   UNL     1      -0.026   4.120  -2.193  1.00  0.00     0.238 A 
ATOM      4  O   UNL     1      -0.158   4.573  -1.024  1.00  0.00    -0.285 OA
ATOM      5  C   UNL     1       0.638   4.867  -3.188  1.00  0.00     0.111 A 
ATOM      6  C   UNL     1       1.197   6.147  -2.951  1.00  0.00     0.134 A 
ATOM      7  C   UNL     1       1.835   6.831  -3.997  1.00  0.00     0.093 A 
ATOM      8  C   UNL     1       1.926   6.264  -5.269  1.00  0.00     0.123 A 
ATOM      9  C   UNL     1       1.376   5.000  -5.509  1.00  0.00     0.094 A 
ATOM     10  C   UNL     1       0.738   4.301  -4.481  1.00  0.00     0.146 A 
ATOM     11  O   UNL     1       0.230   3.100  -4.733  1.00  0.00    -0.452 OA
ENDROOT
BRANCH   1  12
ATOM     12  C   UNL     1      -0.903   1.033  -4.223  1.00  0.00     0.021 A 
ATOM     13  C   UNL     1      -2.214   0.871  -4.707  1.00  0.00     0.016 A 
ATOM     14  C   UNL     1      -2.685  -0.398  -5.062  1.00  0.00     0.047 A 
ATOM     15  C   UNL     1      -1.857  -1.519  -4.925  1.00  0.00     0.115 A 
ATOM     16  C   UNL     1      -0.087  -0.100  -4.070  1.00  0.00     0.016 A 
ATOM     17  C   UNL     1      -0.559  -1.367  -4.426  1.00  0.00     0.047 A 
BRANCH  15  18
ATOM     18  O   UNL     1      -2.313  -2.788  -5.277  1.00  0.00    -0.508 OA
ATOM     19  H   UNL     1      -2.967  -2.922  -6.039  1.00  0.00     0.293 HD
ENDBRANCH  15  18
ENDBRANCH   1  12
BRANCH   2  20
ATOM     20  O   UNL     1      -1.262   2.121  -1.557  1.00  0.00    -0.502 OA
ATOM     21  H   UNL     1      -1.666   1.216  -1.764  1.00  0.00     0.293 HD
ENDBRANCH   2  20
BRANCH   6  22
ATOM     22  O   UNL     1       1.123   6.742  -1.691  1.00  0.00    -0.507 OA
ATOM     23  H   UNL     1       1.257   7.738  -1.562  1.00  0.00     0.293 HD
ENDBRANCH   6  22
BRANCH   8  24
ATOM     24  O   UNL     1       2.563   6.964  -6.290  1.00  0.00    -0.508 OA
ATOM     25  H   UNL     1       2.085   7.688  -6.816  1.00  0.00     0.293 HD
ENDBRANCH   8  24
TORSDOF 5
ENDMDL
MODEL 8
REMARK VINA RESULT:    -5.148      2.002      6.712
REMARK INTER + INTRA:          -6.331
REMARK INTER:                  -6.461
REMARK INTRA:                   0.129
REMARK UNBOUND:                -0.280
REMARK SMILES O=c1c(O)c(-c2ccc(O)cc2)oc2cc(O)cc(O)c12
REMARK SMILES IDX 5 1 3 2 2 3 1 4 21 5 19 6 18 7 16 8 15 9 14 10 13 11 6 12
REMARK SMILES IDX 7 13 8 14 9 15 12 16 11 17 10 18 4 20 20 22 17 24
REMARK H PARENT 10 19 4 21 20 23 17 25
REMARK Flexibility Score: inf
ROOT
ATOM      1  C   UNL     1       0.667  -4.111  -4.445  1.00  0.00     0.180 A 
ATOM      2  C   UNL     1       0.098  -5.339  -4.054  1.00  0.00     0.208 A 
ATOM      3  C   UNL     1       0.881  -6.501  -4.119  1.00  0.00     0.238 A 
ATOM      4  O   UNL     1       0.379  -7.608  -3.783  1.00  0.00    -0.285 OA
ATOM      5  C   UNL     1       2.221  -6.416  -4.551  1.00  0.00     0.111 A 
ATOM      6  C   UNL     1       3.079  -7.538  -4.642  1.00  0.00     0.134 A 
ATOM      7  C   UNL     1       4.403  -7.369  -5.072  1.00  0.00     0.093 A 
ATOM      8  C   UNL     1       4.886  -6.104  -5.413  1.00  0.00     0.123 A 
ATOM      9  C   UNL     1       4.043  -4.990  -5.326  1.00  0.00     0.094 A 
ATOM     10  C   UNL     1       2.719  -5.138  -4.901  1.00  0.00     0.146 A 
ATOM     11  O   UNL     1       1.939  -4.066  -4.833  1.00  0.00    -0.452 OA
ENDROOT
BRANCH   1  12
ATOM     12  C   UNL     1      -0.100  -2.845  -4.422  1.00  0.00     0.021 A 
ATOM     13  C   UNL     1      -1.439  -2.792  -4.850  1.00  0.00     0.016 A 
ATOM     14  C   UNL     1      -2.137  -1.580  -4.844  1.00  0.00     0.047 A 
ATOM     15  C   UNL     1      -1.501  -0.405  -4.422  1.00  0.00     0.115 A 
ATOM     16  C   UNL     1       0.535  -1.658  -4.021  1.00  0.00     0.016 A 
ATOM     17  C   UNL     1      -0.164  -0.447  -4.014  1.00  0.00     0.047 A 
BRANCH  15  18
ATOM     18  O   UNL     1      -2.185   0.809  -4.408  1.00  0.00    -0.508 OA
ATOM     19  H   UNL     1      -1.873   1.599  -4.960  1.00  0.00     0.293 HD
ENDBRANCH  15  18
ENDBRANCH   1  12
BRANCH   2  20
ATOM     20  O   UNL     1      -1.217  -5.389  -3.583  1.00  0.00    -0.502 OA
ATOM     21  H   UNL     1      -1.953  -4.809  -3.968  1.00  0.00     0.293 HD
ENDBRANCH   2  20
BRANCH   6  22
ATOM     22  O   UNL     1       2.628  -8.816  -4.308  1.00  0.00    -0.507 OA
ATOM     23  H   UNL     1       2.627  -9.574  -4.980  1.00  0.00     0.293 HD
ENDBRANCH   6  22
BRANCH   8  24
ATOM     24  O   UNL     1       6.205  -5.962  -5.836  1.00  0.00    -0.508 OA
ATOM     25  H   UNL     1       6.582  -6.522  -6.592  1.00  0.00     0.293 HD
ENDBRANCH   8  24
TORSDOF 5
ENDMDL
MODEL 9
REMARK VINA RESULT:    -5.084      2.031      3.938
REMARK INTER + INTRA:          -6.256
REMARK INTER:                  -5.978
REMARK INTRA:                  -0.278
REMARK UNBOUND:                -0.280
REMARK SMILES O=c1c(O)c(-c2ccc(O)cc2)oc2cc(O)cc(O)c12
REMARK SMILES IDX 5 1 3 2 2 3 1 4 21 5 19 6 18 7 16 8 15 9 14 10 13 11 6 12
REMARK SMILES IDX 7 13 8 14 9 15 12 16 11 17 10 18 4 20 20 22 17 24
REMARK H PARENT 10 19 4 21 20 23 17 25
REMARK Flexibility Score: inf
ROOT
ATOM      1  C   UNL     1       1.319  -5.362  -4.859  1.00  0.00     0.180 A 
ATOM      2  C   UNL     1       2.098  -4.241  -4.512  1.00  0.00     0.208 A 
ATOM      3  C   UNL     1       1.455  -3.083  -4.050  1.00  0.00     0.238 A 
ATOM      4  O   UNL     1       2.141  -2.069  -3.747  1.00  0.00    -0.285 OA
ATOM      5  C   UNL     1       0.050  -3.070  -3.922  1.00  0.00     0.111 A 
ATOM      6  C   UNL     1      -0.675  -1.945  -3.461  1.00  0.00     0.134 A 
ATOM      7  C   UNL     1      -2.072  -2.015  -3.354  1.00  0.00     0.093 A 
ATOM      8  C   UNL     1      -2.756  -3.183  -3.697  1.00  0.00     0.123 A 
ATOM      9  C   UNL     1      -2.045  -4.297  -4.153  1.00  0.00     0.094 A 
ATOM     10  C   UNL     1      -0.653  -4.248  -4.270  1.00  0.00     0.146 A 
ATOM     11  O   UNL     1      -0.003  -5.318  -4.711  1.00  0.00    -0.452 OA
ENDROOT
BRANCH   1  12
ATOM     12  C   UNL     1       1.923  -6.612  -5.371  1.00  0.00     0.021 A 
ATOM     13  C   UNL     1       1.977  -6.889  -6.749  1.00  0.00     0.016 A 
ATOM     14  C   UNL     1       2.530  -8.089  -7.209  1.00  0.00     0.047 A 
ATOM     15  C   UNL     1       3.023  -9.031  -6.296  1.00  0.00     0.115 A 
ATOM     16  C   UNL     1       2.400  -7.573  -4.463  1.00  0.00     0.016 A 
ATOM     17  C   UNL     1       2.954  -8.771  -4.925  1.00  0.00     0.047 A 
BRANCH  15  18
ATOM     18  O   UNL     1       3.578 -10.229  -6.742  1.00  0.00    -0.508 OA
ATOM     19  H   UNL     1       3.954 -10.911  -6.094  1.00  0.00     0.293 HD
ENDBRANCH  15  18
ENDBRANCH   1  12
BRANCH   2  20
ATOM     20  O   UNL     1       3.492  -4.296  -4.600  1.00  0.00    -0.502 OA
ATOM     21  H   UNL     1       4.012  -5.153  -4.450  1.00  0.00     0.293 HD
ENDBRANCH   2  20
BRANCH   6  22
ATOM     22  O   UNL     1      -0.022  -0.763  -3.110  1.00  0.00    -0.507 OA
ATOM     23  H   UNL     1       0.722  -0.375  -3.677  1.00  0.00     0.293 HD
ENDBRANCH   6  22
BRANCH   8  24
ATOM     24  O   UNL     1      -4.143  -3.226  -3.579  1.00  0.00    -0.508 OA
ATOM     25  H   UNL     1      -4.738  -3.410  -4.380  1.00  0.00     0.293 HD
ENDBRANCH   8  24
TORSDOF 5
ENDMDL
