MODEL 1
REMARK VINA RESULT:    -6.282      0.000      0.000
REMARK INTER + INTRA:         -18.953
REMARK INTER:                 -16.566
REMARK INTRA:                  -2.387
REMARK UNBOUND:                -2.387
REMARK SMILES CCCCCCCCCCCCCCCCCCCCCCCCCCCCCC(=O)[O-]
REMARK SMILES IDX 16 1 17 2 18 3 19 4 20 5 21 6 22 7 23 8 24 9 25 10 26 11
REMARK SMILES IDX 27 12 28 13 29 14 30 15 31 16 32 17 15 18 14 19 13 20 12 21
REMARK SMILES IDX 11 22 10 23 9 24 8 25 7 26 6 27 5 28 4 29 3 30 2 31 1 32
REMARK H PARENT
REMARK Flexibility Score: inf
ROOT
ATOM      1  C   UNL     1      89.104 325.981 198.665  1.00  0.00     0.000 C 
ENDROOT
BRANCH   1   2
ATOM      2  C   UNL     1      88.590 326.798 197.467  1.00  0.00     0.000 C 
BRANCH   2   3
ATOM      3  C   UNL     1      87.968 325.910 196.379  1.00  0.00     0.000 C 
BRANCH   3   4
ATOM      4  C   UNL     1      86.659 326.520 195.856  1.00  0.00     0.000 C 
BRANCH   4   5
ATOM      5  C   UNL     1      86.712 326.833 194.352  1.00  0.00     0.000 C 
BRANCH   5   6
ATOM      6  C   UNL     1      88.112 326.617 193.750  1.00  0.00     0.000 C 
BRANCH   6   7
ATOM      7  C   UNL     1      88.283 325.217 193.139  1.00  0.00     0.000 C 
BRANCH   7   8
ATOM      8  C   UNL     1      86.956 324.622 192.647  1.00  0.00     0.000 C 
BRANCH   8   9
ATOM      9  C   UNL     1      87.156 323.826 191.349  1.00  0.00     0.000 C 
BRANCH   9  10
ATOM     10  C   UNL     1      88.573 323.977 190.765  1.00  0.00     0.000 C 
BRANCH  10  11
ATOM     11  C   UNL     1      88.737 323.485 189.316  1.00  0.00     0.000 C 
BRANCH  11  12
ATOM     12  C   UNL     1      90.041 323.969 188.661  1.00  0.00     0.000 C 
BRANCH  12  13
ATOM     13  C   UNL     1      90.800 322.797 188.020  1.00  0.00     0.006 C 
BRANCH  13  14
ATOM     14  C   UNL     1      92.113 322.488 188.748  1.00  0.00     0.053 C 
BRANCH  14  15
ATOM     15  C   UNL     1      93.259 323.267 188.180  1.00  0.00     0.041 C 
ATOM     16  O   UNL     1      93.405 324.484 188.473  1.00  0.00    -0.550 OA
ATOM     17  O   UNL     1      94.151 322.657 187.306  1.00  0.00    -0.550 OA
ENDBRANCH  14  15
ENDBRANCH  13  14
ENDBRANCH  12  13
ENDBRANCH  11  12
ENDBRANCH  10  11
ENDBRANCH   9  10
ENDBRANCH   8   9
ENDBRANCH   7   8
ENDBRANCH   6   7
ENDBRANCH   5   6
ENDBRANCH   4   5
ENDBRANCH   3   4
ENDBRANCH   2   3
ENDBRANCH   1   2
BRANCH   1  18
ATOM     18  C   UNL     1      89.626 326.877 199.804  1.00  0.00     0.000 C 
BRANCH  18  19
ATOM     19  C   UNL     1      89.818 326.106 201.120  1.00  0.00     0.000 C 
BRANCH  19  20
ATOM     20  C   UNL     1      88.970 326.673 202.272  1.00  0.00     0.000 C 
BRANCH  20  21
ATOM     21  C   UNL     1      89.826 327.269 203.401  1.00  0.00     0.000 C 
BRANCH  21  22
ATOM     22  C   UNL     1      89.051 327.622 204.686  1.00  0.00     0.000 C 
BRANCH  22  23
ATOM     23  C   UNL     1      89.454 326.778 205.915  1.00  0.00     0.000 C 
BRANCH  23  24
ATOM     24  C   UNL     1      88.819 325.375 205.894  1.00  0.00    -0.000 C 
BRANCH  24  25
ATOM     25  C   UNL     1      87.280 325.423 205.841  1.00  0.00    -0.000 C 
BRANCH  25  26
ATOM     26  C   UNL     1      86.640 324.171 205.215  1.00  0.00    -0.000 C 
BRANCH  26  27
ATOM     27  C   UNL     1      87.239 323.834 203.838  1.00  0.00    -0.000 C 
BRANCH  27  28
ATOM     28  C   UNL     1      86.202 323.888 202.701  1.00  0.00    -0.000 C 
BRANCH  28  29
ATOM     29  C   UNL     1      86.582 323.111 201.428  1.00  0.00    -0.000 C 
BRANCH  29  30
ATOM     30  C   UNL     1      88.102 322.993 201.229  1.00  0.00    -0.000 C 
BRANCH  30  31
ATOM     31  C   UNL     1      88.478 321.913 200.202  1.00  0.00    -0.003 C 
ATOM     32  C   UNL     1      88.354 322.398 198.758  1.00  0.00     0.004 C 
ENDBRANCH  30  31
ENDBRANCH  29  30
ENDBRANCH  28  29
ENDBRANCH  27  28
ENDBRANCH  26  27
ENDBRANCH  25  26
ENDBRANCH  24  25
ENDBRANCH  23  24
ENDBRANCH  22  23
ENDBRANCH  21  22
ENDBRANCH  20  21
ENDBRANCH  19  20
ENDBRANCH  18  19
ENDBRANCH   1  18
TORSDOF 28
ENDMDL
MODEL 2
REMARK VINA RESULT:    -6.249      3.635     11.353
REMARK INTER + INTRA:         -18.866
REMARK INTER:                 -15.806
REMARK INTRA:                  -3.059
REMARK UNBOUND:                -2.387
REMARK SMILES CCCCCCCCCCCCCCCCCCCCCCCCCCCCCC(=O)[O-]
REMARK SMILES IDX 16 1 17 2 18 3 19 4 20 5 21 6 22 7 23 8 24 9 25 10 26 11
REMARK SMILES IDX 27 12 28 13 29 14 30 15 31 16 32 17 15 18 14 19 13 20 12 21
REMARK SMILES IDX 11 22 10 23 9 24 8 25 7 26 6 27 5 28 4 29 3 30 2 31 1 32
REMARK H PARENT
REMARK Flexibility Score: inf
ROOT
ATOM      1  C   UNL     1      88.750 326.185 201.127  1.00  0.00     0.000 C 
ENDROOT
BRANCH   1   2
ATOM      2  C   UNL     1      89.237 326.842 202.429  1.00  0.00     0.000 C 
BRANCH   2   3
ATOM      3  C   UNL     1      90.764 327.003 202.466  1.00  0.00     0.000 C 
BRANCH   3   4
ATOM      4  C   UNL     1      91.213 327.678 203.771  1.00  0.00     0.000 C 
BRANCH   4   5
ATOM      5  C   UNL     1      90.074 327.800 204.796  1.00  0.00     0.000 C 
BRANCH   5   6
ATOM      6  C   UNL     1      90.461 327.249 206.180  1.00  0.00     0.000 C 
BRANCH   6   7
ATOM      7  C   UNL     1      89.282 326.572 206.897  1.00  0.00     0.000 C 
BRANCH   7   8
ATOM      8  C   UNL     1      88.860 325.256 206.226  1.00  0.00     0.000 C 
BRANCH   8   9
ATOM      9  C   UNL     1      87.561 325.436 205.426  1.00  0.00     0.000 C 
BRANCH   9  10
ATOM     10  C   UNL     1      86.605 324.236 205.557  1.00  0.00     0.000 C 
BRANCH  10  11
ATOM     11  C   UNL     1      86.834 323.106 204.536  1.00  0.00     0.000 C 
BRANCH  11  12
ATOM     12  C   UNL     1      87.267 323.622 203.156  1.00  0.00     0.000 C 
BRANCH  12  13
ATOM     13  C   UNL     1      86.559 322.848 202.034  1.00  0.00     0.006 C 
BRANCH  13  14
ATOM     14  C   UNL     1      87.349 322.877 200.720  1.00  0.00     0.053 C 
BRANCH  14  15
ATOM     15  C   UNL     1      88.664 322.171 200.848  1.00  0.00     0.041 C 
ATOM     16  O   UNL     1      88.701 320.962 201.203  1.00  0.00    -0.550 OA
ATOM     17  O   UNL     1      89.849 322.854 200.602  1.00  0.00    -0.550 OA
ENDBRANCH  14  15
ENDBRANCH  13  14
ENDBRANCH  12  13
ENDBRANCH  11  12
ENDBRANCH  10  11
ENDBRANCH   9  10
ENDBRANCH   8   9
ENDBRANCH   7   8
ENDBRANCH   6   7
ENDBRANCH   5   6
ENDBRANCH   4   5
ENDBRANCH   3   4
ENDBRANCH   2   3
ENDBRANCH   1   2
BRANCH   1  18
ATOM     18  C   UNL     1      89.677 326.487 199.935  1.00  0.00     0.000 C 
BRANCH  18  19
ATOM     19  C   UNL     1      88.937 326.454 198.588  1.00  0.00     0.000 C 
BRANCH  19  20
ATOM     20  C   UNL     1      88.988 325.072 197.914  1.00  0.00     0.000 C 
BRANCH  20  21
ATOM     21  C   UNL     1      88.804 325.148 196.389  1.00  0.00     0.000 C 
BRANCH  21  22
ATOM     22  C   UNL     1      88.739 326.576 195.814  1.00  0.00     0.000 C 
BRANCH  22  23
ATOM     23  C   UNL     1      88.296 326.638 194.335  1.00  0.00     0.000 C 
BRANCH  23  24
ATOM     24  C   UNL     1      86.773 326.813 194.189  1.00  0.00    -0.000 C 
BRANCH  24  25
ATOM     25  C   UNL     1      86.040 325.473 193.996  1.00  0.00    -0.000 C 
BRANCH  25  26
ATOM     26  C   UNL     1      86.445 324.720 192.716  1.00  0.00    -0.000 C 
BRANCH  26  27
ATOM     27  C   UNL     1      87.332 323.498 193.012  1.00  0.00    -0.000 C 
BRANCH  27  28
ATOM     28  C   UNL     1      88.588 323.436 192.123  1.00  0.00    -0.000 C 
BRANCH  28  29
ATOM     29  C   UNL     1      88.624 324.450 190.965  1.00  0.00    -0.000 C 
BRANCH  29  30
ATOM     30  C   UNL     1      89.181 323.853 189.662  1.00  0.00    -0.000 C 
BRANCH  30  31
ATOM     31  C   UNL     1      88.115 323.083 188.866  1.00  0.00    -0.003 C 
ATOM     32  C   UNL     1      88.646 321.781 188.266  1.00  0.00     0.004 C 
ENDBRANCH  30  31
ENDBRANCH  29  30
ENDBRANCH  28  29
ENDBRANCH  27  28
ENDBRANCH  26  27
ENDBRANCH  25  26
ENDBRANCH  24  25
ENDBRANCH  23  24
ENDBRANCH  22  23
ENDBRANCH  21  22
ENDBRANCH  20  21
ENDBRANCH  19  20
ENDBRANCH  18  19
ENDBRANCH   1  18
TORSDOF 28
ENDMDL
MODEL 3
REMARK VINA RESULT:    -6.242      3.656     11.080
REMARK INTER + INTRA:         -18.847
REMARK INTER:                 -15.303
REMARK INTRA:                  -3.544
REMARK UNBOUND:                -2.387
REMARK SMILES CCCCCCCCCCCCCCCCCCCCCCCCCCCCCC(=O)[O-]
REMARK SMILES IDX 16 1 17 2 18 3 19 4 20 5 21 6 22 7 23 8 24 9 25 10 26 11
REMARK SMILES IDX 27 12 28 13 29 14 30 15 31 16 32 17 15 18 14 19 13 20 12 21
REMARK SMILES IDX 11 22 10 23 9 24 8 25 7 26 6 27 5 28 4 29 3 30 2 31 1 32
REMARK H PARENT
REMARK Flexibility Score: inf
ROOT
ATOM      1  C   UNL     1      90.346 325.204 199.936  1.00  0.00     0.000 C 
ENDROOT
BRANCH   1   2
ATOM      2  C   UNL     1      89.166 326.122 200.293  1.00  0.00     0.000 C 
BRANCH   2   3
ATOM      3  C   UNL     1      89.129 326.472 201.789  1.00  0.00     0.000 C 
BRANCH   3   4
ATOM      4  C   UNL     1      90.479 326.166 202.456  1.00  0.00     0.000 C 
BRANCH   4   5
ATOM      5  C   UNL     1      90.576 326.734 203.880  1.00  0.00     0.000 C 
BRANCH   5   6
ATOM      6  C   UNL     1      89.255 327.361 204.361  1.00  0.00     0.000 C 
BRANCH   6   7
ATOM      7  C   UNL     1      89.058 327.234 205.880  1.00  0.00     0.000 C 
BRANCH   7   8
ATOM      8  C   UNL     1      88.734 325.797 206.315  1.00  0.00     0.000 C 
BRANCH   8   9
ATOM      9  C   UNL     1      87.430 325.306 205.668  1.00  0.00     0.000 C 
BRANCH   9  10
ATOM     10  C   UNL     1      87.315 323.771 205.644  1.00  0.00     0.000 C 
BRANCH  10  11
ATOM     11  C   UNL     1      87.236 323.145 204.239  1.00  0.00     0.000 C 
BRANCH  11  12
ATOM     12  C   UNL     1      86.652 324.102 203.188  1.00  0.00     0.000 C 
BRANCH  12  13
ATOM     13  C   UNL     1      86.299 323.347 201.897  1.00  0.00     0.006 C 
BRANCH  13  14
ATOM     14  C   UNL     1      87.522 322.667 201.268  1.00  0.00     0.053 C 
BRANCH  14  15
ATOM     15  C   UNL     1      87.134 321.472 200.454  1.00  0.00     0.041 C 
ATOM     16  O   UNL     1      87.255 321.494 199.200  1.00  0.00    -0.550 OA
ATOM     17  O   UNL     1      86.616 320.343 201.077  1.00  0.00    -0.550 OA
ENDBRANCH  14  15
ENDBRANCH  13  14
ENDBRANCH  12  13
ENDBRANCH  11  12
ENDBRANCH  10  11
ENDBRANCH   9  10
ENDBRANCH   8   9
ENDBRANCH   7   8
ENDBRANCH   6   7
ENDBRANCH   5   6
ENDBRANCH   4   5
ENDBRANCH   3   4
ENDBRANCH   2   3
ENDBRANCH   1   2
BRANCH   1  18
ATOM     18  C   UNL     1      89.891 323.911 199.234  1.00  0.00     0.000 C 
BRANCH  18  19
ATOM     19  C   UNL     1      90.721 323.597 197.980  1.00  0.00     0.000 C 
BRANCH  19  20
ATOM     20  C   UNL     1      89.854 323.172 196.782  1.00  0.00     0.000 C 
BRANCH  20  21
ATOM     21  C   UNL     1      88.605 324.052 196.612  1.00  0.00     0.000 C 
BRANCH  21  22
ATOM     22  C   UNL     1      88.885 325.494 196.145  1.00  0.00     0.000 C 
BRANCH  22  23
ATOM     23  C   UNL     1      87.836 326.523 196.620  1.00  0.00     0.000 C 
BRANCH  23  24
ATOM     24  C   UNL     1      86.644 326.632 195.651  1.00  0.00    -0.000 C 
BRANCH  24  25
ATOM     25  C   UNL     1      87.065 326.492 194.177  1.00  0.00    -0.000 C 
BRANCH  25  26
ATOM     26  C   UNL     1      86.259 325.437 193.397  1.00  0.00    -0.000 C 
BRANCH  26  27
ATOM     27  C   UNL     1      86.983 324.081 193.328  1.00  0.00    -0.000 C 
BRANCH  27  28
ATOM     28  C   UNL     1      88.363 324.169 192.650  1.00  0.00    -0.000 C 
BRANCH  28  29
ATOM     29  C   UNL     1      88.346 324.654 191.188  1.00  0.00    -0.000 C 
BRANCH  29  30
ATOM     30  C   UNL     1      88.818 323.579 190.195  1.00  0.00    -0.000 C 
BRANCH  30  31
ATOM     31  C   UNL     1      89.712 324.157 189.086  1.00  0.00    -0.003 C 
ATOM     32  C   UNL     1      90.686 323.128 188.512  1.00  0.00     0.004 C 
ENDBRANCH  30  31
ENDBRANCH  29  30
ENDBRANCH  28  29
ENDBRANCH  27  28
ENDBRANCH  26  27
ENDBRANCH  25  26
ENDBRANCH  24  25
ENDBRANCH  23  24
ENDBRANCH  22  23
ENDBRANCH  21  22
ENDBRANCH  20  21
ENDBRANCH  19  20
ENDBRANCH  18  19
ENDBRANCH   1  18
TORSDOF 28
ENDMDL
MODEL 4
REMARK VINA RESULT:    -6.224      4.325     11.516
REMARK INTER + INTRA:         -18.799
REMARK INTER:                 -15.279
REMARK INTRA:                  -3.520
REMARK UNBOUND:                -2.387
REMARK SMILES CCCCCCCCCCCCCCCCCCCCCCCCCCCCCC(=O)[O-]
REMARK SMILES IDX 16 1 17 2 18 3 19 4 20 5 21 6 22 7 23 8 24 9 25 10 26 11
REMARK SMILES IDX 27 12 28 13 29 14 30 15 31 16 32 17 15 18 14 19 13 20 12 21
REMARK SMILES IDX 11 22 10 23 9 24 8 25 7 26 6 27 5 28 4 29 3 30 2 31 1 32
REMARK H PARENT
REMARK Flexibility Score: inf
ROOT
ATOM      1  C   UNL     1      88.671 324.978 202.078  1.00  0.00     0.000 C 
ENDROOT
BRANCH   1   2
ATOM      2  C   UNL     1      87.328 324.263 201.857  1.00  0.00     0.000 C 
BRANCH   2   3
ATOM      3  C   UNL     1      87.500 322.885 201.200  1.00  0.00     0.000 C 
BRANCH   3   4
ATOM      4  C   UNL     1      86.177 322.105 201.207  1.00  0.00     0.000 C 
BRANCH   4   5
ATOM      5  C   UNL     1      86.219 320.878 202.131  1.00  0.00     0.000 C 
BRANCH   5   6
ATOM      6  C   UNL     1      87.592 320.687 202.802  1.00  0.00     0.000 C 
BRANCH   6   7
ATOM      7  C   UNL     1      87.502 320.668 204.336  1.00  0.00     0.000 C 
BRANCH   7   8
ATOM      8  C   UNL     1      86.615 321.792 204.889  1.00  0.00     0.000 C 
BRANCH   8   9
ATOM      9  C   UNL     1      87.461 322.996 205.329  1.00  0.00     0.000 C 
BRANCH   9  10
ATOM     10  C   UNL     1      86.674 324.320 205.313  1.00  0.00     0.000 C 
BRANCH  10  11
ATOM     11  C   UNL     1      87.306 325.464 206.127  1.00  0.00     0.000 C 
BRANCH  11  12
ATOM     12  C   UNL     1      88.709 325.850 205.631  1.00  0.00     0.000 C 
BRANCH  12  13
ATOM     13  C   UNL     1      88.836 327.374 205.478  1.00  0.00     0.006 C 
BRANCH  13  14
ATOM     14  C   UNL     1      89.749 327.766 204.310  1.00  0.00     0.053 C 
BRANCH  14  15
ATOM     15  C   UNL     1      91.149 327.272 204.511  1.00  0.00     0.041 C 
ATOM     16  O   UNL     1      91.908 327.841 205.340  1.00  0.00    -0.550 OA
ATOM     17  O   UNL     1      91.623 326.199 203.765  1.00  0.00    -0.550 OA
ENDBRANCH  14  15
ENDBRANCH  13  14
ENDBRANCH  12  13
ENDBRANCH  11  12
ENDBRANCH  10  11
ENDBRANCH   9  10
ENDBRANCH   8   9
ENDBRANCH   7   8
ENDBRANCH   6   7
ENDBRANCH   5   6
ENDBRANCH   4   5
ENDBRANCH   3   4
ENDBRANCH   2   3
ENDBRANCH   1   2
BRANCH   1  18
ATOM     18  C   UNL     1      88.734 326.341 201.364  1.00  0.00     0.000 C 
BRANCH  18  19
ATOM     19  C   UNL     1      89.617 326.308 200.106  1.00  0.00     0.000 C 
BRANCH  19  20
ATOM     20  C   UNL     1      90.490 325.044 200.024  1.00  0.00     0.000 C 
BRANCH  20  21
ATOM     21  C   UNL     1      90.226 324.222 198.752  1.00  0.00     0.000 C 
BRANCH  21  22
ATOM     22  C   UNL     1      88.819 324.397 198.146  1.00  0.00     0.000 C 
BRANCH  22  23
ATOM     23  C   UNL     1      88.822 324.859 196.672  1.00  0.00     0.000 C 
BRANCH  23  24
ATOM     24  C   UNL     1      88.376 326.325 196.520  1.00  0.00    -0.000 C 
BRANCH  24  25
ATOM     25  C   UNL     1      86.974 326.455 195.894  1.00  0.00    -0.000 C 
BRANCH  25  26
ATOM     26  C   UNL     1      86.986 326.981 194.448  1.00  0.00    -0.000 C 
BRANCH  26  27
ATOM     27  C   UNL     1      88.039 326.275 193.577  1.00  0.00    -0.000 C 
BRANCH  27  28
ATOM     28  C   UNL     1      87.457 325.114 192.749  1.00  0.00    -0.000 C 
BRANCH  28  29
ATOM     29  C   UNL     1      88.497 324.195 192.085  1.00  0.00    -0.000 C 
BRANCH  29  30
ATOM     30  C   UNL     1      88.036 323.655 190.721  1.00  0.00    -0.000 C 
BRANCH  30  31
ATOM     31  C   UNL     1      89.205 323.128 189.873  1.00  0.00    -0.003 C 
ATOM     32  C   UNL     1      89.665 324.128 188.812  1.00  0.00     0.004 C 
ENDBRANCH  30  31
ENDBRANCH  29  30
ENDBRANCH  28  29
ENDBRANCH  27  28
ENDBRANCH  26  27
ENDBRANCH  25  26
ENDBRANCH  24  25
ENDBRANCH  23  24
ENDBRANCH  22  23
ENDBRANCH  21  22
ENDBRANCH  20  21
ENDBRANCH  19  20
ENDBRANCH  18  19
ENDBRANCH   1  18
TORSDOF 28
ENDMDL
MODEL 5
REMARK VINA RESULT:    -6.175      1.969      4.388
REMARK INTER + INTRA:         -18.670
REMARK INTER:                 -14.042
REMARK INTRA:                  -4.628
REMARK UNBOUND:                -2.387
REMARK SMILES CCCCCCCCCCCCCCCCCCCCCCCCCCCCCC(=O)[O-]
REMARK SMILES IDX 16 1 17 2 18 3 19 4 20 5 21 6 22 7 23 8 24 9 25 10 26 11
REMARK SMILES IDX 27 12 28 13 29 14 30 15 31 16 32 17 15 18 14 19 13 20 12 21
REMARK SMILES IDX 11 22 10 23 9 24 8 25 7 26 6 27 5 28 4 29 3 30 2 31 1 32
REMARK H PARENT
REMARK Flexibility Score: inf
ROOT
ATOM      1  C   UNL     1      92.180 324.508 201.199  1.00  0.00     0.000 C 
ENDROOT
BRANCH   1   2
ATOM      2  C   UNL     1      91.935 324.441 199.683  1.00  0.00     0.000 C 
BRANCH   2   3
ATOM      3  C   UNL     1      90.749 323.533 199.323  1.00  0.00     0.000 C 
BRANCH   3   4
ATOM      4  C   UNL     1      90.169 323.907 197.950  1.00  0.00     0.000 C 
BRANCH   4   5
ATOM      5  C   UNL     1      88.801 324.599 198.055  1.00  0.00     0.000 C 
BRANCH   5   6
ATOM      6  C   UNL     1      88.898 326.129 197.915  1.00  0.00     0.000 C 
BRANCH   6   7
ATOM      7  C   UNL     1      88.557 326.615 196.497  1.00  0.00     0.000 C 
BRANCH   7   8
ATOM      8  C   UNL     1      87.094 326.342 196.116  1.00  0.00     0.000 C 
BRANCH   8   9
ATOM      9  C   UNL     1      86.759 326.947 194.745  1.00  0.00     0.000 C 
BRANCH   9  10
ATOM     10  C   UNL     1      86.688 325.892 193.626  1.00  0.00     0.000 C 
BRANCH  10  11
ATOM     11  C   UNL     1      88.051 325.397 193.108  1.00  0.00     0.000 C 
BRANCH  11  12
ATOM     12  C   UNL     1      88.259 323.888 193.313  1.00  0.00     0.000 C 
BRANCH  12  13
ATOM     13  C   UNL     1      88.825 323.236 192.042  1.00  0.00     0.006 C 
BRANCH  13  14
ATOM     14  C   UNL     1      88.572 324.086 190.791  1.00  0.00     0.053 C 
BRANCH  14  15
ATOM     15  C   UNL     1      88.989 323.373 189.542  1.00  0.00     0.041 C 
ATOM     16  O   UNL     1      88.756 322.142 189.408  1.00  0.00    -0.550 OA
ATOM     17  O   UNL     1      89.656 324.062 188.536  1.00  0.00    -0.550 OA
ENDBRANCH  14  15
ENDBRANCH  13  14
ENDBRANCH  12  13
ENDBRANCH  11  12
ENDBRANCH  10  11
ENDBRANCH   9  10
ENDBRANCH   8   9
ENDBRANCH   7   8
ENDBRANCH   6   7
ENDBRANCH   5   6
ENDBRANCH   4   5
ENDBRANCH   3   4
ENDBRANCH   2   3
ENDBRANCH   1   2
BRANCH   1  18
ATOM     18  C   UNL     1      92.636 325.906 201.658  1.00  0.00     0.000 C 
BRANCH  18  19
ATOM     19  C   UNL     1      91.526 326.961 201.527  1.00  0.00     0.000 C 
BRANCH  19  20
ATOM     20  C   UNL     1      90.806 327.237 202.859  1.00  0.00     0.000 C 
BRANCH  20  21
ATOM     21  C   UNL     1      89.313 326.873 202.812  1.00  0.00     0.000 C 
BRANCH  21  22
ATOM     22  C   UNL     1      88.865 326.131 201.538  1.00  0.00     0.000 C 
BRANCH  22  23
ATOM     23  C   UNL     1      88.006 324.876 201.811  1.00  0.00     0.000 C 
BRANCH  23  24
ATOM     24  C   UNL     1      88.821 323.742 202.461  1.00  0.00    -0.000 C 
BRANCH  24  25
ATOM     25  C   UNL     1      88.025 322.985 203.541  1.00  0.00    -0.000 C 
BRANCH  25  26
ATOM     26  C   UNL     1      86.852 323.792 204.128  1.00  0.00    -0.000 C 
BRANCH  26  27
ATOM     27  C   UNL     1      87.071 324.147 205.609  1.00  0.00    -0.000 C 
BRANCH  27  28
ATOM     28  C   UNL     1      87.353 325.645 205.833  1.00  0.00    -0.000 C 
BRANCH  28  29
ATOM     29  C   UNL     1      88.771 325.978 206.333  1.00  0.00    -0.000 C 
BRANCH  29  30
ATOM     30  C   UNL     1      89.696 324.751 206.375  1.00  0.00    -0.000 C 
BRANCH  30  31
ATOM     31  C   UNL     1      91.116 325.069 205.879  1.00  0.00    -0.003 C 
ATOM     32  C   UNL     1      91.587 324.119 204.778  1.00  0.00     0.004 C 
ENDBRANCH  30  31
ENDBRANCH  29  30
ENDBRANCH  28  29
ENDBRANCH  27  28
ENDBRANCH  26  27
ENDBRANCH  25  26
ENDBRANCH  24  25
ENDBRANCH  23  24
ENDBRANCH  22  23
ENDBRANCH  21  22
ENDBRANCH  20  21
ENDBRANCH  19  20
ENDBRANCH  18  19
ENDBRANCH   1  18
TORSDOF 28
ENDMDL
MODEL 6
REMARK VINA RESULT:    -6.160      3.448     11.667
REMARK INTER + INTRA:         -18.629
REMARK INTER:                 -15.604
REMARK INTRA:                  -3.025
REMARK UNBOUND:                -2.387
REMARK SMILES CCCCCCCCCCCCCCCCCCCCCCCCCCCCCC(=O)[O-]
REMARK SMILES IDX 16 1 17 2 18 3 19 4 20 5 21 6 22 7 23 8 24 9 25 10 26 11
REMARK SMILES IDX 27 12 28 13 29 14 30 15 31 16 32 17 15 18 14 19 13 20 12 21
REMARK SMILES IDX 11 22 10 23 9 24 8 25 7 26 6 27 5 28 4 29 3 30 2 31 1 32
REMARK H PARENT
REMARK Flexibility Score: inf
ROOT
ATOM      1  C   UNL     1      88.498 323.098 197.990  1.00  0.00     0.000 C 
ENDROOT
BRANCH   1   2
ATOM      2  C   UNL     1      89.226 323.820 199.136  1.00  0.00     0.000 C 
BRANCH   2   3
ATOM      3  C   UNL     1      88.485 323.688 200.475  1.00  0.00     0.000 C 
BRANCH   3   4
ATOM      4  C   UNL     1      87.312 322.703 200.357  1.00  0.00     0.000 C 
BRANCH   4   5
ATOM      5  C   UNL     1      86.299 322.849 201.504  1.00  0.00     0.000 C 
BRANCH   5   6
ATOM      6  C   UNL     1      86.782 323.814 202.602  1.00  0.00     0.000 C 
BRANCH   6   7
ATOM      7  C   UNL     1      87.003 323.111 203.951  1.00  0.00     0.000 C 
BRANCH   7   8
ATOM      8  C   UNL     1      86.275 323.812 205.108  1.00  0.00     0.000 C 
BRANCH   8   9
ATOM      9  C   UNL     1      87.129 324.948 205.689  1.00  0.00     0.000 C 
BRANCH   9  10
ATOM     10  C   UNL     1      88.611 324.563 205.850  1.00  0.00     0.000 C 
BRANCH  10  11
ATOM     11  C   UNL     1      89.615 325.569 205.258  1.00  0.00     0.000 C 
BRANCH  11  12
ATOM     12  C   UNL     1      88.992 326.945 204.978  1.00  0.00     0.000 C 
BRANCH  12  13
ATOM     13  C   UNL     1      89.620 327.589 203.733  1.00  0.00     0.006 C 
BRANCH  13  14
ATOM     14  C   UNL     1      89.257 326.837 202.446  1.00  0.00     0.053 C 
BRANCH  14  15
ATOM     15  C   UNL     1      90.324 326.975 201.404  1.00  0.00     0.041 C 
ATOM     16  O   UNL     1      91.519 327.184 201.745  1.00  0.00    -0.550 OA
ATOM     17  O   UNL     1      89.994 326.898 200.056  1.00  0.00    -0.550 OA
ENDBRANCH  14  15
ENDBRANCH  13  14
ENDBRANCH  12  13
ENDBRANCH  11  12
ENDBRANCH  10  11
ENDBRANCH   9  10
ENDBRANCH   8   9
ENDBRANCH   7   8
ENDBRANCH   6   7
ENDBRANCH   5   6
ENDBRANCH   4   5
ENDBRANCH   3   4
ENDBRANCH   2   3
ENDBRANCH   1   2
BRANCH   1  18
ATOM     18  C   UNL     1      88.423 323.954 196.712  1.00  0.00     0.000 C 
BRANCH  18  19
ATOM     19  C   UNL     1      89.248 325.247 196.819  1.00  0.00     0.000 C 
BRANCH  19  20
ATOM     20  C   UNL     1      88.427 326.506 196.488  1.00  0.00     0.000 C 
BRANCH  20  21
ATOM     21  C   UNL     1      87.015 326.176 195.978  1.00  0.00     0.000 C 
BRANCH  21  22
ATOM     22  C   UNL     1      86.757 326.535 194.502  1.00  0.00     0.000 C 
BRANCH  22  23
ATOM     23  C   UNL     1      88.034 326.588 193.635  1.00  0.00     0.000 C 
BRANCH  23  24
ATOM     24  C   UNL     1      88.150 325.376 192.692  1.00  0.00    -0.000 C 
BRANCH  24  25
ATOM     25  C   UNL     1      87.093 324.295 192.985  1.00  0.00    -0.000 C 
BRANCH  25  26
ATOM     26  C   UNL     1      86.304 323.844 191.742  1.00  0.00    -0.000 C 
BRANCH  26  27
ATOM     27  C   UNL     1      86.858 322.542 191.139  1.00  0.00    -0.000 C 
BRANCH  27  28
ATOM     28  C   UNL     1      86.488 322.361 189.654  1.00  0.00    -0.000 C 
BRANCH  28  29
ATOM     29  C   UNL     1      87.612 322.684 188.653  1.00  0.00    -0.000 C 
BRANCH  29  30
ATOM     30  C   UNL     1      88.809 323.395 189.305  1.00  0.00    -0.000 C 
BRANCH  30  31
ATOM     31  C   UNL     1      90.093 322.552 189.251  1.00  0.00    -0.003 C 
ATOM     32  C   UNL     1      91.193 323.200 188.410  1.00  0.00     0.004 C 
ENDBRANCH  30  31
ENDBRANCH  29  30
ENDBRANCH  28  29
ENDBRANCH  27  28
ENDBRANCH  26  27
ENDBRANCH  25  26
ENDBRANCH  24  25
ENDBRANCH  23  24
ENDBRANCH  22  23
ENDBRANCH  21  22
ENDBRANCH  20  21
ENDBRANCH  19  20
ENDBRANCH  18  19
ENDBRANCH   1  18
TORSDOF 28
ENDMDL
MODEL 7
REMARK VINA RESULT:    -6.138      4.092     11.065
REMARK INTER + INTRA:         -18.573
REMARK INTER:                 -14.679
REMARK INTRA:                  -3.895
REMARK UNBOUND:                -2.387
REMARK SMILES CCCCCCCCCCCCCCCCCCCCCCCCCCCCCC(=O)[O-]
REMARK SMILES IDX 16 1 17 2 18 3 19 4 20 5 21 6 22 7 23 8 24 9 25 10 26 11
REMARK SMILES IDX 27 12 28 13 29 14 30 15 31 16 32 17 15 18 14 19 13 20 12 21
REMARK SMILES IDX 11 22 10 23 9 24 8 25 7 26 6 27 5 28 4 29 3 30 2 31 1 32
REMARK H PARENT
REMARK Flexibility Score: inf
ROOT
ATOM      1  C   UNL     1      90.208 325.351 199.824  1.00  0.00     0.000 C 
ENDROOT
BRANCH   1   2
ATOM      2  C   UNL     1      89.835 326.680 200.502  1.00  0.00     0.000 C 
BRANCH   2   3
ATOM      3  C   UNL     1      88.861 326.484 201.674  1.00  0.00     0.000 C 
BRANCH   3   4
ATOM      4  C   UNL     1      89.620 326.377 203.006  1.00  0.00     0.000 C 
BRANCH   4   5
ATOM      5  C   UNL     1      89.281 327.521 203.974  1.00  0.00     0.000 C 
BRANCH   5   6
ATOM      6  C   UNL     1      89.927 327.336 205.359  1.00  0.00     0.000 C 
BRANCH   6   7
ATOM      7  C   UNL     1      88.921 326.868 206.422  1.00  0.00     0.000 C 
BRANCH   7   8
ATOM      8  C   UNL     1      88.506 325.401 206.236  1.00  0.00     0.000 C 
BRANCH   8   9
ATOM      9  C   UNL     1      86.989 325.278 206.031  1.00  0.00     0.000 C 
BRANCH   9  10
ATOM     10  C   UNL     1      86.615 324.374 204.842  1.00  0.00     0.000 C 
BRANCH  10  11
ATOM     11  C   UNL     1      87.243 322.969 204.869  1.00  0.00     0.000 C 
BRANCH  11  12
ATOM     12  C   UNL     1      86.948 322.155 203.600  1.00  0.00     0.000 C 
BRANCH  12  13
ATOM     13  C   UNL     1      86.866 323.070 202.369  1.00  0.00     0.006 C 
BRANCH  13  14
ATOM     14  C   UNL     1      86.171 322.388 201.184  1.00  0.00     0.053 C 
BRANCH  14  15
ATOM     15  C   UNL     1      87.053 321.364 200.538  1.00  0.00     0.041 C 
ATOM     16  O   UNL     1      86.572 320.260 200.164  1.00  0.00    -0.550 OA
ATOM     17  O   UNL     1      88.409 321.617 200.372  1.00  0.00    -0.550 OA
ENDBRANCH  14  15
ENDBRANCH  13  14
ENDBRANCH  12  13
ENDBRANCH  11  12
ENDBRANCH  10  11
ENDBRANCH   9  10
ENDBRANCH   8   9
ENDBRANCH   7   8
ENDBRANCH   6   7
ENDBRANCH   5   6
ENDBRANCH   4   5
ENDBRANCH   3   4
ENDBRANCH   2   3
ENDBRANCH   1   2
BRANCH   1  18
ATOM     18  C   UNL     1      89.030 324.740 199.043  1.00  0.00     0.000 C 
BRANCH  18  19
ATOM     19  C   UNL     1      89.126 325.000 197.531  1.00  0.00     0.000 C 
BRANCH  19  20
ATOM     20  C   UNL     1      88.497 326.342 197.116  1.00  0.00     0.000 C 
BRANCH  20  21
ATOM     21  C   UNL     1      88.257 326.442 195.600  1.00  0.00     0.000 C 
BRANCH  21  22
ATOM     22  C   UNL     1      86.818 326.129 195.149  1.00  0.00     0.000 C 
BRANCH  22  23
ATOM     23  C   UNL     1      86.668 325.920 193.626  1.00  0.00     0.000 C 
BRANCH  23  24
ATOM     24  C   UNL     1      87.994 325.512 192.959  1.00  0.00    -0.000 C 
BRANCH  24  25
ATOM     25  C   UNL     1      87.794 324.509 191.808  1.00  0.00    -0.000 C 
BRANCH  25  26
ATOM     26  C   UNL     1      86.372 323.922 191.735  1.00  0.00    -0.000 C 
BRANCH  26  27
ATOM     27  C   UNL     1      86.377 322.384 191.696  1.00  0.00    -0.000 C 
BRANCH  27  28
ATOM     28  C   UNL     1      86.986 321.751 192.962  1.00  0.00    -0.000 C 
BRANCH  28  29
ATOM     29  C   UNL     1      86.402 322.255 194.294  1.00  0.00    -0.000 C 
BRANCH  29  30
ATOM     30  C   UNL     1      87.472 322.466 195.377  1.00  0.00    -0.000 C 
BRANCH  30  31
ATOM     31  C   UNL     1      88.885 322.603 194.787  1.00  0.00    -0.003 C 
ATOM     32  C   UNL     1      89.904 321.690 195.468  1.00  0.00     0.004 C 
ENDBRANCH  30  31
ENDBRANCH  29  30
ENDBRANCH  28  29
ENDBRANCH  27  28
ENDBRANCH  26  27
ENDBRANCH  25  26
ENDBRANCH  24  25
ENDBRANCH  23  24
ENDBRANCH  22  23
ENDBRANCH  21  22
ENDBRANCH  20  21
ENDBRANCH  19  20
ENDBRANCH  18  19
ENDBRANCH   1  18
TORSDOF 28
ENDMDL
MODEL 8
REMARK VINA RESULT:    -6.126      4.332     12.117
REMARK INTER + INTRA:         -18.541
REMARK INTER:                 -15.180
REMARK INTRA:                  -3.361
REMARK UNBOUND:                -2.387
REMARK SMILES CCCCCCCCCCCCCCCCCCCCCCCCCCCCCC(=O)[O-]
REMARK SMILES IDX 16 1 17 2 18 3 19 4 20 5 21 6 22 7 23 8 24 9 25 10 26 11
REMARK SMILES IDX 27 12 28 13 29 14 30 15 31 16 32 17 15 18 14 19 13 20 12 21
REMARK SMILES IDX 11 22 10 23 9 24 8 25 7 26 6 27 5 28 4 29 3 30 2 31 1 32
REMARK H PARENT
REMARK Flexibility Score: inf
ROOT
ATOM      1  C   UNL     1      88.312 325.089 197.123  1.00  0.00     0.000 C 
ENDROOT
BRANCH   1   2
ATOM      2  C   UNL     1      89.454 325.058 198.152  1.00  0.00     0.000 C 
BRANCH   2   3
ATOM      3  C   UNL     1      89.231 326.052 199.302  1.00  0.00     0.000 C 
BRANCH   3   4
ATOM      4  C   UNL     1      88.821 325.320 200.588  1.00  0.00     0.000 C 
BRANCH   4   5
ATOM      5  C   UNL     1      89.537 325.866 201.834  1.00  0.00     0.000 C 
BRANCH   5   6
ATOM      6  C   UNL     1      90.651 326.869 201.485  1.00  0.00     0.000 C 
BRANCH   6   7
ATOM      7  C   UNL     1      91.570 327.170 202.679  1.00  0.00     0.000 C 
BRANCH   7   8
ATOM      8  C   UNL     1      90.818 327.805 203.858  1.00  0.00     0.000 C 
BRANCH   8   9
ATOM      9  C   UNL     1      91.536 327.525 205.186  1.00  0.00     0.000 C 
BRANCH   9  10
ATOM     10  C   UNL     1      90.572 327.110 206.313  1.00  0.00     0.000 C 
BRANCH  10  11
ATOM     11  C   UNL     1      89.077 327.291 205.993  1.00  0.00     0.000 C 
BRANCH  11  12
ATOM     12  C   UNL     1      88.251 326.019 206.240  1.00  0.00     0.000 C 
BRANCH  12  13
ATOM     13  C   UNL     1      88.353 325.058 205.046  1.00  0.00     0.006 C 
BRANCH  13  14
ATOM     14  C   UNL     1      87.042 324.304 204.795  1.00  0.00     0.053 C 
BRANCH  14  15
ATOM     15  C   UNL     1      87.058 323.587 203.480  1.00  0.00     0.041 C 
ATOM     16  O   UNL     1      86.220 323.884 202.587  1.00  0.00    -0.550 OA
ATOM     17  O   UNL     1      87.980 322.574 203.250  1.00  0.00    -0.550 OA
ENDBRANCH  14  15
ENDBRANCH  13  14
ENDBRANCH  12  13
ENDBRANCH  11  12
ENDBRANCH  10  11
ENDBRANCH   9  10
ENDBRANCH   8   9
ENDBRANCH   7   8
ENDBRANCH   6   7
ENDBRANCH   5   6
ENDBRANCH   4   5
ENDBRANCH   3   4
ENDBRANCH   2   3
ENDBRANCH   1   2
BRANCH   1  18
ATOM     18  C   UNL     1      88.210 326.446 196.401  1.00  0.00     0.000 C 
BRANCH  18  19
ATOM     19  C   UNL     1      86.780 326.758 195.931  1.00  0.00     0.000 C 
BRANCH  19  20
ATOM     20  C   UNL     1      86.683 326.952 194.407  1.00  0.00     0.000 C 
BRANCH  20  21
ATOM     21  C   UNL     1      88.030 326.740 193.695  1.00  0.00     0.000 C 
BRANCH  21  22
ATOM     22  C   UNL     1      88.137 325.434 192.884  1.00  0.00     0.000 C 
BRANCH  22  23
ATOM     23  C   UNL     1      86.880 324.540 192.962  1.00  0.00     0.000 C 
BRANCH  23  24
ATOM     24  C   UNL     1      87.102 323.297 193.842  1.00  0.00    -0.000 C 
BRANCH  24  25
ATOM     25  C   UNL     1      88.586 323.075 194.190  1.00  0.00    -0.000 C 
BRANCH  25  26
ATOM     26  C   UNL     1      89.247 321.935 193.394  1.00  0.00    -0.000 C 
BRANCH  26  27
ATOM     27  C   UNL     1      88.225 321.120 192.581  1.00  0.00    -0.000 C 
BRANCH  27  28
ATOM     28  C   UNL     1      88.186 321.516 191.093  1.00  0.00    -0.000 C 
BRANCH  28  29
ATOM     29  C   UNL     1      89.400 322.321 190.596  1.00  0.00    -0.000 C 
BRANCH  29  30
ATOM     30  C   UNL     1      89.010 323.672 189.973  1.00  0.00    -0.000 C 
BRANCH  30  31
ATOM     31  C   UNL     1      89.811 323.983 188.699  1.00  0.00    -0.003 C 
ATOM     32  C   UNL     1      90.988 323.030 188.489  1.00  0.00     0.004 C 
ENDBRANCH  30  31
ENDBRANCH  29  30
ENDBRANCH  28  29
ENDBRANCH  27  28
ENDBRANCH  26  27
ENDBRANCH  25  26
ENDBRANCH  24  25
ENDBRANCH  23  24
ENDBRANCH  22  23
ENDBRANCH  21  22
ENDBRANCH  20  21
ENDBRANCH  19  20
ENDBRANCH  18  19
ENDBRANCH   1  18
TORSDOF 28
ENDMDL
MODEL 9
REMARK VINA RESULT:    -6.076      3.315      4.246
REMARK INTER + INTRA:         -18.408
REMARK INTER:                 -13.791
REMARK INTRA:                  -4.618
REMARK UNBOUND:                -2.387
REMARK SMILES CCCCCCCCCCCCCCCCCCCCCCCCCCCCCC(=O)[O-]
REMARK SMILES IDX 16 1 17 2 18 3 19 4 20 5 21 6 22 7 23 8 24 9 25 10 26 11
REMARK SMILES IDX 27 12 28 13 29 14 30 15 31 16 32 17 15 18 14 19 13 20 12 21
REMARK SMILES IDX 11 22 10 23 9 24 8 25 7 26 6 27 5 28 4 29 3 30 2 31 1 32
REMARK H PARENT
REMARK Flexibility Score: inf
ROOT
ATOM      1  C   UNL     1      89.860 324.140 201.145  1.00  0.00     0.000 C 
ENDROOT
BRANCH   1   2
ATOM      2  C   UNL     1      89.871 323.410 199.791  1.00  0.00     0.000 C 
BRANCH   2   3
ATOM      3  C   UNL     1      88.466 323.290 199.181  1.00  0.00     0.000 C 
BRANCH   3   4
ATOM      4  C   UNL     1      88.486 323.638 197.685  1.00  0.00     0.000 C 
BRANCH   4   5
ATOM      5  C   UNL     1      89.336 324.881 197.378  1.00  0.00     0.000 C 
BRANCH   5   6
ATOM      6  C   UNL     1      88.496 326.169 197.298  1.00  0.00     0.000 C 
BRANCH   6   7
ATOM      7  C   UNL     1      88.241 326.619 195.851  1.00  0.00     0.000 C 
BRANCH   7   8
ATOM      8  C   UNL     1      86.804 326.338 195.389  1.00  0.00     0.000 C 
BRANCH   8   9
ATOM      9  C   UNL     1      86.742 326.139 193.868  1.00  0.00     0.000 C 
BRANCH   9  10
ATOM     10  C   UNL     1      88.112 325.801 193.251  1.00  0.00     0.000 C 
BRANCH  10  11
ATOM     11  C   UNL     1      88.061 324.907 191.998  1.00  0.00     0.000 C 
BRANCH  11  12
ATOM     12  C   UNL     1      88.580 323.484 192.254  1.00  0.00     0.000 C 
BRANCH  12  13
ATOM     13  C   UNL     1      88.841 323.256 193.751  1.00  0.00     0.006 C 
BRANCH  13  14
ATOM     14  C   UNL     1      88.443 321.846 194.202  1.00  0.00     0.053 C 
BRANCH  14  15
ATOM     15  C   UNL     1      86.966 321.730 194.424  1.00  0.00     0.041 C 
ATOM     16  O   UNL     1      86.284 322.755 194.692  1.00  0.00    -0.550 OA
ATOM     17  O   UNL     1      86.347 320.488 194.360  1.00  0.00    -0.550 OA
ENDBRANCH  14  15
ENDBRANCH  13  14
ENDBRANCH  12  13
ENDBRANCH  11  12
ENDBRANCH  10  11
ENDBRANCH   9  10
ENDBRANCH   8   9
ENDBRANCH   7   8
ENDBRANCH   6   7
ENDBRANCH   5   6
ENDBRANCH   4   5
ENDBRANCH   3   4
ENDBRANCH   2   3
ENDBRANCH   1   2
BRANCH   1  18
ATOM     18  C   UNL     1      89.003 325.419 201.114  1.00  0.00     0.000 C 
BRANCH  18  19
ATOM     19  C   UNL     1      89.825 326.672 200.770  1.00  0.00     0.000 C 
BRANCH  19  20
ATOM     20  C   UNL     1      91.312 326.529 201.141  1.00  0.00     0.000 C 
BRANCH  20  21
ATOM     21  C   UNL     1      91.658 327.210 202.476  1.00  0.00     0.000 C 
BRANCH  21  22
ATOM     22  C   UNL     1      90.442 327.644 203.318  1.00  0.00     0.000 C 
BRANCH  22  23
ATOM     23  C   UNL     1      90.357 326.959 204.699  1.00  0.00     0.000 C 
BRANCH  23  24
ATOM     24  C   UNL     1      88.909 326.603 205.086  1.00  0.00    -0.000 C 
BRANCH  24  25
ATOM     25  C   UNL     1      88.553 325.141 204.760  1.00  0.00    -0.000 C 
BRANCH  25  26
ATOM     26  C   UNL     1      87.335 324.609 205.538  1.00  0.00    -0.000 C 
BRANCH  26  27
ATOM     27  C   UNL     1      86.401 323.762 204.655  1.00  0.00    -0.000 C 
BRANCH  27  28
ATOM     28  C   UNL     1      86.364 324.236 203.190  1.00  0.00    -0.000 C 
BRANCH  28  29
ATOM     29  C   UNL     1      86.307 323.113 202.138  1.00  0.00    -0.000 C 
BRANCH  29  30
ATOM     30  C   UNL     1      87.147 321.885 202.525  1.00  0.00    -0.000 C 
BRANCH  30  31
ATOM     31  C   UNL     1      87.056 320.759 201.483  1.00  0.00    -0.003 C 
ATOM     32  C   UNL     1      85.884 320.938 200.517  1.00  0.00     0.004 C 
ENDBRANCH  30  31
ENDBRANCH  29  30
ENDBRANCH  28  29
ENDBRANCH  27  28
ENDBRANCH  26  27
ENDBRANCH  25  26
ENDBRANCH  24  25
ENDBRANCH  23  24
ENDBRANCH  22  23
ENDBRANCH  21  22
ENDBRANCH  20  21
ENDBRANCH  19  20
ENDBRANCH  18  19
ENDBRANCH   1  18
TORSDOF 28
ENDMDL
