MODEL 1
REMARK VINA RESULT:    -3.816      0.000      0.000
REMARK INTER + INTRA:          -4.528
REMARK INTER:                  -4.374
REMARK INTRA:                  -0.154
REMARK UNBOUND:                -0.154
REMARK SMILES O=C([O-])C=Cc1ccc(O)cc1
REMARK SMILES IDX 6 1 7 2 12 3 8 4 11 5 9 6 5 7 4 8 2 9 1 10 3 11 10 12
REMARK H PARENT 10 13
REMARK Flexibility Score: inf
ROOT
ATOM      1  C   UNL     1      -4.080  85.745  -8.626  1.00  0.00    -0.025 A 
ATOM      2  C   UNL     1      -5.199  85.654  -9.470  1.00  0.00     0.012 A 
ATOM      3  C   UNL     1      -3.331  84.579  -8.362  1.00  0.00     0.012 A 
ATOM      4  C   UNL     1      -5.550  84.436 -10.059  1.00  0.00     0.047 A 
ATOM      5  C   UNL     1      -3.686  83.363  -8.953  1.00  0.00     0.047 A 
ATOM      6  C   UNL     1      -4.792  83.288  -9.803  1.00  0.00     0.115 A 
ENDROOT
BRANCH   1   7
ATOM      7  C   UNL     1      -3.754  87.059  -8.016  1.00  0.00     0.010 C 
ATOM      8  C   UNL     1      -4.410  88.193  -8.295  1.00  0.00     0.025 C 
BRANCH   8   9
ATOM      9  C   UNL     1      -4.059  89.471  -7.656  1.00  0.00     0.064 C 
ATOM     10  O   UNL     1      -3.572  89.471  -6.496  1.00  0.00    -0.545 OA
ATOM     11  O   UNL     1      -4.259  90.681  -8.311  1.00  0.00    -0.545 OA
ENDBRANCH   8   9
ENDBRANCH   1   7
BRANCH   6  12
ATOM     12  O   UNL     1      -5.132  82.068 -10.385  1.00  0.00    -0.508 OA
ATOM     13  H   UNL     1      -5.907  81.987 -11.032  1.00  0.00     0.293 HD
ENDBRANCH   6  12
TORSDOF 3
ENDMDL
MODEL 2
REMARK VINA RESULT:    -3.798      7.040      7.849
REMARK INTER + INTRA:          -4.507
REMARK INTER:                  -4.363
REMARK INTRA:                  -0.144
REMARK UNBOUND:                -0.154
REMARK SMILES O=C([O-])C=Cc1ccc(O)cc1
REMARK SMILES IDX 6 1 7 2 12 3 8 4 11 5 9 6 5 7 4 8 2 9 1 10 3 11 10 12
REMARK H PARENT 10 13
REMARK Flexibility Score: inf
ROOT
ATOM      1  C   UNL     1      -4.213  92.376 -13.422  1.00  0.00    -0.025 A 
ATOM      2  C   UNL     1      -3.983  91.005 -13.216  1.00  0.00     0.012 A 
ATOM      3  C   UNL     1      -4.653  92.809 -14.689  1.00  0.00     0.012 A 
ATOM      4  C   UNL     1      -4.212  90.083 -14.242  1.00  0.00     0.047 A 
ATOM      5  C   UNL     1      -4.881  91.884 -15.713  1.00  0.00     0.047 A 
ATOM      6  C   UNL     1      -4.664  90.521 -15.493  1.00  0.00     0.115 A 
ENDROOT
BRANCH   1   7
ATOM      7  C   UNL     1      -3.945  93.316 -12.305  1.00  0.00     0.010 C 
ATOM      8  C   UNL     1      -4.368  93.121 -11.049  1.00  0.00     0.025 C 
BRANCH   8   9
ATOM      9  C   UNL     1      -4.068  94.076  -9.970  1.00  0.00     0.064 C 
ATOM     10  O   UNL     1      -2.876  94.422  -9.763  1.00  0.00    -0.545 OA
ATOM     11  O   UNL     1      -5.079  94.600  -9.173  1.00  0.00    -0.545 OA
ENDBRANCH   8   9
ENDBRANCH   1   7
BRANCH   6  12
ATOM     12  O   UNL     1      -4.896  89.612 -16.523  1.00  0.00    -0.508 OA
ATOM     13  H   UNL     1      -5.768  89.100 -16.591  1.00  0.00     0.293 HD
ENDBRANCH   6  12
TORSDOF 3
ENDMDL
MODEL 3
REMARK VINA RESULT:    -3.773      8.000      9.357
REMARK INTER + INTRA:          -4.479
REMARK INTER:                  -4.344
REMARK INTRA:                  -0.135
REMARK UNBOUND:                -0.154
REMARK SMILES O=C([O-])C=Cc1ccc(O)cc1
REMARK SMILES IDX 6 1 7 2 12 3 8 4 11 5 9 6 5 7 4 8 2 9 1 10 3 11 10 12
REMARK H PARENT 10 13
REMARK Flexibility Score: inf
ROOT
ATOM      1  C   UNL     1     -11.774  82.229  -9.615  1.00  0.00    -0.025 A 
ATOM      2  C   UNL     1     -12.713  83.272  -9.678  1.00  0.00     0.012 A 
ATOM      3  C   UNL     1     -11.778  81.248 -10.628  1.00  0.00     0.012 A 
ATOM      4  C   UNL     1     -13.620  83.351 -10.739  1.00  0.00     0.047 A 
ATOM      5  C   UNL     1     -12.687  81.330 -11.687  1.00  0.00     0.047 A 
ATOM      6  C   UNL     1     -13.606  82.381 -11.748  1.00  0.00     0.115 A 
ENDROOT
BRANCH   1   7
ATOM      7  C   UNL     1     -10.839  82.183  -8.462  1.00  0.00     0.010 C 
ATOM      8  C   UNL     1     -10.949  81.315  -7.448  1.00  0.00     0.025 C 
BRANCH   8   9
ATOM      9  C   UNL     1      -9.991  81.298  -6.332  1.00  0.00     0.064 C 
ATOM     10  O   UNL     1      -9.569  80.197  -5.892  1.00  0.00    -0.545 OA
ATOM     11  O   UNL     1      -9.544  82.480  -5.751  1.00  0.00    -0.545 OA
ENDBRANCH   8   9
ENDBRANCH   1   7
BRANCH   6  12
ATOM     12  O   UNL     1     -14.504  82.448 -12.811  1.00  0.00    -0.508 OA
ATOM     13  H   UNL     1     -15.102  81.666 -13.051  1.00  0.00     0.293 HD
ENDBRANCH   6  12
TORSDOF 3
ENDMDL
MODEL 4
REMARK VINA RESULT:    -3.753     11.819     13.619
REMARK INTER + INTRA:          -4.455
REMARK INTER:                  -4.313
REMARK INTRA:                  -0.142
REMARK UNBOUND:                -0.154
REMARK SMILES O=C([O-])C=Cc1ccc(O)cc1
REMARK SMILES IDX 6 1 7 2 12 3 8 4 11 5 9 6 5 7 4 8 2 9 1 10 3 11 10 12
REMARK H PARENT 10 13
REMARK Flexibility Score: inf
ROOT
ATOM      1  C   UNL     1     -15.097  78.719  -6.746  1.00  0.00    -0.025 A 
ATOM      2  C   UNL     1     -14.846  77.390  -6.365  1.00  0.00     0.012 A 
ATOM      3  C   UNL     1     -14.011  79.532  -7.129  1.00  0.00     0.012 A 
ATOM      4  C   UNL     1     -13.547  76.875  -6.389  1.00  0.00     0.047 A 
ATOM      5  C   UNL     1     -12.712  79.014  -7.151  1.00  0.00     0.047 A 
ATOM      6  C   UNL     1     -12.477  77.686  -6.785  1.00  0.00     0.115 A 
ENDROOT
BRANCH   1   7
ATOM      7  C   UNL     1     -16.492  79.222  -6.694  1.00  0.00     0.010 C 
ATOM      8  C   UNL     1     -16.851  80.463  -7.048  1.00  0.00     0.025 C 
BRANCH   8   9
ATOM      9  C   UNL     1     -18.250  80.914  -6.991  1.00  0.00     0.064 C 
ATOM     10  O   UNL     1     -19.156  80.188  -7.475  1.00  0.00    -0.545 OA
ATOM     11  O   UNL     1     -18.589  82.132  -6.412  1.00  0.00    -0.545 OA
ENDBRANCH   8   9
ENDBRANCH   1   7
BRANCH   6  12
ATOM     12  O   UNL     1     -11.177  77.184  -6.814  1.00  0.00    -0.508 OA
ATOM     13  H   UNL     1     -10.395  77.757  -7.107  1.00  0.00     0.293 HD
ENDBRANCH   6  12
TORSDOF 3
ENDMDL
MODEL 5
REMARK VINA RESULT:    -3.692      3.616      6.373
REMARK INTER + INTRA:          -4.385
REMARK INTER:                  -4.234
REMARK INTRA:                  -0.151
REMARK UNBOUND:                -0.154
REMARK SMILES O=C([O-])C=Cc1ccc(O)cc1
REMARK SMILES IDX 6 1 7 2 12 3 8 4 11 5 9 6 5 7 4 8 2 9 1 10 3 11 10 12
REMARK H PARENT 10 13
REMARK Flexibility Score: inf
ROOT
ATOM      1  C   UNL     1      -7.041  83.965  -9.431  1.00  0.00    -0.025 A 
ATOM      2  C   UNL     1      -6.278  83.014  -8.732  1.00  0.00     0.012 A 
ATOM      3  C   UNL     1      -6.396  85.109  -9.945  1.00  0.00     0.012 A 
ATOM      4  C   UNL     1      -4.900  83.186  -8.572  1.00  0.00     0.047 A 
ATOM      5  C   UNL     1      -5.017  85.277  -9.782  1.00  0.00     0.047 A 
ATOM      6  C   UNL     1      -4.266  84.316  -9.099  1.00  0.00     0.115 A 
ENDROOT
BRANCH   1   7
ATOM      7  C   UNL     1      -8.502  83.743  -9.566  1.00  0.00     0.010 C 
ATOM      8  C   UNL     1      -9.099  82.561  -9.364  1.00  0.00     0.025 C 
BRANCH   8   9
ATOM      9  C   UNL     1     -10.554  82.391  -9.497  1.00  0.00     0.064 C 
ATOM     10  O   UNL     1     -11.328  83.137  -8.843  1.00  0.00    -0.545 OA
ATOM     11  O   UNL     1     -11.090  81.418 -10.333  1.00  0.00    -0.545 OA
ENDBRANCH   8   9
ENDBRANCH   1   7
BRANCH   6  12
ATOM     12  O   UNL     1      -2.893  84.498  -8.946  1.00  0.00    -0.508 OA
ATOM     13  H   UNL     1      -2.360  85.074  -9.587  1.00  0.00     0.293 HD
ENDBRANCH   6  12
TORSDOF 3
ENDMDL
MODEL 6
REMARK VINA RESULT:    -3.688      6.822      7.881
REMARK INTER + INTRA:          -4.381
REMARK INTER:                  -4.232
REMARK INTRA:                  -0.149
REMARK UNBOUND:                -0.154
REMARK SMILES O=C([O-])C=Cc1ccc(O)cc1
REMARK SMILES IDX 6 1 7 2 12 3 8 4 11 5 9 6 5 7 4 8 2 9 1 10 3 11 10 12
REMARK H PARENT 10 13
REMARK Flexibility Score: inf
ROOT
ATOM      1  C   UNL     1      -4.993  90.063 -14.275  1.00  0.00    -0.025 A 
ATOM      2  C   UNL     1      -5.828  89.934 -15.398  1.00  0.00     0.012 A 
ATOM      3  C   UNL     1      -3.657  90.469 -14.465  1.00  0.00     0.012 A 
ATOM      4  C   UNL     1      -5.350  90.229 -16.678  1.00  0.00     0.047 A 
ATOM      5  C   UNL     1      -3.182  90.763 -15.747  1.00  0.00     0.047 A 
ATOM      6  C   UNL     1      -4.026  90.647 -16.855  1.00  0.00     0.115 A 
ENDROOT
BRANCH   1   7
ATOM      7  C   UNL     1      -5.544  89.727 -12.938  1.00  0.00     0.010 C 
ATOM      8  C   UNL     1      -6.604  88.931 -12.747  1.00  0.00     0.025 C 
BRANCH   8   9
ATOM      9  C   UNL     1      -7.108  88.617 -11.400  1.00  0.00     0.064 C 
ATOM     10  O   UNL     1      -7.985  89.352 -10.879  1.00  0.00    -0.545 OA
ATOM     11  O   UNL     1      -6.629  87.520 -10.692  1.00  0.00    -0.545 OA
ENDBRANCH   8   9
ENDBRANCH   1   7
BRANCH   6  12
ATOM     12  O   UNL     1      -3.539  90.945 -18.126  1.00  0.00    -0.508 OA
ATOM     13  H   UNL     1      -3.450  91.901 -18.449  1.00  0.00     0.293 HD
ENDBRANCH   6  12
TORSDOF 3
ENDMDL
MODEL 7
REMARK VINA RESULT:    -3.664      6.555      7.679
REMARK INTER + INTRA:          -4.353
REMARK INTER:                  -4.205
REMARK INTRA:                  -0.148
REMARK UNBOUND:                -0.154
REMARK SMILES O=C([O-])C=Cc1ccc(O)cc1
REMARK SMILES IDX 6 1 7 2 12 3 8 4 11 5 9 6 5 7 4 8 2 9 1 10 3 11 10 12
REMARK H PARENT 10 13
REMARK Flexibility Score: inf
ROOT
ATOM      1  C   UNL     1      -4.954  90.313 -14.175  1.00  0.00    -0.025 A 
ATOM      2  C   UNL     1      -3.639  90.709 -14.475  1.00  0.00     0.012 A 
ATOM      3  C   UNL     1      -5.856  90.092 -15.237  1.00  0.00     0.012 A 
ATOM      4  C   UNL     1      -3.225  90.855 -15.802  1.00  0.00     0.047 A 
ATOM      5  C   UNL     1      -5.437  90.239 -16.563  1.00  0.00     0.047 A 
ATOM      6  C   UNL     1      -4.122  90.617 -16.849  1.00  0.00     0.115 A 
ENDROOT
BRANCH   1   7
ATOM      7  C   UNL     1      -5.350  90.182 -12.751  1.00  0.00     0.010 C 
ATOM      8  C   UNL     1      -4.853  90.942 -11.766  1.00  0.00     0.025 C 
BRANCH   8   9
ATOM      9  C   UNL     1      -5.284  90.784 -10.369  1.00  0.00     0.064 C 
ATOM     10  O   UNL     1      -5.082  91.716  -9.548  1.00  0.00    -0.545 OA
ATOM     11  O   UNL     1      -5.911  89.621  -9.937  1.00  0.00    -0.545 OA
ENDBRANCH   8   9
ENDBRANCH   1   7
BRANCH   6  12
ATOM     12  O   UNL     1      -3.720  90.759 -18.176  1.00  0.00    -0.508 OA
ATOM     13  H   UNL     1      -3.993  90.090 -18.886  1.00  0.00     0.293 HD
ENDBRANCH   6  12
TORSDOF 3
ENDMDL
MODEL 8
REMARK VINA RESULT:    -3.652      6.207      6.886
REMARK INTER + INTRA:          -4.340
REMARK INTER:                  -4.195
REMARK INTRA:                  -0.145
REMARK UNBOUND:                -0.154
REMARK SMILES O=C([O-])C=Cc1ccc(O)cc1
REMARK SMILES IDX 6 1 7 2 12 3 8 4 11 5 9 6 5 7 4 8 2 9 1 10 3 11 10 12
REMARK H PARENT 10 13
REMARK Flexibility Score: inf
ROOT
ATOM      1  C   UNL     1      -4.835  90.693 -12.812  1.00  0.00    -0.025 A 
ATOM      2  C   UNL     1      -3.925  91.301 -13.693  1.00  0.00     0.012 A 
ATOM      3  C   UNL     1      -5.781  89.785 -13.332  1.00  0.00     0.012 A 
ATOM      4  C   UNL     1      -3.939  90.993 -15.056  1.00  0.00     0.047 A 
ATOM      5  C   UNL     1      -5.792  89.480 -14.696  1.00  0.00     0.047 A 
ATOM      6  C   UNL     1      -4.872  90.078 -15.561  1.00  0.00     0.115 A 
ENDROOT
BRANCH   1   7
ATOM      7  C   UNL     1      -4.787  91.061 -11.375  1.00  0.00     0.010 C 
ATOM      8  C   UNL     1      -4.727  92.324 -10.931  1.00  0.00     0.025 C 
BRANCH   8   9
ATOM      9  C   UNL     1      -4.694  92.642  -9.495  1.00  0.00     0.064 C 
ATOM     10  O   UNL     1      -5.478  92.049  -8.709  1.00  0.00    -0.545 OA
ATOM     11  O   UNL     1      -3.811  93.589  -8.989  1.00  0.00    -0.545 OA
ENDBRANCH   8   9
ENDBRANCH   1   7
BRANCH   6  12
ATOM     12  O   UNL     1      -4.896  89.762 -16.917  1.00  0.00    -0.508 OA
ATOM     13  H   UNL     1      -5.549  89.085 -17.292  1.00  0.00     0.293 HD
ENDBRANCH   6  12
TORSDOF 3
ENDMDL
MODEL 9
REMARK VINA RESULT:    -3.568      2.242      2.808
REMARK INTER + INTRA:          -4.244
REMARK INTER:                  -4.101
REMARK INTRA:                  -0.143
REMARK UNBOUND:                -0.154
REMARK SMILES O=C([O-])C=Cc1ccc(O)cc1
REMARK SMILES IDX 6 1 7 2 12 3 8 4 11 5 9 6 5 7 4 8 2 9 1 10 3 11 10 12
REMARK H PARENT 10 13
REMARK Flexibility Score: inf
ROOT
ATOM      1  C   UNL     1      -5.134  84.990  -9.708  1.00  0.00    -0.025 A 
ATOM      2  C   UNL     1      -5.514  83.703 -10.124  1.00  0.00     0.012 A 
ATOM      3  C   UNL     1      -3.998  85.130  -8.885  1.00  0.00     0.012 A 
ATOM      4  C   UNL     1      -4.765  82.584  -9.750  1.00  0.00     0.047 A 
ATOM      5  C   UNL     1      -3.252  84.008  -8.512  1.00  0.00     0.047 A 
ATOM      6  C   UNL     1      -3.630  82.734  -8.945  1.00  0.00     0.115 A 
ENDROOT
BRANCH   1   7
ATOM      7  C   UNL     1      -5.967  86.146 -10.123  1.00  0.00     0.010 C 
ATOM      8  C   UNL     1      -5.933  87.343  -9.523  1.00  0.00     0.025 C 
BRANCH   8   9
ATOM      9  C   UNL     1      -6.769  88.465  -9.977  1.00  0.00     0.064 C 
ATOM     10  O   UNL     1      -6.945  89.454  -9.219  1.00  0.00    -0.545 OA
ATOM     11  O   UNL     1      -7.373  88.451 -11.229  1.00  0.00    -0.545 OA
ENDBRANCH   8   9
ENDBRANCH   1   7
BRANCH   6  12
ATOM     12  O   UNL     1      -2.875  81.626  -8.566  1.00  0.00    -0.508 OA
ATOM     13  H   UNL     1      -2.504  81.534  -7.628  1.00  0.00     0.293 HD
ENDBRANCH   6  12
TORSDOF 3
ENDMDL
