MODEL 1
REMARK VINA RESULT:    -3.976      0.000      0.000
REMARK INTER + INTRA:          -7.724
REMARK INTER:                  -6.300
REMARK INTRA:                  -1.424
REMARK UNBOUND:                -1.424
REMARK SMILES CCCCCCCCCCCC(=O)[O-]
REMARK SMILES IDX 7 1 8 2 9 3 10 4 11 5 12 6 13 7 14 8 6 9 5 10 4 11 3 12 2 13
REMARK SMILES IDX 1 14
REMARK H PARENT
REMARK Flexibility Score: inf
ROOT
ATOM      1  C   UNL     1      18.863  10.697   5.752  1.00  0.00     0.000 C 
ENDROOT
BRANCH   1   2
ATOM      2  C   UNL     1      19.702  10.785   7.037  1.00  0.00     0.000 C 
BRANCH   2   3
ATOM      3  C   UNL     1      20.238   9.417   7.500  1.00  0.00     0.000 C 
BRANCH   3   4
ATOM      4  C   UNL     1      19.915   8.236   6.565  1.00  0.00     0.006 C 
BRANCH   4   5
ATOM      5  C   UNL     1      19.602   6.940   7.323  1.00  0.00     0.053 C 
BRANCH   5   6
ATOM      6  C   UNL     1      18.124   6.716   7.385  1.00  0.00     0.041 C 
ATOM      7  O   UNL     1      17.586   5.830   6.670  1.00  0.00    -0.550 OA
ATOM      8  O   UNL     1      17.346   7.453   8.269  1.00  0.00    -0.550 OA
ENDBRANCH   5   6
ENDBRANCH   4   5
ENDBRANCH   3   4
ENDBRANCH   2   3
ENDBRANCH   1   2
BRANCH   1   9
ATOM      9  C   UNL     1      17.352  10.850   6.009  1.00  0.00     0.000 C 
BRANCH   9  10
ATOM     10  C   UNL     1      16.497   9.618   5.654  1.00  0.00    -0.000 C 
BRANCH  10  11
ATOM     11  C   UNL     1      16.524   9.279   4.157  1.00  0.00    -0.000 C 
BRANCH  11  12
ATOM     12  C   UNL     1      17.060   7.861   3.924  1.00  0.00    -0.000 C 
BRANCH  12  13
ATOM     13  C   UNL     1      18.425   7.897   3.226  1.00  0.00    -0.003 C 
ATOM     14  C   UNL     1      18.586   9.167   2.395  1.00  0.00     0.004 C 
ENDBRANCH  12  13
ENDBRANCH  11  12
ENDBRANCH  10  11
ENDBRANCH   9  10
ENDBRANCH   1   9
TORSDOF 10
ENDMDL
MODEL 2
REMARK VINA RESULT:    -3.957      1.822      4.284
REMARK INTER + INTRA:          -7.694
REMARK INTER:                  -6.199
REMARK INTRA:                  -1.495
REMARK UNBOUND:                -1.424
REMARK SMILES CCCCCCCCCCCC(=O)[O-]
REMARK SMILES IDX 7 1 8 2 9 3 10 4 11 5 12 6 13 7 14 8 6 9 5 10 4 11 3 12 2 13
REMARK SMILES IDX 1 14
REMARK H PARENT
REMARK Flexibility Score: inf
ROOT
ATOM      1  C   UNL     1      18.802  10.324   5.627  1.00  0.00     0.000 C 
ENDROOT
BRANCH   1   2
ATOM      2  C   UNL     1      17.316  10.654   5.844  1.00  0.00     0.000 C 
BRANCH   2   3
ATOM      3  C   UNL     1      16.379   9.502   5.436  1.00  0.00     0.000 C 
BRANCH   3   4
ATOM      4  C   UNL     1      16.443   9.100   3.950  1.00  0.00     0.006 C 
BRANCH   4   5
ATOM      5  C   UNL     1      16.855   7.637   3.742  1.00  0.00     0.053 C 
BRANCH   5   6
ATOM      6  C   UNL     1      18.185   7.562   3.061  1.00  0.00     0.041 C 
ATOM      7  O   UNL     1      18.973   6.613   3.315  1.00  0.00    -0.550 OA
ATOM      8  O   UNL     1      18.534   8.511   2.110  1.00  0.00    -0.550 OA
ENDBRANCH   5   6
ENDBRANCH   4   5
ENDBRANCH   3   4
ENDBRANCH   2   3
ENDBRANCH   1   2
BRANCH   1   9
ATOM      9  C   UNL     1      19.630  10.396   6.923  1.00  0.00     0.000 C 
BRANCH   9  10
ATOM     10  C   UNL     1      20.181   9.048   7.425  1.00  0.00    -0.000 C 
BRANCH  10  11
ATOM     11  C   UNL     1      19.846   7.876   6.492  1.00  0.00    -0.000 C 
BRANCH  11  12
ATOM     12  C   UNL     1      19.347   6.664   7.288  1.00  0.00    -0.000 C 
BRANCH  12  13
ATOM     13  C   UNL     1      17.860   6.402   7.019  1.00  0.00    -0.003 C 
ATOM     14  C   UNL     1      16.985   7.031   8.099  1.00  0.00     0.004 C 
ENDBRANCH  12  13
ENDBRANCH  11  12
ENDBRANCH  10  11
ENDBRANCH   9  10
ENDBRANCH   1   9
TORSDOF 10
ENDMDL
MODEL 3
REMARK VINA RESULT:    -3.951      2.628      3.970
REMARK INTER + INTRA:          -7.685
REMARK INTER:                  -6.149
REMARK INTRA:                  -1.536
REMARK UNBOUND:                -1.424
REMARK SMILES CCCCCCCCCCCC(=O)[O-]
REMARK SMILES IDX 7 1 8 2 9 3 10 4 11 5 12 6 13 7 14 8 6 9 5 10 4 11 3 12 2 13
REMARK SMILES IDX 1 14
REMARK H PARENT
REMARK Flexibility Score: inf
ROOT
ATOM      1  C   UNL     1      20.035   8.135   6.866  1.00  0.00     0.000 C 
ENDROOT
BRANCH   1   2
ATOM      2  C   UNL     1      19.509   9.452   7.460  1.00  0.00     0.000 C 
BRANCH   2   3
ATOM      3  C   UNL     1      19.347  10.564   6.407  1.00  0.00     0.000 C 
BRANCH   3   4
ATOM      4  C   UNL     1      18.205  10.350   5.396  1.00  0.00     0.006 C 
BRANCH   4   5
ATOM      5  C   UNL     1      18.674  10.418   3.938  1.00  0.00     0.053 C 
BRANCH   5   6
ATOM      6  C   UNL     1      17.507  10.318   3.008  1.00  0.00     0.041 C 
ATOM      7  O   UNL     1      16.343  10.565   3.423  1.00  0.00    -0.550 OA
ATOM      8  O   UNL     1      17.707   9.999   1.671  1.00  0.00    -0.550 OA
ENDBRANCH   5   6
ENDBRANCH   4   5
ENDBRANCH   3   4
ENDBRANCH   2   3
ENDBRANCH   1   2
BRANCH   1   9
ATOM      9  C   UNL     1      19.184   6.914   7.261  1.00  0.00     0.000 C 
BRANCH   9  10
ATOM     10  C   UNL     1      17.705   7.217   7.570  1.00  0.00    -0.000 C 
BRANCH  10  11
ATOM     11  C   UNL     1      16.801   7.121   6.334  1.00  0.00    -0.000 C 
BRANCH  11  12
ATOM     12  C   UNL     1      17.347   6.099   5.330  1.00  0.00    -0.000 C 
BRANCH  12  13
ATOM     13  C   UNL     1      17.496   6.721   3.936  1.00  0.00    -0.003 C 
ATOM     14  C   UNL     1      18.961   6.775   3.511  1.00  0.00     0.004 C 
ENDBRANCH  12  13
ENDBRANCH  11  12
ENDBRANCH  10  11
ENDBRANCH   9  10
ENDBRANCH   1   9
TORSDOF 10
ENDMDL
MODEL 4
REMARK VINA RESULT:    -3.933      2.529      4.590
REMARK INTER + INTRA:          -7.657
REMARK INTER:                  -6.392
REMARK INTRA:                  -1.265
REMARK UNBOUND:                -1.424
REMARK SMILES CCCCCCCCCCCC(=O)[O-]
REMARK SMILES IDX 7 1 8 2 9 3 10 4 11 5 12 6 13 7 14 8 6 9 5 10 4 11 3 12 2 13
REMARK SMILES IDX 1 14
REMARK H PARENT
REMARK Flexibility Score: inf
ROOT
ATOM      1  C   UNL     1      17.858   9.402   4.575  1.00  0.00     0.000 C 
ENDROOT
BRANCH   1   2
ATOM      2  C   UNL     1      16.601   9.259   5.448  1.00  0.00     0.000 C 
BRANCH   2   3
ATOM      3  C   UNL     1      16.283   7.796   5.809  1.00  0.00     0.000 C 
BRANCH   3   4
ATOM      4  C   UNL     1      16.877   6.742   4.857  1.00  0.00     0.006 C 
BRANCH   4   5
ATOM      5  C   UNL     1      15.876   6.250   3.805  1.00  0.00     0.053 C 
BRANCH   5   6
ATOM      6  C   UNL     1      16.297   6.688   2.438  1.00  0.00     0.041 C 
ATOM      7  O   UNL     1      15.930   7.807   1.990  1.00  0.00    -0.550 OA
ATOM      8  O   UNL     1      17.136   5.884   1.677  1.00  0.00    -0.550 OA
ENDBRANCH   5   6
ENDBRANCH   4   5
ENDBRANCH   3   4
ENDBRANCH   2   3
ENDBRANCH   1   2
BRANCH   1   9
ATOM      9  C   UNL     1      18.761  10.572   5.007  1.00  0.00     0.000 C 
BRANCH   9  10
ATOM     10  C   UNL     1      18.687  10.942   6.500  1.00  0.00    -0.000 C 
BRANCH  10  11
ATOM     11  C   UNL     1      20.000  10.678   7.251  1.00  0.00    -0.000 C 
BRANCH  11  12
ATOM     12  C   UNL     1      19.884   9.432   8.139  1.00  0.00    -0.000 C 
BRANCH  12  13
ATOM     13  C   UNL     1      20.789   8.305   7.625  1.00  0.00    -0.003 C 
ATOM     14  C   UNL     1      20.005   7.319   6.764  1.00  0.00     0.004 C 
ENDBRANCH  12  13
ENDBRANCH  11  12
ENDBRANCH  10  11
ENDBRANCH   9  10
ENDBRANCH   1   9
TORSDOF 10
ENDMDL
MODEL 5
REMARK VINA RESULT:    -3.889      2.346      4.943
REMARK INTER + INTRA:          -7.586
REMARK INTER:                  -6.096
REMARK INTRA:                  -1.490
REMARK UNBOUND:                -1.424
REMARK SMILES CCCCCCCCCCCC(=O)[O-]
REMARK SMILES IDX 7 1 8 2 9 3 10 4 11 5 12 6 13 7 14 8 6 9 5 10 4 11 3 12 2 13
REMARK SMILES IDX 1 14
REMARK H PARENT
REMARK Flexibility Score: inf
ROOT
ATOM      1  C   UNL     1      17.776   6.547   6.031  1.00  0.00     0.000 C 
ENDROOT
BRANCH   1   2
ATOM      2  C   UNL     1      16.310   6.982   6.190  1.00  0.00     0.000 C 
BRANCH   2   3
ATOM      3  C   UNL     1      15.960   8.231   5.359  1.00  0.00     0.000 C 
BRANCH   3   4
ATOM      4  C   UNL     1      16.167   8.087   3.840  1.00  0.00     0.006 C 
BRANCH   4   5
ATOM      5  C   UNL     1      17.042   9.197   3.246  1.00  0.00     0.053 C 
BRANCH   5   6
ATOM      6  C   UNL     1      18.204   8.610   2.510  1.00  0.00     0.041 C 
ATOM      7  O   UNL     1      18.939   7.752   3.068  1.00  0.00    -0.550 OA
ATOM      8  O   UNL     1      18.448   8.972   1.191  1.00  0.00    -0.550 OA
ENDBRANCH   5   6
ENDBRANCH   4   5
ENDBRANCH   3   4
ENDBRANCH   2   3
ENDBRANCH   1   2
BRANCH   1   9
ATOM      9  C   UNL     1      18.669   7.002   7.200  1.00  0.00     0.000 C 
BRANCH   9  10
ATOM     10  C   UNL     1      19.914   7.816   6.798  1.00  0.00    -0.000 C 
BRANCH  10  11
ATOM     11  C   UNL     1      19.821   9.294   7.201  1.00  0.00    -0.000 C 
BRANCH  11  12
ATOM     12  C   UNL     1      19.181  10.129   6.085  1.00  0.00    -0.000 C 
BRANCH  12  13
ATOM     13  C   UNL     1      17.944  10.876   6.596  1.00  0.00    -0.003 C 
ATOM     14  C   UNL     1      17.585  10.441   8.015  1.00  0.00     0.004 C 
ENDBRANCH  12  13
ENDBRANCH  11  12
ENDBRANCH  10  11
ENDBRANCH   9  10
ENDBRANCH   1   9
TORSDOF 10
ENDMDL
MODEL 6
REMARK VINA RESULT:    -3.888      2.818      4.544
REMARK INTER + INTRA:          -7.584
REMARK INTER:                  -5.910
REMARK INTRA:                  -1.675
REMARK UNBOUND:                -1.424
REMARK SMILES CCCCCCCCCCCC(=O)[O-]
REMARK SMILES IDX 7 1 8 2 9 3 10 4 11 5 12 6 13 7 14 8 6 9 5 10 4 11 3 12 2 13
REMARK SMILES IDX 1 14
REMARK H PARENT
REMARK Flexibility Score: inf
ROOT
ATOM      1  C   UNL     1      18.847  10.427   6.164  1.00  0.00     0.000 C 
ENDROOT
BRANCH   1   2
ATOM      2  C   UNL     1      17.388  10.525   5.690  1.00  0.00     0.000 C 
BRANCH   2   3
ATOM      3  C   UNL     1      17.242  10.401   4.162  1.00  0.00     0.000 C 
BRANCH   3   4
ATOM      4  C   UNL     1      18.561  10.206   3.391  1.00  0.00     0.006 C 
BRANCH   4   5
ATOM      5  C   UNL     1      18.589   8.912   2.568  1.00  0.00     0.053 C 
BRANCH   5   6
ATOM      6  C   UNL     1      17.663   9.016   1.399  1.00  0.00     0.041 C 
ATOM      7  O   UNL     1      16.768   8.148   1.219  1.00  0.00    -0.550 OA
ATOM      8  O   UNL     1      17.755  10.099   0.533  1.00  0.00    -0.550 OA
ENDBRANCH   5   6
ENDBRANCH   4   5
ENDBRANCH   3   4
ENDBRANCH   2   3
ENDBRANCH   1   2
BRANCH   1   9
ATOM      9  C   UNL     1      19.097   9.230   7.099  1.00  0.00     0.000 C 
BRANCH   9  10
ATOM     10  C   UNL     1      19.748   8.002   6.435  1.00  0.00    -0.000 C 
BRANCH  10  11
ATOM     11  C   UNL     1      18.724   7.047   5.803  1.00  0.00    -0.000 C 
BRANCH  11  12
ATOM     12  C   UNL     1      17.560   6.775   6.764  1.00  0.00    -0.000 C 
BRANCH  12  13
ATOM     13  C   UNL     1      16.214   7.099   6.104  1.00  0.00    -0.003 C 
ATOM     14  C   UNL     1      16.219   6.716   4.626  1.00  0.00     0.004 C 
ENDBRANCH  12  13
ENDBRANCH  11  12
ENDBRANCH  10  11
ENDBRANCH   9  10
ENDBRANCH   1   9
TORSDOF 10
ENDMDL
MODEL 7
REMARK VINA RESULT:    -3.883      2.429      4.698
REMARK INTER + INTRA:          -7.577
REMARK INTER:                  -6.236
REMARK INTRA:                  -1.341
REMARK UNBOUND:                -1.424
REMARK SMILES CCCCCCCCCCCC(=O)[O-]
REMARK SMILES IDX 7 1 8 2 9 3 10 4 11 5 12 6 13 7 14 8 6 9 5 10 4 11 3 12 2 13
REMARK SMILES IDX 1 14
REMARK H PARENT
REMARK Flexibility Score: inf
ROOT
ATOM      1  C   UNL     1      17.399   6.718   6.900  1.00  0.00     0.000 C 
ENDROOT
BRANCH   1   2
ATOM      2  C   UNL     1      16.743   6.727   5.509  1.00  0.00     0.000 C 
BRANCH   2   3
ATOM      3  C   UNL     1      17.693   6.253   4.393  1.00  0.00     0.000 C 
BRANCH   3   4
ATOM      4  C   UNL     1      18.734   7.291   3.933  1.00  0.00     0.006 C 
BRANCH   4   5
ATOM      5  C   UNL     1      18.344   7.995   2.628  1.00  0.00     0.053 C 
BRANCH   5   6
ATOM      6  C   UNL     1      17.771   9.346   2.915  1.00  0.00     0.041 C 
ATOM      7  O   UNL     1      16.526   9.496   3.030  1.00  0.00    -0.550 OA
ATOM      8  O   UNL     1      18.616  10.433   3.104  1.00  0.00    -0.550 OA
ENDBRANCH   5   6
ENDBRANCH   4   5
ENDBRANCH   3   4
ENDBRANCH   2   3
ENDBRANCH   1   2
BRANCH   1   9
ATOM      9  C   UNL     1      17.563   8.128   7.497  1.00  0.00     0.000 C 
BRANCH   9  10
ATOM     10  C   UNL     1      16.925   9.266   6.677  1.00  0.00    -0.000 C 
BRANCH  10  11
ATOM     11  C   UNL     1      17.852  10.478   6.509  1.00  0.00    -0.000 C 
BRANCH  11  12
ATOM     12  C   UNL     1      19.324  10.050   6.514  1.00  0.00    -0.000 C 
BRANCH  12  13
ATOM     13  C   UNL     1      20.139  10.889   7.505  1.00  0.00    -0.003 C 
ATOM     14  C   UNL     1      20.842  10.003   8.529  1.00  0.00     0.004 C 
ENDBRANCH  12  13
ENDBRANCH  11  12
ENDBRANCH  10  11
ENDBRANCH   9  10
ENDBRANCH   1   9
TORSDOF 10
ENDMDL
MODEL 8
REMARK VINA RESULT:    -3.839      1.849      3.064
REMARK INTER + INTRA:          -7.507
REMARK INTER:                  -5.953
REMARK INTRA:                  -1.553
REMARK UNBOUND:                -1.424
REMARK SMILES CCCCCCCCCCCC(=O)[O-]
REMARK SMILES IDX 7 1 8 2 9 3 10 4 11 5 12 6 13 7 14 8 6 9 5 10 4 11 3 12 2 13
REMARK SMILES IDX 1 14
REMARK H PARENT
REMARK Flexibility Score: inf
ROOT
ATOM      1  C   UNL     1      17.904   6.992   7.697  1.00  0.00     0.000 C 
ENDROOT
BRANCH   1   2
ATOM      2  C   UNL     1      19.377   6.968   7.256  1.00  0.00     0.000 C 
BRANCH   2   3
ATOM      3  C   UNL     1      20.099   8.308   7.497  1.00  0.00     0.000 C 
BRANCH   3   4
ATOM      4  C   UNL     1      19.765   9.423   6.488  1.00  0.00     0.006 C 
BRANCH   4   5
ATOM      5  C   UNL     1      19.244  10.701   7.157  1.00  0.00     0.053 C 
BRANCH   5   6
ATOM      6  C   UNL     1      17.749  10.713   7.169  1.00  0.00     0.041 C 
ATOM      7  O   UNL     1      17.109  10.955   6.111  1.00  0.00    -0.550 OA
ATOM      8  O   UNL     1      17.060  10.408   8.336  1.00  0.00    -0.550 OA
ENDBRANCH   5   6
ENDBRANCH   4   5
ENDBRANCH   3   4
ENDBRANCH   2   3
ENDBRANCH   1   2
BRANCH   1   9
ATOM      9  C   UNL     1      16.942   6.482   6.609  1.00  0.00     0.000 C 
BRANCH   9  10
ATOM     10  C   UNL     1      16.148   7.576   5.869  1.00  0.00    -0.000 C 
BRANCH  10  11
ATOM     11  C   UNL     1      16.475   7.647   4.371  1.00  0.00    -0.000 C 
BRANCH  11  12
ATOM     12  C   UNL     1      17.569   6.638   3.999  1.00  0.00    -0.000 C 
BRANCH  12  13
ATOM     13  C   UNL     1      18.775   7.343   3.366  1.00  0.00    -0.003 C 
ATOM     14  C   UNL     1      18.481   8.820   3.115  1.00  0.00     0.004 C 
ENDBRANCH  12  13
ENDBRANCH  11  12
ENDBRANCH  10  11
ENDBRANCH   9  10
ENDBRANCH   1   9
TORSDOF 10
ENDMDL
MODEL 9
REMARK VINA RESULT:    -3.822      1.311      2.128
REMARK INTER + INTRA:          -7.480
REMARK INTER:                  -6.100
REMARK INTRA:                  -1.381
REMARK UNBOUND:                -1.424
REMARK SMILES CCCCCCCCCCCC(=O)[O-]
REMARK SMILES IDX 7 1 8 2 9 3 10 4 11 5 12 6 13 7 14 8 6 9 5 10 4 11 3 12 2 13
REMARK SMILES IDX 1 14
REMARK H PARENT
REMARK Flexibility Score: inf
ROOT
ATOM      1  C   UNL     1      17.211  10.494   3.830  1.00  0.00     0.000 C 
ENDROOT
BRANCH   1   2
ATOM      2  C   UNL     1      18.517   9.940   4.423  1.00  0.00     0.000 C 
BRANCH   2   3
ATOM      3  C   UNL     1      18.913  10.620   5.747  1.00  0.00     0.000 C 
BRANCH   3   4
ATOM      4  C   UNL     1      19.636   9.712   6.760  1.00  0.00     0.006 C 
BRANCH   4   5
ATOM      5  C   UNL     1      19.476   8.220   6.449  1.00  0.00     0.053 C 
BRANCH   5   6
ATOM      6  C   UNL     1      18.510   7.588   7.400  1.00  0.00     0.041 C 
ATOM      7  O   UNL     1      18.577   6.355   7.647  1.00  0.00    -0.550 OA
ATOM      8  O   UNL     1      17.565   8.370   8.054  1.00  0.00    -0.550 OA
ENDBRANCH   5   6
ENDBRANCH   4   5
ENDBRANCH   3   4
ENDBRANCH   2   3
ENDBRANCH   1   2
BRANCH   1   9
ATOM      9  C   UNL     1      16.158   9.402   3.567  1.00  0.00     0.000 C 
BRANCH   9  10
ATOM     10  C   UNL     1      16.108   8.273   4.614  1.00  0.00    -0.000 C 
BRANCH  10  11
ATOM     11  C   UNL     1      16.113   6.871   3.988  1.00  0.00    -0.000 C 
BRANCH  11  12
ATOM     12  C   UNL     1      17.469   6.184   4.189  1.00  0.00    -0.000 C 
BRANCH  12  13
ATOM     13  C   UNL     1      18.409   6.465   3.011  1.00  0.00    -0.003 C 
ATOM     14  C   UNL     1      17.674   6.350   1.679  1.00  0.00     0.004 C 
ENDBRANCH  12  13
ENDBRANCH  11  12
ENDBRANCH  10  11
ENDBRANCH   9  10
ENDBRANCH   1   9
TORSDOF 10
ENDMDL
