MODEL 1
REMARK VINA RESULT:    -6.721      0.000      0.000
REMARK INTER + INTRA:          -8.170
REMARK INTER:                  -8.097
REMARK INTRA:                  -0.074
REMARK UNBOUND:                -0.074
REMARK SMILES O=c1c(O)c(-c2ccc(O)cc2O)oc2cc(O)cc(O)c12
REMARK SMILES IDX 5 1 3 2 2 3 1 4 22 5 20 6 19 7 17 8 16 9 15 10 14 11 6 12
REMARK SMILES IDX 8 13 7 14 9 15 11 16 12 17 10 18 13 20 4 22 21 24 18 26
REMARK H PARENT 10 19 13 21 4 23 21 25 18 27
REMARK Flexibility Score: inf
ROOT
ATOM      1  C   UNL     1       7.837  -3.621  -7.956  1.00  0.00     0.184 A 
ATOM      2  C   UNL     1       7.644  -3.031  -6.695  1.00  0.00     0.208 A 
ATOM      3  C   UNL     1       6.370  -3.080  -6.108  1.00  0.00     0.238 A 
ATOM      4  O   UNL     1       6.217  -2.599  -4.955  1.00  0.00    -0.285 OA
ATOM      5  C   UNL     1       5.300  -3.702  -6.797  1.00  0.00     0.111 A 
ATOM      6  C   UNL     1       3.958  -3.775  -6.314  1.00  0.00     0.134 A 
ATOM      7  C   UNL     1       3.011  -4.526  -7.021  1.00  0.00     0.093 A 
ATOM      8  C   UNL     1       3.340  -5.151  -8.226  1.00  0.00     0.123 A 
ATOM      9  C   UNL     1       4.631  -5.036  -8.735  1.00  0.00     0.094 A 
ATOM     10  C   UNL     1       5.609  -4.325  -8.035  1.00  0.00     0.146 A 
ATOM     11  O   UNL     1       6.829  -4.250  -8.549  1.00  0.00    -0.451 OA
ENDROOT
BRANCH   1  12
ATOM     12  C   UNL     1       9.148  -3.584  -8.643  1.00  0.00     0.063 A 
ATOM     13  C   UNL     1      11.164  -2.376  -9.279  1.00  0.00     0.047 A 
ATOM     14  C   UNL     1       9.939  -2.422  -8.608  1.00  0.00     0.020 A 
ATOM     15  C   UNL     1      11.610  -3.487 -10.003  1.00  0.00     0.119 A 
ATOM     16  C   UNL     1      10.826  -4.642 -10.055  1.00  0.00     0.093 A 
ATOM     17  C   UNL     1       9.597  -4.698  -9.382  1.00  0.00     0.130 A 
BRANCH  15  18
ATOM     18  O   UNL     1      12.830  -3.453 -10.675  1.00  0.00    -0.508 OA
ATOM     19  H   UNL     1      12.947  -2.927 -11.534  1.00  0.00     0.293 HD
ENDBRANCH  15  18
BRANCH  17  20
ATOM     20  O   UNL     1       8.828  -5.860  -9.438  1.00  0.00    -0.507 OA
ATOM     21  H   UNL     1       8.144  -6.011 -10.170  1.00  0.00     0.293 HD
ENDBRANCH  17  20
ENDBRANCH   1  12
BRANCH   2  22
ATOM     22  O   UNL     1       8.718  -2.434  -6.029  1.00  0.00    -0.502 OA
ATOM     23  H   UNL     1       8.931  -2.629  -5.058  1.00  0.00     0.293 HD
ENDBRANCH   2  22
BRANCH   6  24
ATOM     24  O   UNL     1       3.503  -3.112  -5.171  1.00  0.00    -0.507 OA
ATOM     25  H   UNL     1       3.996  -2.366  -4.704  1.00  0.00     0.293 HD
ENDBRANCH   6  24
BRANCH   8  26
ATOM     26  O   UNL     1       2.387  -5.883  -8.931  1.00  0.00    -0.508 OA
ATOM     27  H   UNL     1       2.236  -5.739  -9.923  1.00  0.00     0.293 HD
ENDBRANCH   8  26
TORSDOF 6
ENDMDL
MODEL 2
REMARK VINA RESULT:    -6.604      2.031      3.154
REMARK INTER + INTRA:          -8.029
REMARK INTER:                  -7.692
REMARK INTRA:                  -0.337
REMARK UNBOUND:                -0.074
REMARK SMILES O=c1c(O)c(-c2ccc(O)cc2O)oc2cc(O)cc(O)c12
REMARK SMILES IDX 5 1 3 2 2 3 1 4 22 5 20 6 19 7 17 8 16 9 15 10 14 11 6 12
REMARK SMILES IDX 8 13 7 14 9 15 11 16 12 17 10 18 13 20 4 22 21 24 18 26
REMARK H PARENT 10 19 13 21 4 23 21 25 18 27
REMARK Flexibility Score: inf
ROOT
ATOM      1  C   UNL     1       7.998  -3.226  -8.163  1.00  0.00     0.184 A 
ATOM      2  C   UNL     1       7.247  -4.305  -8.662  1.00  0.00     0.208 A 
ATOM      3  C   UNL     1       5.847  -4.258  -8.576  1.00  0.00     0.238 A 
ATOM      4  O   UNL     1       5.179  -5.200  -9.075  1.00  0.00    -0.285 OA
ATOM      5  C   UNL     1       5.215  -3.142  -7.974  1.00  0.00     0.111 A 
ATOM      6  C   UNL     1       3.805  -3.007  -7.797  1.00  0.00     0.134 A 
ATOM      7  C   UNL     1       3.284  -1.805  -7.305  1.00  0.00     0.093 A 
ATOM      8  C   UNL     1       4.125  -0.757  -6.923  1.00  0.00     0.123 A 
ATOM      9  C   UNL     1       5.505  -0.901  -7.036  1.00  0.00     0.094 A 
ATOM     10  C   UNL     1       6.055  -2.076  -7.558  1.00  0.00     0.146 A 
ATOM     11  O   UNL     1       7.374  -2.168  -7.660  1.00  0.00    -0.451 OA
ENDROOT
BRANCH   1  12
ATOM     12  C   UNL     1       9.478  -3.221  -8.199  1.00  0.00     0.063 A 
ATOM     13  C   UNL     1      11.617  -3.346  -7.044  1.00  0.00     0.047 A 
ATOM     14  C   UNL     1      10.221  -3.378  -7.015  1.00  0.00     0.020 A 
ATOM     15  C   UNL     1      12.291  -3.147  -8.254  1.00  0.00     0.119 A 
ATOM     16  C   UNL     1      11.563  -2.978  -9.434  1.00  0.00     0.093 A 
ATOM     17  C   UNL     1      10.160  -3.011  -9.415  1.00  0.00     0.130 A 
BRANCH  15  18
ATOM     18  O   UNL     1      13.684  -3.114  -8.294  1.00  0.00    -0.508 OA
ATOM     19  H   UNL     1      14.230  -3.960  -8.412  1.00  0.00     0.293 HD
ENDBRANCH  15  18
BRANCH  17  20
ATOM     20  O   UNL     1       9.447  -2.846 -10.602  1.00  0.00    -0.507 OA
ATOM     21  H   UNL     1       9.567  -3.475 -11.387  1.00  0.00     0.293 HD
ENDBRANCH  17  20
ENDBRANCH   1  12
BRANCH   2  22
ATOM     22  O   UNL     1       7.893  -5.388  -9.264  1.00  0.00    -0.502 OA
ATOM     23  H   UNL     1       8.869  -5.601  -9.096  1.00  0.00     0.293 HD
ENDBRANCH   2  22
BRANCH   6  24
ATOM     24  O   UNL     1       2.884  -4.025  -8.062  1.00  0.00    -0.507 OA
ATOM     25  H   UNL     1       2.879  -4.595  -8.895  1.00  0.00     0.293 HD
ENDBRANCH   6  24
BRANCH   8  26
ATOM     26  O   UNL     1       3.598   0.430  -6.419  1.00  0.00    -0.508 OA
ATOM     27  H   UNL     1       3.534   1.265  -6.990  1.00  0.00     0.293 HD
ENDBRANCH   8  26
TORSDOF 6
ENDMDL
MODEL 3
REMARK VINA RESULT:    -6.537      1.483      1.600
REMARK INTER + INTRA:          -7.948
REMARK INTER:                  -7.643
REMARK INTRA:                  -0.305
REMARK UNBOUND:                -0.074
REMARK SMILES O=c1c(O)c(-c2ccc(O)cc2O)oc2cc(O)cc(O)c12
REMARK SMILES IDX 5 1 3 2 2 3 1 4 22 5 20 6 19 7 17 8 16 9 15 10 14 11 6 12
REMARK SMILES IDX 8 13 7 14 9 15 11 16 12 17 10 18 13 20 4 22 21 24 18 26
REMARK H PARENT 10 19 13 21 4 23 21 25 18 27
REMARK Flexibility Score: inf
ROOT
ATOM      1  C   UNL     1       8.644  -3.073  -7.675  1.00  0.00     0.184 A 
ATOM      2  C   UNL     1       8.177  -2.121  -6.752  1.00  0.00     0.208 A 
ATOM      3  C   UNL     1       6.803  -2.067  -6.465  1.00  0.00     0.238 A 
ATOM      4  O   UNL     1       6.399  -1.252  -5.597  1.00  0.00    -0.285 OA
ATOM      5  C   UNL     1       5.912  -2.952  -7.120  1.00  0.00     0.111 A 
ATOM      6  C   UNL     1       4.496  -2.958  -6.937  1.00  0.00     0.134 A 
ATOM      7  C   UNL     1       3.727  -3.962  -7.539  1.00  0.00     0.093 A 
ATOM      8  C   UNL     1       4.314  -4.919  -8.371  1.00  0.00     0.123 A 
ATOM      9  C   UNL     1       5.687  -4.884  -8.603  1.00  0.00     0.094 A 
ATOM     10  C   UNL     1       6.487  -3.918  -7.987  1.00  0.00     0.146 A 
ATOM     11  O   UNL     1       7.791  -3.928  -8.226  1.00  0.00    -0.451 OA
ENDROOT
BRANCH   1  12
ATOM     12  C   UNL     1      10.076  -3.168  -8.041  1.00  0.00     0.063 A 
ATOM     13  C   UNL     1      12.406  -3.437  -7.392  1.00  0.00     0.047 A 
ATOM     14  C   UNL     1      11.053  -3.373  -7.051  1.00  0.00     0.020 A 
ATOM     15  C   UNL     1      12.803  -3.286  -8.725  1.00  0.00     0.119 A 
ATOM     16  C   UNL     1      11.841  -3.069  -9.715  1.00  0.00     0.093 A 
ATOM     17  C   UNL     1      10.480  -3.006  -9.382  1.00  0.00     0.130 A 
BRANCH  15  18
ATOM     18  O   UNL     1      14.150  -3.348  -9.077  1.00  0.00    -0.508 OA
ATOM     19  H   UNL     1      14.770  -4.042  -8.675  1.00  0.00     0.293 HD
ENDBRANCH  15  18
BRANCH  17  20
ATOM     20  O   UNL     1       9.531  -2.795 -10.382  1.00  0.00    -0.507 OA
ATOM     21  H   UNL     1       9.732  -2.226 -11.195  1.00  0.00     0.293 HD
ENDBRANCH  17  20
ENDBRANCH   1  12
BRANCH   2  22
ATOM     22  O   UNL     1       9.078  -1.268  -6.108  1.00  0.00    -0.502 OA
ATOM     23  H   UNL     1       9.845  -0.821  -6.595  1.00  0.00     0.293 HD
ENDBRANCH   2  22
BRANCH   6  24
ATOM     24  O   UNL     1       3.800  -1.995  -6.201  1.00  0.00    -0.507 OA
ATOM     25  H   UNL     1       4.031  -1.710  -5.261  1.00  0.00     0.293 HD
ENDBRANCH   6  24
BRANCH   8  26
ATOM     26  O   UNL     1       3.539  -5.904  -8.979  1.00  0.00    -0.508 OA
ATOM     27  H   UNL     1       3.512  -6.852  -8.622  1.00  0.00     0.293 HD
ENDBRANCH   8  26
TORSDOF 6
ENDMDL
MODEL 4
REMARK VINA RESULT:    -6.422      3.686      6.129
REMARK INTER + INTRA:          -7.809
REMARK INTER:                  -7.405
REMARK INTRA:                  -0.404
REMARK UNBOUND:                -0.074
REMARK SMILES O=c1c(O)c(-c2ccc(O)cc2O)oc2cc(O)cc(O)c12
REMARK SMILES IDX 5 1 3 2 2 3 1 4 22 5 20 6 19 7 17 8 16 9 15 10 14 11 6 12
REMARK SMILES IDX 8 13 7 14 9 15 11 16 12 17 10 18 13 20 4 22 21 24 18 26
REMARK H PARENT 10 19 13 21 4 23 21 25 18 27
REMARK Flexibility Score: inf
ROOT
ATOM      1  C   UNL     1       2.750  -2.422  -7.093  1.00  0.00     0.184 A 
ATOM      2  C   UNL     1       1.950  -1.619  -7.923  1.00  0.00     0.208 A 
ATOM      3  C   UNL     1       0.816  -0.995  -7.381  1.00  0.00     0.238 A 
ATOM      4  O   UNL     1       0.136  -0.233  -8.115  1.00  0.00    -0.285 OA
ATOM      5  C   UNL     1       0.484  -1.197  -6.019  1.00  0.00     0.111 A 
ATOM      6  C   UNL     1      -0.664  -0.647  -5.373  1.00  0.00     0.134 A 
ATOM      7  C   UNL     1      -0.822  -0.808  -3.992  1.00  0.00     0.093 A 
ATOM      8  C   UNL     1       0.090  -1.556  -3.244  1.00  0.00     0.123 A 
ATOM      9  C   UNL     1       1.182  -2.147  -3.875  1.00  0.00     0.094 A 
ATOM     10  C   UNL     1       1.388  -1.973  -5.246  1.00  0.00     0.146 A 
ATOM     11  O   UNL     1       2.447  -2.544  -5.806  1.00  0.00    -0.451 OA
ENDROOT
BRANCH   1  12
ATOM     12  C   UNL     1       3.945  -3.130  -7.606  1.00  0.00     0.063 A 
ATOM     13  C   UNL     1       6.324  -3.149  -8.125  1.00  0.00     0.047 A 
ATOM     14  C   UNL     1       5.199  -2.493  -7.617  1.00  0.00     0.020 A 
ATOM     15  C   UNL     1       6.209  -4.445  -8.639  1.00  0.00     0.119 A 
ATOM     16  C   UNL     1       4.965  -5.082  -8.644  1.00  0.00     0.093 A 
ATOM     17  C   UNL     1       3.831  -4.432  -8.133  1.00  0.00     0.130 A 
BRANCH  15  18
ATOM     18  O   UNL     1       7.323  -5.109  -9.148  1.00  0.00    -0.508 OA
ATOM     19  H   UNL     1       7.376  -6.121  -9.159  1.00  0.00     0.293 HD
ENDBRANCH  15  18
BRANCH  17  20
ATOM     20  O   UNL     1       2.597  -5.082  -8.140  1.00  0.00    -0.507 OA
ATOM     21  H   UNL     1       2.303  -5.657  -8.920  1.00  0.00     0.293 HD
ENDBRANCH  17  20
ENDBRANCH   1  12
BRANCH   2  22
ATOM     22  O   UNL     1       2.305  -1.424  -9.261  1.00  0.00    -0.502 OA
ATOM     23  H   UNL     1       1.849  -1.913 -10.022  1.00  0.00     0.293 HD
ENDBRANCH   2  22
BRANCH   6  24
ATOM     24  O   UNL     1      -1.682   0.039  -6.043  1.00  0.00    -0.507 OA
ATOM     25  H   UNL     1      -1.553   0.587  -6.880  1.00  0.00     0.293 HD
ENDBRANCH   6  24
BRANCH   8  26
ATOM     26  O   UNL     1      -0.084  -1.726  -1.872  1.00  0.00    -0.508 OA
ATOM     27  H   UNL     1      -0.043  -0.941  -1.232  1.00  0.00     0.293 HD
ENDBRANCH   8  26
TORSDOF 6
ENDMDL
MODEL 5
REMARK VINA RESULT:    -6.399      1.853      1.904
REMARK INTER + INTRA:          -7.782
REMARK INTER:                  -7.308
REMARK INTRA:                  -0.474
REMARK UNBOUND:                -0.074
REMARK SMILES O=c1c(O)c(-c2ccc(O)cc2O)oc2cc(O)cc(O)c12
REMARK SMILES IDX 5 1 3 2 2 3 1 4 22 5 20 6 19 7 17 8 16 9 15 10 14 11 6 12
REMARK SMILES IDX 8 13 7 14 9 15 11 16 12 17 10 18 13 20 4 22 21 24 18 26
REMARK H PARENT 10 19 13 21 4 23 21 25 18 27
REMARK Flexibility Score: inf
ROOT
ATOM      1  C   UNL     1       7.797  -3.075  -8.007  1.00  0.00     0.184 A 
ATOM      2  C   UNL     1       7.567  -3.290  -6.637  1.00  0.00     0.208 A 
ATOM      3  C   UNL     1       6.324  -2.933  -6.091  1.00  0.00     0.238 A 
ATOM      4  O   UNL     1       6.104  -3.179  -4.877  1.00  0.00    -0.285 OA
ATOM      5  C   UNL     1       5.334  -2.347  -6.917  1.00  0.00     0.111 A 
ATOM      6  C   UNL     1       4.054  -1.909  -6.462  1.00  0.00     0.134 A 
ATOM      7  C   UNL     1       3.107  -1.462  -7.391  1.00  0.00     0.093 A 
ATOM      8  C   UNL     1       3.416  -1.375  -8.751  1.00  0.00     0.123 A 
ATOM      9  C   UNL     1       4.683  -1.744  -9.197  1.00  0.00     0.094 A 
ATOM     10  C   UNL     1       5.637  -2.229  -8.299  1.00  0.00     0.146 A 
ATOM     11  O   UNL     1       6.828  -2.580  -8.767  1.00  0.00    -0.451 OA
ENDROOT
BRANCH   1  12
ATOM     12  C   UNL     1       9.093  -3.406  -8.643  1.00  0.00     0.063 A 
ATOM     13  C   UNL     1      11.387  -2.806  -9.193  1.00  0.00     0.047 A 
ATOM     14  C   UNL     1      10.172  -2.508  -8.571  1.00  0.00     0.020 A 
ATOM     15  C   UNL     1      11.537  -4.001  -9.906  1.00  0.00     0.119 A 
ATOM     16  C   UNL     1      10.467  -4.895  -9.994  1.00  0.00     0.093 A 
ATOM     17  C   UNL     1       9.244  -4.604  -9.370  1.00  0.00     0.130 A 
BRANCH  15  18
ATOM     18  O   UNL     1      12.744  -4.309 -10.530  1.00  0.00    -0.508 OA
ATOM     19  H   UNL     1      13.590  -3.787 -10.333  1.00  0.00     0.293 HD
ENDBRANCH  15  18
BRANCH  17  20
ATOM     20  O   UNL     1       8.187  -5.509  -9.463  1.00  0.00    -0.507 OA
ATOM     21  H   UNL     1       8.315  -6.441  -9.838  1.00  0.00     0.293 HD
ENDBRANCH  17  20
ENDBRANCH   1  12
BRANCH   2  22
ATOM     22  O   UNL     1       8.555  -3.882  -5.845  1.00  0.00    -0.502 OA
ATOM     23  H   UNL     1       8.848  -3.489  -4.959  1.00  0.00     0.293 HD
ENDBRANCH   2  22
BRANCH   6  24
ATOM     24  O   UNL     1       3.676  -1.868  -5.116  1.00  0.00    -0.507 OA
ATOM     25  H   UNL     1       4.227  -2.230  -4.353  1.00  0.00     0.293 HD
ENDBRANCH   6  24
BRANCH   8  26
ATOM     26  O   UNL     1       2.473  -0.914  -9.667  1.00  0.00    -0.508 OA
ATOM     27  H   UNL     1       1.488  -1.130  -9.567  1.00  0.00     0.293 HD
ENDBRANCH   8  26
TORSDOF 6
ENDMDL
MODEL 6
REMARK VINA RESULT:    -6.311      4.456      6.794
REMARK INTER + INTRA:          -7.676
REMARK INTER:                  -7.248
REMARK INTRA:                  -0.428
REMARK UNBOUND:                -0.074
REMARK SMILES O=c1c(O)c(-c2ccc(O)cc2O)oc2cc(O)cc(O)c12
REMARK SMILES IDX 5 1 3 2 2 3 1 4 22 5 20 6 19 7 17 8 16 9 15 10 14 11 6 12
REMARK SMILES IDX 8 13 7 14 9 15 11 16 12 17 10 18 13 20 4 22 21 24 18 26
REMARK H PARENT 10 19 13 21 4 23 21 25 18 27
REMARK Flexibility Score: inf
ROOT
ATOM      1  C   UNL     1       1.743  -2.309  -7.131  1.00  0.00     0.184 A 
ATOM      2  C   UNL     1       1.584  -2.147  -5.744  1.00  0.00     0.208 A 
ATOM      3  C   UNL     1       0.484  -1.418  -5.265  1.00  0.00     0.238 A 
ATOM      4  O   UNL     1       0.318  -1.324  -4.021  1.00  0.00    -0.285 OA
ATOM      5  C   UNL     1      -0.432  -0.844  -6.179  1.00  0.00     0.111 A 
ATOM      6  C   UNL     1      -1.560  -0.052  -5.806  1.00  0.00     0.134 A 
ATOM      7  C   UNL     1      -2.471   0.357  -6.788  1.00  0.00     0.093 A 
ATOM      8  C   UNL     1      -2.260   0.059  -8.136  1.00  0.00     0.123 A 
ATOM      9  C   UNL     1      -1.131  -0.663  -8.516  1.00  0.00     0.094 A 
ATOM     10  C   UNL     1      -0.223  -1.117  -7.556  1.00  0.00     0.146 A 
ATOM     11  O   UNL     1       0.834  -1.811  -7.960  1.00  0.00    -0.451 OA
ENDROOT
BRANCH   1  12
ATOM     12  C   UNL     1       2.893  -3.045  -7.705  1.00  0.00     0.063 A 
ATOM     13  C   UNL     1       4.042  -5.143  -8.157  1.00  0.00     0.047 A 
ATOM     14  C   UNL     1       2.945  -4.448  -7.640  1.00  0.00     0.020 A 
ATOM     15  C   UNL     1       5.107  -4.444  -8.737  1.00  0.00     0.119 A 
ATOM     16  C   UNL     1       5.070  -3.048  -8.795  1.00  0.00     0.093 A 
ATOM     17  C   UNL     1       3.972  -2.343  -8.281  1.00  0.00     0.130 A 
BRANCH  15  18
ATOM     18  O   UNL     1       6.205  -5.125  -9.256  1.00  0.00    -0.508 OA
ATOM     19  H   UNL     1       6.098  -5.834  -9.973  1.00  0.00     0.293 HD
ENDBRANCH  15  18
BRANCH  17  20
ATOM     20  O   UNL     1       3.947  -0.950  -8.351  1.00  0.00    -0.507 OA
ATOM     21  H   UNL     1       3.168  -0.413  -7.990  1.00  0.00     0.293 HD
ENDBRANCH  17  20
ENDBRANCH   1  12
BRANCH   2  22
ATOM     22  O   UNL     1       2.495  -2.734  -4.861  1.00  0.00    -0.502 OA
ATOM     23  H   UNL     1       2.474  -2.560  -3.863  1.00  0.00     0.293 HD
ENDBRANCH   2  22
BRANCH   6  24
ATOM     24  O   UNL     1      -1.814   0.379  -4.500  1.00  0.00    -0.507 OA
ATOM     25  H   UNL     1      -1.896   1.344  -4.219  1.00  0.00     0.293 HD
ENDBRANCH   6  24
BRANCH   8  26
ATOM     26  O   UNL     1      -3.162   0.483  -9.109  1.00  0.00    -0.508 OA
ATOM     27  H   UNL     1      -4.158   0.525  -8.925  1.00  0.00     0.293 HD
ENDBRANCH   8  26
TORSDOF 6
ENDMDL
MODEL 7
REMARK VINA RESULT:    -6.271      2.719      4.056
REMARK INTER + INTRA:          -7.628
REMARK INTER:                  -7.353
REMARK INTRA:                  -0.275
REMARK UNBOUND:                -0.074
REMARK SMILES O=c1c(O)c(-c2ccc(O)cc2O)oc2cc(O)cc(O)c12
REMARK SMILES IDX 5 1 3 2 2 3 1 4 22 5 20 6 19 7 17 8 16 9 15 10 14 11 6 12
REMARK SMILES IDX 8 13 7 14 9 15 11 16 12 17 10 18 13 20 4 22 21 24 18 26
REMARK H PARENT 10 19 13 21 4 23 21 25 18 27
REMARK Flexibility Score: inf
ROOT
ATOM      1  C   UNL     1       5.020  -3.340  -7.326  1.00  0.00     0.184 A 
ATOM      2  C   UNL     1       4.761  -2.409  -8.346  1.00  0.00     0.208 A 
ATOM      3  C   UNL     1       3.456  -1.917  -8.505  1.00  0.00     0.238 A 
ATOM      4  O   UNL     1       3.242  -1.042  -9.383  1.00  0.00    -0.285 OA
ATOM      5  C   UNL     1       2.421  -2.378  -7.654  1.00  0.00     0.111 A 
ATOM      6  C   UNL     1       1.054  -1.978  -7.751  1.00  0.00     0.134 A 
ATOM      7  C   UNL     1       0.142  -2.399  -6.776  1.00  0.00     0.093 A 
ATOM      8  C   UNL     1       0.532  -3.258  -5.746  1.00  0.00     0.123 A 
ATOM      9  C   UNL     1       1.851  -3.701  -5.677  1.00  0.00     0.094 A 
ATOM     10  C   UNL     1       2.794  -3.269  -6.614  1.00  0.00     0.146 A 
ATOM     11  O   UNL     1       4.042  -3.706  -6.506  1.00  0.00    -0.451 OA
ENDROOT
BRANCH   1  12
ATOM     12  C   UNL     1       6.367  -3.918  -7.118  1.00  0.00     0.063 A 
ATOM     13  C   UNL     1       8.402  -4.103  -5.794  1.00  0.00     0.047 A 
ATOM     14  C   UNL     1       7.119  -3.580  -5.979  1.00  0.00     0.020 A 
ATOM     15  C   UNL     1       8.955  -4.961  -6.751  1.00  0.00     0.119 A 
ATOM     16  C   UNL     1       8.221  -5.293  -7.892  1.00  0.00     0.093 A 
ATOM     17  C   UNL     1       6.932  -4.775  -8.084  1.00  0.00     0.130 A 
BRANCH  15  18
ATOM     18  O   UNL     1      10.233  -5.489  -6.577  1.00  0.00    -0.508 OA
ATOM     19  H   UNL     1      10.403  -6.487  -6.616  1.00  0.00     0.293 HD
ENDBRANCH  15  18
BRANCH  17  20
ATOM     20  O   UNL     1       6.209  -5.119  -9.227  1.00  0.00    -0.507 OA
ATOM     21  H   UNL     1       5.799  -4.415  -9.829  1.00  0.00     0.293 HD
ENDBRANCH  17  20
ENDBRANCH   1  12
BRANCH   2  22
ATOM     22  O   UNL     1       5.801  -1.959  -9.164  1.00  0.00    -0.502 OA
ATOM     23  H   UNL     1       5.689  -1.189  -9.813  1.00  0.00     0.293 HD
ENDBRANCH   2  22
BRANCH   6  24
ATOM     24  O   UNL     1       0.541  -1.196  -8.790  1.00  0.00    -0.507 OA
ATOM     25  H   UNL     1      -0.439  -1.112  -9.017  1.00  0.00     0.293 HD
ENDBRANCH   6  24
BRANCH   8  26
ATOM     26  O   UNL     1      -0.386  -3.685  -4.789  1.00  0.00    -0.508 OA
ATOM     27  H   UNL     1      -0.121  -3.809  -3.819  1.00  0.00     0.293 HD
ENDBRANCH   8  26
TORSDOF 6
ENDMDL
MODEL 8
REMARK VINA RESULT:    -6.258      6.709     10.371
REMARK INTER + INTRA:          -7.612
REMARK INTER:                  -7.190
REMARK INTRA:                  -0.422
REMARK UNBOUND:                -0.074
REMARK SMILES O=c1c(O)c(-c2ccc(O)cc2O)oc2cc(O)cc(O)c12
REMARK SMILES IDX 5 1 3 2 2 3 1 4 22 5 20 6 19 7 17 8 16 9 15 10 14 11 6 12
REMARK SMILES IDX 8 13 7 14 9 15 11 16 12 17 10 18 13 20 4 22 21 24 18 26
REMARK H PARENT 10 19 13 21 4 23 21 25 18 27
REMARK Flexibility Score: inf
ROOT
ATOM      1  C   UNL     1      -1.119   0.311  -7.174  1.00  0.00     0.184 A 
ATOM      2  C   UNL     1      -1.627  -0.244  -5.987  1.00  0.00     0.208 A 
ATOM      3  C   UNL     1      -1.029  -1.403  -5.466  1.00  0.00     0.238 A 
ATOM      4  O   UNL     1      -1.453  -1.862  -4.374  1.00  0.00    -0.285 OA
ATOM      5  C   UNL     1       0.056  -2.004  -6.150  1.00  0.00     0.111 A 
ATOM      6  C   UNL     1       0.712  -3.202  -5.734  1.00  0.00     0.134 A 
ATOM      7  C   UNL     1       1.856  -3.634  -6.416  1.00  0.00     0.093 A 
ATOM      8  C   UNL     1       2.329  -2.948  -7.537  1.00  0.00     0.123 A 
ATOM      9  C   UNL     1       1.661  -1.812  -7.986  1.00  0.00     0.094 A 
ATOM     10  C   UNL     1       0.538  -1.334  -7.305  1.00  0.00     0.146 A 
ATOM     11  O   UNL     1      -0.062  -0.241  -7.759  1.00  0.00    -0.451 OA
ENDROOT
BRANCH   1  12
ATOM     12  C   UNL     1      -1.716   1.517  -7.792  1.00  0.00     0.063 A 
ATOM     13  C   UNL     1      -2.024   3.931  -7.837  1.00  0.00     0.047 A 
ATOM     14  C   UNL     1      -1.440   2.794  -7.273  1.00  0.00     0.020 A 
ATOM     15  C   UNL     1      -2.901   3.807  -8.920  1.00  0.00     0.119 A 
ATOM     16  C   UNL     1      -3.192   2.541  -9.435  1.00  0.00     0.093 A 
ATOM     17  C   UNL     1      -2.608   1.394  -8.877  1.00  0.00     0.130 A 
BRANCH  15  18
ATOM     18  O   UNL     1      -3.489   4.933  -9.492  1.00  0.00    -0.508 OA
ATOM     19  H   UNL     1      -3.233   5.870  -9.200  1.00  0.00     0.293 HD
ENDBRANCH  15  18
BRANCH  17  20
ATOM     20  O   UNL     1      -2.904   0.138  -9.405  1.00  0.00    -0.507 OA
ATOM     21  H   UNL     1      -3.229   0.024 -10.358  1.00  0.00     0.293 HD
ENDBRANCH  17  20
ENDBRANCH   1  12
BRANCH   2  22
ATOM     22  O   UNL     1      -2.690   0.374  -5.324  1.00  0.00    -0.502 OA
ATOM     23  H   UNL     1      -2.973   0.112  -4.388  1.00  0.00     0.293 HD
ENDBRANCH   2  22
BRANCH   6  24
ATOM     24  O   UNL     1       0.268  -4.011  -4.685  1.00  0.00    -0.507 OA
ATOM     25  H   UNL     1       0.424  -5.006  -4.619  1.00  0.00     0.293 HD
ENDBRANCH   6  24
BRANCH   8  26
ATOM     26  O   UNL     1       3.459  -3.394  -8.220  1.00  0.00    -0.508 OA
ATOM     27  H   UNL     1       4.391  -3.107  -7.945  1.00  0.00     0.293 HD
ENDBRANCH   8  26
TORSDOF 6
ENDMDL
MODEL 9
REMARK VINA RESULT:    -6.257      2.129      6.954
REMARK INTER + INTRA:          -7.611
REMARK INTER:                  -7.273
REMARK INTRA:                  -0.338
REMARK UNBOUND:                -0.074
REMARK SMILES O=c1c(O)c(-c2ccc(O)cc2O)oc2cc(O)cc(O)c12
REMARK SMILES IDX 5 1 3 2 2 3 1 4 22 5 20 6 19 7 17 8 16 9 15 10 14 11 6 12
REMARK SMILES IDX 8 13 7 14 9 15 11 16 12 17 10 18 13 20 4 22 21 24 18 26
REMARK H PARENT 10 19 13 21 4 23 21 25 18 27
REMARK Flexibility Score: inf
ROOT
ATOM      1  C   UNL     1       6.410  -3.322  -7.683  1.00  0.00     0.184 A 
ATOM      2  C   UNL     1       6.975  -4.295  -8.524  1.00  0.00     0.208 A 
ATOM      3  C   UNL     1       8.368  -4.466  -8.529  1.00  0.00     0.238 A 
ATOM      4  O   UNL     1       8.863  -5.377  -9.242  1.00  0.00    -0.285 OA
ATOM      5  C   UNL     1       9.181  -3.647  -7.707  1.00  0.00     0.111 A 
ATOM      6  C   UNL     1      10.607  -3.706  -7.662  1.00  0.00     0.134 A 
ATOM      7  C   UNL     1      11.299  -2.937  -6.719  1.00  0.00     0.093 A 
ATOM      8  C   UNL     1      10.623  -2.064  -5.864  1.00  0.00     0.123 A 
ATOM      9  C   UNL     1       9.237  -1.955  -5.941  1.00  0.00     0.094 A 
ATOM     10  C   UNL     1       8.514  -2.737  -6.847  1.00  0.00     0.146 A 
ATOM     11  O   UNL     1       7.193  -2.611  -6.880  1.00  0.00    -0.451 OA
ENDROOT
BRANCH   1  12
ATOM     12  C   UNL     1       4.951  -3.072  -7.646  1.00  0.00     0.063 A 
ATOM     13  C   UNL     1       2.682  -3.876  -7.281  1.00  0.00     0.047 A 
ATOM     14  C   UNL     1       4.061  -4.101  -7.291  1.00  0.00     0.020 A 
ATOM     15  C   UNL     1       2.172  -2.622  -7.637  1.00  0.00     0.119 A 
ATOM     16  C   UNL     1       3.048  -1.596  -8.004  1.00  0.00     0.093 A 
ATOM     17  C   UNL     1       4.434  -1.813  -8.014  1.00  0.00     0.130 A 
BRANCH  15  18
ATOM     18  O   UNL     1       0.800  -2.385  -7.631  1.00  0.00    -0.508 OA
ATOM     19  H   UNL     1       0.148  -3.038  -8.051  1.00  0.00     0.293 HD
ENDBRANCH  15  18
BRANCH  17  20
ATOM     20  O   UNL     1       5.295  -0.778  -8.377  1.00  0.00    -0.507 OA
ATOM     21  H   UNL     1       5.190  -0.282  -9.254  1.00  0.00     0.293 HD
ENDBRANCH  17  20
ENDBRANCH   1  12
BRANCH   2  22
ATOM     22  O   UNL     1       6.151  -5.100  -9.316  1.00  0.00    -0.502 OA
ATOM     23  H   UNL     1       5.860  -6.027  -9.030  1.00  0.00     0.293 HD
ENDBRANCH   2  22
BRANCH   6  24
ATOM     24  O   UNL     1      11.385  -4.475  -8.533  1.00  0.00    -0.507 OA
ATOM     25  H   UNL     1      11.107  -5.365  -8.918  1.00  0.00     0.293 HD
ENDBRANCH   6  24
BRANCH   8  26
ATOM     26  O   UNL     1      11.321  -1.290  -4.939  1.00  0.00    -0.508 OA
ATOM     27  H   UNL     1      12.173  -0.804  -5.192  1.00  0.00     0.293 HD
ENDBRANCH   8  26
TORSDOF 6
ENDMDL
