MODEL 1
REMARK VINA RESULT:    -7.935      0.000      0.000
REMARK INTER + INTRA:          -8.167
REMARK INTER:                  -8.167
REMARK INTRA:                   0.000
REMARK UNBOUND:                 0.000
REMARK SMILES O=c1ccc2ccc(O)cc2o1
REMARK SMILES IDX 6 1 7 2 8 3 10 4 11 5 5 6 4 7 3 8 2 9 1 10 12 11 9 12
REMARK H PARENT 9 13
REMARK Flexibility Score: inf
ROOT
ATOM      1  C   UNL     1      34.413  25.170  19.377  1.00  0.00     0.016 A 
ATOM      2  C   UNL     1      34.300  25.953  20.530  1.00  0.00     0.047 A 
ATOM      3  C   UNL     1      33.741  27.235  20.464  1.00  0.00     0.119 A 
ATOM      4  C   UNL     1      33.289  27.739  19.235  1.00  0.00     0.094 A 
ATOM      5  C   UNL     1      33.398  26.963  18.075  1.00  0.00     0.142 A 
ATOM      6  C   UNL     1      33.963  25.670  18.147  1.00  0.00     0.018 A 
ATOM      7  C   UNL     1      34.057  24.918  16.971  1.00  0.00     0.019 A 
ATOM      8  C   UNL     1      33.595  25.462  15.773  1.00  0.00     0.094 A 
ATOM      9  C   UNL     1      33.046  26.749  15.778  1.00  0.00     0.336 A 
ATOM     10  O   UNL     1      32.625  27.256  14.707  1.00  0.00    -0.246 OA
ATOM     11  O   UNL     1      32.969  27.443  16.911  1.00  0.00    -0.423 OA
ENDROOT
BRANCH   3  12
ATOM     12  O   UNL     1      33.638  27.999  21.624  1.00  0.00    -0.508 OA
ATOM     13  H   UNL     1      33.204  27.633  22.463  1.00  0.00     0.293 HD
ENDBRANCH   3  12
TORSDOF 1
ENDMDL
MODEL 2
REMARK VINA RESULT:    -7.863      0.778      4.225
REMARK INTER + INTRA:          -8.093
REMARK INTER:                  -8.093
REMARK INTRA:                   0.000
REMARK UNBOUND:                 0.000
REMARK SMILES O=c1ccc2ccc(O)cc2o1
REMARK SMILES IDX 6 1 7 2 8 3 10 4 11 5 5 6 4 7 3 8 2 9 1 10 12 11 9 12
REMARK H PARENT 9 13
REMARK Flexibility Score: inf
ROOT
ATOM      1  C   UNL     1      34.026  24.904  17.062  1.00  0.00     0.016 A 
ATOM      2  C   UNL     1      33.593  25.362  15.815  1.00  0.00     0.047 A 
ATOM      3  C   UNL     1      33.079  26.658  15.675  1.00  0.00     0.119 A 
ATOM      4  C   UNL     1      32.998  27.502  16.793  1.00  0.00     0.094 A 
ATOM      5  C   UNL     1      33.429  27.052  18.046  1.00  0.00     0.142 A 
ATOM      6  C   UNL     1      33.947  25.744  18.181  1.00  0.00     0.018 A 
ATOM      7  C   UNL     1      34.370  25.323  19.446  1.00  0.00     0.019 A 
ATOM      8  C   UNL     1      34.269  26.198  20.527  1.00  0.00     0.094 A 
ATOM      9  C   UNL     1      33.747  27.480  20.318  1.00  0.00     0.336 A 
ATOM     10  O   UNL     1      33.648  28.283  21.281  1.00  0.00    -0.246 OA
ATOM     11  O   UNL     1      33.351  27.854  19.104  1.00  0.00    -0.423 OA
ENDROOT
BRANCH   3  12
ATOM     12  O   UNL     1      32.652  27.095  14.423  1.00  0.00    -0.508 OA
ATOM     13  H   UNL     1      32.728  28.067  14.148  1.00  0.00     0.293 HD
ENDBRANCH   3  12
TORSDOF 1
ENDMDL
MODEL 3
REMARK VINA RESULT:    -7.356      1.734      4.560
REMARK INTER + INTRA:          -7.571
REMARK INTER:                  -7.571
REMARK INTRA:                   0.000
REMARK UNBOUND:                 0.000
REMARK SMILES O=c1ccc2ccc(O)cc2o1
REMARK SMILES IDX 6 1 7 2 8 3 10 4 11 5 5 6 4 7 3 8 2 9 1 10 12 11 9 12
REMARK H PARENT 9 13
REMARK Flexibility Score: inf
ROOT
ATOM      1  C   UNL     1      32.836  28.301  17.685  1.00  0.00     0.016 A 
ATOM      2  C   UNL     1      32.608  28.191  16.310  1.00  0.00     0.047 A 
ATOM      3  C   UNL     1      32.934  27.011  15.630  1.00  0.00     0.119 A 
ATOM      4  C   UNL     1      33.493  25.932  16.331  1.00  0.00     0.094 A 
ATOM      5  C   UNL     1      33.725  26.033  17.707  1.00  0.00     0.142 A 
ATOM      6  C   UNL     1      33.393  27.225  18.389  1.00  0.00     0.018 A 
ATOM      7  C   UNL     1      33.637  27.295  19.765  1.00  0.00     0.019 A 
ATOM      8  C   UNL     1      34.194  26.197  20.418  1.00  0.00     0.094 A 
ATOM      9  C   UNL     1      34.496  25.048  19.678  1.00  0.00     0.336 A 
ATOM     10  O   UNL     1      34.999  24.047  20.250  1.00  0.00    -0.246 OA
ATOM     11  O   UNL     1      34.255  25.008  18.370  1.00  0.00    -0.423 OA
ENDROOT
BRANCH   3  12
ATOM     12  O   UNL     1      32.700  26.921  14.260  1.00  0.00    -0.508 OA
ATOM     13  H   UNL     1      33.441  27.067  13.586  1.00  0.00     0.293 HD
ENDBRANCH   3  12
TORSDOF 1
ENDMDL
MODEL 4
REMARK VINA RESULT:    -7.315      1.922      5.133
REMARK INTER + INTRA:          -7.529
REMARK INTER:                  -7.529
REMARK INTRA:                   0.000
REMARK UNBOUND:                 0.000
REMARK SMILES O=c1ccc2ccc(O)cc2o1
REMARK SMILES IDX 6 1 7 2 8 3 10 4 11 5 5 6 4 7 3 8 2 9 1 10 12 11 9 12
REMARK H PARENT 9 13
REMARK Flexibility Score: inf
ROOT
ATOM      1  C   UNL     1      33.138  27.339  18.650  1.00  0.00     0.016 A 
ATOM      2  C   UNL     1      33.262  26.422  17.602  1.00  0.00     0.047 A 
ATOM      3  C   UNL     1      33.915  25.200  17.804  1.00  0.00     0.119 A 
ATOM      4  C   UNL     1      34.448  24.891  19.065  1.00  0.00     0.094 A 
ATOM      5  C   UNL     1      34.329  25.803  20.120  1.00  0.00     0.142 A 
ATOM      6  C   UNL     1      33.669  27.034  19.912  1.00  0.00     0.018 A 
ATOM      7  C   UNL     1      33.565  27.925  20.986  1.00  0.00     0.019 A 
ATOM      8  C   UNL     1      34.110  27.574  22.220  1.00  0.00     0.094 A 
ATOM      9  C   UNL     1      34.749  26.336  22.353  1.00  0.00     0.336 A 
ATOM     10  O   UNL     1      35.248  26.002  23.459  1.00  0.00    -0.246 OA
ATOM     11  O   UNL     1      34.835  25.508  21.314  1.00  0.00    -0.423 OA
ENDROOT
BRANCH   3  12
ATOM     12  O   UNL     1      34.029  24.300  16.747  1.00  0.00    -0.508 OA
ATOM     13  H   UNL     1      33.442  23.476  16.687  1.00  0.00     0.293 HD
ENDBRANCH   3  12
TORSDOF 1
ENDMDL
MODEL 5
REMARK VINA RESULT:    -7.289      1.695      2.503
REMARK INTER + INTRA:          -7.502
REMARK INTER:                  -7.502
REMARK INTRA:                   0.000
REMARK UNBOUND:                 0.000
REMARK SMILES O=c1ccc2ccc(O)cc2o1
REMARK SMILES IDX 6 1 7 2 8 3 10 4 11 5 5 6 4 7 3 8 2 9 1 10 12 11 9 12
REMARK H PARENT 9 13
REMARK Flexibility Score: inf
ROOT
ATOM      1  C   UNL     1      33.652  24.876  16.685  1.00  0.00     0.016 A 
ATOM      2  C   UNL     1      34.059  24.382  17.927  1.00  0.00     0.047 A 
ATOM      3  C   UNL     1      34.107  25.226  19.045  1.00  0.00     0.119 A 
ATOM      4  C   UNL     1      33.744  26.575  18.917  1.00  0.00     0.094 A 
ATOM      5  C   UNL     1      33.334  27.079  17.678  1.00  0.00     0.142 A 
ATOM      6  C   UNL     1      33.287  26.223  16.554  1.00  0.00     0.018 A 
ATOM      7  C   UNL     1      32.873  26.756  15.328  1.00  0.00     0.019 A 
ATOM      8  C   UNL     1      32.522  28.103  15.252  1.00  0.00     0.094 A 
ATOM      9  C   UNL     1      32.592  28.890  16.407  1.00  0.00     0.336 A 
ATOM     10  O   UNL     1      32.280  30.107  16.356  1.00  0.00    -0.246 OA
ATOM     11  O   UNL     1      32.990  28.358  17.560  1.00  0.00    -0.423 OA
ENDROOT
BRANCH   3  12
ATOM     12  O   UNL     1      34.517  24.715  20.274  1.00  0.00    -0.508 OA
ATOM     13  H   UNL     1      35.127  23.908  20.335  1.00  0.00     0.293 HD
ENDBRANCH   3  12
TORSDOF 1
ENDMDL
MODEL 6
REMARK VINA RESULT:    -7.281      2.086      4.217
REMARK INTER + INTRA:          -7.493
REMARK INTER:                  -7.493
REMARK INTRA:                   0.000
REMARK UNBOUND:                 0.000
REMARK SMILES O=c1ccc2ccc(O)cc2o1
REMARK SMILES IDX 6 1 7 2 8 3 10 4 11 5 5 6 4 7 3 8 2 9 1 10 12 11 9 12
REMARK H PARENT 9 13
REMARK Flexibility Score: inf
ROOT
ATOM      1  C   UNL     1      33.105  26.947  15.385  1.00  0.00     0.016 A 
ATOM      2  C   UNL     1      33.442  25.607  15.598  1.00  0.00     0.047 A 
ATOM      3  C   UNL     1      33.598  25.114  16.899  1.00  0.00     0.119 A 
ATOM      4  C   UNL     1      33.415  25.968  17.998  1.00  0.00     0.094 A 
ATOM      5  C   UNL     1      33.077  27.311  17.794  1.00  0.00     0.142 A 
ATOM      6  C   UNL     1      32.921  27.803  16.480  1.00  0.00     0.018 A 
ATOM      7  C   UNL     1      32.583  29.150  16.308  1.00  0.00     0.019 A 
ATOM      8  C   UNL     1      32.411  29.959  17.430  1.00  0.00     0.094 A 
ATOM      9  C   UNL     1      32.581  29.402  18.703  1.00  0.00     0.336 A 
ATOM     10  O   UNL     1      32.431  30.118  19.727  1.00  0.00    -0.246 OA
ATOM     11  O   UNL     1      32.904  28.118  18.837  1.00  0.00    -0.423 OA
ENDROOT
BRANCH   3  12
ATOM     12  O   UNL     1      33.935  23.776  17.091  1.00  0.00    -0.508 OA
ATOM     13  H   UNL     1      34.435  23.250  16.384  1.00  0.00     0.293 HD
ENDBRANCH   3  12
TORSDOF 1
ENDMDL
MODEL 7
REMARK VINA RESULT:    -7.133      1.738      3.964
REMARK INTER + INTRA:          -7.342
REMARK INTER:                  -7.342
REMARK INTRA:                   0.000
REMARK UNBOUND:                 0.000
REMARK SMILES O=c1ccc2ccc(O)cc2o1
REMARK SMILES IDX 6 1 7 2 8 3 10 4 11 5 5 6 4 7 3 8 2 9 1 10 12 11 9 12
REMARK H PARENT 9 13
REMARK Flexibility Score: inf
ROOT
ATOM      1  C   UNL     1      32.958  26.525  15.507  1.00  0.00     0.016 A 
ATOM      2  C   UNL     1      32.562  27.845  15.272  1.00  0.00     0.047 A 
ATOM      3  C   UNL     1      32.568  28.783  16.312  1.00  0.00     0.119 A 
ATOM      4  C   UNL     1      32.973  28.397  17.599  1.00  0.00     0.094 A 
ATOM      5  C   UNL     1      33.370  27.078  17.844  1.00  0.00     0.142 A 
ATOM      6  C   UNL     1      33.363  26.136  16.791  1.00  0.00     0.018 A 
ATOM      7  C   UNL     1      33.766  24.825  17.067  1.00  0.00     0.019 A 
ATOM      8  C   UNL     1      34.160  24.489  18.362  1.00  0.00     0.094 A 
ATOM      9  C   UNL     1      34.143  25.475  19.355  1.00  0.00     0.336 A 
ATOM     10  O   UNL     1      34.494  25.190  20.529  1.00  0.00    -0.246 OA
ATOM     11  O   UNL     1      33.754  26.714  19.065  1.00  0.00    -0.423 OA
ENDROOT
BRANCH   3  12
ATOM     12  O   UNL     1      32.170  30.093  16.058  1.00  0.00    -0.508 OA
ATOM     13  H   UNL     1      31.277  30.301  15.625  1.00  0.00     0.293 HD
ENDBRANCH   3  12
TORSDOF 1
ENDMDL
MODEL 8
REMARK VINA RESULT:    -6.988      2.390      3.013
REMARK INTER + INTRA:          -7.192
REMARK INTER:                  -7.192
REMARK INTRA:                   0.000
REMARK UNBOUND:                 0.000
REMARK SMILES O=c1ccc2ccc(O)cc2o1
REMARK SMILES IDX 6 1 7 2 8 3 10 4 11 5 5 6 4 7 3 8 2 9 1 10 12 11 9 12
REMARK H PARENT 9 13
REMARK Flexibility Score: inf
ROOT
ATOM      1  C   UNL     1      33.647  27.557  20.105  1.00  0.00     0.016 A 
ATOM      2  C   UNL     1      34.409  27.623  21.275  1.00  0.00     0.047 A 
ATOM      3  C   UNL     1      35.152  26.514  21.701  1.00  0.00     0.119 A 
ATOM      4  C   UNL     1      35.131  25.329  20.950  1.00  0.00     0.094 A 
ATOM      5  C   UNL     1      34.371  25.253  19.778  1.00  0.00     0.142 A 
ATOM      6  C   UNL     1      33.625  26.374  19.352  1.00  0.00     0.018 A 
ATOM      7  C   UNL     1      32.875  26.268  18.176  1.00  0.00     0.019 A 
ATOM      8  C   UNL     1      32.886  25.070  17.464  1.00  0.00     0.094 A 
ATOM      9  C   UNL     1      33.651  24.001  17.945  1.00  0.00     0.336 A 
ATOM     10  O   UNL     1      33.673  22.911  17.316  1.00  0.00    -0.246 OA
ATOM     11  O   UNL     1      34.354  24.128  19.068  1.00  0.00    -0.423 OA
ENDROOT
BRANCH   3  12
ATOM     12  O   UNL     1      35.904  26.600  22.870  1.00  0.00    -0.508 OA
ATOM     13  H   UNL     1      35.851  27.410  23.475  1.00  0.00     0.293 HD
ENDBRANCH   3  12
TORSDOF 1
ENDMDL
