MODEL 1
REMARK VINA RESULT:    -5.715      0.000      0.000
REMARK INTER + INTRA:         -12.566
REMARK INTER:                 -11.061
REMARK INTRA:                  -1.505
REMARK UNBOUND:                -1.505
REMARK SMILES CCCCCCCCCCCCCCCCCC(=O)[O-]
REMARK SMILES IDX 10 1 11 2 12 3 13 4 14 5 15 6 16 7 17 8 18 9 19 10 20 11
REMARK SMILES IDX 9 12 8 13 7 14 6 15 5 16 4 17 3 18 2 19 1 20
REMARK H PARENT
REMARK Flexibility Score: inf
ROOT
ATOM      1  C   UNL     1       9.764  11.905  38.595  1.00  0.00     0.000 C 
ENDROOT
BRANCH   1   2
ATOM      2  C   UNL     1       9.778  13.140  39.513  1.00  0.00     0.000 C 
BRANCH   2   3
ATOM      3  C   UNL     1       8.680  13.087  40.586  1.00  0.00     0.000 C 
BRANCH   3   4
ATOM      4  C   UNL     1       9.115  13.732  41.914  1.00  0.00     0.000 C 
BRANCH   4   5
ATOM      5  C   UNL     1      10.015  14.964  41.713  1.00  0.00     0.000 C 
BRANCH   5   6
ATOM      6  C   UNL     1       9.333  16.318  41.988  1.00  0.00     0.000 C 
BRANCH   6   7
ATOM      7  C   UNL     1       8.274  16.239  43.101  1.00  0.00     0.006 C 
BRANCH   7   8
ATOM      8  C   UNL     1       6.884  16.665  42.610  1.00  0.00     0.053 C 
BRANCH   8   9
ATOM      9  C   UNL     1       5.829  15.673  42.992  1.00  0.00     0.041 C 
ATOM     10  O   UNL     1       5.008  15.943  43.909  1.00  0.00    -0.550 OA
ATOM     11  O   UNL     1       5.732  14.463  42.316  1.00  0.00    -0.550 OA
ENDBRANCH   8   9
ENDBRANCH   7   8
ENDBRANCH   6   7
ENDBRANCH   5   6
ENDBRANCH   4   5
ENDBRANCH   3   4
ENDBRANCH   2   3
ENDBRANCH   1   2
BRANCH   1  12
ATOM     12  C   UNL     1       9.566  10.588  39.368  1.00  0.00     0.000 C 
BRANCH  12  13
ATOM     13  C   UNL     1       8.192   9.913  39.180  1.00  0.00    -0.000 C 
BRANCH  13  14
ATOM     14  C   UNL     1       7.623   9.228  40.436  1.00  0.00    -0.000 C 
BRANCH  14  15
ATOM     15  C   UNL     1       8.634   9.163  41.591  1.00  0.00    -0.000 C 
BRANCH  15  16
ATOM     16  C   UNL     1       8.297  10.199  42.673  1.00  0.00    -0.000 C 
BRANCH  16  17
ATOM     17  C   UNL     1       8.453   9.639  44.095  1.00  0.00    -0.000 C 
BRANCH  17  18
ATOM     18  C   UNL     1       9.629   8.654  44.217  1.00  0.00    -0.000 C 
BRANCH  18  19
ATOM     19  C   UNL     1      10.522   8.949  45.431  1.00  0.00    -0.003 C 
ATOM     20  C   UNL     1      11.910   8.324  45.307  1.00  0.00     0.004 C 
ENDBRANCH  18  19
ENDBRANCH  17  18
ENDBRANCH  16  17
ENDBRANCH  15  16
ENDBRANCH  14  15
ENDBRANCH  13  14
ENDBRANCH  12  13
ENDBRANCH   1  12
TORSDOF 16
ENDMDL
MODEL 2
REMARK VINA RESULT:    -5.545     11.167     13.176
REMARK INTER + INTRA:         -12.235
REMARK INTER:                 -11.018
REMARK INTRA:                  -1.218
REMARK UNBOUND:                -1.505
REMARK SMILES CCCCCCCCCCCCCCCCCC(=O)[O-]
REMARK SMILES IDX 10 1 11 2 12 3 13 4 14 5 15 6 16 7 17 8 18 9 19 10 20 11
REMARK SMILES IDX 9 12 8 13 7 14 6 15 5 16 4 17 3 18 2 19 1 20
REMARK H PARENT
REMARK Flexibility Score: inf
ROOT
ATOM      1  C   UNL     1      19.497  11.851  45.760  1.00  0.00     0.000 C 
ENDROOT
BRANCH   1   2
ATOM      2  C   UNL     1      19.870  13.118  44.970  1.00  0.00     0.000 C 
BRANCH   2   3
ATOM      3  C   UNL     1      20.554  12.795  43.632  1.00  0.00     0.000 C 
BRANCH   3   4
ATOM      4  C   UNL     1      20.456  13.952  42.621  1.00  0.00     0.000 C 
BRANCH   4   5
ATOM      5  C   UNL     1      19.762  15.196  43.203  1.00  0.00     0.000 C 
BRANCH   5   6
ATOM      6  C   UNL     1      19.927  16.481  42.369  1.00  0.00     0.000 C 
BRANCH   6   7
ATOM      7  C   UNL     1      21.095  16.401  41.371  1.00  0.00     0.006 C 
BRANCH   7   8
ATOM      8  C   UNL     1      22.355  17.102  41.897  1.00  0.00     0.053 C 
BRANCH   8   9
ATOM      9  C   UNL     1      23.578  16.254  41.726  1.00  0.00     0.041 C 
ATOM     10  O   UNL     1      24.393  16.117  42.676  1.00  0.00    -0.550 OA
ATOM     11  O   UNL     1      23.803  15.591  40.526  1.00  0.00    -0.550 OA
ENDBRANCH   8   9
ENDBRANCH   7   8
ENDBRANCH   6   7
ENDBRANCH   5   6
ENDBRANCH   4   5
ENDBRANCH   3   4
ENDBRANCH   2   3
ENDBRANCH   1   2
BRANCH   1  12
ATOM     12  C   UNL     1      20.503  10.703  45.559  1.00  0.00     0.000 C 
BRANCH  12  13
ATOM     13  C   UNL     1      19.878   9.309  45.345  1.00  0.00    -0.000 C 
BRANCH  13  14
ATOM     14  C   UNL     1      20.582   8.432  44.294  1.00  0.00    -0.000 C 
BRANCH  14  15
ATOM     15  C   UNL     1      20.848   9.176  42.976  1.00  0.00    -0.000 C 
BRANCH  15  16
ATOM     16  C   UNL     1      20.790   8.213  41.781  1.00  0.00    -0.000 C 
BRANCH  16  17
ATOM     17  C   UNL     1      20.928   8.936  40.433  1.00  0.00    -0.000 C 
BRANCH  17  18
ATOM     18  C   UNL     1      19.590   9.043  39.680  1.00  0.00    -0.000 C 
BRANCH  18  19
ATOM     19  C   UNL     1      18.537   8.058  40.209  1.00  0.00    -0.003 C 
ATOM     20  C   UNL     1      17.215   8.144  39.448  1.00  0.00     0.004 C 
ENDBRANCH  18  19
ENDBRANCH  17  18
ENDBRANCH  16  17
ENDBRANCH  15  16
ENDBRANCH  14  15
ENDBRANCH  13  14
ENDBRANCH  12  13
ENDBRANCH   1  12
TORSDOF 16
ENDMDL
MODEL 3
REMARK VINA RESULT:    -5.396      1.700      3.683
REMARK INTER + INTRA:         -11.947
REMARK INTER:                  -9.787
REMARK INTRA:                  -2.160
REMARK UNBOUND:                -1.505
REMARK SMILES CCCCCCCCCCCCCCCCCC(=O)[O-]
REMARK SMILES IDX 10 1 11 2 12 3 13 4 14 5 15 6 16 7 17 8 18 9 19 10 20 11
REMARK SMILES IDX 9 12 8 13 7 14 6 15 5 16 4 17 3 18 2 19 1 20
REMARK H PARENT
REMARK Flexibility Score: inf
ROOT
ATOM      1  C   UNL     1       8.579  10.140  41.930  1.00  0.00     0.000 C 
ENDROOT
BRANCH   1   2
ATOM      2  C   UNL     1       8.576   8.851  41.089  1.00  0.00     0.000 C 
BRANCH   2   3
ATOM      3  C   UNL     1       9.281   9.031  39.736  1.00  0.00     0.000 C 
BRANCH   3   4
ATOM      4  C   UNL     1       8.808  10.286  38.981  1.00  0.00     0.000 C 
BRANCH   4   5
ATOM      5  C   UNL     1       9.973  11.173  38.508  1.00  0.00     0.000 C 
BRANCH   5   6
ATOM      6  C   UNL     1       9.735  12.688  38.652  1.00  0.00     0.000 C 
BRANCH   6   7
ATOM      7  C   UNL     1       9.779  13.164  40.114  1.00  0.00     0.006 C 
BRANCH   7   8
ATOM      8  C   UNL     1       8.438  13.753  40.573  1.00  0.00     0.053 C 
BRANCH   8   9
ATOM      9  C   UNL     1       8.567  14.489  41.871  1.00  0.00     0.041 C 
ATOM     10  O   UNL     1       7.625  14.470  42.707  1.00  0.00    -0.550 OA
ATOM     11  O   UNL     1       9.739  15.172  42.172  1.00  0.00    -0.550 OA
ENDBRANCH   8   9
ENDBRANCH   7   8
ENDBRANCH   6   7
ENDBRANCH   5   6
ENDBRANCH   4   5
ENDBRANCH   3   4
ENDBRANCH   2   3
ENDBRANCH   1   2
BRANCH   1  12
ATOM     12  C   UNL     1       7.162  10.668  42.220  1.00  0.00     0.000 C 
BRANCH  12  13
ATOM     13  C   UNL     1       6.057   9.593  42.279  1.00  0.00    -0.000 C 
BRANCH  13  14
ATOM     14  C   UNL     1       5.542   9.264  43.692  1.00  0.00    -0.000 C 
BRANCH  14  15
ATOM     15  C   UNL     1       6.486   8.336  44.472  1.00  0.00    -0.000 C 
BRANCH  15  16
ATOM     16  C   UNL     1       6.979   9.012  45.759  1.00  0.00    -0.000 C 
BRANCH  16  17
ATOM     17  C   UNL     1       8.345   9.693  45.584  1.00  0.00    -0.000 C 
BRANCH  17  18
ATOM     18  C   UNL     1       9.485   8.682  45.369  1.00  0.00    -0.000 C 
BRANCH  18  19
ATOM     19  C   UNL     1      10.870   9.347  45.379  1.00  0.00    -0.003 C 
ATOM     20  C   UNL     1      12.011   8.332  45.329  1.00  0.00     0.004 C 
ENDBRANCH  18  19
ENDBRANCH  17  18
ENDBRANCH  16  17
ENDBRANCH  15  16
ENDBRANCH  14  15
ENDBRANCH  13  14
ENDBRANCH  12  13
ENDBRANCH   1  12
TORSDOF 16
ENDMDL
MODEL 4
REMARK VINA RESULT:    -5.370      1.717      2.445
REMARK INTER + INTRA:         -11.897
REMARK INTER:                 -10.205
REMARK INTRA:                  -1.692
REMARK UNBOUND:                -1.505
REMARK SMILES CCCCCCCCCCCCCCCCCC(=O)[O-]
REMARK SMILES IDX 10 1 11 2 12 3 13 4 14 5 15 6 16 7 17 8 18 9 19 10 20 11
REMARK SMILES IDX 9 12 8 13 7 14 6 15 5 16 4 17 3 18 2 19 1 20
REMARK H PARENT
REMARK Flexibility Score: inf
ROOT
ATOM      1  C   UNL     1       9.452  12.589  39.433  1.00  0.00     0.000 C 
ENDROOT
BRANCH   1   2
ATOM      2  C   UNL     1       8.911  12.620  40.873  1.00  0.00     0.000 C 
BRANCH   2   3
ATOM      3  C   UNL     1       7.386  12.796  40.925  1.00  0.00     0.000 C 
BRANCH   3   4
ATOM      4  C   UNL     1       6.887  13.256  42.306  1.00  0.00     0.000 C 
BRANCH   4   5
ATOM      5  C   UNL     1       5.821  14.364  42.217  1.00  0.00     0.000 C 
BRANCH   5   6
ATOM      6  C   UNL     1       5.977  15.498  43.248  1.00  0.00     0.000 C 
BRANCH   6   7
ATOM      7  C   UNL     1       6.754  16.705  42.696  1.00  0.00     0.006 C 
BRANCH   7   8
ATOM      8  C   UNL     1       8.229  16.689  43.121  1.00  0.00     0.053 C 
BRANCH   8   9
ATOM      9  C   UNL     1       9.142  16.464  41.955  1.00  0.00     0.041 C 
ATOM     10  O   UNL     1       8.683  16.036  40.864  1.00  0.00    -0.550 OA
ATOM     11  O   UNL     1      10.497  16.754  42.065  1.00  0.00    -0.550 OA
ENDBRANCH   8   9
ENDBRANCH   7   8
ENDBRANCH   6   7
ENDBRANCH   5   6
ENDBRANCH   4   5
ENDBRANCH   3   4
ENDBRANCH   2   3
ENDBRANCH   1   2
BRANCH   1  12
ATOM     12  C   UNL     1       9.871  11.179  38.981  1.00  0.00     0.000 C 
BRANCH  12  13
ATOM     13  C   UNL     1       8.746  10.124  38.986  1.00  0.00    -0.000 C 
BRANCH  13  14
ATOM     14  C   UNL     1       8.921   8.986  40.008  1.00  0.00    -0.000 C 
BRANCH  14  15
ATOM     15  C   UNL     1       8.083   9.191  41.279  1.00  0.00    -0.000 C 
BRANCH  15  16
ATOM     16  C   UNL     1       8.875   8.785  42.530  1.00  0.00    -0.000 C 
BRANCH  16  17
ATOM     17  C   UNL     1       8.633   9.731  43.716  1.00  0.00    -0.000 C 
BRANCH  17  18
ATOM     18  C   UNL     1       9.720   9.612  44.798  1.00  0.00    -0.000 C 
BRANCH  18  19
ATOM     19  C   UNL     1      10.619   8.382  44.596  1.00  0.00    -0.003 C 
ATOM     20  C   UNL     1      11.784   8.336  45.584  1.00  0.00     0.004 C 
ENDBRANCH  18  19
ENDBRANCH  17  18
ENDBRANCH  16  17
ENDBRANCH  15  16
ENDBRANCH  14  15
ENDBRANCH  13  14
ENDBRANCH  12  13
ENDBRANCH   1  12
TORSDOF 16
ENDMDL
MODEL 5
REMARK VINA RESULT:    -5.329     10.984     13.753
REMARK INTER + INTRA:         -11.819
REMARK INTER:                 -10.319
REMARK INTRA:                  -1.499
REMARK UNBOUND:                -1.505
REMARK SMILES CCCCCCCCCCCCCCCCCC(=O)[O-]
REMARK SMILES IDX 10 1 11 2 12 3 13 4 14 5 15 6 16 7 17 8 18 9 19 10 20 11
REMARK SMILES IDX 9 12 8 13 7 14 6 15 5 16 4 17 3 18 2 19 1 20
REMARK H PARENT
REMARK Flexibility Score: inf
ROOT
ATOM      1  C   UNL     1      19.862  10.573  45.611  1.00  0.00     0.000 C 
ENDROOT
BRANCH   1   2
ATOM      2  C   UNL     1      21.213  10.136  46.205  1.00  0.00     0.000 C 
BRANCH   2   3
ATOM      3  C   UNL     1      21.882   9.021  45.386  1.00  0.00     0.000 C 
BRANCH   3   4
ATOM      4  C   UNL     1      21.145   8.730  44.066  1.00  0.00     0.000 C 
BRANCH   4   5
ATOM      5  C   UNL     1      21.829   9.372  42.846  1.00  0.00     0.000 C 
BRANCH   5   6
ATOM      6  C   UNL     1      20.919   9.568  41.619  1.00  0.00     0.000 C 
BRANCH   6   7
ATOM      7  C   UNL     1      20.581   8.248  40.907  1.00  0.00     0.006 C 
BRANCH   7   8
ATOM      8  C   UNL     1      20.093   8.473  39.469  1.00  0.00     0.053 C 
BRANCH   8   9
ATOM      9  C   UNL     1      18.667   8.930  39.429  1.00  0.00     0.041 C 
ATOM     10  O   UNL     1      17.732   8.087  39.405  1.00  0.00    -0.550 OA
ATOM     11  O   UNL     1      18.369  10.287  39.450  1.00  0.00    -0.550 OA
ENDBRANCH   8   9
ENDBRANCH   7   8
ENDBRANCH   6   7
ENDBRANCH   5   6
ENDBRANCH   4   5
ENDBRANCH   3   4
ENDBRANCH   2   3
ENDBRANCH   1   2
BRANCH   1  12
ATOM     12  C   UNL     1      19.440  11.983  46.063  1.00  0.00     0.000 C 
BRANCH  12  13
ATOM     13  C   UNL     1      19.666  13.102  45.026  1.00  0.00    -0.000 C 
BRANCH  13  14
ATOM     14  C   UNL     1      20.397  12.667  43.743  1.00  0.00    -0.000 C 
BRANCH  14  15
ATOM     15  C   UNL     1      20.408  13.758  42.662  1.00  0.00    -0.000 C 
BRANCH  15  16
ATOM     16  C   UNL     1      19.301  14.792  42.914  1.00  0.00    -0.000 C 
BRANCH  16  17
ATOM     17  C   UNL     1      19.706  16.209  42.479  1.00  0.00    -0.000 C 
BRANCH  17  18
ATOM     18  C   UNL     1      21.203  16.489  42.698  1.00  0.00    -0.000 C 
BRANCH  18  19
ATOM     19  C   UNL     1      21.953  16.741  41.381  1.00  0.00    -0.003 C 
ATOM     20  C   UNL     1      22.978  15.652  41.070  1.00  0.00     0.004 C 
ENDBRANCH  18  19
ENDBRANCH  17  18
ENDBRANCH  16  17
ENDBRANCH  15  16
ENDBRANCH  14  15
ENDBRANCH  13  14
ENDBRANCH  12  13
ENDBRANCH   1  12
TORSDOF 16
ENDMDL
MODEL 6
REMARK VINA RESULT:    -5.300      1.288      2.769
REMARK INTER + INTRA:         -11.762
REMARK INTER:                  -9.898
REMARK INTRA:                  -1.864
REMARK UNBOUND:                -1.505
REMARK SMILES CCCCCCCCCCCCCCCCCC(=O)[O-]
REMARK SMILES IDX 10 1 11 2 12 3 13 4 14 5 15 6 16 7 17 8 18 9 19 10 20 11
REMARK SMILES IDX 9 12 8 13 7 14 6 15 5 16 4 17 3 18 2 19 1 20
REMARK H PARENT
REMARK Flexibility Score: inf
ROOT
ATOM      1  C   UNL     1       6.932   9.844  39.149  1.00  0.00     0.000 C 
ENDROOT
BRANCH   1   2
ATOM      2  C   UNL     1       8.311   9.795  38.467  1.00  0.00     0.000 C 
BRANCH   2   3
ATOM      3  C   UNL     1       9.397  10.509  39.287  1.00  0.00     0.000 C 
BRANCH   3   4
ATOM      4  C   UNL     1      10.076  11.649  38.508  1.00  0.00     0.000 C 
BRANCH   4   5
ATOM      5  C   UNL     1       9.705  13.043  39.047  1.00  0.00     0.000 C 
BRANCH   5   6
ATOM      6  C   UNL     1       8.696  13.042  40.210  1.00  0.00     0.000 C 
BRANCH   6   7
ATOM      7  C   UNL     1       9.250  13.703  41.484  1.00  0.00     0.006 C 
BRANCH   7   8
ATOM      8  C   UNL     1       8.147  14.006  42.507  1.00  0.00     0.053 C 
BRANCH   8   9
ATOM      9  C   UNL     1       8.036  15.472  42.792  1.00  0.00     0.041 C 
ATOM     10  O   UNL     1       7.020  15.928  43.380  1.00  0.00    -0.550 OA
ATOM     11  O   UNL     1       9.069  16.331  42.436  1.00  0.00    -0.550 OA
ENDBRANCH   8   9
ENDBRANCH   7   8
ENDBRANCH   6   7
ENDBRANCH   5   6
ENDBRANCH   4   5
ENDBRANCH   3   4
ENDBRANCH   2   3
ENDBRANCH   1   2
BRANCH   1  12
ATOM     12  C   UNL     1       6.639   8.594  39.997  1.00  0.00     0.000 C 
BRANCH  12  13
ATOM     13  C   UNL     1       6.443   8.851  41.505  1.00  0.00    -0.000 C 
BRANCH  13  14
ATOM     14  C   UNL     1       7.106  10.133  42.041  1.00  0.00    -0.000 C 
BRANCH  14  15
ATOM     15  C   UNL     1       8.571   9.922  42.451  1.00  0.00    -0.000 C 
BRANCH  15  16
ATOM     16  C   UNL     1       8.791  10.309  43.920  1.00  0.00    -0.000 C 
BRANCH  16  17
ATOM     17  C   UNL     1       8.396   9.187  44.893  1.00  0.00    -0.000 C 
BRANCH  17  18
ATOM     18  C   UNL     1       9.585   8.689  45.733  1.00  0.00    -0.000 C 
BRANCH  18  19
ATOM     19  C   UNL     1      10.899   9.399  45.373  1.00  0.00    -0.003 C 
ATOM     20  C   UNL     1      12.034   8.421  45.072  1.00  0.00     0.004 C 
ENDBRANCH  18  19
ENDBRANCH  17  18
ENDBRANCH  16  17
ENDBRANCH  15  16
ENDBRANCH  14  15
ENDBRANCH  13  14
ENDBRANCH  12  13
ENDBRANCH   1  12
TORSDOF 16
ENDMDL
MODEL 7
REMARK VINA RESULT:    -5.284     11.418     13.618
REMARK INTER + INTRA:         -11.732
REMARK INTER:                  -9.895
REMARK INTRA:                  -1.837
REMARK UNBOUND:                -1.505
REMARK SMILES CCCCCCCCCCCCCCCCCC(=O)[O-]
REMARK SMILES IDX 10 1 11 2 12 3 13 4 14 5 15 6 16 7 17 8 18 9 19 10 20 11
REMARK SMILES IDX 9 12 8 13 7 14 6 15 5 16 4 17 3 18 2 19 1 20
REMARK H PARENT
REMARK Flexibility Score: inf
ROOT
ATOM      1  C   UNL     1      21.733  15.916  42.335  1.00  0.00     0.000 C 
ENDROOT
BRANCH   1   2
ATOM      2  C   UNL     1      20.426  15.942  43.146  1.00  0.00     0.000 C 
BRANCH   2   3
ATOM      3  C   UNL     1      19.818  14.542  43.326  1.00  0.00     0.000 C 
BRANCH   3   4
ATOM      4  C   UNL     1      20.123  13.934  44.707  1.00  0.00     0.000 C 
BRANCH   4   5
ATOM      5  C   UNL     1      19.815  12.427  44.778  1.00  0.00     0.000 C 
BRANCH   5   6
ATOM      6  C   UNL     1      19.645  11.866  46.202  1.00  0.00     0.000 C 
BRANCH   6   7
ATOM      7  C   UNL     1      19.761  10.333  46.259  1.00  0.00     0.006 C 
BRANCH   7   8
ATOM      8  C   UNL     1      20.456   9.757  45.018  1.00  0.00     0.053 C 
BRANCH   8   9
ATOM      9  C   UNL     1      21.850   9.299  45.321  1.00  0.00     0.041 C 
ATOM     10  O   UNL     1      22.080   8.084  45.555  1.00  0.00    -0.550 OA
ATOM     11  O   UNL     1      22.899  10.210  45.317  1.00  0.00    -0.550 OA
ENDBRANCH   8   9
ENDBRANCH   7   8
ENDBRANCH   6   7
ENDBRANCH   5   6
ENDBRANCH   4   5
ENDBRANCH   3   4
ENDBRANCH   2   3
ENDBRANCH   1   2
BRANCH   1  12
ATOM     12  C   UNL     1      22.020  14.540  41.707  1.00  0.00     0.000 C 
BRANCH  12  13
ATOM     13  C   UNL     1      23.230  13.786  42.296  1.00  0.00    -0.000 C 
BRANCH  13  14
ATOM     14  C   UNL     1      22.979  12.303  42.622  1.00  0.00    -0.000 C 
BRANCH  14  15
ATOM     15  C   UNL     1      21.661  11.776  42.035  1.00  0.00    -0.000 C 
BRANCH  15  16
ATOM     16  C   UNL     1      21.818  10.329  41.546  1.00  0.00    -0.000 C 
BRANCH  16  17
ATOM     17  C   UNL     1      20.468   9.619  41.359  1.00  0.00    -0.000 C 
BRANCH  17  18
ATOM     18  C   UNL     1      20.152   9.332  39.880  1.00  0.00    -0.000 C 
BRANCH  18  19
ATOM     19  C   UNL     1      18.661   9.508  39.553  1.00  0.00    -0.003 C 
ATOM     20  C   UNL     1      17.866   8.213  39.715  1.00  0.00     0.004 C 
ENDBRANCH  18  19
ENDBRANCH  17  18
ENDBRANCH  16  17
ENDBRANCH  15  16
ENDBRANCH  14  15
ENDBRANCH  13  14
ENDBRANCH  12  13
ENDBRANCH   1  12
TORSDOF 16
ENDMDL
MODEL 8
REMARK VINA RESULT:    -5.274      2.675      4.254
REMARK INTER + INTRA:         -11.712
REMARK INTER:                 -10.025
REMARK INTRA:                  -1.687
REMARK UNBOUND:                -1.505
REMARK SMILES CCCCCCCCCCCCCCCCCC(=O)[O-]
REMARK SMILES IDX 10 1 11 2 12 3 13 4 14 5 15 6 16 7 17 8 18 9 19 10 20 11
REMARK SMILES IDX 9 12 8 13 7 14 6 15 5 16 4 17 3 18 2 19 1 20
REMARK H PARENT
REMARK Flexibility Score: inf
ROOT
ATOM      1  C   UNL     1       5.589  14.205  41.912  1.00  0.00     0.000 C 
ENDROOT
BRANCH   1   2
ATOM      2  C   UNL     1       5.912  15.395  42.832  1.00  0.00     0.000 C 
BRANCH   2   3
ATOM      3  C   UNL     1       7.417  15.535  43.106  1.00  0.00     0.000 C 
BRANCH   3   4
ATOM      4  C   UNL     1       8.113  16.494  42.124  1.00  0.00     0.000 C 
BRANCH   4   5
ATOM      5  C   UNL     1       9.427  15.923  41.562  1.00  0.00     0.000 C 
BRANCH   5   6
ATOM      6  C   UNL     1       9.530  14.386  41.586  1.00  0.00     0.000 C 
BRANCH   6   7
ATOM      7  C   UNL     1       9.435  13.758  40.186  1.00  0.00     0.006 C 
BRANCH   7   8
ATOM      8  C   UNL     1       9.179  12.245  40.245  1.00  0.00     0.053 C 
BRANCH   8   9
ATOM      9  C   UNL     1       9.662  11.549  39.010  1.00  0.00     0.041 C 
ATOM     10  O   UNL     1      10.110  12.217  38.041  1.00  0.00    -0.550 OA
ATOM     11  O   UNL     1       9.645  10.162  38.940  1.00  0.00    -0.550 OA
ENDBRANCH   8   9
ENDBRANCH   7   8
ENDBRANCH   6   7
ENDBRANCH   5   6
ENDBRANCH   4   5
ENDBRANCH   3   4
ENDBRANCH   2   3
ENDBRANCH   1   2
BRANCH   1  12
ATOM     12  C   UNL     1       6.259  12.897  42.369  1.00  0.00     0.000 C 
BRANCH  12  13
ATOM     13  C   UNL     1       5.940  11.657  41.509  1.00  0.00    -0.000 C 
BRANCH  13  14
ATOM     14  C   UNL     1       6.635  10.357  41.953  1.00  0.00    -0.000 C 
BRANCH  14  15
ATOM     15  C   UNL     1       7.593  10.565  43.136  1.00  0.00    -0.000 C 
BRANCH  15  16
ATOM     16  C   UNL     1       7.253   9.613  44.291  1.00  0.00    -0.000 C 
BRANCH  16  17
ATOM     17  C   UNL     1       8.305   9.643  45.410  1.00  0.00    -0.000 C 
BRANCH  17  18
ATOM     18  C   UNL     1       9.491   8.702  45.131  1.00  0.00    -0.000 C 
BRANCH  18  19
ATOM     19  C   UNL     1      10.848   9.375  45.385  1.00  0.00    -0.003 C 
ATOM     20  C   UNL     1      12.007   8.380  45.395  1.00  0.00     0.004 C 
ENDBRANCH  18  19
ENDBRANCH  17  18
ENDBRANCH  16  17
ENDBRANCH  15  16
ENDBRANCH  14  15
ENDBRANCH  13  14
ENDBRANCH  12  13
ENDBRANCH   1  12
TORSDOF 16
ENDMDL
MODEL 9
REMARK VINA RESULT:    -5.242      2.754      6.550
REMARK INTER + INTRA:         -11.650
REMARK INTER:                  -9.661
REMARK INTRA:                  -1.989
REMARK UNBOUND:                -1.505
REMARK SMILES CCCCCCCCCCCCCCCCCC(=O)[O-]
REMARK SMILES IDX 10 1 11 2 12 3 13 4 14 5 15 6 16 7 17 8 18 9 19 10 20 11
REMARK SMILES IDX 9 12 8 13 7 14 6 15 5 16 4 17 3 18 2 19 1 20
REMARK H PARENT
REMARK Flexibility Score: inf
ROOT
ATOM      1  C   UNL     1       9.748  12.153  38.951  1.00  0.00     0.000 C 
ENDROOT
BRANCH   1   2
ATOM      2  C   UNL     1       9.581  10.672  39.334  1.00  0.00     0.000 C 
BRANCH   2   3
ATOM      3  C   UNL     1       8.148  10.165  39.108  1.00  0.00     0.000 C 
BRANCH   3   4
ATOM      4  C   UNL     1       7.802   8.952  39.990  1.00  0.00     0.000 C 
BRANCH   4   5
ATOM      5  C   UNL     1       8.889   8.645  41.037  1.00  0.00     0.000 C 
BRANCH   5   6
ATOM      6  C   UNL     1       8.521   9.025  42.484  1.00  0.00     0.000 C 
BRANCH   6   7
ATOM      7  C   UNL     1       9.105   8.054  43.524  1.00  0.00     0.006 C 
BRANCH   7   8
ATOM      8  C   UNL     1       9.114   8.655  44.937  1.00  0.00     0.053 C 
BRANCH   8   9
ATOM      9  C   UNL     1      10.476   9.141  45.327  1.00  0.00     0.041 C 
ATOM     10  O   UNL     1      10.729  10.375  45.335  1.00  0.00    -0.550 OA
ATOM     11  O   UNL     1      11.457   8.235  45.710  1.00  0.00    -0.550 OA
ENDBRANCH   8   9
ENDBRANCH   7   8
ENDBRANCH   6   7
ENDBRANCH   5   6
ENDBRANCH   4   5
ENDBRANCH   3   4
ENDBRANCH   2   3
ENDBRANCH   1   2
BRANCH   1  12
ATOM     12  C   UNL     1       9.072  13.109  39.951  1.00  0.00     0.000 C 
BRANCH  12  13
ATOM     13  C   UNL     1       9.040  12.618  41.413  1.00  0.00    -0.000 C 
BRANCH  13  14
ATOM     14  C   UNL     1       7.671  12.727  42.109  1.00  0.00    -0.000 C 
BRANCH  14  15
ATOM     15  C   UNL     1       6.695  13.652  41.366  1.00  0.00    -0.000 C 
BRANCH  15  16
ATOM     16  C   UNL     1       5.845  14.461  42.356  1.00  0.00    -0.000 C 
BRANCH  16  17
ATOM     17  C   UNL     1       6.661  15.528  43.101  1.00  0.00    -0.000 C 
BRANCH  17  18
ATOM     18  C   UNL     1       7.165  16.644  42.169  1.00  0.00    -0.000 C 
BRANCH  18  19
ATOM     19  C   UNL     1       8.610  17.061  42.479  1.00  0.00    -0.003 C 
ATOM     20  C   UNL     1       9.638  16.257  41.684  1.00  0.00     0.004 C 
ENDBRANCH  18  19
ENDBRANCH  17  18
ENDBRANCH  16  17
ENDBRANCH  15  16
ENDBRANCH  14  15
ENDBRANCH  13  14
ENDBRANCH  12  13
ENDBRANCH   1  12
TORSDOF 16
ENDMDL
