MODEL 1
REMARK VINA RESULT:     0.561      0.000      0.000
REMARK INTER + INTRA:           2.608
REMARK INTER:                   0.610
REMARK INTRA:                   1.998
REMARK UNBOUND:                 1.998
REMARK SMILES CC1(C)CC[C@]2(C(=O)[O-])CC[C@@]3(C)C(=CC[C@H]4[C@@]5(C)CC[C@@H](O)C(C)(C)[C@@H]5CC[C@@]43C)[C@H]2C1
REMARK SMILES IDX 6 1 5 2 10 3 32 4 4 5 11 6 14 7 33 8 2 9 12 10 15 11 1 12
REMARK SMILES IDX 3 13 13 14 30 15 16 16 17 17 29 18 31 19 18 20 28 21 27 22
REMARK SMILES IDX 20 23 19 24 24 25 21 26 22 27 25 28 26 29 7 30 8 31 9 32
REMARK SMILES IDX 23 33
REMARK H PARENT 23 34
REMARK Flexibility Score: inf
ROOT
ATOM      1  C   UNL     1     -44.833  28.257   7.147  1.00  0.00     0.017 C 
ATOM      2  C   UNL     1     -44.238  27.597   8.417  1.00  0.00     0.014 C 
ATOM      3  C   UNL     1     -45.738  27.241   6.430  1.00  0.00     0.014 C 
ATOM      4  C   UNL     1     -43.662  28.582   6.175  1.00  0.00     0.028 C 
ATOM      5  C   UNL     1     -43.233  28.525   9.122  1.00  0.00     0.007 C 
ATOM      6  C   UNL     1     -46.461  27.873   5.236  1.00  0.00     0.013 C 
ATOM      7  C   UNL     1     -44.116  28.963   4.751  1.00  0.00    -0.064 C 
ATOM      8  C   UNL     1     -42.617  29.532   6.841  1.00  0.00     0.015 C 
ATOM      9  C   UNL     1     -42.075  28.991   8.199  1.00  0.00    -0.035 C 
ATOM     10  C   UNL     1     -45.560  28.707   4.232  1.00  0.00    -0.006 C 
ATOM     11  C   UNL     1     -43.150  29.279   3.848  1.00  0.00    -0.027 C 
ATOM     12  C   UNL     1     -41.078  27.828   7.963  1.00  0.00     0.011 C 
ATOM     13  C   UNL     1     -41.307  30.125   8.912  1.00  0.00     0.011 C 
ATOM     14  C   UNL     1     -46.209  30.125   4.092  1.00  0.00     0.017 C 
ATOM     15  C   UNL     1     -45.475  27.948   2.813  1.00  0.00    -0.020 C 
ATOM     16  C   UNL     1     -43.348  29.416   2.359  1.00  0.00     0.032 C 
ATOM     17  C   UNL     1     -44.690  28.860   1.798  1.00  0.00     0.006 C 
ATOM     18  C   UNL     1     -46.923  27.636   2.235  1.00  0.00     0.008 C 
ATOM     19  C   UNL     1     -44.711  26.594   3.025  1.00  0.00     0.012 C 
ATOM     20  C   UNL     1     -44.643  28.395   0.265  1.00  0.00    -0.025 C 
ATOM     21  C   UNL     1     -47.123  27.934   0.730  1.00  0.00     0.005 C 
ATOM     22  C   UNL     1     -45.880  27.478  -0.054  1.00  0.00     0.003 C 
ATOM     23  C   UNL     1     -43.356  27.586  -0.118  1.00  0.00     0.010 C 
ATOM     24  C   UNL     1     -44.653  29.716  -0.570  1.00  0.00     0.012 C 
ATOM     25  C   UNL     1     -46.074  27.067  -1.569  1.00  0.00    -0.006 C 
ATOM     26  C   UNL     1     -43.550  26.543  -1.251  1.00  0.00     0.033 C 
ATOM     27  C   UNL     1     -44.662  26.899  -2.262  1.00  0.00     0.120 C 
ATOM     28  C   UNL     1     -46.925  28.095  -2.352  1.00  0.00     0.014 C 
ATOM     29  C   UNL     1     -46.841  25.710  -1.624  1.00  0.00     0.014 C 
ENDROOT
BRANCH   1  30
ATOM     30  C   UNL     1     -45.672  29.461   7.583  1.00  0.00     0.048 C 
ATOM     31  O   UNL     1     -45.328  30.122   8.600  1.00  0.00    -0.550 OA
ATOM     32  O   UNL     1     -46.802  29.865   6.886  1.00  0.00    -0.550 OA
ENDBRANCH   1  30
BRANCH  27  33
ATOM     33  O   UNL     1     -44.685  25.905  -3.258  1.00  0.00    -0.393 OA
ATOM     34  H   UNL     1     -43.864  26.022  -3.805  1.00  0.00     0.210 HD
ENDBRANCH  27  33
TORSDOF 2
ENDMDL
