MODEL 1
REMARK VINA RESULT:    -5.075      0.000      0.000
REMARK INTER + INTRA:         -14.004
REMARK INTER:                 -11.008
REMARK INTRA:                  -2.996
REMARK UNBOUND:                -2.996
REMARK SMILES CCCCCCCCCCCCCCCCCCCCCC(=O)[O-]
REMARK SMILES IDX 12 1 11 2 10 3 9 4 8 5 7 6 6 7 5 8 4 9 3 10 2 11 1 12 13 13
REMARK SMILES IDX 14 14 15 15 16 16 17 17 18 18 19 19 20 20 21 21 22 22 23 23
REMARK SMILES IDX 24 24
REMARK H PARENT
REMARK Flexibility Score: inf
ROOT
ATOM      1  C   UNL     1      17.891 -34.819  20.058  1.00  0.00     0.000 C 
ENDROOT
BRANCH   1   2
ATOM      2  C   UNL     1      16.502 -35.254  19.561  1.00  0.00     0.000 C 
BRANCH   2   3
ATOM      3  C   UNL     1      15.372 -34.814  20.506  1.00  0.00     0.000 C 
BRANCH   3   4
ATOM      4  C   UNL     1      14.550 -33.648  19.930  1.00  0.00    -0.000 C 
BRANCH   4   5
ATOM      5  C   UNL     1      14.196 -32.585  20.987  1.00  0.00    -0.000 C 
BRANCH   5   6
ATOM      6  C   UNL     1      13.095 -31.592  20.572  1.00  0.00    -0.000 C 
BRANCH   6   7
ATOM      7  C   UNL     1      12.423 -30.835  21.734  1.00  0.00    -0.000 C 
BRANCH   7   8
ATOM      8  C   UNL     1      13.164 -30.970  23.081  1.00  0.00    -0.000 C 
BRANCH   8   9
ATOM      9  C   UNL     1      13.083 -29.691  23.931  1.00  0.00    -0.000 C 
BRANCH   9  10
ATOM     10  C   UNL     1      13.615 -28.451  23.195  1.00  0.00    -0.000 C 
BRANCH  10  11
ATOM     11  C   UNL     1      13.014 -27.126  23.709  1.00  0.00    -0.003 C 
ATOM     12  C   UNL     1      11.510 -27.228  23.956  1.00  0.00     0.004 C 
ENDBRANCH  10  11
ENDBRANCH   9  10
ENDBRANCH   8   9
ENDBRANCH   7   8
ENDBRANCH   6   7
ENDBRANCH   5   6
ENDBRANCH   4   5
ENDBRANCH   3   4
ENDBRANCH   2   3
ENDBRANCH   1   2
BRANCH   1  13
ATOM     13  C   UNL     1      18.345 -33.473  19.464  1.00  0.00     0.000 C 
BRANCH  13  14
ATOM     14  C   UNL     1      17.850 -32.228  20.220  1.00  0.00     0.000 C 
BRANCH  14  15
ATOM     15  C   UNL     1      18.990 -31.416  20.850  1.00  0.00     0.000 C 
BRANCH  15  16
ATOM     16  C   UNL     1      18.481 -30.062  21.362  1.00  0.00     0.000 C 
BRANCH  16  17
ATOM     17  C   UNL     1      17.008 -30.104  21.804  1.00  0.00     0.000 C 
BRANCH  17  18
ATOM     18  C   UNL     1      16.787 -30.266  23.323  1.00  0.00     0.000 C 
BRANCH  18  19
ATOM     19  C   UNL     1      17.268 -31.603  23.919  1.00  0.00     0.000 C 
BRANCH  19  20
ATOM     20  C   UNL     1      16.387 -32.825  23.592  1.00  0.00     0.006 C 
BRANCH  20  21
ATOM     21  C   UNL     1      16.891 -34.143  24.208  1.00  0.00     0.053 C 
BRANCH  21  22
ATOM     22  C   UNL     1      18.379 -34.172  24.378  1.00  0.00     0.041 C 
ATOM     23  O   UNL     1      18.898 -33.886  25.490  1.00  0.00    -0.550 OA
ATOM     24  O   UNL     1      19.196 -34.479  23.298  1.00  0.00    -0.550 OA
ENDBRANCH  21  22
ENDBRANCH  20  21
ENDBRANCH  19  20
ENDBRANCH  18  19
ENDBRANCH  17  18
ENDBRANCH  16  17
ENDBRANCH  15  16
ENDBRANCH  14  15
ENDBRANCH  13  14
ENDBRANCH   1  13
TORSDOF 20
ENDMDL
MODEL 2
REMARK VINA RESULT:    -5.007      2.995      6.708
REMARK INTER + INTRA:         -13.857
REMARK INTER:                 -10.652
REMARK INTRA:                  -3.205
REMARK UNBOUND:                -2.996
REMARK SMILES CCCCCCCCCCCCCCCCCCCCCC(=O)[O-]
REMARK SMILES IDX 12 1 11 2 10 3 9 4 8 5 7 6 6 7 5 8 4 9 3 10 2 11 1 12 13 13
REMARK SMILES IDX 14 14 15 15 16 16 17 17 18 18 19 19 20 20 21 21 22 22 23 23
REMARK SMILES IDX 24 24
REMARK H PARENT
REMARK Flexibility Score: inf
ROOT
ATOM      1  C   UNL     1      17.372 -29.873  21.984  1.00  0.00     0.000 C 
ENDROOT
BRANCH   1   2
ATOM      2  C   UNL     1      17.867 -30.672  20.765  1.00  0.00     0.000 C 
BRANCH   2   3
ATOM      3  C   UNL     1      18.276 -32.110  21.128  1.00  0.00     0.000 C 
BRANCH   3   4
ATOM      4  C   UNL     1      18.348 -33.025  19.895  1.00  0.00    -0.000 C 
BRANCH   4   5
ATOM      5  C   UNL     1      16.984 -33.636  19.522  1.00  0.00    -0.000 C 
BRANCH   5   6
ATOM      6  C   UNL     1      17.023 -35.121  19.113  1.00  0.00    -0.000 C 
BRANCH   6   7
ATOM      7  C   UNL     1      16.646 -36.117  20.227  1.00  0.00    -0.000 C 
BRANCH   7   8
ATOM      8  C   UNL     1      17.822 -36.993  20.708  1.00  0.00    -0.000 C 
BRANCH   8   9
ATOM      9  C   UNL     1      18.474 -36.452  21.992  1.00  0.00    -0.000 C 
BRANCH   9  10
ATOM     10  C   UNL     1      17.598 -35.416  22.715  1.00  0.00    -0.000 C 
BRANCH  10  11
ATOM     11  C   UNL     1      18.215 -34.902  24.032  1.00  0.00    -0.003 C 
ATOM     12  C   UNL     1      17.255 -35.030  25.213  1.00  0.00     0.004 C 
ENDBRANCH  10  11
ENDBRANCH   9  10
ENDBRANCH   8   9
ENDBRANCH   7   8
ENDBRANCH   6   7
ENDBRANCH   5   6
ENDBRANCH   4   5
ENDBRANCH   3   4
ENDBRANCH   2   3
ENDBRANCH   1   2
BRANCH   1  13
ATOM     13  C   UNL     1      17.085 -30.764  23.206  1.00  0.00     0.000 C 
BRANCH  13  14
ATOM     14  C   UNL     1      15.598 -31.068  23.454  1.00  0.00     0.000 C 
BRANCH  14  15
ATOM     15  C   UNL     1      15.271 -32.566  23.372  1.00  0.00     0.000 C 
BRANCH  15  16
ATOM     16  C   UNL     1      14.563 -32.900  22.051  1.00  0.00     0.000 C 
BRANCH  16  17
ATOM     17  C   UNL     1      14.280 -31.656  21.191  1.00  0.00     0.000 C 
BRANCH  17  18
ATOM     18  C   UNL     1      13.014 -31.744  20.314  1.00  0.00     0.000 C 
BRANCH  18  19
ATOM     19  C   UNL     1      11.797 -30.952  20.831  1.00  0.00     0.000 C 
BRANCH  19  20
ATOM     20  C   UNL     1      11.956 -30.346  22.239  1.00  0.00     0.006 C 
BRANCH  20  21
ATOM     21  C   UNL     1      11.121 -29.073  22.470  1.00  0.00     0.053 C 
BRANCH  21  22
ATOM     22  C   UNL     1      11.658 -28.220  23.578  1.00  0.00     0.041 C 
ATOM     23  O   UNL     1      11.221 -27.051  23.749  1.00  0.00    -0.550 OA
ATOM     24  O   UNL     1      12.668 -28.702  24.400  1.00  0.00    -0.550 OA
ENDBRANCH  21  22
ENDBRANCH  20  21
ENDBRANCH  19  20
ENDBRANCH  18  19
ENDBRANCH  17  18
ENDBRANCH  16  17
ENDBRANCH  15  16
ENDBRANCH  14  15
ENDBRANCH  13  14
ENDBRANCH   1  13
TORSDOF 20
ENDMDL
MODEL 3
REMARK VINA RESULT:    -4.985      3.195      5.402
REMARK INTER + INTRA:         -13.810
REMARK INTER:                 -10.281
REMARK INTRA:                  -3.529
REMARK UNBOUND:                -2.996
REMARK SMILES CCCCCCCCCCCCCCCCCCCCCC(=O)[O-]
REMARK SMILES IDX 12 1 11 2 10 3 9 4 8 5 7 6 6 7 5 8 4 9 3 10 2 11 1 12 13 13
REMARK SMILES IDX 14 14 15 15 16 16 17 17 18 18 19 19 20 20 21 21 22 22 23 23
REMARK SMILES IDX 24 24
REMARK H PARENT
REMARK Flexibility Score: inf
ROOT
ATOM      1  C   UNL     1      19.438 -34.615  22.641  1.00  0.00     0.000 C 
ENDROOT
BRANCH   1   2
ATOM      2  C   UNL     1      19.209 -35.317  21.291  1.00  0.00     0.000 C 
BRANCH   2   3
ATOM      3  C   UNL     1      18.309 -36.558  21.416  1.00  0.00     0.000 C 
BRANCH   3   4
ATOM      4  C   UNL     1      18.011 -37.201  20.052  1.00  0.00    -0.000 C 
BRANCH   4   5
ATOM      5  C   UNL     1      17.077 -36.344  19.177  1.00  0.00    -0.000 C 
BRANCH   5   6
ATOM      6  C   UNL     1      15.771 -35.896  19.859  1.00  0.00    -0.000 C 
BRANCH   6   7
ATOM      7  C   UNL     1      15.426 -34.403  19.698  1.00  0.00    -0.000 C 
BRANCH   7   8
ATOM      8  C   UNL     1      14.925 -33.733  20.994  1.00  0.00    -0.000 C 
BRANCH   8   9
ATOM      9  C   UNL     1      15.892 -33.930  22.173  1.00  0.00    -0.000 C 
BRANCH   9  10
ATOM     10  C   UNL     1      15.374 -33.308  23.480  1.00  0.00    -0.000 C 
BRANCH  10  11
ATOM     11  C   UNL     1      16.494 -32.980  24.490  1.00  0.00    -0.003 C 
ATOM     12  C   UNL     1      16.748 -34.126  25.468  1.00  0.00     0.004 C 
ENDBRANCH  10  11
ENDBRANCH   9  10
ENDBRANCH   8   9
ENDBRANCH   7   8
ENDBRANCH   6   7
ENDBRANCH   5   6
ENDBRANCH   4   5
ENDBRANCH   3   4
ENDBRANCH   2   3
ENDBRANCH   1   2
BRANCH   1  13
ATOM     13  C   UNL     1      19.487 -33.081  22.517  1.00  0.00     0.000 C 
BRANCH  13  14
ATOM     14  C   UNL     1      19.131 -32.529  21.125  1.00  0.00     0.000 C 
BRANCH  14  15
ATOM     15  C   UNL     1      18.768 -31.038  21.147  1.00  0.00     0.000 C 
BRANCH  15  16
ATOM     16  C   UNL     1      17.257 -30.840  20.966  1.00  0.00     0.000 C 
BRANCH  16  17
ATOM     17  C   UNL     1      16.605 -30.090  22.141  1.00  0.00     0.000 C 
BRANCH  17  18
ATOM     18  C   UNL     1      15.308 -29.332  21.792  1.00  0.00     0.000 C 
BRANCH  18  19
ATOM     19  C   UNL     1      14.075 -30.219  21.534  1.00  0.00     0.000 C 
BRANCH  19  20
ATOM     20  C   UNL     1      13.176 -30.469  22.761  1.00  0.00     0.006 C 
BRANCH  20  21
ATOM     21  C   UNL     1      13.030 -29.248  23.688  1.00  0.00     0.053 C 
BRANCH  21  22
ATOM     22  C   UNL     1      11.772 -28.476  23.437  1.00  0.00     0.041 C 
ATOM     23  O   UNL     1      11.491 -27.471  24.143  1.00  0.00    -0.550 OA
ATOM     24  O   UNL     1      10.888 -28.887  22.447  1.00  0.00    -0.550 OA
ENDBRANCH  21  22
ENDBRANCH  20  21
ENDBRANCH  19  20
ENDBRANCH  18  19
ENDBRANCH  17  18
ENDBRANCH  16  17
ENDBRANCH  15  16
ENDBRANCH  14  15
ENDBRANCH  13  14
ENDBRANCH   1  13
TORSDOF 20
ENDMDL
MODEL 4
REMARK VINA RESULT:    -4.937      2.116      4.256
REMARK INTER + INTRA:         -13.704
REMARK INTER:                 -10.330
REMARK INTRA:                  -3.375
REMARK UNBOUND:                -2.996
REMARK SMILES CCCCCCCCCCCCCCCCCCCCCC(=O)[O-]
REMARK SMILES IDX 12 1 11 2 10 3 9 4 8 5 7 6 6 7 5 8 4 9 3 10 2 11 1 12 13 13
REMARK SMILES IDX 14 14 15 15 16 16 17 17 18 18 19 19 20 20 21 21 22 22 23 23
REMARK SMILES IDX 24 24
REMARK H PARENT
REMARK Flexibility Score: inf
ROOT
ATOM      1  C   UNL     1      14.962 -33.374  20.834  1.00  0.00     0.000 C 
ENDROOT
BRANCH   1   2
ATOM      2  C   UNL     1      15.423 -33.933  22.191  1.00  0.00     0.000 C 
BRANCH   2   3
ATOM      3  C   UNL     1      15.035 -33.022  23.368  1.00  0.00     0.000 C 
BRANCH   3   4
ATOM      4  C   UNL     1      16.250 -32.297  23.969  1.00  0.00    -0.000 C 
BRANCH   4   5
ATOM      5  C   UNL     1      16.401 -30.853  23.454  1.00  0.00    -0.000 C 
BRANCH   5   6
ATOM      6  C   UNL     1      15.078 -30.101  23.221  1.00  0.00    -0.000 C 
BRANCH   6   7
ATOM      7  C   UNL     1      14.773 -29.751  21.752  1.00  0.00    -0.000 C 
BRANCH   7   8
ATOM      8  C   UNL     1      13.418 -30.291  21.248  1.00  0.00    -0.000 C 
BRANCH   8   9
ATOM      9  C   UNL     1      12.369 -30.392  22.369  1.00  0.00    -0.000 C 
BRANCH   9  10
ATOM     10  C   UNL     1      11.484 -29.139  22.472  1.00  0.00    -0.000 C 
BRANCH  10  11
ATOM     11  C   UNL     1      11.705 -28.337  23.772  1.00  0.00    -0.003 C 
ATOM     12  C   UNL     1      12.741 -27.228  23.601  1.00  0.00     0.004 C 
ENDBRANCH  10  11
ENDBRANCH   9  10
ENDBRANCH   8   9
ENDBRANCH   7   8
ENDBRANCH   6   7
ENDBRANCH   5   6
ENDBRANCH   4   5
ENDBRANCH   3   4
ENDBRANCH   2   3
ENDBRANCH   1   2
BRANCH   1  13
ATOM     13  C   UNL     1      15.408 -34.245  19.646  1.00  0.00     0.000 C 
BRANCH  13  14
ATOM     14  C   UNL     1      15.703 -35.715  19.991  1.00  0.00     0.000 C 
BRANCH  14  15
ATOM     15  C   UNL     1      16.957 -36.255  19.291  1.00  0.00     0.000 C 
BRANCH  15  16
ATOM     16  C   UNL     1      17.873 -36.978  20.289  1.00  0.00     0.000 C 
BRANCH  16  17
ATOM     17  C   UNL     1      18.029 -36.219  21.618  1.00  0.00     0.000 C 
BRANCH  17  18
ATOM     18  C   UNL     1      19.117 -35.125  21.621  1.00  0.00     0.000 C 
BRANCH  18  19
ATOM     19  C   UNL     1      18.832 -33.910  20.717  1.00  0.00     0.000 C 
BRANCH  19  20
ATOM     20  C   UNL     1      18.932 -32.537  21.411  1.00  0.00     0.006 C 
BRANCH  20  21
ATOM     21  C   UNL     1      18.343 -31.377  20.588  1.00  0.00     0.053 C 
BRANCH  21  22
ATOM     22  C   UNL     1      18.946 -30.052  20.939  1.00  0.00     0.041 C 
ATOM     23  O   UNL     1      20.163 -29.971  21.254  1.00  0.00    -0.550 OA
ATOM     24  O   UNL     1      18.156 -28.910  20.954  1.00  0.00    -0.550 OA
ENDBRANCH  21  22
ENDBRANCH  20  21
ENDBRANCH  19  20
ENDBRANCH  18  19
ENDBRANCH  17  18
ENDBRANCH  16  17
ENDBRANCH  15  16
ENDBRANCH  14  15
ENDBRANCH  13  14
ENDBRANCH   1  13
TORSDOF 20
ENDMDL
MODEL 5
REMARK VINA RESULT:    -4.925      3.901      5.201
REMARK INTER + INTRA:         -13.679
REMARK INTER:                 -11.679
REMARK INTRA:                  -2.000
REMARK UNBOUND:                -2.996
REMARK SMILES CCCCCCCCCCCCCCCCCCCCCC(=O)[O-]
REMARK SMILES IDX 12 1 11 2 10 3 9 4 8 5 7 6 6 7 5 8 4 9 3 10 2 11 1 12 13 13
REMARK SMILES IDX 14 14 15 15 16 16 17 17 18 18 19 19 20 20 21 21 22 22 23 23
REMARK SMILES IDX 24 24
REMARK H PARENT
REMARK Flexibility Score: inf
ROOT
ATOM      1  C   UNL     1      17.570 -35.366  19.720  1.00  0.00     0.000 C 
ENDROOT
BRANCH   1   2
ATOM      2  C   UNL     1      16.033 -35.403  19.656  1.00  0.00     0.000 C 
BRANCH   2   3
ATOM      3  C   UNL     1      15.375 -34.665  20.833  1.00  0.00     0.000 C 
BRANCH   3   4
ATOM      4  C   UNL     1      14.617 -33.406  20.382  1.00  0.00    -0.000 C 
BRANCH   4   5
ATOM      5  C   UNL     1      14.157 -32.528  21.561  1.00  0.00    -0.000 C 
BRANCH   5   6
ATOM      6  C   UNL     1      15.107 -32.513  22.773  1.00  0.00    -0.000 C 
BRANCH   6   7
ATOM      7  C   UNL     1      15.526 -31.112  23.259  1.00  0.00    -0.000 C 
BRANCH   7   8
ATOM      8  C   UNL     1      14.633 -29.971  22.727  1.00  0.00    -0.000 C 
BRANCH   8   9
ATOM      9  C   UNL     1      13.385 -29.744  23.596  1.00  0.00    -0.000 C 
BRANCH   9  10
ATOM     10  C   UNL     1      12.491 -28.608  23.072  1.00  0.00    -0.000 C 
BRANCH  10  11
ATOM     11  C   UNL     1      11.111 -29.091  22.579  1.00  0.00    -0.003 C 
ATOM     12  C   UNL     1      11.218 -30.262  21.604  1.00  0.00     0.004 C 
ENDBRANCH  10  11
ENDBRANCH   9  10
ENDBRANCH   8   9
ENDBRANCH   7   8
ENDBRANCH   6   7
ENDBRANCH   5   6
ENDBRANCH   4   5
ENDBRANCH   3   4
ENDBRANCH   2   3
ENDBRANCH   1   2
BRANCH   1  13
ATOM     13  C   UNL     1      18.151 -33.994  19.331  1.00  0.00     0.000 C 
BRANCH  13  14
ATOM     14  C   UNL     1      18.581 -33.110  20.515  1.00  0.00     0.000 C 
BRANCH  14  15
ATOM     15  C   UNL     1      17.974 -31.702  20.463  1.00  0.00     0.000 C 
BRANCH  15  16
ATOM     16  C   UNL     1      18.984 -30.652  20.949  1.00  0.00     0.000 C 
BRANCH  16  17
ATOM     17  C   UNL     1      18.436 -29.216  20.879  1.00  0.00     0.000 C 
BRANCH  17  18
ATOM     18  C   UNL     1      19.483 -28.134  20.540  1.00  0.00     0.000 C 
BRANCH  18  19
ATOM     19  C   UNL     1      20.934 -28.475  20.932  1.00  0.00     0.000 C 
BRANCH  19  20
ATOM     20  C   UNL     1      21.828 -27.263  21.260  1.00  0.00     0.006 C 
BRANCH  20  21
ATOM     21  C   UNL     1      22.694 -26.788  20.079  1.00  0.00     0.053 C 
BRANCH  21  22
ATOM     22  C   UNL     1      22.371 -25.391  19.647  1.00  0.00     0.041 C 
ATOM     23  O   UNL     1      21.172 -25.031  19.505  1.00  0.00    -0.550 OA
ATOM     24  O   UNL     1      23.394 -24.495  19.365  1.00  0.00    -0.550 OA
ENDBRANCH  21  22
ENDBRANCH  20  21
ENDBRANCH  19  20
ENDBRANCH  18  19
ENDBRANCH  17  18
ENDBRANCH  16  17
ENDBRANCH  15  16
ENDBRANCH  14  15
ENDBRANCH  13  14
ENDBRANCH   1  13
TORSDOF 20
ENDMDL
MODEL 6
REMARK VINA RESULT:    -4.901      3.062      5.387
REMARK INTER + INTRA:         -13.627
REMARK INTER:                 -10.363
REMARK INTRA:                  -3.263
REMARK UNBOUND:                -2.996
REMARK SMILES CCCCCCCCCCCCCCCCCCCCCC(=O)[O-]
REMARK SMILES IDX 12 1 11 2 10 3 9 4 8 5 7 6 6 7 5 8 4 9 3 10 2 11 1 12 13 13
REMARK SMILES IDX 14 14 15 15 16 16 17 17 18 18 19 19 20 20 21 21 22 22 23 23
REMARK SMILES IDX 24 24
REMARK H PARENT
REMARK Flexibility Score: inf
ROOT
ATOM      1  C   UNL     1      17.842 -37.145  20.688  1.00  0.00     0.000 C 
ENDROOT
BRANCH   1   2
ATOM      2  C   UNL     1      17.263 -36.355  19.500  1.00  0.00     0.000 C 
BRANCH   2   3
ATOM      3  C   UNL     1      16.036 -35.517  19.892  1.00  0.00     0.000 C 
BRANCH   3   4
ATOM      4  C   UNL     1      16.221 -34.025  19.568  1.00  0.00    -0.000 C 
BRANCH   4   5
ATOM      5  C   UNL     1      17.690 -33.648  19.298  1.00  0.00    -0.000 C 
BRANCH   5   6
ATOM      6  C   UNL     1      18.240 -32.500  20.164  1.00  0.00    -0.000 C 
BRANCH   6   7
ATOM      7  C   UNL     1      17.221 -31.859  21.127  1.00  0.00    -0.000 C 
BRANCH   7   8
ATOM      8  C   UNL     1      17.743 -30.591  21.836  1.00  0.00    -0.000 C 
BRANCH   8   9
ATOM      9  C   UNL     1      17.522 -30.631  23.357  1.00  0.00    -0.000 C 
BRANCH   9  10
ATOM     10  C   UNL     1      18.804 -30.965  24.137  1.00  0.00    -0.000 C 
BRANCH  10  11
ATOM     11  C   UNL     1      18.589 -31.054  25.662  1.00  0.00    -0.003 C 
ATOM     12  C   UNL     1      19.389 -29.999  26.424  1.00  0.00     0.004 C 
ENDBRANCH  10  11
ENDBRANCH   9  10
ENDBRANCH   8   9
ENDBRANCH   7   8
ENDBRANCH   6   7
ENDBRANCH   5   6
ENDBRANCH   4   5
ENDBRANCH   3   4
ENDBRANCH   2   3
ENDBRANCH   1   2
BRANCH   1  13
ATOM     13  C   UNL     1      18.807 -36.309  21.548  1.00  0.00     0.000 C 
BRANCH  13  14
ATOM     14  C   UNL     1      18.322 -36.025  22.980  1.00  0.00     0.000 C 
BRANCH  14  15
ATOM     15  C   UNL     1      17.304 -34.879  23.051  1.00  0.00     0.000 C 
BRANCH  15  16
ATOM     16  C   UNL     1      17.240 -34.290  24.468  1.00  0.00     0.000 C 
BRANCH  16  17
ATOM     17  C   UNL     1      15.877 -33.656  24.793  1.00  0.00     0.000 C 
BRANCH  17  18
ATOM     18  C   UNL     1      14.997 -33.335  23.567  1.00  0.00     0.000 C 
BRANCH  18  19
ATOM     19  C   UNL     1      13.909 -32.268  23.796  1.00  0.00     0.000 C 
BRANCH  19  20
ATOM     20  C   UNL     1      14.040 -31.000  22.930  1.00  0.00     0.006 C 
BRANCH  20  21
ATOM     21  C   UNL     1      13.547 -29.716  23.624  1.00  0.00     0.053 C 
BRANCH  21  22
ATOM     22  C   UNL     1      12.189 -29.291  23.160  1.00  0.00     0.041 C 
ATOM     23  O   UNL     1      11.660 -29.837  22.155  1.00  0.00    -0.550 OA
ATOM     24  O   UNL     1      11.520 -28.264  23.815  1.00  0.00    -0.550 OA
ENDBRANCH  21  22
ENDBRANCH  20  21
ENDBRANCH  19  20
ENDBRANCH  18  19
ENDBRANCH  17  18
ENDBRANCH  16  17
ENDBRANCH  15  16
ENDBRANCH  14  15
ENDBRANCH  13  14
ENDBRANCH   1  13
TORSDOF 20
ENDMDL
MODEL 7
REMARK VINA RESULT:    -4.826      3.163      6.039
REMARK INTER + INTRA:         -13.465
REMARK INTER:                 -10.023
REMARK INTRA:                  -3.442
REMARK UNBOUND:                -2.996
REMARK SMILES CCCCCCCCCCCCCCCCCCCCCC(=O)[O-]
REMARK SMILES IDX 12 1 11 2 10 3 9 4 8 5 7 6 6 7 5 8 4 9 3 10 2 11 1 12 13 13
REMARK SMILES IDX 14 14 15 15 16 16 17 17 18 18 19 19 20 20 21 21 22 22 23 23
REMARK SMILES IDX 24 24
REMARK H PARENT
REMARK Flexibility Score: inf
ROOT
ATOM      1  C   UNL     1      17.903 -37.226  20.551  1.00  0.00     0.000 C 
ENDROOT
BRANCH   1   2
ATOM      2  C   UNL     1      18.111 -36.409  21.838  1.00  0.00     0.000 C 
BRANCH   2   3
ATOM      3  C   UNL     1      19.594 -36.107  22.113  1.00  0.00     0.000 C 
BRANCH   3   4
ATOM      4  C   UNL     1      19.885 -34.597  22.151  1.00  0.00    -0.000 C 
BRANCH   4   5
ATOM      5  C   UNL     1      18.626 -33.739  21.925  1.00  0.00    -0.000 C 
BRANCH   5   6
ATOM      6  C   UNL     1      18.847 -32.218  22.016  1.00  0.00    -0.000 C 
BRANCH   6   7
ATOM      7  C   UNL     1      19.609 -31.740  23.267  1.00  0.00    -0.000 C 
BRANCH   7   8
ATOM      8  C   UNL     1      18.695 -31.193  24.384  1.00  0.00    -0.000 C 
BRANCH   8   9
ATOM      9  C   UNL     1      18.676 -32.097  25.628  1.00  0.00    -0.000 C 
BRANCH   9  10
ATOM     10  C   UNL     1      17.660 -33.245  25.516  1.00  0.00    -0.000 C 
BRANCH  10  11
ATOM     11  C   UNL     1      18.311 -34.644  25.507  1.00  0.00    -0.003 C 
ATOM     12  C   UNL     1      17.279 -35.765  25.395  1.00  0.00     0.004 C 
ENDBRANCH  10  11
ENDBRANCH   9  10
ENDBRANCH   8   9
ENDBRANCH   7   8
ENDBRANCH   6   7
ENDBRANCH   5   6
ENDBRANCH   4   5
ENDBRANCH   3   4
ENDBRANCH   2   3
ENDBRANCH   1   2
BRANCH   1  13
ATOM     13  C   UNL     1      16.880 -36.586  19.595  1.00  0.00     0.000 C 
BRANCH  13  14
ATOM     14  C   UNL     1      17.235 -35.167  19.117  1.00  0.00     0.000 C 
BRANCH  14  15
ATOM     15  C   UNL     1      16.081 -34.170  19.291  1.00  0.00     0.000 C 
BRANCH  15  16
ATOM     16  C   UNL     1      15.243 -34.513  20.531  1.00  0.00     0.000 C 
BRANCH  16  17
ATOM     17  C   UNL     1      14.661 -33.269  21.224  1.00  0.00     0.000 C 
BRANCH  17  18
ATOM     18  C   UNL     1      15.045 -33.110  22.709  1.00  0.00     0.000 C 
BRANCH  18  19
ATOM     19  C   UNL     1      15.186 -31.657  23.202  1.00  0.00     0.000 C 
BRANCH  19  20
ATOM     20  C   UNL     1      13.872 -30.980  23.639  1.00  0.00     0.006 C 
BRANCH  20  21
ATOM     21  C   UNL     1      13.552 -29.684  22.871  1.00  0.00     0.053 C 
BRANCH  21  22
ATOM     22  C   UNL     1      12.092 -29.530  22.576  1.00  0.00     0.041 C 
ATOM     23  O   UNL     1      11.403 -28.679  23.200  1.00  0.00    -0.550 OA
ATOM     24  O   UNL     1      11.481 -30.353  21.638  1.00  0.00    -0.550 OA
ENDBRANCH  21  22
ENDBRANCH  20  21
ENDBRANCH  19  20
ENDBRANCH  18  19
ENDBRANCH  17  18
ENDBRANCH  16  17
ENDBRANCH  15  16
ENDBRANCH  14  15
ENDBRANCH  13  14
ENDBRANCH   1  13
TORSDOF 20
ENDMDL
MODEL 8
REMARK VINA RESULT:    -4.824      3.087      5.564
REMARK INTER + INTRA:         -13.461
REMARK INTER:                 -10.373
REMARK INTRA:                  -3.088
REMARK UNBOUND:                -2.996
REMARK SMILES CCCCCCCCCCCCCCCCCCCCCC(=O)[O-]
REMARK SMILES IDX 12 1 11 2 10 3 9 4 8 5 7 6 6 7 5 8 4 9 3 10 2 11 1 12 13 13
REMARK SMILES IDX 14 14 15 15 16 16 17 17 18 18 19 19 20 20 21 21 22 22 23 23
REMARK SMILES IDX 24 24
REMARK H PARENT
REMARK Flexibility Score: inf
ROOT
ATOM      1  C   UNL     1      16.336 -34.334  19.294  1.00  0.00     0.000 C 
ENDROOT
BRANCH   1   2
ATOM      2  C   UNL     1      16.339 -35.387  20.416  1.00  0.00     0.000 C 
BRANCH   2   3
ATOM      3  C   UNL     1      17.280 -36.566  20.118  1.00  0.00     0.000 C 
BRANCH   3   4
ATOM      4  C   UNL     1      18.141 -36.946  21.334  1.00  0.00    -0.000 C 
BRANCH   4   5
ATOM      5  C   UNL     1      19.119 -35.831  21.748  1.00  0.00    -0.000 C 
BRANCH   5   6
ATOM      6  C   UNL     1      19.196 -35.558  23.262  1.00  0.00    -0.000 C 
BRANCH   6   7
ATOM      7  C   UNL     1      18.022 -36.118  24.089  1.00  0.00    -0.000 C 
BRANCH   7   8
ATOM      8  C   UNL     1      17.366 -35.081  25.026  1.00  0.00    -0.000 C 
BRANCH   8   9
ATOM      9  C   UNL     1      17.883 -33.653  24.780  1.00  0.00    -0.000 C 
BRANCH   9  10
ATOM     10  C   UNL     1      16.847 -32.756  24.083  1.00  0.00    -0.000 C 
BRANCH  10  11
ATOM     11  C   UNL     1      15.595 -33.521  23.605  1.00  0.00    -0.003 C 
ATOM     12  C   UNL     1      14.299 -32.889  24.113  1.00  0.00     0.004 C 
ENDBRANCH  10  11
ENDBRANCH   9  10
ENDBRANCH   8   9
ENDBRANCH   7   8
ENDBRANCH   6   7
ENDBRANCH   5   6
ENDBRANCH   4   5
ENDBRANCH   3   4
ENDBRANCH   2   3
ENDBRANCH   1   2
BRANCH   1  13
ATOM     13  C   UNL     1      17.687 -33.611  19.150  1.00  0.00     0.000 C 
BRANCH  13  14
ATOM     14  C   UNL     1      18.077 -32.716  20.339  1.00  0.00     0.000 C 
BRANCH  14  15
ATOM     15  C   UNL     1      17.029 -31.638  20.647  1.00  0.00     0.000 C 
BRANCH  15  16
ATOM     16  C   UNL     1      17.669 -30.440  21.362  1.00  0.00     0.000 C 
BRANCH  16  17
ATOM     17  C   UNL     1      16.683 -29.282  21.593  1.00  0.00     0.000 C 
BRANCH  17  18
ATOM     18  C   UNL     1      15.459 -29.632  22.466  1.00  0.00     0.000 C 
BRANCH  18  19
ATOM     19  C   UNL     1      14.183 -30.011  21.691  1.00  0.00     0.000 C 
BRANCH  19  20
ATOM     20  C   UNL     1      12.868 -29.880  22.485  1.00  0.00     0.006 C 
BRANCH  20  21
ATOM     21  C   UNL     1      13.057 -29.377  23.928  1.00  0.00     0.053 C 
BRANCH  21  22
ATOM     22  C   UNL     1      12.282 -28.127  24.212  1.00  0.00     0.041 C 
ATOM     23  O   UNL     1      12.676 -27.322  25.098  1.00  0.00    -0.550 OA
ATOM     24  O   UNL     1      11.104 -27.867  23.525  1.00  0.00    -0.550 OA
ENDBRANCH  21  22
ENDBRANCH  20  21
ENDBRANCH  19  20
ENDBRANCH  18  19
ENDBRANCH  17  18
ENDBRANCH  16  17
ENDBRANCH  15  16
ENDBRANCH  14  15
ENDBRANCH  13  14
ENDBRANCH   1  13
TORSDOF 20
ENDMDL
MODEL 9
REMARK VINA RESULT:    -4.811      2.686      6.093
REMARK INTER + INTRA:         -13.432
REMARK INTER:                  -9.678
REMARK INTRA:                  -3.753
REMARK UNBOUND:                -2.996
REMARK SMILES CCCCCCCCCCCCCCCCCCCCCC(=O)[O-]
REMARK SMILES IDX 12 1 11 2 10 3 9 4 8 5 7 6 6 7 5 8 4 9 3 10 2 11 1 12 13 13
REMARK SMILES IDX 14 14 15 15 16 16 17 17 18 18 19 19 20 20 21 21 22 22 23 23
REMARK SMILES IDX 24 24
REMARK H PARENT
REMARK Flexibility Score: inf
ROOT
ATOM      1  C   UNL     1      17.579 -32.402  20.051  1.00  0.00     0.000 C 
ENDROOT
BRANCH   1   2
ATOM      2  C   UNL     1      17.478 -33.701  19.232  1.00  0.00     0.000 C 
BRANCH   2   3
ATOM      3  C   UNL     1      16.114 -34.393  19.389  1.00  0.00     0.000 C 
BRANCH   3   4
ATOM      4  C   UNL     1      16.250 -35.852  19.853  1.00  0.00    -0.000 C 
BRANCH   4   5
ATOM      5  C   UNL     1      17.711 -36.264  20.112  1.00  0.00    -0.000 C 
BRANCH   5   6
ATOM      6  C   UNL     1      18.103 -36.382  21.597  1.00  0.00    -0.000 C 
BRANCH   6   7
ATOM      7  C   UNL     1      19.458 -35.751  21.969  1.00  0.00    -0.000 C 
BRANCH   7   8
ATOM      8  C   UNL     1      19.848 -35.933  23.451  1.00  0.00    -0.000 C 
BRANCH   8   9
ATOM      9  C   UNL     1      18.652 -36.331  24.331  1.00  0.00    -0.000 C 
BRANCH   9  10
ATOM     10  C   UNL     1      18.979 -37.481  25.298  1.00  0.00    -0.000 C 
BRANCH  10  11
ATOM     11  C   UNL     1      17.824 -37.817  26.265  1.00  0.00    -0.003 C 
ATOM     12  C   UNL     1      16.815 -36.677  26.385  1.00  0.00     0.004 C 
ENDBRANCH  10  11
ENDBRANCH   9  10
ENDBRANCH   8   9
ENDBRANCH   7   8
ENDBRANCH   6   7
ENDBRANCH   5   6
ENDBRANCH   4   5
ENDBRANCH   3   4
ENDBRANCH   2   3
ENDBRANCH   1   2
BRANCH   1  13
ATOM     13  C   UNL     1      18.966 -32.204  20.689  1.00  0.00     0.000 C 
BRANCH  13  14
ATOM     14  C   UNL     1      18.985 -32.227  22.227  1.00  0.00     0.000 C 
BRANCH  14  15
ATOM     15  C   UNL     1      18.407 -30.950  22.852  1.00  0.00     0.000 C 
BRANCH  15  16
ATOM     16  C   UNL     1      17.650 -31.270  24.149  1.00  0.00     0.000 C 
BRANCH  16  17
ATOM     17  C   UNL     1      17.695 -32.763  24.517  1.00  0.00     0.000 C 
BRANCH  17  18
ATOM     18  C   UNL     1      16.341 -33.497  24.432  1.00  0.00     0.000 C 
BRANCH  18  19
ATOM     19  C   UNL     1      15.820 -33.758  23.006  1.00  0.00     0.000 C 
BRANCH  19  20
ATOM     20  C   UNL     1      14.618 -32.895  22.576  1.00  0.00     0.006 C 
BRANCH  20  21
ATOM     21  C   UNL     1      13.981 -32.092  23.726  1.00  0.00     0.053 C 
BRANCH  21  22
ATOM     22  C   UNL     1      14.018 -30.614  23.491  1.00  0.00     0.041 C 
ATOM     23  O   UNL     1      13.245 -29.849  24.129  1.00  0.00    -0.550 OA
ATOM     24  O   UNL     1      14.878 -30.081  22.540  1.00  0.00    -0.550 OA
ENDBRANCH  21  22
ENDBRANCH  20  21
ENDBRANCH  19  20
ENDBRANCH  18  19
ENDBRANCH  17  18
ENDBRANCH  16  17
ENDBRANCH  15  16
ENDBRANCH  14  15
ENDBRANCH  13  14
ENDBRANCH   1  13
TORSDOF 20
ENDMDL
