MODEL 1
REMARK VINA RESULT:    -6.000      0.000      0.000
REMARK INTER + INTRA:          -7.554
REMARK INTER:                  -7.228
REMARK INTRA:                  -0.326
REMARK UNBOUND:                -0.326
REMARK SMILES O=c1c(O)c(-c2ccc(O)c(O)c2)oc2cc(O)cc(O)c12
REMARK SMILES IDX 5 1 3 2 2 3 1 4 22 5 20 6 19 7 17 8 16 9 15 10 14 11 6 12
REMARK SMILES IDX 7 13 8 14 9 15 13 16 11 17 10 18 12 20 4 22 21 24 18 26
REMARK H PARENT 10 19 12 21 4 23 21 25 18 27
REMARK Flexibility Score: inf
ROOT
ATOM      1  C   UNL     1     -10.341  -5.693  -6.818  1.00  0.00     0.180 A 
ATOM      2  C   UNL     1     -10.833  -4.419  -6.484  1.00  0.00     0.208 A 
ATOM      3  C   UNL     1     -12.085  -4.314  -5.857  1.00  0.00     0.238 A 
ATOM      4  O   UNL     1     -12.484  -3.178  -5.493  1.00  0.00    -0.285 OA
ATOM      5  C   UNL     1     -12.854  -5.479  -5.621  1.00  0.00     0.111 A 
ATOM      6  C   UNL     1     -14.155  -5.488  -5.032  1.00  0.00     0.134 A 
ATOM      7  C   UNL     1     -14.777  -6.710  -4.750  1.00  0.00     0.093 A 
ATOM      8  C   UNL     1     -14.177  -7.920  -5.092  1.00  0.00     0.123 A 
ATOM      9  C   UNL     1     -12.930  -7.923  -5.718  1.00  0.00     0.094 A 
ATOM     10  C   UNL     1     -12.267  -6.721  -5.977  1.00  0.00     0.146 A 
ATOM     11  O   UNL     1     -11.072  -6.769  -6.555  1.00  0.00    -0.452 OA
ENDROOT
BRANCH   1  12
ATOM     12  C   UNL     1      -9.025  -5.885  -7.468  1.00  0.00     0.025 A 
ATOM     13  C   UNL     1      -7.838  -5.942  -6.716  1.00  0.00     0.016 A 
ATOM     14  C   UNL     1      -6.610  -6.149  -7.351  1.00  0.00     0.051 A 
ATOM     15  C   UNL     1      -6.551  -6.316  -8.740  1.00  0.00     0.157 A 
ATOM     16  C   UNL     1      -8.963  -6.075  -8.858  1.00  0.00     0.062 A 
ATOM     17  C   UNL     1      -7.735  -6.281  -9.497  1.00  0.00     0.158 A 
BRANCH  15  18
ATOM     18  O   UNL     1      -5.324  -6.520  -9.370  1.00  0.00    -0.504 OA
ATOM     19  H   UNL     1      -4.451  -6.251  -8.931  1.00  0.00     0.293 HD
ENDBRANCH  15  18
BRANCH  17  20
ATOM     20  O   UNL     1      -7.712  -6.452 -10.881  1.00  0.00    -0.504 OA
ATOM     21  H   UNL     1      -7.972  -5.708 -11.519  1.00  0.00     0.293 HD
ENDBRANCH  17  20
ENDBRANCH   1  12
BRANCH   2  22
ATOM     22  O   UNL     1     -10.091  -3.276  -6.795  1.00  0.00    -0.502 OA
ATOM     23  H   UNL     1      -9.373  -2.910  -6.181  1.00  0.00     0.293 HD
ENDBRANCH   2  22
BRANCH   6  24
ATOM     24  O   UNL     1     -14.886  -4.334  -4.731  1.00  0.00    -0.507 OA
ATOM     25  H   UNL     1     -14.544  -3.391  -4.830  1.00  0.00     0.293 HD
ENDBRANCH   6  24
BRANCH   8  26
ATOM     26  O   UNL     1     -14.833  -9.117  -4.812  1.00  0.00    -0.508 OA
ATOM     27  H   UNL     1     -14.374  -9.868  -4.309  1.00  0.00     0.293 HD
ENDBRANCH   8  26
TORSDOF 6
ENDMDL
MODEL 2
REMARK VINA RESULT:    -5.693      1.598      3.298
REMARK INTER + INTRA:          -7.184
REMARK INTER:                  -6.928
REMARK INTRA:                  -0.256
REMARK UNBOUND:                -0.326
REMARK SMILES O=c1c(O)c(-c2ccc(O)c(O)c2)oc2cc(O)cc(O)c12
REMARK SMILES IDX 5 1 3 2 2 3 1 4 22 5 20 6 19 7 17 8 16 9 15 10 14 11 6 12
REMARK SMILES IDX 7 13 8 14 9 15 13 16 11 17 10 18 12 20 4 22 21 24 18 26
REMARK H PARENT 10 19 12 21 4 23 21 25 18 27
REMARK Flexibility Score: inf
ROOT
ATOM      1  C   UNL     1     -11.819  -6.047  -6.016  1.00  0.00     0.180 A 
ATOM      2  C   UNL     1     -12.400  -7.265  -5.620  1.00  0.00     0.208 A 
ATOM      3  C   UNL     1     -13.744  -7.279  -5.213  1.00  0.00     0.238 A 
ATOM      4  O   UNL     1     -14.277  -8.383  -4.932  1.00  0.00    -0.285 OA
ATOM      5  C   UNL     1     -14.475  -6.068  -5.153  1.00  0.00     0.111 A 
ATOM      6  C   UNL     1     -15.829  -5.957  -4.714  1.00  0.00     0.134 A 
ATOM      7  C   UNL     1     -16.483  -4.722  -4.799  1.00  0.00     0.093 A 
ATOM      8  C   UNL     1     -15.818  -3.582  -5.246  1.00  0.00     0.123 A 
ATOM      9  C   UNL     1     -14.477  -3.667  -5.626  1.00  0.00     0.094 A 
ATOM     10  C   UNL     1     -13.808  -4.893  -5.589  1.00  0.00     0.146 A 
ATOM     11  O   UNL     1     -12.540  -4.933  -5.980  1.00  0.00    -0.452 OA
ENDROOT
BRANCH   1  12
ATOM     12  C   UNL     1     -10.413  -5.955  -6.470  1.00  0.00     0.025 A 
ATOM     13  C   UNL     1      -9.343  -6.048  -5.562  1.00  0.00     0.016 A 
ATOM     14  C   UNL     1      -8.023  -5.983  -6.018  1.00  0.00     0.051 A 
ATOM     15  C   UNL     1      -7.753  -5.839  -7.384  1.00  0.00     0.157 A 
ATOM     16  C   UNL     1     -10.137  -5.832  -7.841  1.00  0.00     0.062 A 
ATOM     17  C   UNL     1      -8.816  -5.765  -8.300  1.00  0.00     0.158 A 
BRANCH  15  18
ATOM     18  O   UNL     1      -6.436  -5.772  -7.835  1.00  0.00    -0.504 OA
ATOM     19  H   UNL     1      -5.932  -4.894  -7.872  1.00  0.00     0.293 HD
ENDBRANCH  15  18
BRANCH  17  20
ATOM     20  O   UNL     1      -8.581  -5.629  -9.668  1.00  0.00    -0.504 OA
ATOM     21  H   UNL     1      -7.764  -5.150 -10.028  1.00  0.00     0.293 HD
ENDBRANCH  17  20
ENDBRANCH   1  12
BRANCH   2  22
ATOM     22  O   UNL     1     -11.638  -8.437  -5.612  1.00  0.00    -0.502 OA
ATOM     23  H   UNL     1     -11.645  -9.095  -6.383  1.00  0.00     0.293 HD
ENDBRANCH   2  22
BRANCH   6  24
ATOM     24  O   UNL     1     -16.563  -7.013  -4.166  1.00  0.00    -0.507 OA
ATOM     25  H   UNL     1     -16.803  -7.107  -3.192  1.00  0.00     0.293 HD
ENDBRANCH   6  24
BRANCH   8  26
ATOM     26  O   UNL     1     -16.496  -2.367  -5.301  1.00  0.00    -0.508 OA
ATOM     27  H   UNL     1     -16.468  -1.781  -6.128  1.00  0.00     0.293 HD
ENDBRANCH   8  26
TORSDOF 6
ENDMDL
MODEL 3
REMARK VINA RESULT:    -5.381      2.890      5.292
REMARK INTER + INTRA:          -6.807
REMARK INTER:                  -6.569
REMARK INTRA:                  -0.238
REMARK UNBOUND:                -0.326
REMARK SMILES O=c1c(O)c(-c2ccc(O)c(O)c2)oc2cc(O)cc(O)c12
REMARK SMILES IDX 5 1 3 2 2 3 1 4 22 5 20 6 19 7 17 8 16 9 15 10 14 11 6 12
REMARK SMILES IDX 7 13 8 14 9 15 13 16 11 17 10 18 12 20 4 22 21 24 18 26
REMARK H PARENT 10 19 12 21 4 23 21 25 18 27
REMARK Flexibility Score: inf
ROOT
ATOM      1  C   UNL     1     -14.628  -6.541  -5.569  1.00  0.00     0.180 A 
ATOM      2  C   UNL     1     -15.321  -7.173  -6.616  1.00  0.00     0.208 A 
ATOM      3  C   UNL     1     -16.573  -7.752  -6.353  1.00  0.00     0.238 A 
ATOM      4  O   UNL     1     -17.221  -8.249  -7.310  1.00  0.00    -0.285 OA
ATOM      5  C   UNL     1     -17.092  -7.741  -5.036  1.00  0.00     0.111 A 
ATOM      6  C   UNL     1     -18.330  -8.336  -4.645  1.00  0.00     0.134 A 
ATOM      7  C   UNL     1     -18.792  -8.170  -3.334  1.00  0.00     0.093 A 
ATOM      8  C   UNL     1     -18.035  -7.487  -2.383  1.00  0.00     0.123 A 
ATOM      9  C   UNL     1     -16.798  -6.948  -2.739  1.00  0.00     0.094 A 
ATOM     10  C   UNL     1     -16.328  -7.064  -4.049  1.00  0.00     0.146 A 
ATOM     11  O   UNL     1     -15.155  -6.518  -4.351  1.00  0.00    -0.452 OA
ENDROOT
BRANCH   1  12
ATOM     12  C   UNL     1     -13.310  -5.896  -5.772  1.00  0.00     0.025 A 
ATOM     13  C   UNL     1     -13.168  -4.498  -5.746  1.00  0.00     0.016 A 
ATOM     14  C   UNL     1     -11.909  -3.914  -5.915  1.00  0.00     0.051 A 
ATOM     15  C   UNL     1     -10.776  -4.717  -6.097  1.00  0.00     0.157 A 
ATOM     16  C   UNL     1     -12.168  -6.697  -5.932  1.00  0.00     0.062 A 
ATOM     17  C   UNL     1     -10.906  -6.115  -6.102  1.00  0.00     0.158 A 
BRANCH  15  18
ATOM     18  O   UNL     1      -9.522  -4.131  -6.267  1.00  0.00    -0.504 OA
ATOM     19  H   UNL     1      -8.672  -4.606  -5.988  1.00  0.00     0.293 HD
ENDBRANCH  15  18
BRANCH  17  20
ATOM     20  O   UNL     1      -9.797  -6.943  -6.273  1.00  0.00    -0.504 OA
ATOM     21  H   UNL     1      -9.622  -7.436  -7.142  1.00  0.00     0.293 HD
ENDBRANCH  17  20
ENDBRANCH   1  12
BRANCH   2  22
ATOM     22  O   UNL     1     -14.757  -7.240  -7.893  1.00  0.00    -0.502 OA
ATOM     23  H   UNL     1     -15.028  -7.942  -8.571  1.00  0.00     0.293 HD
ENDBRANCH   2  22
BRANCH   6  24
ATOM     24  O   UNL     1     -19.125  -9.115  -5.490  1.00  0.00    -0.507 OA
ATOM     25  H   UNL     1     -19.554  -9.991  -5.236  1.00  0.00     0.293 HD
ENDBRANCH   6  24
BRANCH   8  26
ATOM     26  O   UNL     1     -18.519  -7.356  -1.083  1.00  0.00    -0.508 OA
ATOM     27  H   UNL     1     -18.477  -6.473  -0.588  1.00  0.00     0.293 HD
ENDBRANCH   8  26
TORSDOF 6
ENDMDL
MODEL 4
REMARK VINA RESULT:    -5.005      2.482      4.129
REMARK INTER + INTRA:          -6.355
REMARK INTER:                  -6.172
REMARK INTRA:                  -0.183
REMARK UNBOUND:                -0.326
REMARK SMILES O=c1c(O)c(-c2ccc(O)c(O)c2)oc2cc(O)cc(O)c12
REMARK SMILES IDX 5 1 3 2 2 3 1 4 22 5 20 6 19 7 17 8 16 9 15 10 14 11 6 12
REMARK SMILES IDX 7 13 8 14 9 15 13 16 11 17 10 18 12 20 4 22 21 24 18 26
REMARK H PARENT 10 19 12 21 4 23 21 25 18 27
REMARK Flexibility Score: inf
ROOT
ATOM      1  C   UNL     1     -13.720  -5.916  -5.715  1.00  0.00     0.180 A 
ATOM      2  C   UNL     1     -14.463  -5.220  -4.745  1.00  0.00     0.208 A 
ATOM      3  C   UNL     1     -15.847  -5.438  -4.661  1.00  0.00     0.238 A 
ATOM      4  O   UNL     1     -16.493  -4.869  -3.743  1.00  0.00    -0.285 OA
ATOM      5  C   UNL     1     -16.481  -6.305  -5.583  1.00  0.00     0.111 A 
ATOM      6  C   UNL     1     -17.885  -6.567  -5.620  1.00  0.00     0.134 A 
ATOM      7  C   UNL     1     -18.385  -7.526  -6.509  1.00  0.00     0.093 A 
ATOM      8  C   UNL     1     -17.547  -8.186  -7.405  1.00  0.00     0.123 A 
ATOM      9  C   UNL     1     -16.181  -7.899  -7.416  1.00  0.00     0.094 A 
ATOM     10  C   UNL     1     -15.646  -6.975  -6.515  1.00  0.00     0.146 A 
ATOM     11  O   UNL     1     -14.338  -6.747  -6.545  1.00  0.00    -0.452 OA
ENDROOT
BRANCH   1  12
ATOM     12  C   UNL     1     -12.255  -5.749  -5.856  1.00  0.00     0.025 A 
ATOM     13  C   UNL     1     -11.370  -6.810  -5.597  1.00  0.00     0.016 A 
ATOM     14  C   UNL     1      -9.992  -6.635  -5.761  1.00  0.00     0.051 A 
ATOM     15  C   UNL     1      -9.483  -5.406  -6.199  1.00  0.00     0.157 A 
ATOM     16  C   UNL     1     -11.741  -4.526  -6.316  1.00  0.00     0.062 A 
ATOM     17  C   UNL     1     -10.362  -4.348  -6.480  1.00  0.00     0.158 A 
BRANCH  15  18
ATOM     18  O   UNL     1      -8.108  -5.235  -6.360  1.00  0.00    -0.504 OA
ATOM     19  H   UNL     1      -7.524  -5.969  -6.744  1.00  0.00     0.293 HD
ENDBRANCH  15  18
BRANCH  17  20
ATOM     20  O   UNL     1      -9.888  -3.114  -6.925  1.00  0.00    -0.504 OA
ATOM     21  H   UNL     1      -8.963  -3.007  -7.327  1.00  0.00     0.293 HD
ENDBRANCH  17  20
ENDBRANCH   1  12
BRANCH   2  22
ATOM     22  O   UNL     1     -13.829  -4.310  -3.894  1.00  0.00    -0.502 OA
ATOM     23  H   UNL     1     -12.922  -4.491  -3.482  1.00  0.00     0.293 HD
ENDBRANCH   2  22
BRANCH   6  24
ATOM     24  O   UNL     1     -18.826  -5.899  -4.830  1.00  0.00    -0.507 OA
ATOM     25  H   UNL     1     -19.741  -5.611  -5.140  1.00  0.00     0.293 HD
ENDBRANCH   6  24
BRANCH   8  26
ATOM     26  O   UNL     1     -18.083  -9.121  -8.287  1.00  0.00    -0.508 OA
ATOM     27  H   UNL     1     -17.636 -10.018  -8.445  1.00  0.00     0.293 HD
ENDBRANCH   8  26
TORSDOF 6
ENDMDL
MODEL 5
REMARK VINA RESULT:    -4.965      1.498      2.123
REMARK INTER + INTRA:          -6.307
REMARK INTER:                  -5.976
REMARK INTRA:                  -0.331
REMARK UNBOUND:                -0.326
REMARK SMILES O=c1c(O)c(-c2ccc(O)c(O)c2)oc2cc(O)cc(O)c12
REMARK SMILES IDX 5 1 3 2 2 3 1 4 22 5 20 6 19 7 17 8 16 9 15 10 14 11 6 12
REMARK SMILES IDX 7 13 8 14 9 15 13 16 11 17 10 18 12 20 4 22 21 24 18 26
REMARK H PARENT 10 19 12 21 4 23 21 25 18 27
REMARK Flexibility Score: inf
ROOT
ATOM      1  C   UNL     1     -12.145  -5.658  -5.973  1.00  0.00     0.180 A 
ATOM      2  C   UNL     1     -12.695  -4.410  -5.630  1.00  0.00     0.208 A 
ATOM      3  C   UNL     1     -14.061  -4.331  -5.314  1.00  0.00     0.238 A 
ATOM      4  O   UNL     1     -14.529  -3.226  -4.936  1.00  0.00    -0.285 OA
ATOM      5  C   UNL     1     -14.872  -5.488  -5.397  1.00  0.00     0.111 A 
ATOM      6  C   UNL     1     -16.276  -5.516  -5.142  1.00  0.00     0.134 A 
ATOM      7  C   UNL     1     -16.956  -6.741  -5.152  1.00  0.00     0.093 A 
ATOM      8  C   UNL     1     -16.298  -7.928  -5.469  1.00  0.00     0.123 A 
ATOM      9  C   UNL     1     -14.936  -7.906  -5.774  1.00  0.00     0.094 A 
ATOM     10  C   UNL     1     -14.223  -6.705  -5.735  1.00  0.00     0.146 A 
ATOM     11  O   UNL     1     -12.924  -6.732  -6.012  1.00  0.00    -0.452 OA
ENDROOT
BRANCH   1  12
ATOM     12  C   UNL     1     -10.712  -5.824  -6.306  1.00  0.00     0.025 A 
ATOM     13  C   UNL     1      -9.759  -6.116  -5.315  1.00  0.00     0.016 A 
ATOM     14  C   UNL     1      -8.415  -6.293  -5.657  1.00  0.00     0.051 A 
ATOM     15  C   UNL     1      -8.008  -6.194  -6.994  1.00  0.00     0.157 A 
ATOM     16  C   UNL     1     -10.302  -5.748  -7.647  1.00  0.00     0.062 A 
ATOM     17  C   UNL     1      -8.957  -5.923  -7.993  1.00  0.00     0.158 A 
BRANCH  15  18
ATOM     18  O   UNL     1      -6.666  -6.369  -7.332  1.00  0.00    -0.504 OA
ATOM     19  H   UNL     1      -6.317  -6.136  -8.254  1.00  0.00     0.293 HD
ENDBRANCH  15  18
BRANCH  17  20
ATOM     20  O   UNL     1      -8.585  -5.826  -9.334  1.00  0.00    -0.504 OA
ATOM     21  H   UNL     1      -9.146  -6.225 -10.078  1.00  0.00     0.293 HD
ENDBRANCH  17  20
ENDBRANCH   1  12
BRANCH   2  22
ATOM     22  O   UNL     1     -11.893  -3.266  -5.628  1.00  0.00    -0.502 OA
ATOM     23  H   UNL     1     -10.888  -3.306  -5.502  1.00  0.00     0.293 HD
ENDBRANCH   2  22
BRANCH   6  24
ATOM     24  O   UNL     1     -17.051  -4.377  -4.901  1.00  0.00    -0.507 OA
ATOM     25  H   UNL     1     -17.939  -4.372  -4.426  1.00  0.00     0.293 HD
ENDBRANCH   6  24
BRANCH   8  26
ATOM     26  O   UNL     1     -17.010  -9.125  -5.486  1.00  0.00    -0.508 OA
ATOM     27  H   UNL     1     -16.867  -9.817  -6.213  1.00  0.00     0.293 HD
ENDBRANCH   8  26
TORSDOF 6
ENDMDL
MODEL 6
REMARK VINA RESULT:    -4.460      5.770      8.523
REMARK INTER + INTRA:          -5.698
REMARK INTER:                  -5.390
REMARK INTRA:                  -0.309
REMARK UNBOUND:                -0.326
REMARK SMILES O=c1c(O)c(-c2ccc(O)c(O)c2)oc2cc(O)cc(O)c12
REMARK SMILES IDX 5 1 3 2 2 3 1 4 22 5 20 6 19 7 17 8 16 9 15 10 14 11 6 12
REMARK SMILES IDX 7 13 8 14 9 15 13 16 11 17 10 18 12 20 4 22 21 24 18 26
REMARK H PARENT 10 19 12 21 4 23 21 25 18 27
REMARK Flexibility Score: inf
ROOT
ATOM      1  C   UNL     1     -16.444  -6.726  -3.346  1.00  0.00     0.180 A 
ATOM      2  C   UNL     1     -17.647  -7.453  -3.325  1.00  0.00     0.208 A 
ATOM      3  C   UNL     1     -18.088  -8.076  -4.503  1.00  0.00     0.238 A 
ATOM      4  O   UNL     1     -19.125  -8.787  -4.458  1.00  0.00    -0.285 OA
ATOM      5  C   UNL     1     -17.350  -7.919  -5.702  1.00  0.00     0.111 A 
ATOM      6  C   UNL     1     -17.726  -8.469  -6.965  1.00  0.00     0.134 A 
ATOM      7  C   UNL     1     -16.862  -8.337  -8.059  1.00  0.00     0.093 A 
ATOM      8  C   UNL     1     -15.670  -7.623  -7.956  1.00  0.00     0.123 A 
ATOM      9  C   UNL     1     -15.318  -7.034  -6.740  1.00  0.00     0.094 A 
ATOM     10  C   UNL     1     -16.140  -7.181  -5.620  1.00  0.00     0.146 A 
ATOM     11  O   UNL     1     -15.758  -6.623  -4.477  1.00  0.00    -0.452 OA
ENDROOT
BRANCH   1  12
ATOM     12  C   UNL     1     -15.909  -6.053  -2.140  1.00  0.00     0.025 A 
ATOM     13  C   UNL     1     -15.210  -6.768  -1.152  1.00  0.00     0.016 A 
ATOM     14  C   UNL     1     -14.692  -6.106  -0.035  1.00  0.00     0.051 A 
ATOM     15  C   UNL     1     -14.851  -4.722   0.103  1.00  0.00     0.157 A 
ATOM     16  C   UNL     1     -16.047  -4.662  -2.008  1.00  0.00     0.062 A 
ATOM     17  C   UNL     1     -15.530  -3.996  -0.890  1.00  0.00     0.158 A 
BRANCH  15  18
ATOM     18  O   UNL     1     -14.335  -4.065   1.220  1.00  0.00    -0.504 OA
ATOM     19  H   UNL     1     -14.738  -3.199   1.559  1.00  0.00     0.293 HD
ENDBRANCH  15  18
BRANCH  17  20
ATOM     20  O   UNL     1     -15.700  -2.616  -0.786  1.00  0.00    -0.504 OA
ATOM     21  H   UNL     1     -15.462  -1.986  -1.544  1.00  0.00     0.293 HD
ENDBRANCH  17  20
ENDBRANCH   1  12
BRANCH   2  22
ATOM     22  O   UNL     1     -18.401  -7.533  -2.150  1.00  0.00    -0.502 OA
ATOM     23  H   UNL     1     -19.401  -7.374  -2.133  1.00  0.00     0.293 HD
ENDBRANCH   2  22
BRANCH   6  24
ATOM     24  O   UNL     1     -18.937  -9.125  -7.204  1.00  0.00    -0.507 OA
ATOM     25  H   UNL     1     -19.639  -9.315  -6.507  1.00  0.00     0.293 HD
ENDBRANCH   6  24
BRANCH   8  26
ATOM     26  O   UNL     1     -14.844  -7.497  -9.070  1.00  0.00    -0.508 OA
ATOM     27  H   UNL     1     -14.960  -6.740  -9.734  1.00  0.00     0.293 HD
ENDBRANCH   8  26
TORSDOF 6
ENDMDL
MODEL 7
REMARK VINA RESULT:    -4.406      2.354      4.380
REMARK INTER + INTRA:          -5.633
REMARK INTER:                  -5.464
REMARK INTRA:                  -0.169
REMARK UNBOUND:                -0.326
REMARK SMILES O=c1c(O)c(-c2ccc(O)c(O)c2)oc2cc(O)cc(O)c12
REMARK SMILES IDX 5 1 3 2 2 3 1 4 22 5 20 6 19 7 17 8 16 9 15 10 14 11 6 12
REMARK SMILES IDX 7 13 8 14 9 15 13 16 11 17 10 18 12 20 4 22 21 24 18 26
REMARK H PARENT 10 19 12 21 4 23 21 25 18 27
REMARK Flexibility Score: inf
ROOT
ATOM      1  C   UNL     1     -13.365  -5.566  -5.326  1.00  0.00     0.180 A 
ATOM      2  C   UNL     1     -14.281  -6.426  -5.957  1.00  0.00     0.208 A 
ATOM      3  C   UNL     1     -15.505  -6.700  -5.326  1.00  0.00     0.238 A 
ATOM      4  O   UNL     1     -16.350  -7.410  -5.931  1.00  0.00    -0.285 OA
ATOM      5  C   UNL     1     -15.776  -6.156  -4.048  1.00  0.00     0.111 A 
ATOM      6  C   UNL     1     -16.965  -6.402  -3.295  1.00  0.00     0.134 A 
ATOM      7  C   UNL     1     -17.170  -5.723  -2.088  1.00  0.00     0.093 A 
ATOM      8  C   UNL     1     -16.206  -4.860  -1.573  1.00  0.00     0.123 A 
ATOM      9  C   UNL     1     -15.016  -4.653  -2.272  1.00  0.00     0.094 A 
ATOM     10  C   UNL     1     -14.799  -5.285  -3.499  1.00  0.00     0.146 A 
ATOM     11  O   UNL     1     -13.661  -5.045  -4.142  1.00  0.00    -0.452 OA
ENDROOT
BRANCH   1  12
ATOM     12  C   UNL     1     -12.061  -5.219  -5.935  1.00  0.00     0.025 A 
ATOM     13  C   UNL     1     -11.756  -3.899  -6.309  1.00  0.00     0.016 A 
ATOM     14  C   UNL     1     -10.508  -3.592  -6.859  1.00  0.00     0.051 A 
ATOM     15  C   UNL     1      -9.544  -4.594  -7.028  1.00  0.00     0.157 A 
ATOM     16  C   UNL     1     -11.083  -6.216  -6.086  1.00  0.00     0.062 A 
ATOM     17  C   UNL     1      -9.833  -5.912  -6.637  1.00  0.00     0.158 A 
BRANCH  15  18
ATOM     18  O   UNL     1      -8.301  -4.284  -7.579  1.00  0.00    -0.504 OA
ATOM     19  H   UNL     1      -7.912  -4.821  -8.346  1.00  0.00     0.293 HD
ENDBRANCH  15  18
BRANCH  17  20
ATOM     20  O   UNL     1      -8.893  -6.931  -6.785  1.00  0.00    -0.504 OA
ATOM     21  H   UNL     1      -8.211  -7.142  -6.065  1.00  0.00     0.293 HD
ENDBRANCH  17  20
ENDBRANCH   1  12
BRANCH   2  22
ATOM     22  O   UNL     1     -13.962  -7.014  -7.184  1.00  0.00    -0.502 OA
ATOM     23  H   UNL     1     -14.487  -7.791  -7.568  1.00  0.00     0.293 HD
ENDBRANCH   2  22
BRANCH   6  24
ATOM     24  O   UNL     1     -17.955  -7.314  -3.673  1.00  0.00    -0.507 OA
ATOM     25  H   UNL     1     -18.906  -7.072  -3.904  1.00  0.00     0.293 HD
ENDBRANCH   6  24
BRANCH   8  26
ATOM     26  O   UNL     1     -16.437  -4.215  -0.359  1.00  0.00    -0.508 OA
ATOM     27  H   UNL     1     -16.498  -4.730   0.512  1.00  0.00     0.293 HD
ENDBRANCH   8  26
TORSDOF 6
ENDMDL
MODEL 8
REMARK VINA RESULT:    -3.848      1.686      6.668
REMARK INTER + INTRA:          -4.961
REMARK INTER:                  -5.515
REMARK INTRA:                   0.554
REMARK UNBOUND:                -0.326
REMARK SMILES O=c1c(O)c(-c2ccc(O)c(O)c2)oc2cc(O)cc(O)c12
REMARK SMILES IDX 5 1 3 2 2 3 1 4 22 5 20 6 19 7 17 8 16 9 15 10 14 11 6 12
REMARK SMILES IDX 7 13 8 14 9 15 13 16 11 17 10 18 12 20 4 22 21 24 18 26
REMARK H PARENT 10 19 12 21 4 23 21 25 18 27
REMARK Flexibility Score: inf
ROOT
ATOM      1  C   UNL     1     -11.683  -6.070  -5.980  1.00  0.00     0.180 A 
ATOM      2  C   UNL     1     -11.656  -4.680  -6.186  1.00  0.00     0.208 A 
ATOM      3  C   UNL     1     -10.441  -4.065  -6.529  1.00  0.00     0.238 A 
ATOM      4  O   UNL     1     -10.440  -2.833  -6.785  1.00  0.00    -0.285 OA
ATOM      5  C   UNL     1      -9.258  -4.837  -6.607  1.00  0.00     0.111 A 
ATOM      6  C   UNL     1      -7.963  -4.313  -6.903  1.00  0.00     0.134 A 
ATOM      7  C   UNL     1      -6.882  -5.189  -7.059  1.00  0.00     0.093 A 
ATOM      8  C   UNL     1      -7.032  -6.561  -6.868  1.00  0.00     0.123 A 
ATOM      9  C   UNL     1      -8.282  -7.080  -6.525  1.00  0.00     0.094 A 
ATOM     10  C   UNL     1      -9.388  -6.236  -6.400  1.00  0.00     0.146 A 
ATOM     11  O   UNL     1     -10.562  -6.773  -6.092  1.00  0.00    -0.452 OA
ENDROOT
BRANCH   1  12
ATOM     12  C   UNL     1     -12.927  -6.792  -5.629  1.00  0.00     0.025 A 
ATOM     13  C   UNL     1     -12.929  -8.178  -5.397  1.00  0.00     0.016 A 
ATOM     14  C   UNL     1     -14.112  -8.833  -5.043  1.00  0.00     0.051 A 
ATOM     15  C   UNL     1     -15.304  -8.112  -4.901  1.00  0.00     0.157 A 
ATOM     16  C   UNL     1     -14.120  -6.070  -5.465  1.00  0.00     0.062 A 
ATOM     17  C   UNL     1     -15.307  -6.723  -5.111  1.00  0.00     0.158 A 
BRANCH  15  18
ATOM     18  O   UNL     1     -16.483  -8.769  -4.550  1.00  0.00    -0.504 OA
ATOM     19  H   UNL     1     -17.065  -9.222  -5.245  1.00  0.00     0.293 HD
ENDBRANCH  15  18
BRANCH  17  20
ATOM     20  O   UNL     1     -16.475  -5.975  -4.971  1.00  0.00    -0.504 OA
ATOM     21  H   UNL     1     -17.287  -6.331  -4.479  1.00  0.00     0.293 HD
ENDBRANCH  17  20
ENDBRANCH   1  12
BRANCH   2  22
ATOM     22  O   UNL     1     -12.821  -3.923  -6.029  1.00  0.00    -0.502 OA
ATOM     23  H   UNL     1     -13.037  -3.129  -6.619  1.00  0.00     0.293 HD
ENDBRANCH   2  22
BRANCH   6  24
ATOM     24  O   UNL     1      -7.681  -2.949  -7.027  1.00  0.00    -0.507 OA
ATOM     25  H   UNL     1      -8.221  -2.207  -6.612  1.00  0.00     0.293 HD
ENDBRANCH   6  24
BRANCH   8  26
ATOM     26  O   UNL     1      -5.931  -7.401  -7.015  1.00  0.00    -0.508 OA
ATOM     27  H   UNL     1      -5.255  -7.264  -7.758  1.00  0.00     0.293 HD
ENDBRANCH   8  26
TORSDOF 6
ENDMDL
