MODEL 1
REMARK VINA RESULT:    -3.615      0.000      0.000
REMARK INTER + INTRA:          -6.767
REMARK INTER:                  -5.728
REMARK INTRA:                  -1.038
REMARK UNBOUND:                -1.038
REMARK SMILES CCCCCCCCCCCC(=O)[O-]
REMARK SMILES IDX 7 1 8 2 9 3 10 4 11 5 12 6 13 7 14 8 6 9 5 10 4 11 3 12 2 13
REMARK SMILES IDX 1 14
REMARK H PARENT
REMARK Flexibility Score: inf
ROOT
ATOM      1  C   UNL     1     119.136  52.536  54.246  1.00  0.00     0.000 C 
ENDROOT
BRANCH   1   2
ATOM      2  C   UNL     1     118.919  53.926  54.865  1.00  0.00     0.000 C 
BRANCH   2   3
ATOM      3  C   UNL     1     119.880  54.212  56.029  1.00  0.00     0.000 C 
BRANCH   3   4
ATOM      4  C   UNL     1     121.015  53.181  56.125  1.00  0.00     0.006 C 
BRANCH   4   5
ATOM      5  C   UNL     1     122.367  53.823  55.801  1.00  0.00     0.053 C 
BRANCH   5   6
ATOM      6  C   UNL     1     122.723  53.598  54.365  1.00  0.00     0.041 C 
ATOM      7  O   UNL     1     122.384  54.437  53.490  1.00  0.00    -0.550 OA
ATOM      8  O   UNL     1     123.472  52.486  54.001  1.00  0.00    -0.550 OA
ENDBRANCH   5   6
ENDBRANCH   4   5
ENDBRANCH   3   4
ENDBRANCH   2   3
ENDBRANCH   1   2
BRANCH   1   9
ATOM      9  C   UNL     1     117.817  51.822  53.903  1.00  0.00     0.000 C 
BRANCH   9  10
ATOM     10  C   UNL     1     116.605  52.354  54.696  1.00  0.00    -0.000 C 
BRANCH  10  11
ATOM     11  C   UNL     1     115.528  52.957  53.775  1.00  0.00    -0.000 C 
BRANCH  11  12
ATOM     12  C   UNL     1     115.511  52.304  52.383  1.00  0.00    -0.000 C 
BRANCH  12  13
ATOM     13  C   UNL     1     115.488  53.341  51.251  1.00  0.00    -0.003 C 
ATOM     14  C   UNL     1     116.677  54.293  51.354  1.00  0.00     0.004 C 
ENDBRANCH  12  13
ENDBRANCH  11  12
ENDBRANCH  10  11
ENDBRANCH   9  10
ENDBRANCH   1   9
TORSDOF 10
ENDMDL
MODEL 2
REMARK VINA RESULT:    -3.541      2.649      6.071
REMARK INTER + INTRA:          -6.650
REMARK INTER:                  -5.660
REMARK INTRA:                  -0.990
REMARK UNBOUND:                -1.038
REMARK SMILES CCCCCCCCCCCC(=O)[O-]
REMARK SMILES IDX 7 1 8 2 9 3 10 4 11 5 12 6 13 7 14 8 6 9 5 10 4 11 3 12 2 13
REMARK SMILES IDX 1 14
REMARK H PARENT
REMARK Flexibility Score: inf
ROOT
ATOM      1  C   UNL     1     119.300  52.450  54.191  1.00  0.00     0.000 C 
ENDROOT
BRANCH   1   2
ATOM      2  C   UNL     1     118.128  51.608  53.662  1.00  0.00     0.000 C 
BRANCH   2   3
ATOM      3  C   UNL     1     116.812  51.896  54.402  1.00  0.00     0.000 C 
BRANCH   3   4
ATOM      4  C   UNL     1     115.619  52.052  53.447  1.00  0.00     0.006 C 
BRANCH   4   5
ATOM      5  C   UNL     1     115.393  53.523  53.088  1.00  0.00     0.053 C 
BRANCH   5   6
ATOM      6  C   UNL     1     115.905  53.811  51.712  1.00  0.00     0.041 C 
ATOM      7  O   UNL     1     116.900  54.565  51.551  1.00  0.00    -0.550 OA
ATOM      8  O   UNL     1     115.313  53.208  50.609  1.00  0.00    -0.550 OA
ENDBRANCH   5   6
ENDBRANCH   4   5
ENDBRANCH   3   4
ENDBRANCH   2   3
ENDBRANCH   1   2
BRANCH   1   9
ATOM      9  C   UNL     1     118.840  53.745  54.882  1.00  0.00     0.000 C 
BRANCH   9  10
ATOM     10  C   UNL     1     119.814  54.244  55.969  1.00  0.00    -0.000 C 
BRANCH  10  11
ATOM     11  C   UNL     1     121.033  53.316  56.125  1.00  0.00    -0.000 C 
BRANCH  11  12
ATOM     12  C   UNL     1     122.362  54.038  55.849  1.00  0.00    -0.000 C 
BRANCH  12  13
ATOM     13  C   UNL     1     122.740  54.021  54.360  1.00  0.00    -0.003 C 
ATOM     14  C   UNL     1     123.025  52.599  53.883  1.00  0.00     0.004 C 
ENDBRANCH  12  13
ENDBRANCH  11  12
ENDBRANCH  10  11
ENDBRANCH   9  10
ENDBRANCH   1   9
TORSDOF 10
ENDMDL
MODEL 3
REMARK VINA RESULT:    -3.480      9.017     10.951
REMARK INTER + INTRA:          -6.553
REMARK INTER:                  -5.404
REMARK INTRA:                  -1.149
REMARK UNBOUND:                -1.038
REMARK SMILES CCCCCCCCCCCC(=O)[O-]
REMARK SMILES IDX 7 1 8 2 9 3 10 4 11 5 12 6 13 7 14 8 6 9 5 10 4 11 3 12 2 13
REMARK SMILES IDX 1 14
REMARK H PARENT
REMARK Flexibility Score: inf
ROOT
ATOM      1  C   UNL     1     124.648  57.143  44.636  1.00  0.00     0.000 C 
ENDROOT
BRANCH   1   2
ATOM      2  C   UNL     1     123.877  56.811  45.923  1.00  0.00     0.000 C 
BRANCH   2   3
ATOM      3  C   UNL     1     124.323  55.482  46.553  1.00  0.00     0.000 C 
BRANCH   3   4
ATOM      4  C   UNL     1     125.323  55.679  47.702  1.00  0.00     0.006 C 
BRANCH   4   5
ATOM      5  C   UNL     1     125.005  54.744  48.872  1.00  0.00     0.053 C 
BRANCH   5   6
ATOM      6  C   UNL     1     124.482  55.521  50.038  1.00  0.00     0.041 C 
ATOM      7  O   UNL     1     124.932  55.309  51.194  1.00  0.00    -0.550 OA
ATOM      8  O   UNL     1     123.531  56.515  49.841  1.00  0.00    -0.550 OA
ENDBRANCH   5   6
ENDBRANCH   4   5
ENDBRANCH   3   4
ENDBRANCH   2   3
ENDBRANCH   1   2
BRANCH   1   9
ATOM      9  C   UNL     1     124.571  56.020  43.588  1.00  0.00     0.000 C 
BRANCH   9  10
ATOM     10  C   UNL     1     125.936  55.667  42.961  1.00  0.00    -0.000 C 
BRANCH  10  11
ATOM     11  C   UNL     1     126.511  54.354  43.522  1.00  0.00    -0.000 C 
BRANCH  11  12
ATOM     12  C   UNL     1     125.586  53.152  43.272  1.00  0.00    -0.000 C 
BRANCH  12  13
ATOM     13  C   UNL     1     125.260  52.385  44.562  1.00  0.00    -0.003 C 
ATOM     14  C   UNL     1     126.313  52.646  45.636  1.00  0.00     0.004 C 
ENDBRANCH  12  13
ENDBRANCH  11  12
ENDBRANCH  10  11
ENDBRANCH   9  10
ENDBRANCH   1   9
TORSDOF 10
ENDMDL
MODEL 4
REMARK VINA RESULT:    -3.451      1.005      2.132
REMARK INTER + INTRA:          -6.507
REMARK INTER:                  -5.358
REMARK INTRA:                  -1.149
REMARK UNBOUND:                -1.038
REMARK SMILES CCCCCCCCCCCC(=O)[O-]
REMARK SMILES IDX 7 1 8 2 9 3 10 4 11 5 12 6 13 7 14 8 6 9 5 10 4 11 3 12 2 13
REMARK SMILES IDX 1 14
REMARK H PARENT
REMARK Flexibility Score: inf
ROOT
ATOM      1  C   UNL     1     119.436  53.176  53.336  1.00  0.00     0.000 C 
ENDROOT
BRANCH   1   2
ATOM      2  C   UNL     1     118.791  53.610  54.662  1.00  0.00     0.000 C 
BRANCH   2   3
ATOM      3  C   UNL     1     119.794  54.281  55.614  1.00  0.00     0.000 C 
BRANCH   3   4
ATOM      4  C   UNL     1     120.866  53.307  56.125  1.00  0.00     0.006 C 
BRANCH   4   5
ATOM      5  C   UNL     1     122.267  53.909  55.980  1.00  0.00     0.053 C 
BRANCH   5   6
ATOM      6  C   UNL     1     122.804  53.662  54.606  1.00  0.00     0.041 C 
ATOM      7  O   UNL     1     123.126  52.498  54.252  1.00  0.00    -0.550 OA
ATOM      8  O   UNL     1     122.903  54.710  53.699  1.00  0.00    -0.550 OA
ENDBRANCH   5   6
ENDBRANCH   4   5
ENDBRANCH   3   4
ENDBRANCH   2   3
ENDBRANCH   1   2
BRANCH   1   9
ATOM      9  C   UNL     1     119.322  54.248  52.238  1.00  0.00     0.000 C 
BRANCH   9  10
ATOM     10  C   UNL     1     117.896  54.818  52.079  1.00  0.00    -0.000 C 
BRANCH  10  11
ATOM     11  C   UNL     1     116.959  53.840  51.348  1.00  0.00    -0.000 C 
BRANCH  11  12
ATOM     12  C   UNL     1     115.523  53.881  51.893  1.00  0.00    -0.000 C 
BRANCH  12  13
ATOM     13  C   UNL     1     115.397  53.206  53.267  1.00  0.00    -0.003 C 
ATOM     14  C   UNL     1     115.872  51.756  53.211  1.00  0.00     0.004 C 
ENDBRANCH  12  13
ENDBRANCH  11  12
ENDBRANCH  10  11
ENDBRANCH   9  10
ENDBRANCH   1   9
TORSDOF 10
ENDMDL
MODEL 5
REMARK VINA RESULT:    -3.445      9.238     11.207
REMARK INTER + INTRA:          -6.498
REMARK INTER:                  -5.282
REMARK INTRA:                  -1.216
REMARK UNBOUND:                -1.038
REMARK SMILES CCCCCCCCCCCC(=O)[O-]
REMARK SMILES IDX 7 1 8 2 9 3 10 4 11 5 12 6 13 7 14 8 6 9 5 10 4 11 3 12 2 13
REMARK SMILES IDX 1 14
REMARK H PARENT
REMARK Flexibility Score: inf
ROOT
ATOM      1  C   UNL     1     124.591  55.954  43.599  1.00  0.00     0.000 C 
ENDROOT
BRANCH   1   2
ATOM      2  C   UNL     1     124.632  57.193  44.508  1.00  0.00     0.000 C 
BRANCH   2   3
ATOM      3  C   UNL     1     124.058  56.920  45.907  1.00  0.00     0.000 C 
BRANCH   3   4
ATOM      4  C   UNL     1     124.539  55.585  46.492  1.00  0.00     0.006 C 
BRANCH   4   5
ATOM      5  C   UNL     1     125.319  55.805  47.792  1.00  0.00     0.053 C 
BRANCH   5   6
ATOM      6  C   UNL     1     124.434  55.585  48.978  1.00  0.00     0.041 C 
ATOM      7  O   UNL     1     123.517  54.723  48.933  1.00  0.00    -0.550 OA
ATOM      8  O   UNL     1     124.652  56.298  50.150  1.00  0.00    -0.550 OA
ENDBRANCH   5   6
ENDBRANCH   4   5
ENDBRANCH   3   4
ENDBRANCH   2   3
ENDBRANCH   1   2
BRANCH   1   9
ATOM      9  C   UNL     1     125.965  55.607  43.000  1.00  0.00     0.000 C 
BRANCH   9  10
ATOM     10  C   UNL     1     126.468  54.201  43.386  1.00  0.00    -0.000 C 
BRANCH  10  11
ATOM     11  C   UNL     1     125.358  53.140  43.287  1.00  0.00    -0.000 C 
BRANCH  11  12
ATOM     12  C   UNL     1     125.212  52.316  44.577  1.00  0.00    -0.000 C 
BRANCH  12  13
ATOM     13  C   UNL     1     126.330  52.609  45.588  1.00  0.00    -0.003 C 
ATOM     14  C   UNL     1     125.926  52.171  46.994  1.00  0.00     0.004 C 
ENDBRANCH  12  13
ENDBRANCH  11  12
ENDBRANCH  10  11
ENDBRANCH   9  10
ENDBRANCH   1   9
TORSDOF 10
ENDMDL
MODEL 6
REMARK VINA RESULT:    -3.351      4.775      6.748
REMARK INTER + INTRA:          -6.349
REMARK INTER:                  -4.996
REMARK INTRA:                  -1.352
REMARK UNBOUND:                -1.038
REMARK SMILES CCCCCCCCCCCC(=O)[O-]
REMARK SMILES IDX 7 1 8 2 9 3 10 4 11 5 12 6 13 7 14 8 6 9 5 10 4 11 3 12 2 13
REMARK SMILES IDX 1 14
REMARK H PARENT
REMARK Flexibility Score: inf
ROOT
ATOM      1  C   UNL     1     118.558  51.172  52.211  1.00  0.00     0.000 C 
ENDROOT
BRANCH   1   2
ATOM      2  C   UNL     1     117.827  49.843  51.961  1.00  0.00     0.000 C 
BRANCH   2   3
ATOM      3  C   UNL     1     116.753  49.956  50.867  1.00  0.00     0.000 C 
BRANCH   3   4
ATOM      4  C   UNL     1     115.389  49.415  51.319  1.00  0.00     0.006 C 
BRANCH   4   5
ATOM      5  C   UNL     1     114.875  48.346  50.351  1.00  0.00     0.053 C 
BRANCH   5   6
ATOM      6  C   UNL     1     114.939  46.992  50.983  1.00  0.00     0.041 C 
ATOM      7  O   UNL     1     114.051  46.134  50.737  1.00  0.00    -0.550 OA
ATOM      8  O   UNL     1     116.007  46.659  51.808  1.00  0.00    -0.550 OA
ENDBRANCH   5   6
ENDBRANCH   4   5
ENDBRANCH   3   4
ENDBRANCH   2   3
ENDBRANCH   1   2
BRANCH   1   9
ATOM      9  C   UNL     1     118.653  51.529  53.704  1.00  0.00     0.000 C 
BRANCH   9  10
ATOM     10  C   UNL     1     117.758  52.718  54.112  1.00  0.00    -0.000 C 
BRANCH  10  11
ATOM     11  C   UNL     1     116.331  52.271  54.475  1.00  0.00    -0.000 C 
BRANCH  11  12
ATOM     12  C   UNL     1     115.322  52.549  53.349  1.00  0.00    -0.000 C 
BRANCH  12  13
ATOM     13  C   UNL     1     115.777  53.686  52.421  1.00  0.00    -0.003 C 
ATOM     14  C   UNL     1     115.402  53.393  50.971  1.00  0.00     0.004 C 
ENDBRANCH  12  13
ENDBRANCH  11  12
ENDBRANCH  10  11
ENDBRANCH   9  10
ENDBRANCH   1   9
TORSDOF 10
ENDMDL
MODEL 7
REMARK VINA RESULT:    -3.340      2.792      4.949
REMARK INTER + INTRA:          -6.331
REMARK INTER:                  -4.742
REMARK INTRA:                  -1.589
REMARK UNBOUND:                -1.038
REMARK SMILES CCCCCCCCCCCC(=O)[O-]
REMARK SMILES IDX 7 1 8 2 9 3 10 4 11 5 12 6 13 7 14 8 6 9 5 10 4 11 3 12 2 13
REMARK SMILES IDX 1 14
REMARK H PARENT
REMARK Flexibility Score: inf
ROOT
ATOM      1  C   UNL     1     115.528  51.915  52.231  1.00  0.00     0.000 C 
ENDROOT
BRANCH   1   2
ATOM      2  C   UNL     1     115.573  52.830  50.997  1.00  0.00     0.000 C 
BRANCH   2   3
ATOM      3  C   UNL     1     116.138  54.224  51.316  1.00  0.00     0.000 C 
BRANCH   3   4
ATOM      4  C   UNL     1     117.657  54.306  51.108  1.00  0.00     0.006 C 
BRANCH   4   5
ATOM      5  C   UNL     1     118.247  55.514  51.842  1.00  0.00     0.053 C 
BRANCH   5   6
ATOM      6  C   UNL     1     118.771  56.517  50.863  1.00  0.00     0.041 C 
ATOM      7  O   UNL     1     119.943  56.963  50.979  1.00  0.00    -0.550 OA
ATOM      8  O   UNL     1     117.982  56.924  49.795  1.00  0.00    -0.550 OA
ENDBRANCH   5   6
ENDBRANCH   4   5
ENDBRANCH   3   4
ENDBRANCH   2   3
ENDBRANCH   1   2
BRANCH   1   9
ATOM      9  C   UNL     1     115.435  52.698  53.552  1.00  0.00     0.000 C 
BRANCH   9  10
ATOM     10  C   UNL     1     116.463  52.247  54.610  1.00  0.00    -0.000 C 
BRANCH  10  11
ATOM     11  C   UNL     1     117.612  53.258  54.770  1.00  0.00    -0.000 C 
BRANCH  11  12
ATOM     12  C   UNL     1     118.952  52.716  54.246  1.00  0.00    -0.000 C 
BRANCH  12  13
ATOM     13  C   UNL     1     118.844  51.267  53.749  1.00  0.00    -0.003 C 
ATOM     14  C   UNL     1     119.160  51.173  52.259  1.00  0.00     0.004 C 
ENDBRANCH  12  13
ENDBRANCH  11  12
ENDBRANCH  10  11
ENDBRANCH   9  10
ENDBRANCH   1   9
TORSDOF 10
ENDMDL
MODEL 8
REMARK VINA RESULT:    -3.330      2.643      3.743
REMARK INTER + INTRA:          -6.315
REMARK INTER:                  -5.055
REMARK INTRA:                  -1.260
REMARK UNBOUND:                -1.038
REMARK SMILES CCCCCCCCCCCC(=O)[O-]
REMARK SMILES IDX 7 1 8 2 9 3 10 4 11 5 12 6 13 7 14 8 6 9 5 10 4 11 3 12 2 13
REMARK SMILES IDX 1 14
REMARK H PARENT
REMARK Flexibility Score: inf
ROOT
ATOM      1  C   UNL     1     118.817  53.514  54.807  1.00  0.00     0.000 C 
ENDROOT
BRANCH   1   2
ATOM      2  C   UNL     1     119.758  54.219  53.816  1.00  0.00     0.000 C 
BRANCH   2   3
ATOM      3  C   UNL     1     119.137  54.370  52.418  1.00  0.00     0.000 C 
BRANCH   3   4
ATOM      4  C   UNL     1     118.432  55.720  52.227  1.00  0.00     0.006 C 
BRANCH   4   5
ATOM      5  C   UNL     1     118.444  56.141  50.755  1.00  0.00     0.053 C 
BRANCH   5   6
ATOM      6  C   UNL     1     119.775  56.716  50.385  1.00  0.00     0.041 C 
ATOM      7  O   UNL     1     120.156  57.806  50.886  1.00  0.00    -0.550 OA
ATOM      8  O   UNL     1     120.616  56.023  49.523  1.00  0.00    -0.550 OA
ENDBRANCH   5   6
ENDBRANCH   4   5
ENDBRANCH   3   4
ENDBRANCH   2   3
ENDBRANCH   1   2
BRANCH   1   9
ATOM      9  C   UNL     1     117.991  52.394  54.150  1.00  0.00     0.000 C 
BRANCH   9  10
ATOM     10  C   UNL     1     116.516  52.369  54.605  1.00  0.00    -0.000 C 
BRANCH  10  11
ATOM     11  C   UNL     1     115.544  52.272  53.416  1.00  0.00    -0.000 C 
BRANCH  11  12
ATOM     12  C   UNL     1     115.409  53.600  52.654  1.00  0.00    -0.000 C 
BRANCH  12  13
ATOM     13  C   UNL     1     115.653  53.439  51.147  1.00  0.00    -0.003 C 
ATOM     14  C   UNL     1     115.016  54.584  50.363  1.00  0.00     0.004 C 
ENDBRANCH  12  13
ENDBRANCH  11  12
ENDBRANCH  10  11
ENDBRANCH   9  10
ENDBRANCH   1   9
TORSDOF 10
ENDMDL
MODEL 9
REMARK VINA RESULT:    -3.312     11.733     13.005
REMARK INTER + INTRA:          -6.287
REMARK INTER:                  -5.254
REMARK INTRA:                  -1.033
REMARK UNBOUND:                -1.038
REMARK SMILES CCCCCCCCCCCC(=O)[O-]
REMARK SMILES IDX 7 1 8 2 9 3 10 4 11 5 12 6 13 7 14 8 6 9 5 10 4 11 3 12 2 13
REMARK SMILES IDX 1 14
REMARK H PARENT
REMARK Flexibility Score: inf
ROOT
ATOM      1  C   UNL     1     126.048  53.784  44.987  1.00  0.00     0.000 C 
ENDROOT
BRANCH   1   2
ATOM      2  C   UNL     1     125.813  52.266  45.045  1.00  0.00     0.000 C 
BRANCH   2   3
ATOM      3  C   UNL     1     124.396  51.870  44.600  1.00  0.00     0.000 C 
BRANCH   3   4
ATOM      4  C   UNL     1     124.327  51.500  43.111  1.00  0.00     0.006 C 
BRANCH   4   5
ATOM      5  C   UNL     1     123.056  52.060  42.466  1.00  0.00     0.053 C 
BRANCH   5   6
ATOM      6  C   UNL     1     122.432  51.040  41.566  1.00  0.00     0.041 C 
ATOM      7  O   UNL     1     122.891  50.852  40.408  1.00  0.00    -0.550 OA
ATOM      8  O   UNL     1     121.376  50.263  42.022  1.00  0.00    -0.550 OA
ENDBRANCH   5   6
ENDBRANCH   4   5
ENDBRANCH   3   4
ENDBRANCH   2   3
ENDBRANCH   1   2
BRANCH   1   9
ATOM      9  C   UNL     1     126.604  54.250  43.630  1.00  0.00     0.000 C 
BRANCH   9  10
ATOM     10  C   UNL     1     125.767  55.366  42.971  1.00  0.00    -0.000 C 
BRANCH  10  11
ATOM     11  C   UNL     1     124.335  55.424  43.531  1.00  0.00    -0.000 C 
BRANCH  11  12
ATOM     12  C   UNL     1     123.871  56.862  43.816  1.00  0.00    -0.000 C 
BRANCH  12  13
ATOM     13  C   UNL     1     124.697  57.535  44.923  1.00  0.00    -0.003 C 
ATOM     14  C   UNL     1     125.324  58.835  44.425  1.00  0.00     0.004 C 
ENDBRANCH  12  13
ENDBRANCH  11  12
ENDBRANCH  10  11
ENDBRANCH   9  10
ENDBRANCH   1   9
TORSDOF 10
ENDMDL
