MODEL 1
REMARK VINA RESULT:    -4.525      0.000      0.000
REMARK INTER + INTRA:         -15.513
REMARK INTER:                 -11.403
REMARK INTRA:                  -4.110
REMARK UNBOUND:                -4.110
REMARK SMILES CCCCCCCCCCCCCCCCCCCCCCCCCCCC(=O)[O-]
REMARK SMILES IDX 15 1 16 2 17 3 18 4 19 5 20 6 21 7 22 8 23 9 24 10 25 11
REMARK SMILES IDX 26 12 27 13 28 14 29 15 30 16 14 17 13 18 12 19 11 20 10 21
REMARK SMILES IDX 9 22 8 23 7 24 6 25 5 26 4 27 3 28 2 29 1 30
REMARK H PARENT
REMARK Flexibility Score: inf
ROOT
ATOM      1  C   UNL     1      14.097   5.373  42.485  1.00  0.00     0.000 C 
ENDROOT
BRANCH   1   2
ATOM      2  C   UNL     1      13.289   6.588  42.968  1.00  0.00     0.000 C 
BRANCH   2   3
ATOM      3  C   UNL     1      12.724   6.396  44.389  1.00  0.00     0.000 C 
BRANCH   3   4
ATOM      4  C   UNL     1      13.261   5.122  45.074  1.00  0.00     0.000 C 
BRANCH   4   5
ATOM      5  C   UNL     1      13.087   5.114  46.605  1.00  0.00     0.000 C 
BRANCH   5   6
ATOM      6  C   UNL     1      14.392   4.762  47.351  1.00  0.00     0.000 C 
BRANCH   6   7
ATOM      7  C   UNL     1      15.606   4.655  46.411  1.00  0.00     0.000 C 
BRANCH   7   8
ATOM      8  C   UNL     1      16.689   5.720  46.667  1.00  0.00     0.000 C 
BRANCH   8   9
ATOM      9  C   UNL     1      16.425   7.033  45.913  1.00  0.00     0.000 C 
BRANCH   9  10
ATOM     10  C   UNL     1      16.675   6.862  44.410  1.00  0.00     0.000 C 
BRANCH  10  11
ATOM     11  C   UNL     1      18.165   6.928  44.040  1.00  0.00     0.000 C 
BRANCH  11  12
ATOM     12  C   UNL     1      18.429   7.564  42.658  1.00  0.00     0.006 C 
BRANCH  12  13
ATOM     13  C   UNL     1      17.745   8.933  42.517  1.00  0.00     0.053 C 
BRANCH  13  14
ATOM     14  C   UNL     1      16.821   8.960  41.336  1.00  0.00     0.041 C 
ATOM     15  O   UNL     1      17.283   8.817  40.170  1.00  0.00    -0.550 OA
ATOM     16  O   UNL     1      15.447   9.084  41.521  1.00  0.00    -0.550 OA
ENDBRANCH  13  14
ENDBRANCH  12  13
ENDBRANCH  11  12
ENDBRANCH  10  11
ENDBRANCH   9  10
ENDBRANCH   8   9
ENDBRANCH   7   8
ENDBRANCH   6   7
ENDBRANCH   5   6
ENDBRANCH   4   5
ENDBRANCH   3   4
ENDBRANCH   2   3
ENDBRANCH   1   2
BRANCH   1  17
ATOM     17  C   UNL     1      14.502   5.475  41.008  1.00  0.00     0.000 C 
BRANCH  17  18
ATOM     18  C   UNL     1      16.021   5.309  40.846  1.00  0.00     0.000 C 
BRANCH  18  19
ATOM     19  C   UNL     1      16.622   4.252  41.790  1.00  0.00     0.000 C 
BRANCH  19  20
ATOM     20  C   UNL     1      17.880   3.526  41.269  1.00  0.00     0.000 C 
BRANCH  20  21
ATOM     21  C   UNL     1      17.686   2.057  40.830  1.00  0.00     0.000 C 
BRANCH  21  22
ATOM     22  C   UNL     1      16.244   1.685  40.434  1.00  0.00    -0.000 C 
BRANCH  22  23
ATOM     23  C   UNL     1      15.747   0.375  41.077  1.00  0.00    -0.000 C 
BRANCH  23  24
ATOM     24  C   UNL     1      14.438  -0.142  40.441  1.00  0.00    -0.000 C 
BRANCH  24  25
ATOM     25  C   UNL     1      13.351  -0.530  41.462  1.00  0.00    -0.000 C 
BRANCH  25  26
ATOM     26  C   UNL     1      11.918  -0.596  40.905  1.00  0.00    -0.000 C 
BRANCH  26  27
ATOM     27  C   UNL     1      11.319   0.797  40.636  1.00  0.00    -0.000 C 
BRANCH  27  28
ATOM     28  C   UNL     1      11.604   1.798  41.771  1.00  0.00    -0.000 C 
BRANCH  28  29
ATOM     29  C   UNL     1      10.427   2.726  42.125  1.00  0.00    -0.003 C 
ATOM     30  C   UNL     1      10.732   4.203  41.871  1.00  0.00     0.004 C 
ENDBRANCH  28  29
ENDBRANCH  27  28
ENDBRANCH  26  27
ENDBRANCH  25  26
ENDBRANCH  24  25
ENDBRANCH  23  24
ENDBRANCH  22  23
ENDBRANCH  21  22
ENDBRANCH  20  21
ENDBRANCH  19  20
ENDBRANCH  18  19
ENDBRANCH  17  18
ENDBRANCH   1  17
TORSDOF 26
ENDMDL
MODEL 2
REMARK VINA RESULT:    -4.414      4.639      9.025
REMARK INTER + INTRA:         -15.233
REMARK INTER:                 -11.584
REMARK INTRA:                  -3.649
REMARK UNBOUND:                -4.110
REMARK SMILES CCCCCCCCCCCCCCCCCCCCCCCCCCCC(=O)[O-]
REMARK SMILES IDX 15 1 16 2 17 3 18 4 19 5 20 6 21 7 22 8 23 9 24 10 25 11
REMARK SMILES IDX 26 12 27 13 28 14 29 15 30 16 14 17 13 18 12 19 11 20 10 21
REMARK SMILES IDX 9 22 8 23 7 24 6 25 5 26 4 27 3 28 2 29 1 30
REMARK H PARENT
REMARK Flexibility Score: inf
ROOT
ATOM      1  C   UNL     1      13.995  -0.613  40.031  1.00  0.00     0.000 C 
ENDROOT
BRANCH   1   2
ATOM      2  C   UNL     1      12.860  -1.121  40.935  1.00  0.00     0.000 C 
BRANCH   2   3
ATOM      3  C   UNL     1      12.193   0.011  41.739  1.00  0.00     0.000 C 
BRANCH   3   4
ATOM      4  C   UNL     1      10.911   0.543  41.065  1.00  0.00     0.000 C 
BRANCH   4   5
ATOM      5  C   UNL     1       9.699   0.638  42.011  1.00  0.00     0.000 C 
BRANCH   5   6
ATOM      6  C   UNL     1       9.487  -0.647  42.841  1.00  0.00     0.000 C 
BRANCH   6   7
ATOM      7  C   UNL     1       8.345  -1.525  42.298  1.00  0.00     0.000 C 
BRANCH   7   8
ATOM      8  C   UNL     1       7.186  -0.725  41.672  1.00  0.00     0.000 C 
BRANCH   8   9
ATOM      9  C   UNL     1       6.892  -1.137  40.221  1.00  0.00     0.000 C 
BRANCH   9  10
ATOM     10  C   UNL     1       7.575  -0.184  39.232  1.00  0.00     0.000 C 
BRANCH  10  11
ATOM     11  C   UNL     1       8.805  -0.807  38.554  1.00  0.00     0.000 C 
BRANCH  11  12
ATOM     12  C   UNL     1       8.805  -2.350  38.574  1.00  0.00     0.006 C 
BRANCH  12  13
ATOM     13  C   UNL     1       9.950  -2.912  39.434  1.00  0.00     0.053 C 
BRANCH  13  14
ATOM     14  C   UNL     1      10.386  -4.260  38.946  1.00  0.00     0.041 C 
ATOM     15  O   UNL     1      11.361  -4.845  39.494  1.00  0.00    -0.550 OA
ATOM     16  O   UNL     1       9.683  -4.900  37.928  1.00  0.00    -0.550 OA
ENDBRANCH  13  14
ENDBRANCH  12  13
ENDBRANCH  11  12
ENDBRANCH  10  11
ENDBRANCH   9  10
ENDBRANCH   8   9
ENDBRANCH   7   8
ENDBRANCH   6   7
ENDBRANCH   5   6
ENDBRANCH   4   5
ENDBRANCH   3   4
ENDBRANCH   2   3
ENDBRANCH   1   2
BRANCH   1  17
ATOM     17  C   UNL     1      15.245  -0.198  40.819  1.00  0.00     0.000 C 
BRANCH  17  18
ATOM     18  C   UNL     1      15.462   1.320  40.741  1.00  0.00     0.000 C 
BRANCH  18  19
ATOM     19  C   UNL     1      16.942   1.718  40.607  1.00  0.00     0.000 C 
BRANCH  19  20
ATOM     20  C   UNL     1      17.537   2.501  41.797  1.00  0.00     0.000 C 
BRANCH  20  21
ATOM     21  C   UNL     1      17.593   4.037  41.642  1.00  0.00     0.000 C 
BRANCH  21  22
ATOM     22  C   UNL     1      16.677   4.611  40.544  1.00  0.00    -0.000 C 
BRANCH  22  23
ATOM     23  C   UNL     1      15.907   5.873  40.980  1.00  0.00    -0.000 C 
BRANCH  23  24
ATOM     24  C   UNL     1      14.375   5.673  40.964  1.00  0.00    -0.000 C 
BRANCH  24  25
ATOM     25  C   UNL     1      13.895   4.412  41.709  1.00  0.00    -0.000 C 
BRANCH  25  26
ATOM     26  C   UNL     1      12.516   3.880  41.282  1.00  0.00    -0.000 C 
BRANCH  26  27
ATOM     27  C   UNL     1      11.362   4.798  41.724  1.00  0.00    -0.000 C 
BRANCH  27  28
ATOM     28  C   UNL     1      10.489   4.171  42.827  1.00  0.00    -0.000 C 
BRANCH  28  29
ATOM     29  C   UNL     1      11.170   4.054  44.203  1.00  0.00    -0.003 C 
ATOM     30  C   UNL     1      10.404   4.772  45.314  1.00  0.00     0.004 C 
ENDBRANCH  28  29
ENDBRANCH  27  28
ENDBRANCH  26  27
ENDBRANCH  25  26
ENDBRANCH  24  25
ENDBRANCH  23  24
ENDBRANCH  22  23
ENDBRANCH  21  22
ENDBRANCH  20  21
ENDBRANCH  19  20
ENDBRANCH  18  19
ENDBRANCH  17  18
ENDBRANCH   1  17
TORSDOF 26
ENDMDL
MODEL 3
REMARK VINA RESULT:    -4.405      2.555      6.201
REMARK INTER + INTRA:         -15.211
REMARK INTER:                 -10.866
REMARK INTRA:                  -4.345
REMARK UNBOUND:                -4.110
REMARK SMILES CCCCCCCCCCCCCCCCCCCCCCCCCCCC(=O)[O-]
REMARK SMILES IDX 15 1 16 2 17 3 18 4 19 5 20 6 21 7 22 8 23 9 24 10 25 11
REMARK SMILES IDX 26 12 27 13 28 14 29 15 30 16 14 17 13 18 12 19 11 20 10 21
REMARK SMILES IDX 9 22 8 23 7 24 6 25 5 26 4 27 3 28 2 29 1 30
REMARK H PARENT
REMARK Flexibility Score: inf
ROOT
ATOM      1  C   UNL     1      14.183  -0.994  40.004  1.00  0.00     0.000 C 
ENDROOT
BRANCH   1   2
ATOM      2  C   UNL     1      15.071  -0.235  41.004  1.00  0.00     0.000 C 
BRANCH   2   3
ATOM      3  C   UNL     1      15.359   1.212  40.559  1.00  0.00     0.000 C 
BRANCH   3   4
ATOM      4  C   UNL     1      16.715   1.734  41.076  1.00  0.00     0.000 C 
BRANCH   4   5
ATOM      5  C   UNL     1      17.301   2.890  40.243  1.00  0.00     0.000 C 
BRANCH   5   6
ATOM      6  C   UNL     1      16.667   4.254  40.587  1.00  0.00     0.000 C 
BRANCH   6   7
ATOM      7  C   UNL     1      17.261   4.883  41.861  1.00  0.00     0.000 C 
BRANCH   7   8
ATOM      8  C   UNL     1      16.239   5.072  42.998  1.00  0.00     0.000 C 
BRANCH   8   9
ATOM      9  C   UNL     1      15.697   6.508  43.082  1.00  0.00     0.000 C 
BRANCH   9  10
ATOM     10  C   UNL     1      15.558   6.957  44.542  1.00  0.00     0.000 C 
BRANCH  10  11
ATOM     11  C   UNL     1      16.699   6.447  45.436  1.00  0.00     0.000 C 
BRANCH  11  12
ATOM     12  C   UNL     1      16.238   6.035  46.850  1.00  0.00     0.006 C 
BRANCH  12  13
ATOM     13  C   UNL     1      15.540   4.665  46.848  1.00  0.00     0.053 C 
BRANCH  13  14
ATOM     14  C   UNL     1      14.102   4.787  47.252  1.00  0.00     0.041 C 
ATOM     15  O   UNL     1      13.800   4.982  48.463  1.00  0.00    -0.550 OA
ATOM     16  O   UNL     1      13.096   4.746  46.291  1.00  0.00    -0.550 OA
ENDBRANCH  13  14
ENDBRANCH  12  13
ENDBRANCH  11  12
ENDBRANCH  10  11
ENDBRANCH   9  10
ENDBRANCH   8   9
ENDBRANCH   7   8
ENDBRANCH   6   7
ENDBRANCH   5   6
ENDBRANCH   4   5
ENDBRANCH   3   4
ENDBRANCH   2   3
ENDBRANCH   1   2
BRANCH   1  17
ATOM     17  C   UNL     1      12.687  -0.872  40.323  1.00  0.00     0.000 C 
BRANCH  17  18
ATOM     18  C   UNL     1      12.471  -0.137  41.654  1.00  0.00     0.000 C 
BRANCH  18  19
ATOM     19  C   UNL     1      11.477   1.034  41.549  1.00  0.00     0.000 C 
BRANCH  19  20
ATOM     20  C   UNL     1      11.008   1.390  40.122  1.00  0.00     0.000 C 
BRANCH  20  21
ATOM     21  C   UNL     1      10.139   2.660  39.988  1.00  0.00     0.000 C 
BRANCH  21  22
ATOM     22  C   UNL     1       8.915   2.709  40.923  1.00  0.00    -0.000 C 
BRANCH  22  23
ATOM     23  C   UNL     1       8.916   3.917  41.879  1.00  0.00    -0.000 C 
BRANCH  23  24
ATOM     24  C   UNL     1       9.198   3.518  43.345  1.00  0.00    -0.000 C 
BRANCH  24  25
ATOM     25  C   UNL     1      10.412   4.231  43.971  1.00  0.00    -0.000 C 
BRANCH  25  26
ATOM     26  C   UNL     1      11.275   5.045  42.992  1.00  0.00    -0.000 C 
BRANCH  26  27
ATOM     27  C   UNL     1      12.645   4.396  42.725  1.00  0.00    -0.000 C 
BRANCH  27  28
ATOM     28  C   UNL     1      13.038   4.422  41.236  1.00  0.00    -0.000 C 
BRANCH  28  29
ATOM     29  C   UNL     1      12.938   5.805  40.565  1.00  0.00    -0.003 C 
ATOM     30  C   UNL     1      11.943   5.838  39.405  1.00  0.00     0.004 C 
ENDBRANCH  28  29
ENDBRANCH  27  28
ENDBRANCH  26  27
ENDBRANCH  25  26
ENDBRANCH  24  25
ENDBRANCH  23  24
ENDBRANCH  22  23
ENDBRANCH  21  22
ENDBRANCH  20  21
ENDBRANCH  19  20
ENDBRANCH  18  19
ENDBRANCH  17  18
ENDBRANCH   1  17
TORSDOF 26
ENDMDL
MODEL 4
REMARK VINA RESULT:    -4.379      3.684      8.515
REMARK INTER + INTRA:         -15.145
REMARK INTER:                 -10.800
REMARK INTRA:                  -4.345
REMARK UNBOUND:                -4.110
REMARK SMILES CCCCCCCCCCCCCCCCCCCCCCCCCCCC(=O)[O-]
REMARK SMILES IDX 15 1 16 2 17 3 18 4 19 5 20 6 21 7 22 8 23 9 24 10 25 11
REMARK SMILES IDX 26 12 27 13 28 14 29 15 30 16 14 17 13 18 12 19 11 20 10 21
REMARK SMILES IDX 9 22 8 23 7 24 6 25 5 26 4 27 3 28 2 29 1 30
REMARK H PARENT
REMARK Flexibility Score: inf
ROOT
ATOM      1  C   UNL     1      22.237   4.804  42.868  1.00  0.00     0.000 C 
ENDROOT
BRANCH   1   2
ATOM      2  C   UNL     1      21.064   4.540  41.909  1.00  0.00     0.000 C 
BRANCH   2   3
ATOM      3  C   UNL     1      20.857   3.039  41.629  1.00  0.00     0.000 C 
BRANCH   3   4
ATOM      4  C   UNL     1      19.756   2.775  40.582  1.00  0.00     0.000 C 
BRANCH   4   5
ATOM      5  C   UNL     1      18.344   2.632  41.180  1.00  0.00     0.000 C 
BRANCH   5   6
ATOM      6  C   UNL     1      17.271   3.384  40.364  1.00  0.00     0.000 C 
BRANCH   6   7
ATOM      7  C   UNL     1      16.054   3.794  41.215  1.00  0.00     0.000 C 
BRANCH   7   8
ATOM      8  C   UNL     1      15.963   5.308  41.483  1.00  0.00     0.000 C 
BRANCH   8   9
ATOM      9  C   UNL     1      15.799   5.641  42.975  1.00  0.00     0.000 C 
BRANCH   9  10
ATOM     10  C   UNL     1      17.013   6.418  43.499  1.00  0.00     0.000 C 
BRANCH  10  11
ATOM     11  C   UNL     1      18.199   6.406  42.522  1.00  0.00     0.000 C 
BRANCH  11  12
ATOM     12  C   UNL     1      18.835   7.795  42.307  1.00  0.00     0.006 C 
BRANCH  12  13
ATOM     13  C   UNL     1      17.805   8.927  42.456  1.00  0.00     0.053 C 
BRANCH  13  14
ATOM     14  C   UNL     1      16.890   8.989  41.270  1.00  0.00     0.041 C 
ATOM     15  O   UNL     1      17.366   8.933  40.102  1.00  0.00    -0.550 OA
ATOM     16  O   UNL     1      15.511   9.048  41.449  1.00  0.00    -0.550 OA
ENDBRANCH  13  14
ENDBRANCH  12  13
ENDBRANCH  11  12
ENDBRANCH  10  11
ENDBRANCH   9  10
ENDBRANCH   8   9
ENDBRANCH   7   8
ENDBRANCH   6   7
ENDBRANCH   5   6
ENDBRANCH   4   5
ENDBRANCH   3   4
ENDBRANCH   2   3
ENDBRANCH   1   2
BRANCH   1  17
ATOM     17  C   UNL     1      22.186   6.202  43.501  1.00  0.00     0.000 C 
BRANCH  17  18
ATOM     18  C   UNL     1      22.901   6.211  44.860  1.00  0.00     0.000 C 
BRANCH  18  19
ATOM     19  C   UNL     1      23.124   7.627  45.421  1.00  0.00     0.000 C 
BRANCH  19  20
ATOM     20  C   UNL     1      24.032   7.720  46.665  1.00  0.00     0.000 C 
BRANCH  20  21
ATOM     21  C   UNL     1      24.290   6.398  47.421  1.00  0.00     0.000 C 
BRANCH  21  22
ATOM     22  C   UNL     1      23.264   6.070  48.522  1.00  0.00    -0.000 C 
BRANCH  22  23
ATOM     23  C   UNL     1      22.541   7.311  49.080  1.00  0.00    -0.000 C 
BRANCH  23  24
ATOM     24  C   UNL     1      21.003   7.198  48.986  1.00  0.00    -0.000 C 
BRANCH  24  25
ATOM     25  C   UNL     1      20.506   6.250  47.877  1.00  0.00    -0.000 C 
BRANCH  25  26
ATOM     26  C   UNL     1      19.228   6.701  47.149  1.00  0.00    -0.000 C 
BRANCH  26  27
ATOM     27  C   UNL     1      19.511   7.703  46.015  1.00  0.00    -0.000 C 
BRANCH  27  28
ATOM     28  C   UNL     1      18.530   8.891  46.010  1.00  0.00    -0.000 C 
BRANCH  28  29
ATOM     29  C   UNL     1      19.197  10.278  45.967  1.00  0.00    -0.003 C 
ATOM     30  C   UNL     1      20.698  10.231  46.253  1.00  0.00     0.004 C 
ENDBRANCH  28  29
ENDBRANCH  27  28
ENDBRANCH  26  27
ENDBRANCH  25  26
ENDBRANCH  24  25
ENDBRANCH  23  24
ENDBRANCH  22  23
ENDBRANCH  21  22
ENDBRANCH  20  21
ENDBRANCH  19  20
ENDBRANCH  18  19
ENDBRANCH  17  18
ENDBRANCH   1  17
TORSDOF 26
ENDMDL
MODEL 5
REMARK VINA RESULT:    -4.360      2.743      6.257
REMARK INTER + INTRA:         -15.096
REMARK INTER:                 -10.230
REMARK INTRA:                  -4.866
REMARK UNBOUND:                -4.110
REMARK SMILES CCCCCCCCCCCCCCCCCCCCCCCCCCCC(=O)[O-]
REMARK SMILES IDX 15 1 16 2 17 3 18 4 19 5 20 6 21 7 22 8 23 9 24 10 25 11
REMARK SMILES IDX 26 12 27 13 28 14 29 15 30 16 14 17 13 18 12 19 11 20 10 21
REMARK SMILES IDX 9 22 8 23 7 24 6 25 5 26 4 27 3 28 2 29 1 30
REMARK H PARENT
REMARK Flexibility Score: inf
ROOT
ATOM      1  C   UNL     1      18.039   7.195  43.496  1.00  0.00     0.000 C 
ENDROOT
BRANCH   1   2
ATOM      2  C   UNL     1      18.509   7.756  42.143  1.00  0.00     0.000 C 
BRANCH   2   3
ATOM      3  C   UNL     1      17.390   8.501  41.391  1.00  0.00     0.000 C 
BRANCH   3   4
ATOM      4  C   UNL     1      16.659   9.529  42.278  1.00  0.00     0.000 C 
BRANCH   4   5
ATOM      5  C   UNL     1      15.284   9.961  41.734  1.00  0.00     0.000 C 
BRANCH   5   6
ATOM      6  C   UNL     1      14.172   8.935  42.038  1.00  0.00     0.000 C 
BRANCH   6   7
ATOM      7  C   UNL     1      14.395   8.190  43.367  1.00  0.00     0.000 C 
BRANCH   7   8
ATOM      8  C   UNL     1      14.446   6.657  43.222  1.00  0.00     0.000 C 
BRANCH   8   9
ATOM      9  C   UNL     1      14.379   6.193  41.758  1.00  0.00     0.000 C 
BRANCH   9  10
ATOM     10  C   UNL     1      15.099   4.851  41.576  1.00  0.00     0.000 C 
BRANCH  10  11
ATOM     11  C   UNL     1      16.355   4.960  40.698  1.00  0.00     0.000 C 
BRANCH  11  12
ATOM     12  C   UNL     1      17.117   3.627  40.543  1.00  0.00     0.006 C 
BRANCH  12  13
ATOM     13  C   UNL     1      18.273   3.507  41.550  1.00  0.00     0.053 C 
BRANCH  13  14
ATOM     14  C   UNL     1      19.446   2.793  40.949  1.00  0.00     0.041 C 
ATOM     15  O   UNL     1      19.298   2.108  39.898  1.00  0.00    -0.550 OA
ATOM     16  O   UNL     1      20.713   2.928  41.509  1.00  0.00    -0.550 OA
ENDBRANCH  13  14
ENDBRANCH  12  13
ENDBRANCH  11  12
ENDBRANCH  10  11
ENDBRANCH   9  10
ENDBRANCH   8   9
ENDBRANCH   7   8
ENDBRANCH   6   7
ENDBRANCH   5   6
ENDBRANCH   4   5
ENDBRANCH   3   4
ENDBRANCH   2   3
ENDBRANCH   1   2
BRANCH   1  17
ATOM     17  C   UNL     1      19.007   7.515  44.643  1.00  0.00     0.000 C 
BRANCH  17  18
ATOM     18  C   UNL     1      18.266   7.557  45.987  1.00  0.00     0.000 C 
BRANCH  18  19
ATOM     19  C   UNL     1      16.835   6.996  45.911  1.00  0.00     0.000 C 
BRANCH  19  20
ATOM     20  C   UNL     1      16.473   5.933  46.970  1.00  0.00     0.000 C 
BRANCH  20  21
ATOM     21  C   UNL     1      15.672   4.713  46.463  1.00  0.00     0.000 C 
BRANCH  21  22
ATOM     22  C   UNL     1      14.305   4.509  47.144  1.00  0.00    -0.000 C 
BRANCH  22  23
ATOM     23  C   UNL     1      13.937   5.628  48.137  1.00  0.00    -0.000 C 
BRANCH  23  24
ATOM     24  C   UNL     1      12.576   6.286  47.817  1.00  0.00    -0.000 C 
BRANCH  24  25
ATOM     25  C   UNL     1      12.589   7.189  46.569  1.00  0.00    -0.000 C 
BRANCH  25  26
ATOM     26  C   UNL     1      11.549   6.837  45.491  1.00  0.00    -0.000 C 
BRANCH  26  27
ATOM     27  C   UNL     1      11.129   5.356  45.531  1.00  0.00    -0.000 C 
BRANCH  27  28
ATOM     28  C   UNL     1      11.820   4.510  44.444  1.00  0.00    -0.000 C 
BRANCH  28  29
ATOM     29  C   UNL     1      10.879   3.968  43.352  1.00  0.00    -0.003 C 
ATOM     30  C   UNL     1      11.627   3.356  42.167  1.00  0.00     0.004 C 
ENDBRANCH  28  29
ENDBRANCH  27  28
ENDBRANCH  26  27
ENDBRANCH  25  26
ENDBRANCH  24  25
ENDBRANCH  23  24
ENDBRANCH  22  23
ENDBRANCH  21  22
ENDBRANCH  20  21
ENDBRANCH  19  20
ENDBRANCH  18  19
ENDBRANCH  17  18
ENDBRANCH   1  17
TORSDOF 26
ENDMDL
MODEL 6
REMARK VINA RESULT:    -4.352      2.182      5.534
REMARK INTER + INTRA:         -15.077
REMARK INTER:                 -10.798
REMARK INTRA:                  -4.279
REMARK UNBOUND:                -4.110
REMARK SMILES CCCCCCCCCCCCCCCCCCCCCCCCCCCC(=O)[O-]
REMARK SMILES IDX 15 1 16 2 17 3 18 4 19 5 20 6 21 7 22 8 23 9 24 10 25 11
REMARK SMILES IDX 26 12 27 13 28 14 29 15 30 16 14 17 13 18 12 19 11 20 10 21
REMARK SMILES IDX 9 22 8 23 7 24 6 25 5 26 4 27 3 28 2 29 1 30
REMARK H PARENT
REMARK Flexibility Score: inf
ROOT
ATOM      1  C   UNL     1      15.722   4.622  46.287  1.00  0.00     0.000 C 
ENDROOT
BRANCH   1   2
ATOM      2  C   UNL     1      16.137   5.392  45.022  1.00  0.00     0.000 C 
BRANCH   2   3
ATOM      3  C   UNL     1      16.398   6.885  45.298  1.00  0.00     0.000 C 
BRANCH   3   4
ATOM      4  C   UNL     1      15.615   7.811  44.345  1.00  0.00     0.000 C 
BRANCH   4   5
ATOM      5  C   UNL     1      16.506   8.622  43.386  1.00  0.00     0.000 C 
BRANCH   5   6
ATOM      6  C   UNL     1      17.922   8.026  43.239  1.00  0.00     0.000 C 
BRANCH   6   7
ATOM      7  C   UNL     1      18.030   7.025  42.075  1.00  0.00     0.000 C 
BRANCH   7   8
ATOM      8  C   UNL     1      17.180   7.403  40.846  1.00  0.00     0.000 C 
BRANCH   8   9
ATOM      9  C   UNL     1      16.122   6.343  40.503  1.00  0.00     0.000 C 
BRANCH   9  10
ATOM     10  C   UNL     1      16.164   5.183  41.506  1.00  0.00     0.000 C 
BRANCH  10  11
ATOM     11  C   UNL     1      15.801   3.831  40.872  1.00  0.00     0.000 C 
BRANCH  11  12
ATOM     12  C   UNL     1      16.796   2.702  41.213  1.00  0.00     0.006 C 
BRANCH  12  13
ATOM     13  C   UNL     1      18.122   3.254  41.763  1.00  0.00     0.053 C 
BRANCH  13  14
ATOM     14  C   UNL     1      19.282   2.830  40.914  1.00  0.00     0.041 C 
ATOM     15  O   UNL     1      19.089   2.446  39.726  1.00  0.00    -0.550 OA
ATOM     16  O   UNL     1      20.581   2.912  41.407  1.00  0.00    -0.550 OA
ENDBRANCH  13  14
ENDBRANCH  12  13
ENDBRANCH  11  12
ENDBRANCH  10  11
ENDBRANCH   9  10
ENDBRANCH   8   9
ENDBRANCH   7   8
ENDBRANCH   6   7
ENDBRANCH   5   6
ENDBRANCH   4   5
ENDBRANCH   3   4
ENDBRANCH   2   3
ENDBRANCH   1   2
BRANCH   1  17
ATOM     17  C   UNL     1      15.036   5.516  47.330  1.00  0.00     0.000 C 
BRANCH  17  18
ATOM     18  C   UNL     1      13.641   4.976  47.678  1.00  0.00     0.000 C 
BRANCH  18  19
ATOM     19  C   UNL     1      12.630   5.109  46.524  1.00  0.00     0.000 C 
BRANCH  19  20
ATOM     20  C   UNL     1      12.539   6.505  45.871  1.00  0.00     0.000 C 
BRANCH  20  21
ATOM     21  C   UNL     1      12.220   6.529  44.359  1.00  0.00     0.000 C 
BRANCH  21  22
ATOM     22  C   UNL     1      12.735   5.311  43.569  1.00  0.00    -0.000 C 
BRANCH  22  23
ATOM     23  C   UNL     1      11.775   4.846  42.457  1.00  0.00    -0.000 C 
BRANCH  23  24
ATOM     24  C   UNL     1      11.948   3.352  42.104  1.00  0.00    -0.000 C 
BRANCH  24  25
ATOM     25  C   UNL     1      11.048   2.867  40.951  1.00  0.00    -0.000 C 
BRANCH  25  26
ATOM     26  C   UNL     1      11.385   1.472  40.395  1.00  0.00    -0.000 C 
BRANCH  26  27
ATOM     27  C   UNL     1      11.309   0.370  41.467  1.00  0.00    -0.000 C 
BRANCH  27  28
ATOM     28  C   UNL     1      12.662  -0.326  41.704  1.00  0.00    -0.000 C 
BRANCH  28  29
ATOM     29  C   UNL     1      13.850   0.292  40.943  1.00  0.00    -0.003 C 
ATOM     30  C   UNL     1      15.066  -0.632  40.878  1.00  0.00     0.004 C 
ENDBRANCH  28  29
ENDBRANCH  27  28
ENDBRANCH  26  27
ENDBRANCH  25  26
ENDBRANCH  24  25
ENDBRANCH  23  24
ENDBRANCH  22  23
ENDBRANCH  21  22
ENDBRANCH  20  21
ENDBRANCH  19  20
ENDBRANCH  18  19
ENDBRANCH  17  18
ENDBRANCH   1  17
TORSDOF 26
ENDMDL
MODEL 7
REMARK VINA RESULT:    -4.346      4.329      8.826
REMARK INTER + INTRA:         -15.062
REMARK INTER:                 -10.951
REMARK INTRA:                  -4.111
REMARK UNBOUND:                -4.110
REMARK SMILES CCCCCCCCCCCCCCCCCCCCCCCCCCCC(=O)[O-]
REMARK SMILES IDX 15 1 16 2 17 3 18 4 19 5 20 6 21 7 22 8 23 9 24 10 25 11
REMARK SMILES IDX 26 12 27 13 28 14 29 15 30 16 14 17 13 18 12 19 11 20 10 21
REMARK SMILES IDX 9 22 8 23 7 24 6 25 5 26 4 27 3 28 2 29 1 30
REMARK H PARENT
REMARK Flexibility Score: inf
ROOT
ATOM      1  C   UNL     1       9.475   0.521  38.271  1.00  0.00     0.000 C 
ENDROOT
BRANCH   1   2
ATOM      2  C   UNL     1       9.629  -0.902  38.834  1.00  0.00     0.000 C 
BRANCH   2   3
ATOM      3  C   UNL     1       8.300  -1.475  39.363  1.00  0.00     0.000 C 
BRANCH   3   4
ATOM      4  C   UNL     1       8.447  -2.139  40.747  1.00  0.00     0.000 C 
BRANCH   4   5
ATOM      5  C   UNL     1       8.018  -1.241  41.922  1.00  0.00     0.000 C 
BRANCH   5   6
ATOM      6  C   UNL     1       7.336   0.064  41.458  1.00  0.00     0.000 C 
BRANCH   6   7
ATOM      7  C   UNL     1       8.166   1.319  41.784  1.00  0.00     0.000 C 
BRANCH   7   8
ATOM      8  C   UNL     1       9.627   1.017  42.170  1.00  0.00     0.000 C 
BRANCH   8   9
ATOM      9  C   UNL     1      10.592   2.149  41.783  1.00  0.00     0.000 C 
BRANCH   9  10
ATOM     10  C   UNL     1      11.938   1.584  41.313  1.00  0.00     0.000 C 
BRANCH  10  11
ATOM     11  C   UNL     1      12.100   0.087  41.621  1.00  0.00     0.000 C 
BRANCH  11  12
ATOM     12  C   UNL     1      13.527  -0.444  41.368  1.00  0.00     0.006 C 
BRANCH  12  13
ATOM     13  C   UNL     1      13.627  -1.206  40.036  1.00  0.00     0.053 C 
BRANCH  13  14
ATOM     14  C   UNL     1      14.011  -2.638  40.256  1.00  0.00     0.041 C 
ATOM     15  O   UNL     1      14.851  -2.936  41.151  1.00  0.00    -0.550 OA
ATOM     16  O   UNL     1      13.403  -3.650  39.518  1.00  0.00    -0.550 OA
ENDBRANCH  13  14
ENDBRANCH  12  13
ENDBRANCH  11  12
ENDBRANCH  10  11
ENDBRANCH   9  10
ENDBRANCH   8   9
ENDBRANCH   7   8
ENDBRANCH   6   7
ENDBRANCH   5   6
ENDBRANCH   4   5
ENDBRANCH   3   4
ENDBRANCH   2   3
ENDBRANCH   1   2
BRANCH   1  17
ATOM     17  C   UNL     1      10.817   1.158  37.886  1.00  0.00     0.000 C 
BRANCH  17  18
ATOM     18  C   UNL     1      10.796   1.633  36.425  1.00  0.00     0.000 C 
BRANCH  18  19
ATOM     19  C   UNL     1       9.548   2.462  36.072  1.00  0.00     0.000 C 
BRANCH  19  20
ATOM     20  C   UNL     1       9.737   3.993  36.076  1.00  0.00     0.000 C 
BRANCH  20  21
ATOM     21  C   UNL     1       9.690   4.682  37.458  1.00  0.00     0.000 C 
BRANCH  21  22
ATOM     22  C   UNL     1      11.044   5.217  37.962  1.00  0.00    -0.000 C 
BRANCH  22  23
ATOM     23  C   UNL     1      11.429   4.701  39.362  1.00  0.00    -0.000 C 
BRANCH  23  24
ATOM     24  C   UNL     1      12.368   5.667  40.117  1.00  0.00    -0.000 C 
BRANCH  24  25
ATOM     25  C   UNL     1      12.522   5.354  41.618  1.00  0.00    -0.000 C 
BRANCH  25  26
ATOM     26  C   UNL     1      13.937   4.943  42.063  1.00  0.00    -0.000 C 
BRANCH  26  27
ATOM     27  C   UNL     1      14.758   4.310  40.925  1.00  0.00    -0.000 C 
BRANCH  27  28
ATOM     28  C   UNL     1      16.277   4.430  41.146  1.00  0.00    -0.000 C 
BRANCH  28  29
ATOM     29  C   UNL     1      16.967   3.134  41.611  1.00  0.00    -0.003 C 
ATOM     30  C   UNL     1      17.980   2.598  40.599  1.00  0.00     0.004 C 
ENDBRANCH  28  29
ENDBRANCH  27  28
ENDBRANCH  26  27
ENDBRANCH  25  26
ENDBRANCH  24  25
ENDBRANCH  23  24
ENDBRANCH  22  23
ENDBRANCH  21  22
ENDBRANCH  20  21
ENDBRANCH  19  20
ENDBRANCH  18  19
ENDBRANCH  17  18
ENDBRANCH   1  17
TORSDOF 26
ENDMDL
MODEL 8
REMARK VINA RESULT:    -4.331      1.867      5.446
REMARK INTER + INTRA:         -15.023
REMARK INTER:                 -10.803
REMARK INTRA:                  -4.219
REMARK UNBOUND:                -4.110
REMARK SMILES CCCCCCCCCCCCCCCCCCCCCCCCCCCC(=O)[O-]
REMARK SMILES IDX 15 1 16 2 17 3 18 4 19 5 20 6 21 7 22 8 23 9 24 10 25 11
REMARK SMILES IDX 26 12 27 13 28 14 29 15 30 16 14 17 13 18 12 19 11 20 10 21
REMARK SMILES IDX 9 22 8 23 7 24 6 25 5 26 4 27 3 28 2 29 1 30
REMARK H PARENT
REMARK Flexibility Score: inf
ROOT
ATOM      1  C   UNL     1      15.123  -0.648  41.004  1.00  0.00     0.000 C 
ENDROOT
BRANCH   1   2
ATOM      2  C   UNL     1      15.187   0.877  40.820  1.00  0.00     0.000 C 
BRANCH   2   3
ATOM      3  C   UNL     1      16.625   1.387  40.603  1.00  0.00     0.000 C 
BRANCH   3   4
ATOM      4  C   UNL     1      16.948   2.635  41.449  1.00  0.00     0.000 C 
BRANCH   4   5
ATOM      5  C   UNL     1      16.637   3.968  40.744  1.00  0.00     0.000 C 
BRANCH   5   6
ATOM      6  C   UNL     1      15.202   4.467  41.014  1.00  0.00     0.000 C 
BRANCH   6   7
ATOM      7  C   UNL     1      15.028   5.968  40.724  1.00  0.00     0.000 C 
BRANCH   7   8
ATOM      8  C   UNL     1      14.456   6.771  41.908  1.00  0.00     0.000 C 
BRANCH   8   9
ATOM      9  C   UNL     1      14.677   6.076  43.261  1.00  0.00     0.000 C 
BRANCH   9  10
ATOM     10  C   UNL     1      15.787   6.772  44.059  1.00  0.00     0.000 C 
BRANCH  10  11
ATOM     11  C   UNL     1      17.196   6.394  43.577  1.00  0.00     0.000 C 
BRANCH  11  12
ATOM     12  C   UNL     1      18.148   7.602  43.450  1.00  0.00     0.006 C 
BRANCH  12  13
ATOM     13  C   UNL     1      18.660   7.780  42.010  1.00  0.00     0.053 C 
BRANCH  13  14
ATOM     14  C   UNL     1      17.684   8.557  41.179  1.00  0.00     0.041 C 
ATOM     15  O   UNL     1      17.550   8.292  39.951  1.00  0.00    -0.550 OA
ATOM     16  O   UNL     1      16.881   9.531  41.764  1.00  0.00    -0.550 OA
ENDBRANCH  13  14
ENDBRANCH  12  13
ENDBRANCH  11  12
ENDBRANCH  10  11
ENDBRANCH   9  10
ENDBRANCH   8   9
ENDBRANCH   7   8
ENDBRANCH   6   7
ENDBRANCH   5   6
ENDBRANCH   4   5
ENDBRANCH   3   4
ENDBRANCH   2   3
ENDBRANCH   1   2
BRANCH   1  17
ATOM     17  C   UNL     1      13.716  -1.147  41.361  1.00  0.00     0.000 C 
BRANCH  17  18
ATOM     18  C   UNL     1      12.717   0.019  41.401  1.00  0.00     0.000 C 
BRANCH  18  19
ATOM     19  C   UNL     1      11.248  -0.438  41.409  1.00  0.00     0.000 C 
BRANCH  19  20
ATOM     20  C   UNL     1      10.200   0.676  41.623  1.00  0.00     0.000 C 
BRANCH  20  21
ATOM     21  C   UNL     1       9.303   1.008  40.411  1.00  0.00     0.000 C 
BRANCH  21  22
ATOM     22  C   UNL     1      10.059   1.494  39.159  1.00  0.00    -0.000 C 
BRANCH  22  23
ATOM     23  C   UNL     1       9.409   2.716  38.481  1.00  0.00    -0.000 C 
BRANCH  23  24
ATOM     24  C   UNL     1      10.334   3.381  37.438  1.00  0.00    -0.000 C 
BRANCH  24  25
ATOM     25  C   UNL     1      10.463   4.909  37.591  1.00  0.00    -0.000 C 
BRANCH  25  26
ATOM     26  C   UNL     1      11.447   5.381  38.676  1.00  0.00    -0.000 C 
BRANCH  26  27
ATOM     27  C   UNL     1      10.756   6.164  39.807  1.00  0.00    -0.000 C 
BRANCH  27  28
ATOM     28  C   UNL     1      11.158   5.669  41.208  1.00  0.00    -0.000 C 
BRANCH  28  29
ATOM     29  C   UNL     1      11.563   4.185  41.278  1.00  0.00    -0.003 C 
ATOM     30  C   UNL     1      11.750   3.681  42.710  1.00  0.00     0.004 C 
ENDBRANCH  28  29
ENDBRANCH  27  28
ENDBRANCH  26  27
ENDBRANCH  25  26
ENDBRANCH  24  25
ENDBRANCH  23  24
ENDBRANCH  22  23
ENDBRANCH  21  22
ENDBRANCH  20  21
ENDBRANCH  19  20
ENDBRANCH  18  19
ENDBRANCH  17  18
ENDBRANCH   1  17
TORSDOF 26
ENDMDL
MODEL 9
REMARK VINA RESULT:    -4.309      1.694      6.373
REMARK INTER + INTRA:         -14.968
REMARK INTER:                 -11.320
REMARK INTRA:                  -3.648
REMARK UNBOUND:                -4.110
REMARK SMILES CCCCCCCCCCCCCCCCCCCCCCCCCCCC(=O)[O-]
REMARK SMILES IDX 15 1 16 2 17 3 18 4 19 5 20 6 21 7 22 8 23 9 24 10 25 11
REMARK SMILES IDX 26 12 27 13 28 14 29 15 30 16 14 17 13 18 12 19 11 20 10 21
REMARK SMILES IDX 9 22 8 23 7 24 6 25 5 26 4 27 3 28 2 29 1 30
REMARK H PARENT
REMARK Flexibility Score: inf
ROOT
ATOM      1  C   UNL     1      15.203   0.820  40.942  1.00  0.00     0.000 C 
ENDROOT
BRANCH   1   2
ATOM      2  C   UNL     1      15.123  -0.716  40.979  1.00  0.00     0.000 C 
BRANCH   2   3
ATOM      3  C   UNL     1      13.672  -1.233  40.936  1.00  0.00     0.000 C 
BRANCH   3   4
ATOM      4  C   UNL     1      12.642  -0.142  41.292  1.00  0.00     0.000 C 
BRANCH   4   5
ATOM      5  C   UNL     1      11.702   0.235  40.131  1.00  0.00     0.000 C 
BRANCH   5   6
ATOM      6  C   UNL     1      10.912   1.534  40.400  1.00  0.00     0.000 C 
BRANCH   6   7
ATOM      7  C   UNL     1      11.562   2.413  41.485  1.00  0.00     0.000 C 
BRANCH   7   8
ATOM      8  C   UNL     1      11.475   3.924  41.198  1.00  0.00     0.000 C 
BRANCH   8   9
ATOM      9  C   UNL     1      10.769   4.240  39.870  1.00  0.00     0.000 C 
BRANCH   9  10
ATOM     10  C   UNL     1      11.523   5.327  39.094  1.00  0.00     0.000 C 
BRANCH  10  11
ATOM     11  C   UNL     1      12.258   6.317  40.012  1.00  0.00     0.000 C 
BRANCH  11  12
ATOM     12  C   UNL     1      11.311   7.242  40.805  1.00  0.00     0.006 C 
BRANCH  12  13
ATOM     13  C   UNL     1      11.991   7.822  42.056  1.00  0.00     0.053 C 
BRANCH  13  14
ATOM     14  C   UNL     1      12.951   8.915  41.695  1.00  0.00     0.041 C 
ATOM     15  O   UNL     1      14.190   8.752  41.874  1.00  0.00    -0.550 OA
ATOM     16  O   UNL     1      12.489  10.091  41.109  1.00  0.00    -0.550 OA
ENDBRANCH  13  14
ENDBRANCH  12  13
ENDBRANCH  11  12
ENDBRANCH  10  11
ENDBRANCH   9  10
ENDBRANCH   8   9
ENDBRANCH   7   8
ENDBRANCH   6   7
ENDBRANCH   5   6
ENDBRANCH   4   5
ENDBRANCH   3   4
ENDBRANCH   2   3
ENDBRANCH   1   2
BRANCH   1  17
ATOM     17  C   UNL     1      16.614   1.335  40.625  1.00  0.00     0.000 C 
BRANCH  17  18
ATOM     18  C   UNL     1      16.917   2.616  41.416  1.00  0.00     0.000 C 
BRANCH  18  19
ATOM     19  C   UNL     1      17.132   3.849  40.521  1.00  0.00     0.000 C 
BRANCH  19  20
ATOM     20  C   UNL     1      16.170   5.031  40.764  1.00  0.00     0.000 C 
BRANCH  20  21
ATOM     21  C   UNL     1      14.961   4.747  41.683  1.00  0.00     0.000 C 
BRANCH  21  22
ATOM     22  C   UNL     1      14.971   5.509  43.022  1.00  0.00    -0.000 C 
BRANCH  22  23
ATOM     23  C   UNL     1      16.180   5.171  43.915  1.00  0.00    -0.000 C 
BRANCH  23  24
ATOM     24  C   UNL     1      16.495   6.283  44.940  1.00  0.00    -0.000 C 
BRANCH  24  25
ATOM     25  C   UNL     1      16.423   5.826  46.410  1.00  0.00    -0.000 C 
BRANCH  25  26
ATOM     26  C   UNL     1      15.482   4.640  46.685  1.00  0.00    -0.000 C 
BRANCH  26  27
ATOM     27  C   UNL     1      14.167   5.068  47.363  1.00  0.00    -0.000 C 
BRANCH  27  28
ATOM     28  C   UNL     1      13.207   5.790  46.399  1.00  0.00    -0.000 C 
BRANCH  28  29
ATOM     29  C   UNL     1      11.908   5.024  46.086  1.00  0.00    -0.003 C 
ATOM     30  C   UNL     1      11.811   4.581  44.626  1.00  0.00     0.004 C 
ENDBRANCH  28  29
ENDBRANCH  27  28
ENDBRANCH  26  27
ENDBRANCH  25  26
ENDBRANCH  24  25
ENDBRANCH  23  24
ENDBRANCH  22  23
ENDBRANCH  21  22
ENDBRANCH  20  21
ENDBRANCH  19  20
ENDBRANCH  18  19
ENDBRANCH  17  18
ENDBRANCH   1  17
TORSDOF 26
ENDMDL
