MODEL 1
REMARK VINA RESULT:    -3.362      0.000      0.000
REMARK INTER + INTRA:          -6.949
REMARK INTER:                  -6.113
REMARK INTRA:                  -0.836
REMARK UNBOUND:                -0.836
REMARK SMILES CCCCCCCCCCCCCCCC(=O)[O-]
REMARK SMILES IDX 9 1 10 2 11 3 12 4 13 5 14 6 15 7 16 8 17 9 18 10 8 11 7 12
REMARK SMILES IDX 6 13 5 14 4 15 3 16 2 17 1 18
REMARK H PARENT
REMARK Flexibility Score: inf
ROOT
ATOM      1  C   UNL     1      -3.871   9.246   5.095  1.00  0.00     0.000 C 
ENDROOT
BRANCH   1   2
ATOM      2  C   UNL     1      -2.564   9.108   4.289  1.00  0.00     0.000 C 
BRANCH   2   3
ATOM      3  C   UNL     1      -2.743   8.664   2.826  1.00  0.00     0.000 C 
BRANCH   3   4
ATOM      4  C   UNL     1      -3.810   7.568   2.661  1.00  0.00     0.000 C 
BRANCH   4   5
ATOM      5  C   UNL     1      -3.231   6.260   2.100  1.00  0.00     0.000 C 
BRANCH   5   6
ATOM      6  C   UNL     1      -4.066   5.026   2.485  1.00  0.00     0.006 C 
BRANCH   6   7
ATOM      7  C   UNL     1      -3.303   3.716   2.253  1.00  0.00     0.053 C 
BRANCH   7   8
ATOM      8  C   UNL     1      -3.600   2.706   3.320  1.00  0.00     0.041 C 
ATOM      9  O   UNL     1      -3.979   3.081   4.461  1.00  0.00    -0.550 OA
ATOM     10  O   UNL     1      -3.490   1.350   3.043  1.00  0.00    -0.550 OA
ENDBRANCH   7   8
ENDBRANCH   6   7
ENDBRANCH   5   6
ENDBRANCH   4   5
ENDBRANCH   3   4
ENDBRANCH   2   3
ENDBRANCH   1   2
BRANCH   1  11
ATOM     11  C   UNL     1      -3.701   9.752   6.541  1.00  0.00     0.000 C 
BRANCH  11  12
ATOM     12  C   UNL     1      -4.064   8.731   7.634  1.00  0.00    -0.000 C 
BRANCH  12  13
ATOM     13  C   UNL     1      -3.155   7.494   7.619  1.00  0.00    -0.000 C 
BRANCH  13  14
ATOM     14  C   UNL     1      -1.677   7.897   7.733  1.00  0.00    -0.000 C 
BRANCH  14  15
ATOM     15  C   UNL     1      -0.956   7.202   8.902  1.00  0.00    -0.000 C 
BRANCH  15  16
ATOM     16  C   UNL     1      -1.159   5.675   8.980  1.00  0.00    -0.000 C 
BRANCH  16  17
ATOM     17  C   UNL     1      -0.067   4.913   9.751  1.00  0.00    -0.003 C 
ATOM     18  C   UNL     1      -0.447   3.463  10.044  1.00  0.00     0.004 C 
ENDBRANCH  16  17
ENDBRANCH  15  16
ENDBRANCH  14  15
ENDBRANCH  13  14
ENDBRANCH  12  13
ENDBRANCH  11  12
ENDBRANCH   1  11
TORSDOF 14
ENDMDL
MODEL 2
REMARK VINA RESULT:    -3.217      3.811      6.046
REMARK INTER + INTRA:          -6.685
REMARK INTER:                  -5.342
REMARK INTRA:                  -1.343
REMARK UNBOUND:                -0.836
REMARK SMILES CCCCCCCCCCCCCCCC(=O)[O-]
REMARK SMILES IDX 9 1 10 2 11 3 12 4 13 5 14 6 15 7 16 8 17 9 18 10 8 11 7 12
REMARK SMILES IDX 6 13 5 14 4 15 3 16 2 17 1 18
REMARK H PARENT
REMARK Flexibility Score: inf
ROOT
ATOM      1  C   UNL     1      -3.020   8.972   3.010  1.00  0.00     0.000 C 
ENDROOT
BRANCH   1   2
ATOM      2  C   UNL     1      -2.917   8.747   1.488  1.00  0.00     0.000 C 
BRANCH   2   3
ATOM      3  C   UNL     1      -3.196   7.307   1.021  1.00  0.00     0.000 C 
BRANCH   3   4
ATOM      4  C   UNL     1      -3.294   6.310   2.187  1.00  0.00     0.000 C 
BRANCH   4   5
ATOM      5  C   UNL     1      -3.680   4.896   1.724  1.00  0.00     0.000 C 
BRANCH   5   6
ATOM      6  C   UNL     1      -4.048   3.967   2.894  1.00  0.00     0.006 C 
BRANCH   6   7
ATOM      7  C   UNL     1      -3.268   2.647   2.851  1.00  0.00     0.053 C 
BRANCH   7   8
ATOM      8  C   UNL     1      -3.226   1.985   4.195  1.00  0.00     0.041 C 
ATOM      9  O   UNL     1      -3.924   2.431   5.144  1.00  0.00    -0.550 OA
ATOM     10  O   UNL     1      -2.443   0.854   4.389  1.00  0.00    -0.550 OA
ENDBRANCH   7   8
ENDBRANCH   6   7
ENDBRANCH   5   6
ENDBRANCH   4   5
ENDBRANCH   3   4
ENDBRANCH   2   3
ENDBRANCH   1   2
BRANCH   1  11
ATOM     11  C   UNL     1      -4.452   8.948   3.581  1.00  0.00     0.000 C 
BRANCH  11  12
ATOM     12  C   UNL     1      -5.536   9.500   2.639  1.00  0.00    -0.000 C 
BRANCH  12  13
ATOM     13  C   UNL     1      -6.957   9.316   3.193  1.00  0.00    -0.000 C 
BRANCH  13  14
ATOM     14  C   UNL     1      -7.682   8.170   2.471  1.00  0.00    -0.000 C 
BRANCH  14  15
ATOM     15  C   UNL     1      -6.715   7.156   1.835  1.00  0.00    -0.000 C 
BRANCH  15  16
ATOM     16  C   UNL     1      -7.375   5.867   1.306  1.00  0.00    -0.000 C 
BRANCH  16  17
ATOM     17  C   UNL     1      -6.853   5.383  -0.058  1.00  0.00    -0.003 C 
ATOM     18  C   UNL     1      -6.348   6.523  -0.940  1.00  0.00     0.004 C 
ENDBRANCH  16  17
ENDBRANCH  15  16
ENDBRANCH  14  15
ENDBRANCH  13  14
ENDBRANCH  12  13
ENDBRANCH  11  12
ENDBRANCH   1  11
TORSDOF 14
ENDMDL
MODEL 3
REMARK VINA RESULT:    -3.140      4.962      7.420
REMARK INTER + INTRA:          -6.547
REMARK INTER:                  -4.502
REMARK INTRA:                  -2.045
REMARK UNBOUND:                -0.836
REMARK SMILES CCCCCCCCCCCCCCCC(=O)[O-]
REMARK SMILES IDX 9 1 10 2 11 3 12 4 13 5 14 6 15 7 16 8 17 9 18 10 8 11 7 12
REMARK SMILES IDX 6 13 5 14 4 15 3 16 2 17 1 18
REMARK H PARENT
REMARK Flexibility Score: inf
ROOT
ATOM      1  C   UNL     1      -2.330   4.616  11.386  1.00  0.00     0.000 C 
ENDROOT
BRANCH   1   2
ATOM      2  C   UNL     1      -1.664   3.280  11.770  1.00  0.00     0.000 C 
BRANCH   2   3
ATOM      3  C   UNL     1      -0.155   3.194  11.474  1.00  0.00     0.000 C 
BRANCH   3   4
ATOM      4  C   UNL     1       0.145   2.822  10.013  1.00  0.00     0.000 C 
BRANCH   4   5
ATOM      5  C   UNL     1       1.405   1.952   9.872  1.00  0.00     0.000 C 
BRANCH   5   6
ATOM      6  C   UNL     1       2.701   2.736  10.140  1.00  0.00     0.006 C 
BRANCH   6   7
ATOM      7  C   UNL     1       3.303   3.317   8.853  1.00  0.00     0.053 C 
BRANCH   7   8
ATOM      8  C   UNL     1       3.972   2.259   8.029  1.00  0.00     0.041 C 
ATOM      9  O   UNL     1       4.017   2.365   6.775  1.00  0.00    -0.550 OA
ATOM     10  O   UNL     1       4.577   1.173   8.650  1.00  0.00    -0.550 OA
ENDBRANCH   7   8
ENDBRANCH   6   7
ENDBRANCH   5   6
ENDBRANCH   4   5
ENDBRANCH   3   4
ENDBRANCH   2   3
ENDBRANCH   1   2
BRANCH   1  11
ATOM     11  C   UNL     1      -3.158   4.587  10.086  1.00  0.00     0.000 C 
BRANCH  11  12
ATOM     12  C   UNL     1      -2.363   4.884   8.803  1.00  0.00    -0.000 C 
BRANCH  12  13
ATOM     13  C   UNL     1      -2.567   6.319   8.294  1.00  0.00    -0.000 C 
BRANCH  13  14
ATOM     14  C   UNL     1      -1.229   7.069   8.220  1.00  0.00    -0.000 C 
BRANCH  14  15
ATOM     15  C   UNL     1      -0.444   7.026   9.544  1.00  0.00    -0.000 C 
BRANCH  15  16
ATOM     16  C   UNL     1       0.976   6.432   9.442  1.00  0.00    -0.000 C 
BRANCH  16  17
ATOM     17  C   UNL     1       1.721   6.299  10.782  1.00  0.00    -0.003 C 
ATOM     18  C   UNL     1       0.851   6.661  11.985  1.00  0.00     0.004 C 
ENDBRANCH  16  17
ENDBRANCH  15  16
ENDBRANCH  14  15
ENDBRANCH  13  14
ENDBRANCH  12  13
ENDBRANCH  11  12
ENDBRANCH   1  11
TORSDOF 14
ENDMDL
MODEL 4
REMARK VINA RESULT:    -3.137      8.589     11.295
REMARK INTER + INTRA:          -6.541
REMARK INTER:                  -5.033
REMARK INTRA:                  -1.508
REMARK UNBOUND:                -0.836
REMARK SMILES CCCCCCCCCCCCCCCC(=O)[O-]
REMARK SMILES IDX 9 1 10 2 11 3 12 4 13 5 14 6 15 7 16 8 17 9 18 10 8 11 7 12
REMARK SMILES IDX 6 13 5 14 4 15 3 16 2 17 1 18
REMARK H PARENT
REMARK Flexibility Score: inf
ROOT
ATOM      1  C   UNL     1      -5.104  -2.043  10.871  1.00  0.00     0.000 C 
ENDROOT
BRANCH   1   2
ATOM      2  C   UNL     1      -6.415  -1.640  10.166  1.00  0.00     0.000 C 
BRANCH   2   3
ATOM      3  C   UNL     1      -7.004  -2.706   9.225  1.00  0.00     0.000 C 
BRANCH   3   4
ATOM      4  C   UNL     1      -7.467  -2.123   7.879  1.00  0.00     0.000 C 
BRANCH   4   5
ATOM      5  C   UNL     1      -8.991  -1.938   7.808  1.00  0.00     0.000 C 
BRANCH   5   6
ATOM      6  C   UNL     1      -9.400  -0.494   7.470  1.00  0.00     0.006 C 
BRANCH   6   7
ATOM      7  C   UNL     1      -8.192   0.450   7.408  1.00  0.00     0.053 C 
BRANCH   7   8
ATOM      8  C   UNL     1      -8.178   1.408   8.560  1.00  0.00     0.041 C 
ATOM      9  O   UNL     1      -8.708   1.088   9.657  1.00  0.00    -0.550 OA
ATOM     10  O   UNL     1      -7.549   2.639   8.432  1.00  0.00    -0.550 OA
ENDBRANCH   7   8
ENDBRANCH   6   7
ENDBRANCH   5   6
ENDBRANCH   4   5
ENDBRANCH   3   4
ENDBRANCH   2   3
ENDBRANCH   1   2
BRANCH   1  11
ATOM     11  C   UNL     1      -4.311  -3.173  10.185  1.00  0.00     0.000 C 
BRANCH  11  12
ATOM     12  C   UNL     1      -2.809  -3.206  10.518  1.00  0.00    -0.000 C 
BRANCH  12  13
ATOM     13  C   UNL     1      -2.067  -4.350   9.812  1.00  0.00    -0.000 C 
BRANCH  13  14
ATOM     14  C   UNL     1      -3.058  -5.354   9.203  1.00  0.00    -0.000 C 
BRANCH  14  15
ATOM     15  C   UNL     1      -2.635  -5.840   7.805  1.00  0.00    -0.000 C 
BRANCH  15  16
ATOM     16  C   UNL     1      -3.506  -5.324   6.642  1.00  0.00    -0.000 C 
BRANCH  16  17
ATOM     17  C   UNL     1      -4.902  -4.823   7.049  1.00  0.00    -0.003 C 
ATOM     18  C   UNL     1      -5.947  -5.937   7.086  1.00  0.00     0.004 C 
ENDBRANCH  16  17
ENDBRANCH  15  16
ENDBRANCH  14  15
ENDBRANCH  13  14
ENDBRANCH  12  13
ENDBRANCH  11  12
ENDBRANCH   1  11
TORSDOF 14
ENDMDL
MODEL 5
REMARK VINA RESULT:    -3.120      4.953      6.753
REMARK INTER + INTRA:          -6.510
REMARK INTER:                  -4.060
REMARK INTRA:                  -2.450
REMARK UNBOUND:                -0.836
REMARK SMILES CCCCCCCCCCCCCCCC(=O)[O-]
REMARK SMILES IDX 9 1 10 2 11 3 12 4 13 5 14 6 15 7 16 8 17 9 18 10 8 11 7 12
REMARK SMILES IDX 6 13 5 14 4 15 3 16 2 17 1 18
REMARK H PARENT
REMARK Flexibility Score: inf
ROOT
ATOM      1  C   UNL     1      -1.030   8.239   8.533  1.00  0.00     0.000 C 
ENDROOT
BRANCH   1   2
ATOM      2  C   UNL     1       0.331   8.904   8.243  1.00  0.00     0.000 C 
BRANCH   2   3
ATOM      3  C   UNL     1       1.562   8.094   8.689  1.00  0.00     0.000 C 
BRANCH   3   4
ATOM      4  C   UNL     1       1.731   8.058  10.217  1.00  0.00     0.000 C 
BRANCH   4   5
ATOM      5  C   UNL     1       2.022   6.645  10.746  1.00  0.00     0.000 C 
BRANCH   5   6
ATOM      6  C   UNL     1       2.331   5.641   9.622  1.00  0.00     0.006 C 
BRANCH   6   7
ATOM      7  C   UNL     1       2.471   4.207  10.149  1.00  0.00     0.053 C 
BRANCH   7   8
ATOM      8  C   UNL     1       2.999   3.280   9.096  1.00  0.00     0.041 C 
ATOM      9  O   UNL     1       2.537   2.113   8.989  1.00  0.00    -0.550 OA
ATOM     10  O   UNL     1       3.977   3.717   8.212  1.00  0.00    -0.550 OA
ENDBRANCH   7   8
ENDBRANCH   6   7
ENDBRANCH   5   6
ENDBRANCH   4   5
ENDBRANCH   3   4
ENDBRANCH   2   3
ENDBRANCH   1   2
BRANCH   1  11
ATOM     11  C   UNL     1      -1.048   6.702   8.413  1.00  0.00     0.000 C 
BRANCH  11  12
ATOM     12  C   UNL     1      -2.450   6.069   8.392  1.00  0.00    -0.000 C 
BRANCH  12  13
ATOM     13  C   UNL     1      -2.445   4.595   8.820  1.00  0.00    -0.000 C 
BRANCH  13  14
ATOM     14  C   UNL     1      -1.120   4.226   9.504  1.00  0.00    -0.000 C 
BRANCH  14  15
ATOM     15  C   UNL     1      -1.304   3.782  10.966  1.00  0.00    -0.000 C 
BRANCH  15  16
ATOM     16  C   UNL     1      -0.891   4.826  12.023  1.00  0.00    -0.000 C 
BRANCH  16  17
ATOM     17  C   UNL     1      -1.952   5.899  12.325  1.00  0.00    -0.003 C 
ATOM     18  C   UNL     1      -1.442   7.321  12.097  1.00  0.00     0.004 C 
ENDBRANCH  16  17
ENDBRANCH  15  16
ENDBRANCH  14  15
ENDBRANCH  13  14
ENDBRANCH  12  13
ENDBRANCH  11  12
ENDBRANCH   1  11
TORSDOF 14
ENDMDL
MODEL 6
REMARK VINA RESULT:    -3.108      8.308     11.413
REMARK INTER + INTRA:          -6.488
REMARK INTER:                  -4.572
REMARK INTRA:                  -1.916
REMARK UNBOUND:                -0.836
REMARK SMILES CCCCCCCCCCCCCCCC(=O)[O-]
REMARK SMILES IDX 9 1 10 2 11 3 12 4 13 5 14 6 15 7 16 8 17 9 18 10 8 11 7 12
REMARK SMILES IDX 6 13 5 14 4 15 3 16 2 17 1 18
REMARK H PARENT
REMARK Flexibility Score: inf
ROOT
ATOM      1  C   UNL     1      -3.459  -2.456  11.315  1.00  0.00     0.000 C 
ENDROOT
BRANCH   1   2
ATOM      2  C   UNL     1      -4.617  -1.438  11.322  1.00  0.00     0.000 C 
BRANCH   2   3
ATOM      3  C   UNL     1      -6.028  -2.053  11.306  1.00  0.00     0.000 C 
BRANCH   3   4
ATOM      4  C   UNL     1      -7.142  -0.994  11.348  1.00  0.00     0.000 C 
BRANCH   4   5
ATOM      5  C   UNL     1      -6.632   0.380  11.813  1.00  0.00     0.000 C 
BRANCH   5   6
ATOM      6  C   UNL     1      -7.345   1.548  11.108  1.00  0.00     0.006 C 
BRANCH   6   7
ATOM      7  C   UNL     1      -8.168   1.079   9.901  1.00  0.00     0.053 C 
BRANCH   7   8
ATOM      8  C   UNL     1      -8.077   2.046   8.760  1.00  0.00     0.041 C 
ATOM      9  O   UNL     1      -8.895   1.979   7.805  1.00  0.00    -0.550 OA
ATOM     10  O   UNL     1      -7.110   3.043   8.770  1.00  0.00    -0.550 OA
ENDBRANCH   7   8
ENDBRANCH   6   7
ENDBRANCH   5   6
ENDBRANCH   4   5
ENDBRANCH   3   4
ENDBRANCH   2   3
ENDBRANCH   1   2
BRANCH   1  11
ATOM     11  C   UNL     1      -3.843  -3.883  10.873  1.00  0.00     0.000 C 
BRANCH  11  12
ATOM     12  C   UNL     1      -3.594  -4.190   9.386  1.00  0.00    -0.000 C 
BRANCH  12  13
ATOM     13  C   UNL     1      -4.821  -4.797   8.690  1.00  0.00    -0.000 C 
BRANCH  13  14
ATOM     14  C   UNL     1      -5.485  -3.773   7.757  1.00  0.00    -0.000 C 
BRANCH  14  15
ATOM     15  C   UNL     1      -6.950  -3.485   8.132  1.00  0.00    -0.000 C 
BRANCH  15  16
ATOM     16  C   UNL     1      -7.469  -2.093   7.717  1.00  0.00    -0.000 C 
BRANCH  16  17
ATOM     17  C   UNL     1      -8.975  -1.870   7.938  1.00  0.00    -0.003 C 
ATOM     18  C   UNL     1      -9.555  -2.762   9.035  1.00  0.00     0.004 C 
ENDBRANCH  16  17
ENDBRANCH  15  16
ENDBRANCH  14  15
ENDBRANCH  13  14
ENDBRANCH  12  13
ENDBRANCH  11  12
ENDBRANCH   1  11
TORSDOF 14
ENDMDL
MODEL 7
REMARK VINA RESULT:    -3.076      4.678      8.062
REMARK INTER + INTRA:          -6.430
REMARK INTER:                  -4.620
REMARK INTRA:                  -1.809
REMARK UNBOUND:                -0.836
REMARK SMILES CCCCCCCCCCCCCCCC(=O)[O-]
REMARK SMILES IDX 9 1 10 2 11 3 12 4 13 5 14 6 15 7 16 8 17 9 18 10 8 11 7 12
REMARK SMILES IDX 6 13 5 14 4 15 3 16 2 17 1 18
REMARK H PARENT
REMARK Flexibility Score: inf
ROOT
ATOM      1  C   UNL     1       1.101   5.099  10.713  1.00  0.00     0.000 C 
ENDROOT
BRANCH   1   2
ATOM      2  C   UNL     1       2.198   4.016  10.751  1.00  0.00     0.000 C 
BRANCH   2   3
ATOM      3  C   UNL     1       2.614   3.460   9.377  1.00  0.00     0.000 C 
BRANCH   3   4
ATOM      4  C   UNL     1       2.478   1.930   9.286  1.00  0.00     0.000 C 
BRANCH   4   5
ATOM      5  C   UNL     1       1.089   1.435   9.719  1.00  0.00     0.000 C 
BRANCH   5   6
ATOM      6  C   UNL     1       1.159   0.322  10.780  1.00  0.00     0.006 C 
BRANCH   6   7
ATOM      7  C   UNL     1       0.556   0.763  12.120  1.00  0.00     0.053 C 
BRANCH   7   8
ATOM      8  C   UNL     1      -0.858   0.291  12.272  1.00  0.00     0.041 C 
ATOM      9  O   UNL     1      -1.755   1.088  12.656  1.00  0.00    -0.550 OA
ATOM     10  O   UNL     1      -1.191  -1.020  11.957  1.00  0.00    -0.550 OA
ENDBRANCH   7   8
ENDBRANCH   6   7
ENDBRANCH   5   6
ENDBRANCH   4   5
ENDBRANCH   3   4
ENDBRANCH   2   3
ENDBRANCH   1   2
BRANCH   1  11
ATOM     11  C   UNL     1      -0.138   4.809  11.582  1.00  0.00     0.000 C 
BRANCH  11  12
ATOM     12  C   UNL     1      -1.254   4.018  10.878  1.00  0.00    -0.000 C 
BRANCH  12  13
ATOM     13  C   UNL     1      -1.277   4.242   9.359  1.00  0.00    -0.000 C 
BRANCH  13  14
ATOM     14  C   UNL     1      -2.618   4.844   8.914  1.00  0.00    -0.000 C 
BRANCH  14  15
ATOM     15  C   UNL     1      -2.461   6.222   8.245  1.00  0.00    -0.000 C 
BRANCH  15  16
ATOM     16  C   UNL     1      -1.061   6.855   8.371  1.00  0.00    -0.000 C 
BRANCH  16  17
ATOM     17  C   UNL     1      -1.021   8.383   8.197  1.00  0.00    -0.003 C 
ATOM     18  C   UNL     1      -1.864   8.870   7.019  1.00  0.00     0.004 C 
ENDBRANCH  16  17
ENDBRANCH  15  16
ENDBRANCH  14  15
ENDBRANCH  13  14
ENDBRANCH  12  13
ENDBRANCH  11  12
ENDBRANCH   1  11
TORSDOF 14
ENDMDL
MODEL 8
REMARK VINA RESULT:    -3.030      5.185      7.254
REMARK INTER + INTRA:          -6.346
REMARK INTER:                  -4.292
REMARK INTRA:                  -2.054
REMARK UNBOUND:                -0.836
REMARK SMILES CCCCCCCCCCCCCCCC(=O)[O-]
REMARK SMILES IDX 9 1 10 2 11 3 12 4 13 5 14 6 15 7 16 8 17 9 18 10 8 11 7 12
REMARK SMILES IDX 6 13 5 14 4 15 3 16 2 17 1 18
REMARK H PARENT
REMARK Flexibility Score: inf
ROOT
ATOM      1  C   UNL     1      -0.560   7.227   9.336  1.00  0.00     0.000 C 
ENDROOT
BRANCH   1   2
ATOM      2  C   UNL     1       0.915   6.783   9.268  1.00  0.00     0.000 C 
BRANCH   2   3
ATOM      3  C   UNL     1       1.597   6.574  10.633  1.00  0.00     0.000 C 
BRANCH   3   4
ATOM      4  C   UNL     1       2.739   5.545  10.578  1.00  0.00     0.000 C 
BRANCH   4   5
ATOM      5  C   UNL     1       3.001   5.030   9.153  1.00  0.00     0.000 C 
BRANCH   5   6
ATOM      6  C   UNL     1       3.945   3.815   9.125  1.00  0.00     0.006 C 
BRANCH   6   7
ATOM      7  C   UNL     1       3.358   2.646   8.324  1.00  0.00     0.053 C 
BRANCH   7   8
ATOM      8  C   UNL     1       4.263   2.233   7.203  1.00  0.00     0.041 C 
ATOM      9  O   UNL     1       4.165   2.781   6.073  1.00  0.00    -0.550 OA
ATOM     10  O   UNL     1       5.238   1.267   7.418  1.00  0.00    -0.550 OA
ENDBRANCH   7   8
ENDBRANCH   6   7
ENDBRANCH   5   6
ENDBRANCH   4   5
ENDBRANCH   3   4
ENDBRANCH   2   3
ENDBRANCH   1   2
BRANCH   1  11
ATOM     11  C   UNL     1      -1.527   6.435   8.434  1.00  0.00     0.000 C 
BRANCH  11  12
ATOM     12  C   UNL     1      -1.812   4.995   8.895  1.00  0.00    -0.000 C 
BRANCH  12  13
ATOM     13  C   UNL     1      -2.165   4.905  10.387  1.00  0.00    -0.000 C 
BRANCH  13  14
ATOM     14  C   UNL     1      -1.223   3.935  11.116  1.00  0.00    -0.000 C 
BRANCH  14  15
ATOM     15  C   UNL     1      -0.212   3.259  10.172  1.00  0.00    -0.000 C 
BRANCH  15  16
ATOM     16  C   UNL     1       0.850   2.386  10.869  1.00  0.00    -0.000 C 
BRANCH  16  17
ATOM     17  C   UNL     1       0.506   0.889  10.955  1.00  0.00    -0.003 C 
ATOM     18  C   UNL     1       1.742  -0.009  10.913  1.00  0.00     0.004 C 
ENDBRANCH  16  17
ENDBRANCH  15  16
ENDBRANCH  14  15
ENDBRANCH  13  14
ENDBRANCH  12  13
ENDBRANCH  11  12
ENDBRANCH   1  11
TORSDOF 14
ENDMDL
MODEL 9
REMARK VINA RESULT:    -3.018      5.212      7.625
REMARK INTER + INTRA:          -6.324
REMARK INTER:                  -3.987
REMARK INTRA:                  -2.337
REMARK UNBOUND:                -0.836
REMARK SMILES CCCCCCCCCCCCCCCC(=O)[O-]
REMARK SMILES IDX 9 1 10 2 11 3 12 4 13 5 14 6 15 7 16 8 17 9 18 10 8 11 7 12
REMARK SMILES IDX 6 13 5 14 4 15 3 16 2 17 1 18
REMARK H PARENT
REMARK Flexibility Score: inf
ROOT
ATOM      1  C   UNL     1      -2.874   4.660  12.341  1.00  0.00     0.000 C 
ENDROOT
BRANCH   1   2
ATOM      2  C   UNL     1      -2.788   3.130  12.172  1.00  0.00     0.000 C 
BRANCH   2   3
ATOM      3  C   UNL     1      -1.361   2.552  12.172  1.00  0.00     0.000 C 
BRANCH   3   4
ATOM      4  C   UNL     1      -0.277   3.639  12.276  1.00  0.00     0.000 C 
BRANCH   4   5
ATOM      5  C   UNL     1       0.618   3.700  11.028  1.00  0.00     0.000 C 
BRANCH   5   6
ATOM      6  C   UNL     1       0.329   2.562  10.033  1.00  0.00     0.006 C 
BRANCH   6   7
ATOM      7  C   UNL     1       1.550   1.659   9.816  1.00  0.00     0.053 C 
BRANCH   7   8
ATOM      8  C   UNL     1       1.419   0.364  10.560  1.00  0.00     0.041 C 
ATOM      9  O   UNL     1       1.468   0.348  11.819  1.00  0.00    -0.550 OA
ATOM     10  O   UNL     1       1.208  -0.819   9.864  1.00  0.00    -0.550 OA
ENDBRANCH   7   8
ENDBRANCH   6   7
ENDBRANCH   5   6
ENDBRANCH   4   5
ENDBRANCH   3   4
ENDBRANCH   2   3
ENDBRANCH   1   2
BRANCH   1  11
ATOM     11  C   UNL     1      -3.268   5.440  11.071  1.00  0.00     0.000 C 
BRANCH  11  12
ATOM     12  C   UNL     1      -3.530   4.570   9.830  1.00  0.00    -0.000 C 
BRANCH  12  13
ATOM     13  C   UNL     1      -2.400   4.655   8.793  1.00  0.00    -0.000 C 
BRANCH  13  14
ATOM     14  C   UNL     1      -1.989   6.115   8.550  1.00  0.00    -0.000 C 
BRANCH  14  15
ATOM     15  C   UNL     1      -0.507   6.381   8.873  1.00  0.00    -0.000 C 
BRANCH  15  16
ATOM     16  C   UNL     1      -0.148   7.858   9.125  1.00  0.00    -0.000 C 
BRANCH  16  17
ATOM     17  C   UNL     1       0.467   8.151  10.506  1.00  0.00    -0.003 C 
ATOM     18  C   UNL     1      -0.159   7.319  11.624  1.00  0.00     0.004 C 
ENDBRANCH  16  17
ENDBRANCH  15  16
ENDBRANCH  14  15
ENDBRANCH  13  14
ENDBRANCH  12  13
ENDBRANCH  11  12
ENDBRANCH   1  11
TORSDOF 14
ENDMDL
