MODEL 1
REMARK VINA RESULT:    -4.592      0.000      0.000
REMARK INTER + INTRA:         -11.436
REMARK INTER:                  -8.619
REMARK INTRA:                  -2.817
REMARK UNBOUND:                -2.817
REMARK SMILES CCCCCCCCC=CCCCCCCCC(=O)[O-]
REMARK SMILES IDX 10 1 9 2 11 3 12 4 13 5 14 6 15 7 16 8 17 9 18 10 19 11
REMARK SMILES IDX 20 12 8 13 7 14 6 15 5 16 4 17 3 18 2 19 1 20
REMARK H PARENT
REMARK Flexibility Score: inf
ROOT
ATOM      1  C   UNL     1       0.796  15.172   9.631  1.00  0.00    -0.031 C 
ATOM      2  C   UNL     1       1.758  14.946  10.544  1.00  0.00    -0.031 C 
ENDROOT
BRANCH   1   3
ATOM      3  C   UNL     1       0.901  16.139   8.474  1.00  0.00     0.027 C 
BRANCH   3   4
ATOM      4  C   UNL     1      -0.250  17.154   8.491  1.00  0.00     0.004 C 
BRANCH   4   5
ATOM      5  C   UNL     1       0.255  18.606   8.418  1.00  0.00     0.000 C 
BRANCH   5   6
ATOM      6  C   UNL     1       1.742  18.696   8.044  1.00  0.00     0.000 C 
BRANCH   6   7
ATOM      7  C   UNL     1       2.633  19.049   9.248  1.00  0.00     0.000 C 
BRANCH   7   8
ATOM      8  C   UNL     1       1.833  19.610  10.437  1.00  0.00     0.006 C 
BRANCH   8   9
ATOM      9  C   UNL     1       2.069  18.867  11.762  1.00  0.00     0.053 C 
BRANCH   9  10
ATOM     10  C   UNL     1       0.837  18.159  12.235  1.00  0.00     0.041 C 
ATOM     11  O   UNL     1       0.931  17.190  13.033  1.00  0.00    -0.550 OA
ATOM     12  O   UNL     1      -0.416  18.591  11.821  1.00  0.00    -0.550 OA
ENDBRANCH   9  10
ENDBRANCH   8   9
ENDBRANCH   7   8
ENDBRANCH   6   7
ENDBRANCH   5   6
ENDBRANCH   4   5
ENDBRANCH   3   4
ENDBRANCH   1   3
BRANCH   2  13
ATOM     13  C   UNL     1       3.128  15.581  10.542  1.00  0.00     0.027 C 
BRANCH  13  14
ATOM     14  C   UNL     1       4.110  14.867   9.598  1.00  0.00     0.004 C 
BRANCH  14  15
ATOM     15  C   UNL     1       4.562  15.768   8.436  1.00  0.00     0.000 C 
BRANCH  15  16
ATOM     16  C   UNL     1       6.001  16.278   8.612  1.00  0.00     0.000 C 
BRANCH  16  17
ATOM     17  C   UNL     1       6.067  17.788   8.889  1.00  0.00    -0.000 C 
BRANCH  17  18
ATOM     18  C   UNL     1       6.286  18.063  10.381  1.00  0.00    -0.000 C 
BRANCH  18  19
ATOM     19  C   UNL     1       5.930  19.512  10.732  1.00  0.00    -0.003 C 
ATOM     20  C   UNL     1       6.400  19.871  12.138  1.00  0.00     0.004 C 
ENDBRANCH  18  19
ENDBRANCH  17  18
ENDBRANCH  16  17
ENDBRANCH  15  16
ENDBRANCH  14  15
ENDBRANCH  13  14
ENDBRANCH   2  13
TORSDOF 15
ENDMDL
MODEL 2
REMARK VINA RESULT:    -4.585      2.241      4.729
REMARK INTER + INTRA:         -11.422
REMARK INTER:                  -8.503
REMARK INTRA:                  -2.920
REMARK UNBOUND:                -2.817
REMARK SMILES CCCCCCCCC=CCCCCCCCC(=O)[O-]
REMARK SMILES IDX 10 1 9 2 11 3 12 4 13 5 14 6 15 7 16 8 17 9 18 10 19 11
REMARK SMILES IDX 20 12 8 13 7 14 6 15 5 16 4 17 3 18 2 19 1 20
REMARK H PARENT
REMARK Flexibility Score: inf
ROOT
ATOM      1  C   UNL     1       1.918  15.401  10.760  1.00  0.00    -0.031 C 
ATOM      2  C   UNL     1       0.918  15.472   9.863  1.00  0.00    -0.031 C 
ENDROOT
BRANCH   1   3
ATOM      3  C   UNL     1       3.333  15.877  10.528  1.00  0.00     0.027 C 
BRANCH   3   4
ATOM      4  C   UNL     1       4.189  14.784   9.875  1.00  0.00     0.004 C 
BRANCH   4   5
ATOM      5  C   UNL     1       4.637  15.168   8.453  1.00  0.00     0.000 C 
BRANCH   5   6
ATOM      6  C   UNL     1       4.782  16.686   8.271  1.00  0.00     0.000 C 
BRANCH   6   7
ATOM      7  C   UNL     1       6.173  17.088   7.750  1.00  0.00     0.000 C 
BRANCH   7   8
ATOM      8  C   UNL     1       6.950  17.966   8.747  1.00  0.00     0.006 C 
BRANCH   8   9
ATOM      9  C   UNL     1       6.058  18.791   9.688  1.00  0.00     0.053 C 
BRANCH   9  10
ATOM     10  C   UNL     1       6.677  18.961  11.041  1.00  0.00     0.041 C 
ATOM     11  O   UNL     1       7.436  18.071  11.507  1.00  0.00    -0.550 OA
ATOM     12  O   UNL     1       6.444  20.118  11.772  1.00  0.00    -0.550 OA
ENDBRANCH   9  10
ENDBRANCH   8   9
ENDBRANCH   7   8
ENDBRANCH   6   7
ENDBRANCH   5   6
ENDBRANCH   4   5
ENDBRANCH   3   4
ENDBRANCH   1   3
BRANCH   2  13
ATOM     13  C   UNL     1       1.023  16.086   8.488  1.00  0.00     0.027 C 
BRANCH  13  14
ATOM     14  C   UNL     1      -0.149  17.029   8.170  1.00  0.00     0.004 C 
BRANCH  14  15
ATOM     15  C   UNL     1       0.284  18.504   8.121  1.00  0.00     0.000 C 
BRANCH  15  16
ATOM     16  C   UNL     1       1.812  18.669   8.102  1.00  0.00     0.000 C 
BRANCH  16  17
ATOM     17  C   UNL     1       2.349  19.379   9.354  1.00  0.00    -0.000 C 
BRANCH  17  18
ATOM     18  C   UNL     1       1.215  19.686  10.340  1.00  0.00    -0.000 C 
BRANCH  18  19
ATOM     19  C   UNL     1       1.560  19.190  11.748  1.00  0.00    -0.003 C 
ATOM     20  C   UNL     1       3.068  19.193  11.981  1.00  0.00     0.004 C 
ENDBRANCH  18  19
ENDBRANCH  17  18
ENDBRANCH  16  17
ENDBRANCH  15  16
ENDBRANCH  14  15
ENDBRANCH  13  14
ENDBRANCH   2  13
TORSDOF 15
ENDMDL
MODEL 3
REMARK VINA RESULT:    -4.375      3.509      5.548
REMARK INTER + INTRA:         -11.027
REMARK INTER:                  -8.814
REMARK INTRA:                  -2.213
REMARK UNBOUND:                -2.817
REMARK SMILES CCCCCCCCC=CCCCCCCCC(=O)[O-]
REMARK SMILES IDX 10 1 9 2 11 3 12 4 13 5 14 6 15 7 16 8 17 9 18 10 19 11
REMARK SMILES IDX 20 12 8 13 7 14 6 15 5 16 4 17 3 18 2 19 1 20
REMARK H PARENT
REMARK Flexibility Score: inf
ROOT
ATOM      1  C   UNL     1      -0.125  17.024   8.275  1.00  0.00    -0.031 C 
ATOM      2  C   UNL     1       0.195  18.320   8.106  1.00  0.00    -0.031 C 
ENDROOT
BRANCH   1   3
ATOM      3  C   UNL     1       0.867  15.893   8.419  1.00  0.00     0.027 C 
BRANCH   3   4
ATOM      4  C   UNL     1       1.055  15.501   9.892  1.00  0.00     0.004 C 
BRANCH   4   5
ATOM      5  C   UNL     1       2.540  15.374  10.274  1.00  0.00     0.000 C 
BRANCH   5   6
ATOM      6  C   UNL     1       3.481  15.687   9.100  1.00  0.00     0.000 C 
BRANCH   6   7
ATOM      7  C   UNL     1       4.761  14.833   9.125  1.00  0.00     0.000 C 
BRANCH   7   8
ATOM      8  C   UNL     1       5.254  14.462   7.715  1.00  0.00     0.006 C 
BRANCH   8   9
ATOM      9  C   UNL     1       6.029  13.136   7.648  1.00  0.00     0.053 C 
BRANCH   9  10
ATOM     10  C   UNL     1       5.764  12.396   6.373  1.00  0.00     0.041 C 
ATOM     11  O   UNL     1       5.386  11.196   6.404  1.00  0.00    -0.550 OA
ATOM     12  O   UNL     1       5.901  13.043   5.152  1.00  0.00    -0.550 OA
ENDBRANCH   9  10
ENDBRANCH   8   9
ENDBRANCH   7   8
ENDBRANCH   6   7
ENDBRANCH   5   6
ENDBRANCH   4   5
ENDBRANCH   3   4
ENDBRANCH   1   3
BRANCH   2  13
ATOM     13  C   UNL     1       1.598  18.875   8.082  1.00  0.00     0.027 C 
BRANCH  13  14
ATOM     14  C   UNL     1       2.086  19.311   9.473  1.00  0.00     0.004 C 
BRANCH  14  15
ATOM     15  C   UNL     1       3.608  19.149   9.635  1.00  0.00     0.000 C 
BRANCH  15  16
ATOM     16  C   UNL     1       4.038  19.074  11.109  1.00  0.00     0.000 C 
BRANCH  16  17
ATOM     17  C   UNL     1       5.564  19.071  11.283  1.00  0.00    -0.000 C 
BRANCH  17  18
ATOM     18  C   UNL     1       6.272  19.125   9.925  1.00  0.00    -0.000 C 
BRANCH  18  19
ATOM     19  C   UNL     1       7.004  17.810   9.633  1.00  0.00    -0.003 C 
ATOM     20  C   UNL     1       7.214  17.616   8.134  1.00  0.00     0.004 C 
ENDBRANCH  18  19
ENDBRANCH  17  18
ENDBRANCH  16  17
ENDBRANCH  15  16
ENDBRANCH  14  15
ENDBRANCH  13  14
ENDBRANCH   2  13
TORSDOF 15
ENDMDL
MODEL 4
REMARK VINA RESULT:    -4.351      2.315      3.925
REMARK INTER + INTRA:         -10.983
REMARK INTER:                  -8.214
REMARK INTRA:                  -2.769
REMARK UNBOUND:                -2.817
REMARK SMILES CCCCCCCCC=CCCCCCCCC(=O)[O-]
REMARK SMILES IDX 10 1 9 2 11 3 12 4 13 5 14 6 15 7 16 8 17 9 18 10 19 11
REMARK SMILES IDX 20 12 8 13 7 14 6 15 5 16 4 17 3 18 2 19 1 20
REMARK H PARENT
REMARK Flexibility Score: inf
ROOT
ATOM      1  C   UNL     1       0.297  18.376   8.150  1.00  0.00    -0.031 C 
ATOM      2  C   UNL     1      -0.119  17.126   8.424  1.00  0.00    -0.031 C 
ENDROOT
BRANCH   1   3
ATOM      3  C   UNL     1       1.731  18.785   7.906  1.00  0.00     0.027 C 
BRANCH   3   4
ATOM      4  C   UNL     1       2.401  19.264   9.202  1.00  0.00     0.004 C 
BRANCH   4   5
ATOM      5  C   UNL     1       1.374  19.598  10.298  1.00  0.00     0.000 C 
BRANCH   5   6
ATOM      6  C   UNL     1       1.929  19.381  11.713  1.00  0.00     0.000 C 
BRANCH   6   7
ATOM      7  C   UNL     1       2.974  18.253  11.771  1.00  0.00     0.000 C 
BRANCH   7   8
ATOM      8  C   UNL     1       4.118  18.553  12.756  1.00  0.00     0.006 C 
BRANCH   8   9
ATOM      9  C   UNL     1       5.524  18.386  12.159  1.00  0.00     0.053 C 
BRANCH   9  10
ATOM     10  C   UNL     1       6.120  19.698  11.752  1.00  0.00     0.041 C 
ATOM     11  O   UNL     1       5.850  20.195  10.627  1.00  0.00    -0.550 OA
ATOM     12  O   UNL     1       6.946  20.389  12.629  1.00  0.00    -0.550 OA
ENDBRANCH   9  10
ENDBRANCH   8   9
ENDBRANCH   7   8
ENDBRANCH   6   7
ENDBRANCH   5   6
ENDBRANCH   4   5
ENDBRANCH   3   4
ENDBRANCH   1   3
BRANCH   2  13
ATOM     13  C   UNL     1       0.769  15.907   8.484  1.00  0.00     0.027 C 
BRANCH  13  14
ATOM     14  C   UNL     1       1.187  15.550   9.920  1.00  0.00     0.004 C 
BRANCH  14  15
ATOM     15  C   UNL     1       2.655  15.097  10.005  1.00  0.00     0.000 C 
BRANCH  15  16
ATOM     16  C   UNL     1       3.493  15.587   8.814  1.00  0.00     0.000 C 
BRANCH  16  17
ATOM     17  C   UNL     1       4.793  16.281   9.246  1.00  0.00    -0.000 C 
BRANCH  17  18
ATOM     18  C   UNL     1       5.331  17.185   8.130  1.00  0.00    -0.000 C 
BRANCH  18  19
ATOM     19  C   UNL     1       6.754  17.658   8.443  1.00  0.00    -0.003 C 
ATOM     20  C   UNL     1       7.712  17.317   7.304  1.00  0.00     0.004 C 
ENDBRANCH  18  19
ENDBRANCH  17  18
ENDBRANCH  16  17
ENDBRANCH  15  16
ENDBRANCH  14  15
ENDBRANCH  13  14
ENDBRANCH   2  13
TORSDOF 15
ENDMDL
MODEL 5
REMARK VINA RESULT:    -4.345      2.645      4.684
REMARK INTER + INTRA:         -10.971
REMARK INTER:                  -8.357
REMARK INTRA:                  -2.614
REMARK UNBOUND:                -2.817
REMARK SMILES CCCCCCCCC=CCCCCCCCC(=O)[O-]
REMARK SMILES IDX 10 1 9 2 11 3 12 4 13 5 14 6 15 7 16 8 17 9 18 10 19 11
REMARK SMILES IDX 20 12 8 13 7 14 6 15 5 16 4 17 3 18 2 19 1 20
REMARK H PARENT
REMARK Flexibility Score: inf
ROOT
ATOM      1  C   UNL     1       1.690  18.636   8.128  1.00  0.00    -0.031 C 
ATOM      2  C   UNL     1       2.309  19.213   9.174  1.00  0.00    -0.031 C 
ENDROOT
BRANCH   1   3
ATOM      3  C   UNL     1       0.201  18.398   8.019  1.00  0.00     0.027 C 
BRANCH   3   4
ATOM      4  C   UNL     1      -0.221  17.142   8.794  1.00  0.00     0.004 C 
BRANCH   4   5
ATOM      5  C   UNL     1       0.660  15.927   8.455  1.00  0.00     0.000 C 
BRANCH   5   6
ATOM      6  C   UNL     1       1.013  15.090   9.693  1.00  0.00     0.000 C 
BRANCH   6   7
ATOM      7  C   UNL     1       2.374  15.477  10.299  1.00  0.00     0.000 C 
BRANCH   7   8
ATOM      8  C   UNL     1       3.479  15.618   9.238  1.00  0.00     0.006 C 
BRANCH   8   9
ATOM      9  C   UNL     1       4.613  14.588   9.369  1.00  0.00     0.053 C 
BRANCH   9  10
ATOM     10  C   UNL     1       5.404  14.461   8.104  1.00  0.00     0.041 C 
ATOM     11  O   UNL     1       5.877  15.486   7.546  1.00  0.00    -0.550 OA
ATOM     12  O   UNL     1       5.649  13.207   7.559  1.00  0.00    -0.550 OA
ENDBRANCH   9  10
ENDBRANCH   8   9
ENDBRANCH   7   8
ENDBRANCH   6   7
ENDBRANCH   5   6
ENDBRANCH   4   5
ENDBRANCH   3   4
ENDBRANCH   1   3
BRANCH   2  13
ATOM     13  C   UNL     1       1.619  19.770  10.396  1.00  0.00     0.027 C 
BRANCH  13  14
ATOM     14  C   UNL     1       2.172  19.186  11.706  1.00  0.00     0.004 C 
BRANCH  14  15
ATOM     15  C   UNL     1       3.567  18.561  11.525  1.00  0.00     0.000 C 
BRANCH  15  16
ATOM     16  C   UNL     1       4.622  19.202  12.440  1.00  0.00     0.000 C 
BRANCH  16  17
ATOM     17  C   UNL     1       5.996  19.330  11.765  1.00  0.00    -0.000 C 
BRANCH  17  18
ATOM     18  C   UNL     1       5.848  19.674  10.278  1.00  0.00    -0.000 C 
BRANCH  18  19
ATOM     19  C   UNL     1       6.392  18.546   9.395  1.00  0.00    -0.003 C 
ATOM     20  C   UNL     1       7.134  17.503  10.226  1.00  0.00     0.004 C 
ENDBRANCH  18  19
ENDBRANCH  17  18
ENDBRANCH  16  17
ENDBRANCH  15  16
ENDBRANCH  14  15
ENDBRANCH  13  14
ENDBRANCH   2  13
TORSDOF 15
ENDMDL
MODEL 6
REMARK VINA RESULT:    -4.312      1.839      3.578
REMARK INTER + INTRA:         -10.909
REMARK INTER:                  -8.655
REMARK INTRA:                  -2.254
REMARK UNBOUND:                -2.817
REMARK SMILES CCCCCCCCC=CCCCCCCCC(=O)[O-]
REMARK SMILES IDX 10 1 9 2 11 3 12 4 13 5 14 6 15 7 16 8 17 9 18 10 19 11
REMARK SMILES IDX 20 12 8 13 7 14 6 15 5 16 4 17 3 18 2 19 1 20
REMARK H PARENT
REMARK Flexibility Score: inf
ROOT
ATOM      1  C   UNL     1       0.839  15.249   9.788  1.00  0.00    -0.031 C 
ATOM      2  C   UNL     1       1.828  15.085  10.685  1.00  0.00    -0.031 C 
ENDROOT
BRANCH   1   3
ATOM      3  C   UNL     1       0.954  16.023   8.495  1.00  0.00     0.027 C 
BRANCH   3   4
ATOM      4  C   UNL     1      -0.051  17.183   8.448  1.00  0.00     0.004 C 
BRANCH   4   5
ATOM      5  C   UNL     1       0.639  18.539   8.218  1.00  0.00     0.000 C 
BRANCH   5   6
ATOM      6  C   UNL     1       2.170  18.427   8.199  1.00  0.00     0.000 C 
BRANCH   6   7
ATOM      7  C   UNL     1       2.831  19.150   9.385  1.00  0.00     0.000 C 
BRANCH   7   8
ATOM      8  C   UNL     1       1.820  19.551  10.474  1.00  0.00     0.006 C 
BRANCH   8   9
ATOM      9  C   UNL     1       1.989  18.793  11.801  1.00  0.00     0.053 C 
BRANCH   9  10
ATOM     10  C   UNL     1       0.701  18.189  12.270  1.00  0.00     0.041 C 
ATOM     11  O   UNL     1      -0.382  18.488  11.702  1.00  0.00    -0.550 OA
ATOM     12  O   UNL     1       0.702  17.270  13.311  1.00  0.00    -0.550 OA
ENDBRANCH   9  10
ENDBRANCH   8   9
ENDBRANCH   7   8
ENDBRANCH   6   7
ENDBRANCH   5   6
ENDBRANCH   4   5
ENDBRANCH   3   4
ENDBRANCH   1   3
BRANCH   2  13
ATOM     13  C   UNL     1       3.238  15.602  10.531  1.00  0.00     0.027 C 
BRANCH  13  14
ATOM     14  C   UNL     1       4.148  14.621   9.775  1.00  0.00     0.004 C 
BRANCH  14  15
ATOM     15  C   UNL     1       4.574  15.162   8.399  1.00  0.00     0.000 C 
BRANCH  15  16
ATOM     16  C   UNL     1       6.101  15.239   8.243  1.00  0.00     0.000 C 
BRANCH  16  17
ATOM     17  C   UNL     1       6.681  14.044   7.471  1.00  0.00    -0.000 C 
BRANCH  17  18
ATOM     18  C   UNL     1       5.563  13.148   6.925  1.00  0.00    -0.000 C 
BRANCH  18  19
ATOM     19  C   UNL     1       6.122  11.811   6.428  1.00  0.00    -0.003 C 
ATOM     20  C   UNL     1       5.370  10.634   7.044  1.00  0.00     0.004 C 
ENDBRANCH  18  19
ENDBRANCH  17  18
ENDBRANCH  16  17
ENDBRANCH  15  16
ENDBRANCH  14  15
ENDBRANCH  13  14
ENDBRANCH   2  13
TORSDOF 15
ENDMDL
MODEL 7
REMARK VINA RESULT:    -4.300      4.613      7.181
REMARK INTER + INTRA:         -10.888
REMARK INTER:                  -8.734
REMARK INTRA:                  -2.154
REMARK UNBOUND:                -2.817
REMARK SMILES CCCCCCCCC=CCCCCCCCC(=O)[O-]
REMARK SMILES IDX 10 1 9 2 11 3 12 4 13 5 14 6 15 7 16 8 17 9 18 10 19 11
REMARK SMILES IDX 20 12 8 13 7 14 6 15 5 16 4 17 3 18 2 19 1 20
REMARK H PARENT
REMARK Flexibility Score: inf
ROOT
ATOM      1  C   UNL     1       2.779  15.400   9.890  1.00  0.00    -0.031 C 
ATOM      2  C   UNL     1       1.449  15.512   9.717  1.00  0.00    -0.031 C 
ENDROOT
BRANCH   1   3
ATOM      3  C   UNL     1       3.823  15.688   8.836  1.00  0.00     0.027 C 
BRANCH   3   4
ATOM      4  C   UNL     1       5.049  14.780   9.004  1.00  0.00     0.004 C 
BRANCH   4   5
ATOM      5  C   UNL     1       4.738  13.535   9.854  1.00  0.00     0.000 C 
BRANCH   5   6
ATOM      6  C   UNL     1       5.142  12.228   9.155  1.00  0.00     0.000 C 
BRANCH   6   7
ATOM      7  C   UNL     1       5.847  12.471   7.809  1.00  0.00     0.000 C 
BRANCH   7   8
ATOM      8  C   UNL     1       5.635  11.319   6.811  1.00  0.00     0.006 C 
BRANCH   8   9
ATOM      9  C   UNL     1       5.759   9.918   7.431  1.00  0.00     0.053 C 
BRANCH   9  10
ATOM     10  C   UNL     1       7.123   9.333   7.226  1.00  0.00     0.041 C 
ATOM     11  O   UNL     1       7.806   9.655   6.219  1.00  0.00    -0.550 OA
ATOM     12  O   UNL     1       7.654   8.461   8.167  1.00  0.00    -0.550 OA
ENDBRANCH   9  10
ENDBRANCH   8   9
ENDBRANCH   7   8
ENDBRANCH   6   7
ENDBRANCH   5   6
ENDBRANCH   4   5
ENDBRANCH   3   4
ENDBRANCH   1   3
BRANCH   2  13
ATOM     13  C   UNL     1       0.772  15.994   8.457  1.00  0.00     0.027 C 
BRANCH  13  14
ATOM     14  C   UNL     1      -0.140  17.207   8.702  1.00  0.00     0.004 C 
BRANCH  14  15
ATOM     15  C   UNL     1       0.258  18.420   7.842  1.00  0.00     0.000 C 
BRANCH  15  16
ATOM     16  C   UNL     1       1.721  18.838   8.055  1.00  0.00     0.000 C 
BRANCH  16  17
ATOM     17  C   UNL     1       1.967  19.458   9.438  1.00  0.00    -0.000 C 
BRANCH  17  18
ATOM     18  C   UNL     1       3.422  19.256   9.879  1.00  0.00    -0.000 C 
BRANCH  18  19
ATOM     19  C   UNL     1       3.500  18.873  11.361  1.00  0.00    -0.003 C 
ATOM     20  C   UNL     1       2.123  18.518  11.913  1.00  0.00     0.004 C 
ENDBRANCH  18  19
ENDBRANCH  17  18
ENDBRANCH  16  17
ENDBRANCH  15  16
ENDBRANCH  14  15
ENDBRANCH  13  14
ENDBRANCH   2  13
TORSDOF 15
ENDMDL
MODEL 8
REMARK VINA RESULT:    -4.284      2.732      5.273
REMARK INTER + INTRA:         -10.858
REMARK INTER:                  -8.194
REMARK INTRA:                  -2.664
REMARK UNBOUND:                -2.817
REMARK SMILES CCCCCCCCC=CCCCCCCCC(=O)[O-]
REMARK SMILES IDX 10 1 9 2 11 3 12 4 13 5 14 6 15 7 16 8 17 9 18 10 19 11
REMARK SMILES IDX 20 12 8 13 7 14 6 15 5 16 4 17 3 18 2 19 1 20
REMARK H PARENT
REMARK Flexibility Score: inf
ROOT
ATOM      1  C   UNL     1       2.002  15.317  10.761  1.00  0.00    -0.031 C 
ATOM      2  C   UNL     1       1.013  15.330   9.849  1.00  0.00    -0.031 C 
ENDROOT
BRANCH   1   3
ATOM      3  C   UNL     1       3.337  16.009  10.611  1.00  0.00     0.027 C 
BRANCH   3   4
ATOM      4  C   UNL     1       3.845  16.538  11.959  1.00  0.00     0.004 C 
BRANCH   4   5
ATOM      5  C   UNL     1       4.741  17.778  11.796  1.00  0.00     0.000 C 
BRANCH   5   6
ATOM      6  C   UNL     1       4.798  18.279  10.345  1.00  0.00     0.000 C 
BRANCH   6   7
ATOM      7  C   UNL     1       5.992  19.214  10.089  1.00  0.00     0.000 C 
BRANCH   7   8
ATOM      8  C   UNL     1       6.973  18.654   9.044  1.00  0.00     0.006 C 
BRANCH   8   9
ATOM      9  C   UNL     1       7.102  17.122   9.058  1.00  0.00     0.053 C 
BRANCH   9  10
ATOM     10  C   UNL     1       6.619  16.507   7.781  1.00  0.00     0.041 C 
ATOM     11  O   UNL     1       7.222  16.735   6.700  1.00  0.00    -0.550 OA
ATOM     12  O   UNL     1       5.524  15.652   7.791  1.00  0.00    -0.550 OA
ENDBRANCH   9  10
ENDBRANCH   8   9
ENDBRANCH   7   8
ENDBRANCH   6   7
ENDBRANCH   5   6
ENDBRANCH   4   5
ENDBRANCH   3   4
ENDBRANCH   1   3
BRANCH   2  13
ATOM     13  C   UNL     1       1.045  16.082   8.541  1.00  0.00     0.027 C 
BRANCH  13  14
ATOM     14  C   UNL     1      -0.198  16.962   8.332  1.00  0.00     0.004 C 
BRANCH  14  15
ATOM     15  C   UNL     1       0.166  18.434   8.069  1.00  0.00     0.000 C 
BRANCH  15  16
ATOM     16  C   UNL     1       1.672  18.703   8.212  1.00  0.00     0.000 C 
BRANCH  16  17
ATOM     17  C   UNL     1       1.998  19.663   9.366  1.00  0.00    -0.000 C 
BRANCH  17  18
ATOM     18  C   UNL     1       0.888  19.647  10.424  1.00  0.00    -0.000 C 
BRANCH  18  19
ATOM     19  C   UNL     1       1.469  19.456  11.829  1.00  0.00    -0.003 C 
ATOM     20  C   UNL     1       0.715  18.373  12.595  1.00  0.00     0.004 C 
ENDBRANCH  18  19
ENDBRANCH  17  18
ENDBRANCH  16  17
ENDBRANCH  15  16
ENDBRANCH  14  15
ENDBRANCH  13  14
ENDBRANCH   2  13
TORSDOF 15
ENDMDL
MODEL 9
REMARK VINA RESULT:    -4.278      3.802      6.182
REMARK INTER + INTRA:         -10.845
REMARK INTER:                  -8.667
REMARK INTRA:                  -2.178
REMARK UNBOUND:                -2.817
REMARK SMILES CCCCCCCCC=CCCCCCCCC(=O)[O-]
REMARK SMILES IDX 10 1 9 2 11 3 12 4 13 5 14 6 15 7 16 8 17 9 18 10 19 11
REMARK SMILES IDX 20 12 8 13 7 14 6 15 5 16 4 17 3 18 2 19 1 20
REMARK H PARENT
REMARK Flexibility Score: inf
ROOT
ATOM      1  C   UNL     1       1.414  15.368   9.404  1.00  0.00    -0.031 C 
ATOM      2  C   UNL     1       0.649  16.039   8.523  1.00  0.00    -0.031 C 
ENDROOT
BRANCH   1   3
ATOM      3  C   UNL     1       1.678  15.792  10.830  1.00  0.00     0.027 C 
BRANCH   3   4
ATOM      4  C   UNL     1       3.002  15.213  11.347  1.00  0.00     0.004 C 
BRANCH   4   5
ATOM      5  C   UNL     1       3.859  14.621  10.214  1.00  0.00     0.000 C 
BRANCH   5   6
ATOM      6  C   UNL     1       4.748  13.462  10.690  1.00  0.00     0.000 C 
BRANCH   6   7
ATOM      7  C   UNL     1       5.096  12.480   9.557  1.00  0.00     0.000 C 
BRANCH   7   8
ATOM      8  C   UNL     1       6.123  13.056   8.567  1.00  0.00     0.006 C 
BRANCH   8   9
ATOM      9  C   UNL     1       5.690  12.979   7.094  1.00  0.00     0.053 C 
BRANCH   9  10
ATOM     10  C   UNL     1       6.020  11.653   6.481  1.00  0.00     0.041 C 
ATOM     11  O   UNL     1       5.176  10.719   6.500  1.00  0.00    -0.550 OA
ATOM     12  O   UNL     1       7.246  11.460   5.858  1.00  0.00    -0.550 OA
ENDBRANCH   9  10
ENDBRANCH   8   9
ENDBRANCH   7   8
ENDBRANCH   6   7
ENDBRANCH   5   6
ENDBRANCH   4   5
ENDBRANCH   3   4
ENDBRANCH   1   3
BRANCH   2  13
ATOM     13  C   UNL     1      -0.119  17.303   8.823  1.00  0.00     0.027 C 
BRANCH  13  14
ATOM     14  C   UNL     1       0.274  18.468   7.900  1.00  0.00     0.004 C 
BRANCH  14  15
ATOM     15  C   UNL     1       1.739  18.897   8.092  1.00  0.00     0.000 C 
BRANCH  15  16
ATOM     16  C   UNL     1       1.986  19.555   9.459  1.00  0.00     0.000 C 
BRANCH  16  17
ATOM     17  C   UNL     1       3.314  19.119  10.097  1.00  0.00    -0.000 C 
BRANCH  17  18
ATOM     18  C   UNL     1       4.071  18.149   9.183  1.00  0.00    -0.000 C 
BRANCH  18  19
ATOM     19  C   UNL     1       5.491  17.898   9.702  1.00  0.00    -0.003 C 
ATOM     20  C   UNL     1       6.274  19.202   9.818  1.00  0.00     0.004 C 
ENDBRANCH  18  19
ENDBRANCH  17  18
ENDBRANCH  16  17
ENDBRANCH  15  16
ENDBRANCH  14  15
ENDBRANCH  13  14
ENDBRANCH   2  13
TORSDOF 15
ENDMDL
