MODEL 1
REMARK VINA RESULT:    -4.367      0.000      0.000
REMARK INTER + INTRA:         -10.389
REMARK INTER:                  -8.196
REMARK INTRA:                  -2.193
REMARK UNBOUND:                -2.193
REMARK SMILES CCCCCCCCC=CCCCCCCCC(=O)[O-]
REMARK SMILES IDX 10 1 9 2 11 3 12 4 13 5 14 6 15 7 16 8 17 9 18 10 19 11
REMARK SMILES IDX 20 12 8 13 7 14 6 15 5 16 4 17 3 18 2 19 1 20
REMARK H PARENT
REMARK Flexibility Score: inf
ROOT
ATOM      1  C   UNL     1     -45.962 -52.506  37.376  1.00  0.00    -0.031 C 
ATOM      2  C   UNL     1     -47.296 -52.391  37.428  1.00  0.00    -0.031 C 
ENDROOT
BRANCH   1   3
ATOM      3  C   UNL     1     -45.102 -51.452  36.731  1.00  0.00     0.027 C 
BRANCH   3   4
ATOM      4  C   UNL     1     -45.559 -50.024  37.077  1.00  0.00     0.004 C 
BRANCH   4   5
ATOM      5  C   UNL     1     -44.578 -48.914  36.647  1.00  0.00     0.000 C 
BRANCH   5   6
ATOM      6  C   UNL     1     -43.312 -48.785  37.514  1.00  0.00     0.000 C 
BRANCH   6   7
ATOM      7  C   UNL     1     -43.541 -49.221  38.971  1.00  0.00     0.000 C 
BRANCH   7   8
ATOM      8  C   UNL     1     -43.945 -48.051  39.887  1.00  0.00     0.006 C 
BRANCH   8   9
ATOM      9  C   UNL     1     -42.829 -47.023  40.140  1.00  0.00     0.053 C 
BRANCH   9  10
ATOM     10  C   UNL     1     -43.356 -45.751  40.730  1.00  0.00     0.041 C 
ATOM     11  O   UNL     1     -44.533 -45.379  40.483  1.00  0.00    -0.550 OA
ATOM     12  O   UNL     1     -42.557 -44.994  41.579  1.00  0.00    -0.550 OA
ENDBRANCH   9  10
ENDBRANCH   8   9
ENDBRANCH   7   8
ENDBRANCH   6   7
ENDBRANCH   5   6
ENDBRANCH   4   5
ENDBRANCH   3   4
ENDBRANCH   1   3
BRANCH   2  13
ATOM     13  C   UNL     1     -48.132 -53.454  38.087  1.00  0.00     0.027 C 
BRANCH  13  14
ATOM     14  C   UNL     1     -47.319 -54.234  39.131  1.00  0.00     0.004 C 
BRANCH  14  15
ATOM     15  C   UNL     1     -48.069 -54.367  40.473  1.00  0.00     0.000 C 
BRANCH  15  16
ATOM     16  C   UNL     1     -48.954 -53.154  40.809  1.00  0.00     0.000 C 
BRANCH  16  17
ATOM     17  C   UNL     1     -48.424 -52.340  41.997  1.00  0.00    -0.000 C 
BRANCH  17  18
ATOM     18  C   UNL     1     -48.097 -50.899  41.574  1.00  0.00    -0.000 C 
BRANCH  18  19
ATOM     19  C   UNL     1     -46.838 -50.814  40.698  1.00  0.00    -0.003 C 
ATOM     20  C   UNL     1     -45.621 -51.476  41.345  1.00  0.00     0.004 C 
ENDBRANCH  18  19
ENDBRANCH  17  18
ENDBRANCH  16  17
ENDBRANCH  15  16
ENDBRANCH  14  15
ENDBRANCH  13  14
ENDBRANCH   2  13
TORSDOF 15
ENDMDL
MODEL 2
REMARK VINA RESULT:    -4.284      4.180      7.606
REMARK INTER + INTRA:         -10.234
REMARK INTER:                  -7.698
REMARK INTRA:                  -2.536
REMARK UNBOUND:                -2.193
REMARK SMILES CCCCCCCCC=CCCCCCCCC(=O)[O-]
REMARK SMILES IDX 10 1 9 2 11 3 12 4 13 5 14 6 15 7 16 8 17 9 18 10 19 11
REMARK SMILES IDX 20 12 8 13 7 14 6 15 5 16 4 17 3 18 2 19 1 20
REMARK H PARENT
REMARK Flexibility Score: inf
ROOT
ATOM      1  C   UNL     1     -46.671 -50.650  40.816  1.00  0.00    -0.031 C 
ATOM      2  C   UNL     1     -45.433 -51.033  41.155  1.00  0.00    -0.031 C 
ENDROOT
BRANCH   1   3
ATOM      3  C   UNL     1     -47.851 -50.897  41.719  1.00  0.00     0.027 C 
BRANCH   3   4
ATOM      4  C   UNL     1     -47.712 -52.199  42.527  1.00  0.00     0.004 C 
BRANCH   4   5
ATOM      5  C   UNL     1     -48.274 -53.452  41.825  1.00  0.00     0.000 C 
BRANCH   5   6
ATOM      6  C   UNL     1     -49.102 -53.178  40.556  1.00  0.00     0.000 C 
BRANCH   6   7
ATOM      7  C   UNL     1     -48.357 -53.554  39.264  1.00  0.00     0.000 C 
BRANCH   7   8
ATOM      8  C   UNL     1     -46.998 -54.226  39.534  1.00  0.00     0.006 C 
BRANCH   8   9
ATOM      9  C   UNL     1     -46.711 -55.458  38.659  1.00  0.00     0.053 C 
BRANCH   9  10
ATOM     10  C   UNL     1     -47.438 -56.675  39.141  1.00  0.00     0.041 C 
ATOM     11  O   UNL     1     -48.341 -57.195  38.433  1.00  0.00    -0.550 OA
ATOM     12  O   UNL     1     -47.096 -57.255  40.357  1.00  0.00    -0.550 OA
ENDBRANCH   9  10
ENDBRANCH   8   9
ENDBRANCH   7   8
ENDBRANCH   6   7
ENDBRANCH   5   6
ENDBRANCH   4   5
ENDBRANCH   3   4
ENDBRANCH   1   3
BRANCH   2  13
ATOM     13  C   UNL     1     -44.270 -50.767  40.238  1.00  0.00     0.027 C 
BRANCH  13  14
ATOM     14  C   UNL     1     -43.764 -49.324  40.387  1.00  0.00     0.004 C 
BRANCH  14  15
ATOM     15  C   UNL     1     -44.371 -48.381  39.328  1.00  0.00     0.000 C 
BRANCH  15  16
ATOM     16  C   UNL     1     -43.758 -48.548  37.927  1.00  0.00     0.000 C 
BRANCH  16  17
ATOM     17  C   UNL     1     -44.789 -48.971  36.872  1.00  0.00    -0.000 C 
BRANCH  17  18
ATOM     18  C   UNL     1     -46.220 -48.827  37.412  1.00  0.00    -0.000 C 
BRANCH  18  19
ATOM     19  C   UNL     1     -47.074 -50.078  37.153  1.00  0.00    -0.003 C 
ATOM     20  C   UNL     1     -46.246 -51.363  37.119  1.00  0.00     0.004 C 
ENDBRANCH  18  19
ENDBRANCH  17  18
ENDBRANCH  16  17
ENDBRANCH  15  16
ENDBRANCH  14  15
ENDBRANCH  13  14
ENDBRANCH   2  13
TORSDOF 15
ENDMDL
MODEL 3
REMARK VINA RESULT:    -4.216      2.634      4.472
REMARK INTER + INTRA:         -10.107
REMARK INTER:                  -7.664
REMARK INTRA:                  -2.443
REMARK UNBOUND:                -2.193
REMARK SMILES CCCCCCCCC=CCCCCCCCC(=O)[O-]
REMARK SMILES IDX 10 1 9 2 11 3 12 4 13 5 14 6 15 7 16 8 17 9 18 10 19 11
REMARK SMILES IDX 20 12 8 13 7 14 6 15 5 16 4 17 3 18 2 19 1 20
REMARK H PARENT
REMARK Flexibility Score: inf
ROOT
ATOM      1  C   UNL     1     -45.779 -51.123  41.052  1.00  0.00    -0.031 C 
ATOM      2  C   UNL     1     -47.014 -50.801  40.644  1.00  0.00    -0.031 C 
ENDROOT
BRANCH   1   3
ATOM      3  C   UNL     1     -44.615 -51.160  40.097  1.00  0.00     0.027 C 
BRANCH   3   4
ATOM      4  C   UNL     1     -43.700 -49.930  40.235  1.00  0.00     0.004 C 
BRANCH   4   5
ATOM      5  C   UNL     1     -44.268 -48.636  39.617  1.00  0.00     0.000 C 
BRANCH   5   6
ATOM      6  C   UNL     1     -43.891 -48.392  38.144  1.00  0.00     0.000 C 
BRANCH   6   7
ATOM      7  C   UNL     1     -45.044 -48.699  37.175  1.00  0.00     0.000 C 
BRANCH   7   8
ATOM      8  C   UNL     1     -44.753 -49.908  36.266  1.00  0.00     0.006 C 
BRANCH   8   9
ATOM      9  C   UNL     1     -43.306 -49.983  35.748  1.00  0.00     0.053 C 
BRANCH   9  10
ATOM     10  C   UNL     1     -43.138 -49.272  34.440  1.00  0.00     0.041 C 
ATOM     11  O   UNL     1     -43.517 -49.816  33.370  1.00  0.00    -0.550 OA
ATOM     12  O   UNL     1     -42.592 -47.994  34.407  1.00  0.00    -0.550 OA
ENDBRANCH   9  10
ENDBRANCH   8   9
ENDBRANCH   7   8
ENDBRANCH   6   7
ENDBRANCH   5   6
ENDBRANCH   4   5
ENDBRANCH   3   4
ENDBRANCH   1   3
BRANCH   2  13
ATOM     13  C   UNL     1     -48.157 -50.763  41.620  1.00  0.00     0.027 C 
BRANCH  13  14
ATOM     14  C   UNL     1     -48.539 -52.176  42.086  1.00  0.00     0.004 C 
BRANCH  14  15
ATOM     15  C   UNL     1     -49.114 -53.032  40.938  1.00  0.00     0.000 C 
BRANCH  15  16
ATOM     16  C   UNL     1     -48.327 -54.329  40.681  1.00  0.00     0.000 C 
BRANCH  16  17
ATOM     17  C   UNL     1     -47.483 -54.271  39.400  1.00  0.00    -0.000 C 
BRANCH  17  18
ATOM     18  C   UNL     1     -48.196 -53.459  38.308  1.00  0.00    -0.000 C 
BRANCH  18  19
ATOM     19  C   UNL     1     -47.218 -52.638  37.453  1.00  0.00    -0.003 C 
ATOM     20  C   UNL     1     -45.862 -53.322  37.283  1.00  0.00     0.004 C 
ENDBRANCH  18  19
ENDBRANCH  17  18
ENDBRANCH  16  17
ENDBRANCH  15  16
ENDBRANCH  14  15
ENDBRANCH  13  14
ENDBRANCH   2  13
TORSDOF 15
ENDMDL
MODEL 4
REMARK VINA RESULT:    -4.191      3.395      6.425
REMARK INTER + INTRA:         -10.060
REMARK INTER:                  -7.414
REMARK INTRA:                  -2.645
REMARK UNBOUND:                -2.193
REMARK SMILES CCCCCCCCC=CCCCCCCCC(=O)[O-]
REMARK SMILES IDX 10 1 9 2 11 3 12 4 13 5 14 6 15 7 16 8 17 9 18 10 19 11
REMARK SMILES IDX 20 12 8 13 7 14 6 15 5 16 4 17 3 18 2 19 1 20
REMARK H PARENT
REMARK Flexibility Score: inf
ROOT
ATOM      1  C   UNL     1     -41.101 -48.944  37.129  1.00  0.00    -0.031 C 
ATOM      2  C   UNL     1     -41.685 -48.482  38.242  1.00  0.00    -0.031 C 
ENDROOT
BRANCH   1   3
ATOM      3  C   UNL     1     -40.614 -48.017  36.046  1.00  0.00     0.027 C 
BRANCH   3   4
ATOM      4  C   UNL     1     -41.241 -48.330  34.676  1.00  0.00     0.004 C 
BRANCH   4   5
ATOM      5  C   UNL     1     -42.783 -48.385  34.674  1.00  0.00     0.000 C 
BRANCH   5   6
ATOM      6  C   UNL     1     -43.390 -49.717  34.196  1.00  0.00     0.000 C 
BRANCH   6   7
ATOM      7  C   UNL     1     -43.998 -50.541  35.343  1.00  0.00     0.000 C 
BRANCH   7   8
ATOM      8  C   UNL     1     -44.717 -49.668  36.388  1.00  0.00     0.006 C 
BRANCH   8   9
ATOM      9  C   UNL     1     -46.031 -50.263  36.922  1.00  0.00     0.053 C 
BRANCH   9  10
ATOM     10  C   UNL     1     -45.870 -50.850  38.290  1.00  0.00     0.041 C 
ATOM     11  O   UNL     1     -46.691 -50.565  39.202  1.00  0.00    -0.550 OA
ATOM     12  O   UNL     1     -44.833 -51.737  38.550  1.00  0.00    -0.550 OA
ENDBRANCH   9  10
ENDBRANCH   8   9
ENDBRANCH   7   8
ENDBRANCH   6   7
ENDBRANCH   5   6
ENDBRANCH   4   5
ENDBRANCH   3   4
ENDBRANCH   1   3
BRANCH   2  13
ATOM     13  C   UNL     1     -42.154 -49.429  39.312  1.00  0.00     0.027 C 
BRANCH  13  14
ATOM     14  C   UNL     1     -43.346 -48.848  40.087  1.00  0.00     0.004 C 
BRANCH  14  15
ATOM     15  C   UNL     1     -44.011 -47.675  39.337  1.00  0.00     0.000 C 
BRANCH  15  16
ATOM     16  C   UNL     1     -44.168 -46.406  40.192  1.00  0.00     0.000 C 
BRANCH  16  17
ATOM     17  C   UNL     1     -42.849 -45.643  40.374  1.00  0.00    -0.000 C 
BRANCH  17  18
ATOM     18  C   UNL     1     -42.448 -45.582  41.856  1.00  0.00    -0.000 C 
BRANCH  18  19
ATOM     19  C   UNL     1     -41.418 -46.659  42.231  1.00  0.00    -0.003 C 
ATOM     20  C   UNL     1     -40.244 -46.720  41.253  1.00  0.00     0.004 C 
ENDBRANCH  18  19
ENDBRANCH  17  18
ENDBRANCH  16  17
ENDBRANCH  15  16
ENDBRANCH  14  15
ENDBRANCH  13  14
ENDBRANCH   2  13
TORSDOF 15
ENDMDL
MODEL 5
REMARK VINA RESULT:    -4.189      2.704      4.768
REMARK INTER + INTRA:         -10.057
REMARK INTER:                  -6.829
REMARK INTRA:                  -3.228
REMARK UNBOUND:                -2.193
REMARK SMILES CCCCCCCCC=CCCCCCCCC(=O)[O-]
REMARK SMILES IDX 10 1 9 2 11 3 12 4 13 5 14 6 15 7 16 8 17 9 18 10 19 11
REMARK SMILES IDX 20 12 8 13 7 14 6 15 5 16 4 17 3 18 2 19 1 20
REMARK H PARENT
REMARK Flexibility Score: inf
ROOT
ATOM      1  C   UNL     1     -45.084 -54.207  40.764  1.00  0.00    -0.031 C 
ATOM      2  C   UNL     1     -44.935 -53.036  40.130  1.00  0.00    -0.031 C 
ENDROOT
BRANCH   1   3
ATOM      3  C   UNL     1     -45.698 -55.403  40.084  1.00  0.00     0.027 C 
BRANCH   3   4
ATOM      4  C   UNL     1     -46.235 -55.071  38.681  1.00  0.00     0.004 C 
BRANCH   4   5
ATOM      5  C   UNL     1     -47.737 -54.721  38.636  1.00  0.00     0.000 C 
BRANCH   5   6
ATOM      6  C   UNL     1     -48.070 -53.338  38.046  1.00  0.00     0.000 C 
BRANCH   6   7
ATOM      7  C   UNL     1     -46.978 -52.815  37.097  1.00  0.00     0.000 C 
BRANCH   7   8
ATOM      8  C   UNL     1     -46.812 -51.286  37.165  1.00  0.00     0.006 C 
BRANCH   8   9
ATOM      9  C   UNL     1     -45.353 -50.800  37.128  1.00  0.00     0.053 C 
BRANCH   9  10
ATOM     10  C   UNL     1     -45.257 -49.313  36.982  1.00  0.00     0.041 C 
ATOM     11  O   UNL     1     -46.064 -48.564  37.592  1.00  0.00    -0.550 OA
ATOM     12  O   UNL     1     -44.254 -48.753  36.199  1.00  0.00    -0.550 OA
ENDBRANCH   9  10
ENDBRANCH   8   9
ENDBRANCH   7   8
ENDBRANCH   6   7
ENDBRANCH   5   6
ENDBRANCH   4   5
ENDBRANCH   3   4
ENDBRANCH   1   3
BRANCH   2  13
ATOM     13  C   UNL     1     -44.311 -51.860  40.830  1.00  0.00     0.027 C 
BRANCH  13  14
ATOM     14  C   UNL     1     -45.379 -50.963  41.472  1.00  0.00     0.004 C 
BRANCH  14  15
ATOM     15  C   UNL     1     -46.691 -50.947  40.660  1.00  0.00     0.000 C 
BRANCH  15  16
ATOM     16  C   UNL     1     -47.958 -50.940  41.533  1.00  0.00     0.000 C 
BRANCH  16  17
ATOM     17  C   UNL     1     -48.799 -52.214  41.374  1.00  0.00    -0.000 C 
BRANCH  17  18
ATOM     18  C   UNL     1     -48.226 -53.360  42.222  1.00  0.00    -0.000 C 
BRANCH  18  19
ATOM     19  C   UNL     1     -47.827 -52.904  43.634  1.00  0.00    -0.003 C 
ATOM     20  C   UNL     1     -46.491 -53.491  44.090  1.00  0.00     0.004 C 
ENDBRANCH  18  19
ENDBRANCH  17  18
ENDBRANCH  16  17
ENDBRANCH  15  16
ENDBRANCH  14  15
ENDBRANCH  13  14
ENDBRANCH   2  13
TORSDOF 15
ENDMDL
MODEL 6
REMARK VINA RESULT:    -4.173      2.728      3.387
REMARK INTER + INTRA:         -10.025
REMARK INTER:                  -7.573
REMARK INTRA:                  -2.452
REMARK UNBOUND:                -2.193
REMARK SMILES CCCCCCCCC=CCCCCCCCC(=O)[O-]
REMARK SMILES IDX 10 1 9 2 11 3 12 4 13 5 14 6 15 7 16 8 17 9 18 10 19 11
REMARK SMILES IDX 20 12 8 13 7 14 6 15 5 16 4 17 3 18 2 19 1 20
REMARK H PARENT
REMARK Flexibility Score: inf
ROOT
ATOM      1  C   UNL     1     -47.457 -52.725  37.851  1.00  0.00    -0.031 C 
ATOM      2  C   UNL     1     -46.959 -53.537  38.793  1.00  0.00    -0.031 C 
ENDROOT
BRANCH   1   3
ATOM      3  C   UNL     1     -46.611 -51.672  37.185  1.00  0.00     0.027 C 
BRANCH   3   4
ATOM      4  C   UNL     1     -46.937 -50.253  37.684  1.00  0.00     0.004 C 
BRANCH   4   5
ATOM      5  C   UNL     1     -45.970 -49.160  37.184  1.00  0.00     0.000 C 
BRANCH   5   6
ATOM      6  C   UNL     1     -45.308 -48.315  38.289  1.00  0.00     0.000 C 
BRANCH   6   7
ATOM      7  C   UNL     1     -43.776 -48.440  38.299  1.00  0.00     0.000 C 
BRANCH   7   8
ATOM      8  C   UNL     1     -43.268 -49.614  37.442  1.00  0.00     0.006 C 
BRANCH   8   9
ATOM      9  C   UNL     1     -42.282 -49.213  36.331  1.00  0.00     0.053 C 
BRANCH   9  10
ATOM     10  C   UNL     1     -42.959 -49.056  35.005  1.00  0.00     0.041 C 
ATOM     11  O   UNL     1     -43.816 -49.898  34.628  1.00  0.00    -0.550 OA
ATOM     12  O   UNL     1     -42.668 -47.962  34.199  1.00  0.00    -0.550 OA
ENDBRANCH   9  10
ENDBRANCH   8   9
ENDBRANCH   7   8
ENDBRANCH   6   7
ENDBRANCH   5   6
ENDBRANCH   4   5
ENDBRANCH   3   4
ENDBRANCH   1   3
BRANCH   2  13
ATOM     13  C   UNL     1     -47.823 -54.586  39.435  1.00  0.00     0.027 C 
BRANCH  13  14
ATOM     14  C   UNL     1     -48.183 -54.204  40.879  1.00  0.00     0.004 C 
BRANCH  14  15
ATOM     15  C   UNL     1     -49.317 -53.160  40.939  1.00  0.00     0.000 C 
BRANCH  15  16
ATOM     16  C   UNL     1     -48.963 -51.911  41.764  1.00  0.00     0.000 C 
BRANCH  16  17
ATOM     17  C   UNL     1     -47.459 -51.787  42.043  1.00  0.00    -0.000 C 
BRANCH  17  18
ATOM     18  C   UNL     1     -46.810 -50.749  41.114  1.00  0.00    -0.000 C 
BRANCH  18  19
ATOM     19  C   UNL     1     -45.279 -50.864  41.082  1.00  0.00    -0.003 C 
ATOM     20  C   UNL     1     -44.784 -52.274  41.403  1.00  0.00     0.004 C 
ENDBRANCH  18  19
ENDBRANCH  17  18
ENDBRANCH  16  17
ENDBRANCH  15  16
ENDBRANCH  14  15
ENDBRANCH  13  14
ENDBRANCH   2  13
TORSDOF 15
ENDMDL
MODEL 7
REMARK VINA RESULT:    -4.163      1.059      2.706
REMARK INTER + INTRA:         -10.007
REMARK INTER:                  -7.891
REMARK INTRA:                  -2.117
REMARK UNBOUND:                -2.193
REMARK SMILES CCCCCCCCC=CCCCCCCCC(=O)[O-]
REMARK SMILES IDX 10 1 9 2 11 3 12 4 13 5 14 6 15 7 16 8 17 9 18 10 19 11
REMARK SMILES IDX 20 12 8 13 7 14 6 15 5 16 4 17 3 18 2 19 1 20
REMARK H PARENT
REMARK Flexibility Score: inf
ROOT
ATOM      1  C   UNL     1     -46.929 -50.998  39.090  1.00  0.00    -0.031 C 
ATOM      2  C   UNL     1     -45.880 -50.988  39.924  1.00  0.00    -0.031 C 
ENDROOT
BRANCH   1   3
ATOM      3  C   UNL     1     -46.758 -50.840  37.602  1.00  0.00     0.027 C 
BRANCH   3   4
ATOM      4  C   UNL     1     -47.080 -49.415  37.120  1.00  0.00     0.004 C 
BRANCH   4   5
ATOM      5  C   UNL     1     -46.010 -48.361  37.474  1.00  0.00     0.000 C 
BRANCH   5   6
ATOM      6  C   UNL     1     -44.577 -48.708  37.032  1.00  0.00     0.000 C 
BRANCH   6   7
ATOM      7  C   UNL     1     -43.554 -48.588  38.174  1.00  0.00     0.000 C 
BRANCH   7   8
ATOM      8  C   UNL     1     -44.096 -47.796  39.379  1.00  0.00     0.006 C 
BRANCH   8   9
ATOM      9  C   UNL     1     -43.013 -47.125  40.240  1.00  0.00     0.053 C 
BRANCH   9  10
ATOM     10  C   UNL     1     -43.433 -45.770  40.721  1.00  0.00     0.041 C 
ATOM     11  O   UNL     1     -44.597 -45.350  40.488  1.00  0.00    -0.550 OA
ATOM     12  O   UNL     1     -42.551 -44.987  41.454  1.00  0.00    -0.550 OA
ENDBRANCH   9  10
ENDBRANCH   8   9
ENDBRANCH   7   8
ENDBRANCH   6   7
ENDBRANCH   5   6
ENDBRANCH   4   5
ENDBRANCH   3   4
ENDBRANCH   1   3
BRANCH   2  13
ATOM     13  C   UNL     1     -46.077 -51.157  41.405  1.00  0.00     0.027 C 
BRANCH  13  14
ATOM     14  C   UNL     1     -47.569 -51.179  41.769  1.00  0.00     0.004 C 
BRANCH  14  15
ATOM     15  C   UNL     1     -47.959 -52.450  42.553  1.00  0.00     0.000 C 
BRANCH  15  16
ATOM     16  C   UNL     1     -48.370 -53.629  41.654  1.00  0.00     0.000 C 
BRANCH  16  17
ATOM     17  C   UNL     1     -47.319 -54.746  41.618  1.00  0.00    -0.000 C 
BRANCH  17  18
ATOM     18  C   UNL     1     -46.466 -54.658  40.343  1.00  0.00    -0.000 C 
BRANCH  18  19
ATOM     19  C   UNL     1     -47.144 -55.322  39.135  1.00  0.00    -0.003 C 
ATOM     20  C   UNL     1     -47.862 -54.318  38.233  1.00  0.00     0.004 C 
ENDBRANCH  18  19
ENDBRANCH  17  18
ENDBRANCH  16  17
ENDBRANCH  15  16
ENDBRANCH  14  15
ENDBRANCH  13  14
ENDBRANCH   2  13
TORSDOF 15
ENDMDL
MODEL 8
REMARK VINA RESULT:    -4.142      1.488      3.528
REMARK INTER + INTRA:          -9.967
REMARK INTER:                  -6.957
REMARK INTRA:                  -3.011
REMARK UNBOUND:                -2.193
REMARK SMILES CCCCCCCCC=CCCCCCCCC(=O)[O-]
REMARK SMILES IDX 10 1 9 2 11 3 12 4 13 5 14 6 15 7 16 8 17 9 18 10 19 11
REMARK SMILES IDX 20 12 8 13 7 14 6 15 5 16 4 17 3 18 2 19 1 20
REMARK H PARENT
REMARK Flexibility Score: inf
ROOT
ATOM      1  C   UNL     1     -47.401 -54.200  39.774  1.00  0.00    -0.031 C 
ATOM      2  C   UNL     1     -48.419 -53.460  40.234  1.00  0.00    -0.031 C 
ENDROOT
BRANCH   1   3
ATOM      3  C   UNL     1     -47.140 -54.357  38.299  1.00  0.00     0.027 C 
BRANCH   3   4
ATOM      4  C   UNL     1     -46.397 -53.150  37.701  1.00  0.00     0.004 C 
BRANCH   4   5
ATOM      5  C   UNL     1     -47.315 -52.029  37.171  1.00  0.00     0.000 C 
BRANCH   5   6
ATOM      6  C   UNL     1     -46.731 -50.607  37.259  1.00  0.00     0.000 C 
BRANCH   6   7
ATOM      7  C   UNL     1     -45.324 -50.501  36.648  1.00  0.00     0.000 C 
BRANCH   7   8
ATOM      8  C   UNL     1     -44.639 -49.157  36.957  1.00  0.00     0.006 C 
BRANCH   8   9
ATOM      9  C   UNL     1     -45.336 -48.321  38.043  1.00  0.00     0.053 C 
BRANCH   9  10
ATOM     10  C   UNL     1     -44.385 -47.878  39.113  1.00  0.00     0.041 C 
ATOM     11  O   UNL     1     -43.316 -48.513  39.311  1.00  0.00    -0.550 OA
ATOM     12  O   UNL     1     -44.664 -46.746  39.868  1.00  0.00    -0.550 OA
ENDBRANCH   9  10
ENDBRANCH   8   9
ENDBRANCH   7   8
ENDBRANCH   6   7
ENDBRANCH   5   6
ENDBRANCH   4   5
ENDBRANCH   3   4
ENDBRANCH   1   3
BRANCH   2  13
ATOM     13  C   UNL     1     -48.653 -53.312  41.712  1.00  0.00     0.027 C 
BRANCH  13  14
ATOM     14  C   UNL     1     -47.722 -52.252  42.319  1.00  0.00     0.004 C 
BRANCH  14  15
ATOM     15  C   UNL     1     -47.782 -50.915  41.551  1.00  0.00     0.000 C 
BRANCH  15  16
ATOM     16  C   UNL     1     -46.478 -50.568  40.812  1.00  0.00     0.000 C 
BRANCH  16  17
ATOM     17  C   UNL     1     -45.276 -51.382  41.310  1.00  0.00    -0.000 C 
BRANCH  17  18
ATOM     18  C   UNL     1     -44.306 -51.692  40.160  1.00  0.00    -0.000 C 
BRANCH  18  19
ATOM     19  C   UNL     1     -43.622 -53.059  40.320  1.00  0.00    -0.003 C 
ATOM     20  C   UNL     1     -44.225 -53.893  41.450  1.00  0.00     0.004 C 
ENDBRANCH  18  19
ENDBRANCH  17  18
ENDBRANCH  16  17
ENDBRANCH  15  16
ENDBRANCH  14  15
ENDBRANCH  13  14
ENDBRANCH   2  13
TORSDOF 15
ENDMDL
MODEL 9
REMARK VINA RESULT:    -4.131      3.259      6.565
REMARK INTER + INTRA:          -9.948
REMARK INTER:                  -7.023
REMARK INTRA:                  -2.924
REMARK UNBOUND:                -2.193
REMARK SMILES CCCCCCCCC=CCCCCCCCC(=O)[O-]
REMARK SMILES IDX 10 1 9 2 11 3 12 4 13 5 14 6 15 7 16 8 17 9 18 10 19 11
REMARK SMILES IDX 20 12 8 13 7 14 6 15 5 16 4 17 3 18 2 19 1 20
REMARK H PARENT
REMARK Flexibility Score: inf
ROOT
ATOM      1  C   UNL     1     -44.995 -51.954  39.306  1.00  0.00    -0.031 C 
ATOM      2  C   UNL     1     -44.361 -52.637  38.343  1.00  0.00    -0.031 C 
ENDROOT
BRANCH   1   3
ATOM      3  C   UNL     1     -44.759 -52.241  40.765  1.00  0.00     0.027 C 
BRANCH   3   4
ATOM      4  C   UNL     1     -45.685 -51.425  41.683  1.00  0.00     0.004 C 
BRANCH   4   5
ATOM      5  C   UNL     1     -46.850 -50.720  40.957  1.00  0.00     0.000 C 
BRANCH   5   6
ATOM      6  C   UNL     1     -48.221 -50.839  41.648  1.00  0.00     0.000 C 
BRANCH   6   7
ATOM      7  C   UNL     1     -48.551 -52.278  42.076  1.00  0.00     0.000 C 
BRANCH   7   8
ATOM      8  C   UNL     1     -49.037 -53.152  40.904  1.00  0.00     0.006 C 
BRANCH   8   9
ATOM      9  C   UNL     1     -48.070 -54.280  40.506  1.00  0.00     0.053 C 
BRANCH   9  10
ATOM     10  C   UNL     1     -47.726 -54.241  39.049  1.00  0.00     0.041 C 
ATOM     11  O   UNL     1     -47.103 -55.198  38.520  1.00  0.00    -0.550 OA
ATOM     12  O   UNL     1     -48.123 -53.162  38.269  1.00  0.00    -0.550 OA
ENDBRANCH   9  10
ENDBRANCH   8   9
ENDBRANCH   7   8
ENDBRANCH   6   7
ENDBRANCH   5   6
ENDBRANCH   4   5
ENDBRANCH   3   4
ENDBRANCH   1   3
BRANCH   2  13
ATOM     13  C   UNL     1     -44.608 -52.325  36.893  1.00  0.00     0.027 C 
BRANCH  13  14
ATOM     14  C   UNL     1     -45.410 -51.025  36.732  1.00  0.00     0.004 C 
BRANCH  14  15
ATOM     15  C   UNL     1     -44.605 -49.930  36.003  1.00  0.00     0.000 C 
BRANCH  15  16
ATOM     16  C   UNL     1     -44.254 -48.725  36.893  1.00  0.00     0.000 C 
BRANCH  16  17
ATOM     17  C   UNL     1     -45.307 -48.458  37.977  1.00  0.00    -0.000 C 
BRANCH  17  18
ATOM     18  C   UNL     1     -44.648 -47.973  39.278  1.00  0.00    -0.000 C 
BRANCH  18  19
ATOM     19  C   UNL     1     -43.124 -48.164  39.270  1.00  0.00    -0.003 C 
ATOM     20  C   UNL     1     -42.656 -49.228  40.263  1.00  0.00     0.004 C 
ENDBRANCH  18  19
ENDBRANCH  17  18
ENDBRANCH  16  17
ENDBRANCH  15  16
ENDBRANCH  14  15
ENDBRANCH  13  14
ENDBRANCH   2  13
TORSDOF 15
ENDMDL
