MODEL 1
REMARK VINA RESULT:    -3.161      0.000      0.000
REMARK INTER + INTRA:         -10.467
REMARK INTER:                  -6.856
REMARK INTRA:                  -3.611
REMARK UNBOUND:                -3.611
REMARK SMILES CCCCCCCCCCCCCCCCCCCCCC(=O)[O-]
REMARK SMILES IDX 12 1 11 2 10 3 9 4 8 5 7 6 6 7 5 8 4 9 3 10 2 11 1 12 13 13
REMARK SMILES IDX 14 14 15 15 16 16 17 17 18 18 19 19 20 20 21 21 22 22 23 23
REMARK SMILES IDX 24 24
REMARK H PARENT
REMARK Flexibility Score: inf
ROOT
ATOM      1  C   UNL     1      56.337  26.511  53.253  1.00  0.00     0.000 C 
ENDROOT
BRANCH   1   2
ATOM      2  C   UNL     1      57.045  25.389  52.476  1.00  0.00     0.000 C 
BRANCH   2   3
ATOM      3  C   UNL     1      57.054  25.635  50.959  1.00  0.00     0.000 C 
BRANCH   3   4
ATOM      4  C   UNL     1      55.884  26.519  50.490  1.00  0.00    -0.000 C 
BRANCH   4   5
ATOM      5  C   UNL     1      54.745  25.698  49.853  1.00  0.00    -0.000 C 
BRANCH   5   6
ATOM      6  C   UNL     1      53.378  26.411  49.848  1.00  0.00    -0.000 C 
BRANCH   6   7
ATOM      7  C   UNL     1      53.250  27.537  50.893  1.00  0.00    -0.000 C 
BRANCH   7   8
ATOM      8  C   UNL     1      53.170  28.932  50.247  1.00  0.00    -0.000 C 
BRANCH   8   9
ATOM      9  C   UNL     1      54.295  29.873  50.715  1.00  0.00    -0.000 C 
BRANCH   9  10
ATOM     10  C   UNL     1      54.755  29.660  52.168  1.00  0.00    -0.000 C 
BRANCH  10  11
ATOM     11  C   UNL     1      54.636  30.929  53.023  1.00  0.00    -0.003 C 
ATOM     12  C   UNL     1      55.609  32.005  52.548  1.00  0.00     0.004 C 
ENDBRANCH  10  11
ENDBRANCH   9  10
ENDBRANCH   8   9
ENDBRANCH   7   8
ENDBRANCH   6   7
ENDBRANCH   5   6
ENDBRANCH   4   5
ENDBRANCH   3   4
ENDBRANCH   2   3
ENDBRANCH   1   2
BRANCH   1  13
ATOM     13  C   UNL     1      57.215  27.115  54.364  1.00  0.00     0.000 C 
BRANCH  13  14
ATOM     14  C   UNL     1      57.716  28.548  54.097  1.00  0.00     0.000 C 
BRANCH  14  15
ATOM     15  C   UNL     1      58.797  28.672  53.004  1.00  0.00     0.000 C 
BRANCH  15  16
ATOM     16  C   UNL     1      58.549  29.780  51.960  1.00  0.00     0.000 C 
BRANCH  16  17
ATOM     17  C   UNL     1      58.049  29.284  50.590  1.00  0.00     0.000 C 
BRANCH  17  18
ATOM     18  C   UNL     1      59.165  28.966  49.578  1.00  0.00     0.000 C 
BRANCH  18  19
ATOM     19  C   UNL     1      59.836  27.593  49.811  1.00  0.00     0.000 C 
BRANCH  19  20
ATOM     20  C   UNL     1      61.375  27.655  49.842  1.00  0.00     0.006 C 
BRANCH  20  21
ATOM     21  C   UNL     1      61.953  27.943  51.236  1.00  0.00     0.053 C 
BRANCH  21  22
ATOM     22  C   UNL     1      62.620  29.284  51.296  1.00  0.00     0.041 C 
ATOM     23  O   UNL     1      61.938  30.337  51.199  1.00  0.00    -0.550 OA
ATOM     24  O   UNL     1      64.001  29.367  51.430  1.00  0.00    -0.550 OA
ENDBRANCH  21  22
ENDBRANCH  20  21
ENDBRANCH  19  20
ENDBRANCH  18  19
ENDBRANCH  17  18
ENDBRANCH  16  17
ENDBRANCH  15  16
ENDBRANCH  14  15
ENDBRANCH  13  14
ENDBRANCH   1  13
TORSDOF 20
ENDMDL
MODEL 2
REMARK VINA RESULT:    -3.116      1.436      3.566
REMARK INTER + INTRA:         -10.369
REMARK INTER:                  -6.560
REMARK INTRA:                  -3.809
REMARK UNBOUND:                -3.611
REMARK SMILES CCCCCCCCCCCCCCCCCCCCCC(=O)[O-]
REMARK SMILES IDX 12 1 11 2 10 3 9 4 8 5 7 6 6 7 5 8 4 9 3 10 2 11 1 12 13 13
REMARK SMILES IDX 14 14 15 15 16 16 17 17 18 18 19 19 20 20 21 21 22 22 23 23
REMARK SMILES IDX 24 24
REMARK H PARENT
REMARK Flexibility Score: inf
ROOT
ATOM      1  C   UNL     1      55.195  25.639  50.283  1.00  0.00     0.000 C 
ENDROOT
BRANCH   1   2
ATOM      2  C   UNL     1      54.127  26.694  49.951  1.00  0.00     0.000 C 
BRANCH   2   3
ATOM      3  C   UNL     1      54.411  28.051  50.613  1.00  0.00     0.000 C 
BRANCH   3   4
ATOM      4  C   UNL     1      53.208  29.010  50.549  1.00  0.00    -0.000 C 
BRANCH   4   5
ATOM      5  C   UNL     1      53.552  30.421  51.068  1.00  0.00    -0.000 C 
BRANCH   5   6
ATOM      6  C   UNL     1      55.044  30.792  50.946  1.00  0.00    -0.000 C 
BRANCH   6   7
ATOM      7  C   UNL     1      55.590  31.607  52.136  1.00  0.00    -0.000 C 
BRANCH   7   8
ATOM      8  C   UNL     1      54.955  31.190  53.475  1.00  0.00    -0.000 C 
BRANCH   8   9
ATOM      9  C   UNL     1      55.293  29.741  53.871  1.00  0.00    -0.000 C 
BRANCH   9  10
ATOM     10  C   UNL     1      54.135  28.959  54.515  1.00  0.00    -0.000 C 
BRANCH  10  11
ATOM     11  C   UNL     1      54.419  27.454  54.624  1.00  0.00    -0.003 C 
ATOM     12  C   UNL     1      53.334  26.638  53.929  1.00  0.00     0.004 C 
ENDBRANCH  10  11
ENDBRANCH   9  10
ENDBRANCH   8   9
ENDBRANCH   7   8
ENDBRANCH   6   7
ENDBRANCH   5   6
ENDBRANCH   4   5
ENDBRANCH   3   4
ENDBRANCH   2   3
ENDBRANCH   1   2
BRANCH   1  13
ATOM     13  C   UNL     1      56.009  25.988  51.543  1.00  0.00     0.000 C 
BRANCH  13  14
ATOM     14  C   UNL     1      57.385  25.302  51.644  1.00  0.00     0.000 C 
BRANCH  14  15
ATOM     15  C   UNL     1      58.410  26.019  52.546  1.00  0.00     0.000 C 
BRANCH  15  16
ATOM     16  C   UNL     1      57.909  27.323  53.199  1.00  0.00     0.000 C 
BRANCH  16  17
ATOM     17  C   UNL     1      58.910  28.493  53.170  1.00  0.00     0.000 C 
BRANCH  17  18
ATOM     18  C   UNL     1      58.626  29.552  52.088  1.00  0.00     0.000 C 
BRANCH  18  19
ATOM     19  C   UNL     1      58.079  28.955  50.770  1.00  0.00     0.000 C 
BRANCH  19  20
ATOM     20  C   UNL     1      59.123  28.890  49.641  1.00  0.00     0.006 C 
BRANCH  20  21
ATOM     21  C   UNL     1      60.017  27.641  49.698  1.00  0.00     0.053 C 
BRANCH  21  22
ATOM     22  C   UNL     1      61.410  27.974  50.138  1.00  0.00     0.041 C 
ATOM     23  O   UNL     1      61.690  29.135  50.534  1.00  0.00    -0.550 OA
ATOM     24  O   UNL     1      62.406  27.006  50.083  1.00  0.00    -0.550 OA
ENDBRANCH  21  22
ENDBRANCH  20  21
ENDBRANCH  19  20
ENDBRANCH  18  19
ENDBRANCH  17  18
ENDBRANCH  16  17
ENDBRANCH  15  16
ENDBRANCH  14  15
ENDBRANCH  13  14
ENDBRANCH   1  13
TORSDOF 20
ENDMDL
MODEL 3
REMARK VINA RESULT:    -3.098      2.401      4.052
REMARK INTER + INTRA:         -10.330
REMARK INTER:                  -7.210
REMARK INTRA:                  -3.120
REMARK UNBOUND:                -3.611
REMARK SMILES CCCCCCCCCCCCCCCCCCCCCC(=O)[O-]
REMARK SMILES IDX 12 1 11 2 10 3 9 4 8 5 7 6 6 7 5 8 4 9 3 10 2 11 1 12 13 13
REMARK SMILES IDX 14 14 15 15 16 16 17 17 18 18 19 19 20 20 21 21 22 22 23 23
REMARK SMILES IDX 24 24
REMARK H PARENT
REMARK Flexibility Score: inf
ROOT
ATOM      1  C   UNL     1      55.091  25.914  49.941  1.00  0.00     0.000 C 
ENDROOT
BRANCH   1   2
ATOM      2  C   UNL     1      54.019  26.633  50.777  1.00  0.00     0.000 C 
BRANCH   2   3
ATOM      3  C   UNL     1      52.987  27.369  49.909  1.00  0.00     0.000 C 
BRANCH   3   4
ATOM      4  C   UNL     1      52.981  28.890  50.150  1.00  0.00    -0.000 C 
BRANCH   4   5
ATOM      5  C   UNL     1      54.356  29.419  50.605  1.00  0.00    -0.000 C 
BRANCH   5   6
ATOM      6  C   UNL     1      54.301  30.345  51.836  1.00  0.00    -0.000 C 
BRANCH   6   7
ATOM      7  C   UNL     1      55.175  31.610  51.715  1.00  0.00    -0.000 C 
BRANCH   7   8
ATOM      8  C   UNL     1      55.426  32.284  53.076  1.00  0.00    -0.000 C 
BRANCH   8   9
ATOM      9  C   UNL     1      56.923  32.436  53.400  1.00  0.00    -0.000 C 
BRANCH   9  10
ATOM     10  C   UNL     1      57.648  31.123  53.743  1.00  0.00    -0.000 C 
BRANCH  10  11
ATOM     11  C   UNL     1      59.098  31.092  53.239  1.00  0.00    -0.003 C 
ATOM     12  C   UNL     1      59.903  30.007  53.947  1.00  0.00     0.004 C 
ENDBRANCH  10  11
ENDBRANCH   9  10
ENDBRANCH   8   9
ENDBRANCH   7   8
ENDBRANCH   6   7
ENDBRANCH   5   6
ENDBRANCH   4   5
ENDBRANCH   3   4
ENDBRANCH   2   3
ENDBRANCH   1   2
BRANCH   1  13
ATOM     13  C   UNL     1      56.507  26.067  50.527  1.00  0.00     0.000 C 
BRANCH  13  14
ATOM     14  C   UNL     1      56.572  26.729  51.918  1.00  0.00     0.000 C 
BRANCH  14  15
ATOM     15  C   UNL     1      57.458  27.988  52.004  1.00  0.00     0.000 C 
BRANCH  15  16
ATOM     16  C   UNL     1      57.658  28.740  50.671  1.00  0.00     0.000 C 
BRANCH  16  17
ATOM     17  C   UNL     1      59.125  28.943  50.251  1.00  0.00     0.000 C 
BRANCH  17  18
ATOM     18  C   UNL     1      59.802  27.689  49.666  1.00  0.00     0.000 C 
BRANCH  18  19
ATOM     19  C   UNL     1      61.199  27.406  50.266  1.00  0.00     0.000 C 
BRANCH  19  20
ATOM     20  C   UNL     1      61.153  26.776  51.670  1.00  0.00     0.006 C 
BRANCH  20  21
ATOM     21  C   UNL     1      61.312  25.247  51.666  1.00  0.00     0.053 C 
BRANCH  21  22
ATOM     22  C   UNL     1      60.116  24.561  52.252  1.00  0.00     0.041 C 
ATOM     23  O   UNL     1      59.760  23.432  51.824  1.00  0.00    -0.550 OA
ATOM     24  O   UNL     1      59.378  25.183  53.251  1.00  0.00    -0.550 OA
ENDBRANCH  21  22
ENDBRANCH  20  21
ENDBRANCH  19  20
ENDBRANCH  18  19
ENDBRANCH  17  18
ENDBRANCH  16  17
ENDBRANCH  15  16
ENDBRANCH  14  15
ENDBRANCH  13  14
ENDBRANCH   1  13
TORSDOF 20
ENDMDL
MODEL 4
REMARK VINA RESULT:    -3.048      2.687      6.367
REMARK INTER + INTRA:         -10.221
REMARK INTER:                  -6.513
REMARK INTRA:                  -3.709
REMARK UNBOUND:                -3.611
REMARK SMILES CCCCCCCCCCCCCCCCCCCCCC(=O)[O-]
REMARK SMILES IDX 12 1 11 2 10 3 9 4 8 5 7 6 6 7 5 8 4 9 3 10 2 11 1 12 13 13
REMARK SMILES IDX 14 14 15 15 16 16 17 17 18 18 19 19 20 20 21 21 22 22 23 23
REMARK SMILES IDX 24 24
REMARK H PARENT
REMARK Flexibility Score: inf
ROOT
ATOM      1  C   UNL     1      57.275  25.432  51.399  1.00  0.00     0.000 C 
ENDROOT
BRANCH   1   2
ATOM      2  C   UNL     1      57.572  25.887  52.837  1.00  0.00     0.000 C 
BRANCH   2   3
ATOM      3  C   UNL     1      56.973  27.265  53.157  1.00  0.00     0.000 C 
BRANCH   3   4
ATOM      4  C   UNL     1      58.021  28.264  53.682  1.00  0.00    -0.000 C 
BRANCH   4   5
ATOM      5  C   UNL     1      59.320  28.243  52.851  1.00  0.00    -0.000 C 
BRANCH   5   6
ATOM      6  C   UNL     1      59.407  29.355  51.786  1.00  0.00    -0.000 C 
BRANCH   6   7
ATOM      7  C   UNL     1      59.094  28.880  50.352  1.00  0.00    -0.000 C 
BRANCH   7   8
ATOM      8  C   UNL     1      59.823  27.572  49.995  1.00  0.00    -0.000 C 
BRANCH   8   9
ATOM      9  C   UNL     1      61.356  27.709  50.047  1.00  0.00    -0.000 C 
BRANCH   9  10
ATOM     10  C   UNL     1      62.068  26.677  50.940  1.00  0.00    -0.000 C 
BRANCH  10  11
ATOM     11  C   UNL     1      61.131  25.564  51.430  1.00  0.00    -0.003 C 
ATOM     12  C   UNL     1      61.372  25.253  52.904  1.00  0.00     0.004 C 
ENDBRANCH  10  11
ENDBRANCH   9  10
ENDBRANCH   8   9
ENDBRANCH   7   8
ENDBRANCH   6   7
ENDBRANCH   5   6
ENDBRANCH   4   5
ENDBRANCH   3   4
ENDBRANCH   2   3
ENDBRANCH   1   2
BRANCH   1  13
ATOM     13  C   UNL     1      56.364  26.413  50.639  1.00  0.00     0.000 C 
BRANCH  13  14
ATOM     14  C   UNL     1      55.132  25.776  49.966  1.00  0.00     0.000 C 
BRANCH  14  15
ATOM     15  C   UNL     1      53.855  26.639  49.983  1.00  0.00     0.000 C 
BRANCH  15  16
ATOM     16  C   UNL     1      53.861  27.797  51.002  1.00  0.00     0.000 C 
BRANCH  16  17
ATOM     17  C   UNL     1      53.296  29.130  50.477  1.00  0.00     0.000 C 
BRANCH  17  18
ATOM     18  C   UNL     1      54.204  30.350  50.719  1.00  0.00     0.000 C 
BRANCH  18  19
ATOM     19  C   UNL     1      55.583  29.983  51.316  1.00  0.00     0.000 C 
BRANCH  19  20
ATOM     20  C   UNL     1      56.319  31.178  51.951  1.00  0.00     0.006 C 
BRANCH  20  21
ATOM     21  C   UNL     1      56.061  31.332  53.458  1.00  0.00     0.053 C 
BRANCH  21  22
ATOM     22  C   UNL     1      55.729  32.746  53.825  1.00  0.00     0.041 C 
ATOM     23  O   UNL     1      55.775  33.117  55.027  1.00  0.00    -0.550 OA
ATOM     24  O   UNL     1      55.339  33.645  52.840  1.00  0.00    -0.550 OA
ENDBRANCH  21  22
ENDBRANCH  20  21
ENDBRANCH  19  20
ENDBRANCH  18  19
ENDBRANCH  17  18
ENDBRANCH  16  17
ENDBRANCH  15  16
ENDBRANCH  14  15
ENDBRANCH  13  14
ENDBRANCH   1  13
TORSDOF 20
ENDMDL
MODEL 5
REMARK VINA RESULT:    -3.040      2.571      6.229
REMARK INTER + INTRA:         -10.205
REMARK INTER:                  -6.044
REMARK INTRA:                  -4.161
REMARK UNBOUND:                -3.611
REMARK SMILES CCCCCCCCCCCCCCCCCCCCCC(=O)[O-]
REMARK SMILES IDX 12 1 11 2 10 3 9 4 8 5 7 6 6 7 5 8 4 9 3 10 2 11 1 12 13 13
REMARK SMILES IDX 14 14 15 15 16 16 17 17 18 18 19 19 20 20 21 21 22 22 23 23
REMARK SMILES IDX 24 24
REMARK H PARENT
REMARK Flexibility Score: inf
ROOT
ATOM      1  C   UNL     1      55.591  27.715  54.001  1.00  0.00     0.000 C 
ENDROOT
BRANCH   1   2
ATOM      2  C   UNL     1      56.866  28.138  53.254  1.00  0.00     0.000 C 
BRANCH   2   3
ATOM      3  C   UNL     1      58.063  28.343  54.196  1.00  0.00     0.000 C 
BRANCH   3   4
ATOM      4  C   UNL     1      59.289  28.942  53.482  1.00  0.00    -0.000 C 
BRANCH   4   5
ATOM      5  C   UNL     1      58.908  29.694  52.191  1.00  0.00    -0.000 C 
BRANCH   5   6
ATOM      6  C   UNL     1      59.681  29.232  50.940  1.00  0.00    -0.000 C 
BRANCH   6   7
ATOM      7  C   UNL     1      58.894  28.266  50.032  1.00  0.00    -0.000 C 
BRANCH   7   8
ATOM      8  C   UNL     1      59.503  26.852  50.012  1.00  0.00    -0.000 C 
BRANCH   8   9
ATOM      9  C   UNL     1      58.867  25.913  51.053  1.00  0.00    -0.000 C 
BRANCH   9  10
ATOM     10  C   UNL     1      59.799  25.496  52.204  1.00  0.00    -0.000 C 
BRANCH  10  11
ATOM     11  C   UNL     1      59.042  24.896  53.398  1.00  0.00    -0.003 C 
ATOM     12  C   UNL     1      57.925  23.968  52.930  1.00  0.00     0.004 C 
ENDBRANCH  10  11
ENDBRANCH   9  10
ENDBRANCH   8   9
ENDBRANCH   7   8
ENDBRANCH   6   7
ENDBRANCH   5   6
ENDBRANCH   4   5
ENDBRANCH   3   4
ENDBRANCH   2   3
ENDBRANCH   1   2
BRANCH   1  13
ATOM     13  C   UNL     1      55.367  26.192  53.987  1.00  0.00     0.000 C 
BRANCH  13  14
ATOM     14  C   UNL     1      54.032  25.732  53.369  1.00  0.00     0.000 C 
BRANCH  14  15
ATOM     15  C   UNL     1      54.152  24.639  52.288  1.00  0.00     0.000 C 
BRANCH  15  16
ATOM     16  C   UNL     1      54.010  25.137  50.835  1.00  0.00     0.000 C 
BRANCH  16  17
ATOM     17  C   UNL     1      55.255  25.842  50.264  1.00  0.00     0.000 C 
BRANCH  17  18
ATOM     18  C   UNL     1      55.196  27.380  50.307  1.00  0.00     0.000 C 
BRANCH  18  19
ATOM     19  C   UNL     1      53.756  27.941  50.333  1.00  0.00     0.000 C 
BRANCH  19  20
ATOM     20  C   UNL     1      53.691  29.473  50.481  1.00  0.00     0.006 C 
BRANCH  20  21
ATOM     21  C   UNL     1      55.030  30.111  50.883  1.00  0.00     0.053 C 
BRANCH  21  22
ATOM     22  C   UNL     1      54.868  31.079  52.015  1.00  0.00     0.041 C 
ATOM     23  O   UNL     1      53.719  31.395  52.420  1.00  0.00    -0.550 OA
ATOM     24  O   UNL     1      55.988  31.653  52.604  1.00  0.00    -0.550 OA
ENDBRANCH  21  22
ENDBRANCH  20  21
ENDBRANCH  19  20
ENDBRANCH  18  19
ENDBRANCH  17  18
ENDBRANCH  16  17
ENDBRANCH  15  16
ENDBRANCH  14  15
ENDBRANCH  13  14
ENDBRANCH   1  13
TORSDOF 20
ENDMDL
MODEL 6
REMARK VINA RESULT:    -3.039      2.368      4.281
REMARK INTER + INTRA:         -10.203
REMARK INTER:                  -6.132
REMARK INTRA:                  -4.071
REMARK UNBOUND:                -3.611
REMARK SMILES CCCCCCCCCCCCCCCCCCCCCC(=O)[O-]
REMARK SMILES IDX 12 1 11 2 10 3 9 4 8 5 7 6 6 7 5 8 4 9 3 10 2 11 1 12 13 13
REMARK SMILES IDX 14 14 15 15 16 16 17 17 18 18 19 19 20 20 21 21 22 22 23 23
REMARK SMILES IDX 24 24
REMARK H PARENT
REMARK Flexibility Score: inf
ROOT
ATOM      1  C   UNL     1      57.488  26.399  52.461  1.00  0.00     0.000 C 
ENDROOT
BRANCH   1   2
ATOM      2  C   UNL     1      56.882  27.812  52.413  1.00  0.00     0.000 C 
BRANCH   2   3
ATOM      3  C   UNL     1      56.513  28.249  50.987  1.00  0.00     0.000 C 
BRANCH   3   4
ATOM      4  C   UNL     1      56.677  29.764  50.766  1.00  0.00    -0.000 C 
BRANCH   4   5
ATOM      5  C   UNL     1      55.342  30.525  50.903  1.00  0.00    -0.000 C 
BRANCH   5   6
ATOM      6  C   UNL     1      54.091  29.652  50.677  1.00  0.00    -0.000 C 
BRANCH   6   7
ATOM      7  C   UNL     1      53.123  29.616  51.876  1.00  0.00    -0.000 C 
BRANCH   7   8
ATOM      8  C   UNL     1      53.162  28.270  52.623  1.00  0.00    -0.000 C 
BRANCH   8   9
ATOM      9  C   UNL     1      52.875  27.068  51.704  1.00  0.00    -0.000 C 
BRANCH   9  10
ATOM     10  C   UNL     1      53.706  25.809  52.006  1.00  0.00    -0.000 C 
BRANCH  10  11
ATOM     11  C   UNL     1      53.896  24.910  50.776  1.00  0.00    -0.003 C 
ATOM     12  C   UNL     1      54.099  25.742  49.513  1.00  0.00     0.004 C 
ENDBRANCH  10  11
ENDBRANCH   9  10
ENDBRANCH   8   9
ENDBRANCH   7   8
ENDBRANCH   6   7
ENDBRANCH   5   6
ENDBRANCH   4   5
ENDBRANCH   3   4
ENDBRANCH   2   3
ENDBRANCH   1   2
BRANCH   1  13
ATOM     13  C   UNL     1      57.421  25.674  51.104  1.00  0.00     0.000 C 
BRANCH  13  14
ATOM     14  C   UNL     1      58.780  25.458  50.409  1.00  0.00     0.000 C 
BRANCH  14  15
ATOM     15  C   UNL     1      60.008  25.937  51.208  1.00  0.00     0.000 C 
BRANCH  15  16
ATOM     16  C   UNL     1      60.849  27.034  50.522  1.00  0.00     0.000 C 
BRANCH  16  17
ATOM     17  C   UNL     1      60.046  28.241  50.003  1.00  0.00     0.000 C 
BRANCH  17  18
ATOM     18  C   UNL     1      60.427  29.588  50.646  1.00  0.00     0.000 C 
BRANCH  18  19
ATOM     19  C   UNL     1      60.831  29.468  52.134  1.00  0.00     0.000 C 
BRANCH  19  20
ATOM     20  C   UNL     1      59.673  29.735  53.113  1.00  0.00     0.006 C 
BRANCH  20  21
ATOM     21  C   UNL     1      59.364  31.228  53.312  1.00  0.00     0.053 C 
BRANCH  21  22
ATOM     22  C   UNL     1      57.971  31.446  53.816  1.00  0.00     0.041 C 
ATOM     23  O   UNL     1      57.498  30.702  54.715  1.00  0.00    -0.550 OA
ATOM     24  O   UNL     1      57.184  32.453  53.271  1.00  0.00    -0.550 OA
ENDBRANCH  21  22
ENDBRANCH  20  21
ENDBRANCH  19  20
ENDBRANCH  18  19
ENDBRANCH  17  18
ENDBRANCH  16  17
ENDBRANCH  15  16
ENDBRANCH  14  15
ENDBRANCH  13  14
ENDBRANCH   1  13
TORSDOF 20
ENDMDL
MODEL 7
REMARK VINA RESULT:    -3.015      3.054      5.885
REMARK INTER + INTRA:         -10.150
REMARK INTER:                  -6.370
REMARK INTRA:                  -3.780
REMARK UNBOUND:                -3.611
REMARK SMILES CCCCCCCCCCCCCCCCCCCCCC(=O)[O-]
REMARK SMILES IDX 12 1 11 2 10 3 9 4 8 5 7 6 6 7 5 8 4 9 3 10 2 11 1 12 13 13
REMARK SMILES IDX 14 14 15 15 16 16 17 17 18 18 19 19 20 20 21 21 22 22 23 23
REMARK SMILES IDX 24 24
REMARK H PARENT
REMARK Flexibility Score: inf
ROOT
ATOM      1  C   UNL     1      58.287  25.607  50.392  1.00  0.00     0.000 C 
ENDROOT
BRANCH   1   2
ATOM      2  C   UNL     1      59.505  25.921  51.275  1.00  0.00     0.000 C 
BRANCH   2   3
ATOM      3  C   UNL     1      60.242  27.195  50.835  1.00  0.00     0.000 C 
BRANCH   3   4
ATOM      4  C   UNL     1      59.594  27.867  49.610  1.00  0.00    -0.000 C 
BRANCH   4   5
ATOM      5  C   UNL     1      59.049  29.273  49.931  1.00  0.00    -0.000 C 
BRANCH   5   6
ATOM      6  C   UNL     1      57.736  29.272  50.739  1.00  0.00    -0.000 C 
BRANCH   6   7
ATOM      7  C   UNL     1      57.904  29.676  52.217  1.00  0.00    -0.000 C 
BRANCH   7   8
ATOM      8  C   UNL     1      57.492  28.552  53.185  1.00  0.00    -0.000 C 
BRANCH   8   9
ATOM      9  C   UNL     1      56.543  29.038  54.296  1.00  0.00    -0.000 C 
BRANCH   9  10
ATOM     10  C   UNL     1      55.260  28.206  54.462  1.00  0.00    -0.000 C 
BRANCH  10  11
ATOM     11  C   UNL     1      54.635  28.344  55.857  1.00  0.00    -0.003 C 
ATOM     12  C   UNL     1      55.052  27.191  56.764  1.00  0.00     0.004 C 
ENDBRANCH  10  11
ENDBRANCH   9  10
ENDBRANCH   8   9
ENDBRANCH   7   8
ENDBRANCH   6   7
ENDBRANCH   5   6
ENDBRANCH   4   5
ENDBRANCH   3   4
ENDBRANCH   2   3
ENDBRANCH   1   2
BRANCH   1  13
ATOM     13  C   UNL     1      56.964  25.596  51.180  1.00  0.00     0.000 C 
BRANCH  13  14
ATOM     14  C   UNL     1      55.717  26.003  50.371  1.00  0.00     0.000 C 
BRANCH  14  15
ATOM     15  C   UNL     1      54.748  26.958  51.096  1.00  0.00     0.000 C 
BRANCH  15  16
ATOM     16  C   UNL     1      54.285  28.174  50.266  1.00  0.00     0.000 C 
BRANCH  16  17
ATOM     17  C   UNL     1      53.616  29.300  51.078  1.00  0.00     0.000 C 
BRANCH  17  18
ATOM     18  C   UNL     1      54.363  30.646  51.041  1.00  0.00     0.000 C 
BRANCH  18  19
ATOM     19  C   UNL     1      54.506  31.309  52.430  1.00  0.00     0.000 C 
BRANCH  19  20
ATOM     20  C   UNL     1      55.484  32.498  52.450  1.00  0.00     0.006 C 
BRANCH  20  21
ATOM     21  C   UNL     1      56.196  32.690  53.798  1.00  0.00     0.053 C 
BRANCH  21  22
ATOM     22  C   UNL     1      55.485  33.682  54.668  1.00  0.00     0.041 C 
ATOM     23  O   UNL     1      55.664  33.676  55.914  1.00  0.00    -0.550 OA
ATOM     24  O   UNL     1      54.602  34.593  54.102  1.00  0.00    -0.550 OA
ENDBRANCH  21  22
ENDBRANCH  20  21
ENDBRANCH  19  20
ENDBRANCH  18  19
ENDBRANCH  17  18
ENDBRANCH  16  17
ENDBRANCH  15  16
ENDBRANCH  14  15
ENDBRANCH  13  14
ENDBRANCH   1  13
TORSDOF 20
ENDMDL
MODEL 8
REMARK VINA RESULT:    -3.013      2.647      5.827
REMARK INTER + INTRA:         -10.147
REMARK INTER:                  -6.136
REMARK INTRA:                  -4.011
REMARK UNBOUND:                -3.611
REMARK SMILES CCCCCCCCCCCCCCCCCCCCCC(=O)[O-]
REMARK SMILES IDX 12 1 11 2 10 3 9 4 8 5 7 6 6 7 5 8 4 9 3 10 2 11 1 12 13 13
REMARK SMILES IDX 14 14 15 15 16 16 17 17 18 18 19 19 20 20 21 21 22 22 23 23
REMARK SMILES IDX 24 24
REMARK H PARENT
REMARK Flexibility Score: inf
ROOT
ATOM      1  C   UNL     1      57.813  25.185  52.086  1.00  0.00     0.000 C 
ENDROOT
BRANCH   1   2
ATOM      2  C   UNL     1      58.441  26.090  53.159  1.00  0.00     0.000 C 
BRANCH   2   3
ATOM      3  C   UNL     1      59.866  26.535  52.797  1.00  0.00     0.000 C 
BRANCH   3   4
ATOM      4  C   UNL     1      60.318  26.025  51.416  1.00  0.00    -0.000 C 
BRANCH   4   5
ATOM      5  C   UNL     1      60.796  27.166  50.495  1.00  0.00    -0.000 C 
BRANCH   5   6
ATOM      6  C   UNL     1      59.682  27.781  49.623  1.00  0.00    -0.000 C 
BRANCH   6   7
ATOM      7  C   UNL     1      59.200  29.165  50.100  1.00  0.00    -0.000 C 
BRANCH   7   8
ATOM      8  C   UNL     1      57.691  29.188  50.408  1.00  0.00    -0.000 C 
BRANCH   8   9
ATOM      9  C   UNL     1      57.391  29.333  51.911  1.00  0.00    -0.000 C 
BRANCH   9  10
ATOM     10  C   UNL     1      58.402  30.190  52.693  1.00  0.00    -0.000 C 
BRANCH  10  11
ATOM     11  C   UNL     1      58.572  29.732  54.149  1.00  0.00    -0.003 C 
ATOM     12  C   UNL     1      60.032  29.818  54.585  1.00  0.00     0.004 C 
ENDBRANCH  10  11
ENDBRANCH   9  10
ENDBRANCH   8   9
ENDBRANCH   7   8
ENDBRANCH   6   7
ENDBRANCH   5   6
ENDBRANCH   4   5
ENDBRANCH   3   4
ENDBRANCH   2   3
ENDBRANCH   1   2
BRANCH   1  13
ATOM     13  C   UNL     1      56.338  25.526  51.804  1.00  0.00     0.000 C 
BRANCH  13  14
ATOM     14  C   UNL     1      56.045  26.031  50.377  1.00  0.00     0.000 C 
BRANCH  14  15
ATOM     15  C   UNL     1      54.645  25.681  49.833  1.00  0.00     0.000 C 
BRANCH  15  16
ATOM     16  C   UNL     1      53.598  26.809  49.947  1.00  0.00     0.000 C 
BRANCH  16  17
ATOM     17  C   UNL     1      54.165  28.186  50.337  1.00  0.00     0.000 C 
BRANCH  17  18
ATOM     18  C   UNL     1      53.552  28.792  51.613  1.00  0.00     0.000 C 
BRANCH  18  19
ATOM     19  C   UNL     1      54.143  28.208  52.917  1.00  0.00     0.000 C 
BRANCH  19  20
ATOM     20  C   UNL     1      54.164  29.209  54.088  1.00  0.00     0.006 C 
BRANCH  20  21
ATOM     21  C   UNL     1      54.413  30.662  53.654  1.00  0.00     0.053 C 
BRANCH  21  22
ATOM     22  C   UNL     1      55.243  31.407  54.655  1.00  0.00     0.041 C 
ATOM     23  O   UNL     1      55.156  31.135  55.880  1.00  0.00    -0.550 OA
ATOM     24  O   UNL     1      56.091  32.424  54.234  1.00  0.00    -0.550 OA
ENDBRANCH  21  22
ENDBRANCH  20  21
ENDBRANCH  19  20
ENDBRANCH  18  19
ENDBRANCH  17  18
ENDBRANCH  16  17
ENDBRANCH  15  16
ENDBRANCH  14  15
ENDBRANCH  13  14
ENDBRANCH   1  13
TORSDOF 20
ENDMDL
MODEL 9
REMARK VINA RESULT:    -3.010      2.571      5.820
REMARK INTER + INTRA:         -10.141
REMARK INTER:                  -6.222
REMARK INTRA:                  -3.919
REMARK UNBOUND:                -3.611
REMARK SMILES CCCCCCCCCCCCCCCCCCCCCC(=O)[O-]
REMARK SMILES IDX 12 1 11 2 10 3 9 4 8 5 7 6 6 7 5 8 4 9 3 10 2 11 1 12 13 13
REMARK SMILES IDX 14 14 15 15 16 16 17 17 18 18 19 19 20 20 21 21 22 22 23 23
REMARK SMILES IDX 24 24
REMARK H PARENT
REMARK Flexibility Score: inf
ROOT
ATOM      1  C   UNL     1      55.331  30.455  50.886  1.00  0.00     0.000 C 
ENDROOT
BRANCH   1   2
ATOM      2  C   UNL     1      54.035  29.645  50.723  1.00  0.00     0.000 C 
BRANCH   2   3
ATOM      3  C   UNL     1      54.194  28.181  51.160  1.00  0.00     0.000 C 
BRANCH   3   4
ATOM      4  C   UNL     1      53.908  27.184  50.021  1.00  0.00    -0.000 C 
BRANCH   4   5
ATOM      5  C   UNL     1      54.894  25.998  50.017  1.00  0.00    -0.000 C 
BRANCH   5   6
ATOM      6  C   UNL     1      55.335  25.539  51.421  1.00  0.00    -0.000 C 
BRANCH   6   7
ATOM      7  C   UNL     1      56.864  25.504  51.622  1.00  0.00    -0.000 C 
BRANCH   7   8
ATOM      8  C   UNL     1      57.630  26.013  50.388  1.00  0.00    -0.000 C 
BRANCH   8   9
ATOM      9  C   UNL     1      59.070  26.449  50.717  1.00  0.00    -0.000 C 
BRANCH   9  10
ATOM     10  C   UNL     1      59.605  27.612  49.862  1.00  0.00    -0.000 C 
BRANCH  10  11
ATOM     11  C   UNL     1      61.066  27.963  50.181  1.00  0.00    -0.003 C 
ATOM     12  C   UNL     1      61.175  29.355  50.795  1.00  0.00     0.004 C 
ENDBRANCH  10  11
ENDBRANCH   9  10
ENDBRANCH   8   9
ENDBRANCH   7   8
ENDBRANCH   6   7
ENDBRANCH   5   6
ENDBRANCH   4   5
ENDBRANCH   3   4
ENDBRANCH   2   3
ENDBRANCH   1   2
BRANCH   1  13
ATOM     13  C   UNL     1      56.585  29.565  50.973  1.00  0.00     0.000 C 
BRANCH  13  14
ATOM     14  C   UNL     1      57.731  30.131  51.834  1.00  0.00     0.000 C 
BRANCH  14  15
ATOM     15  C   UNL     1      58.049  29.330  53.113  1.00  0.00     0.000 C 
BRANCH  15  16
ATOM     16  C   UNL     1      56.895  28.450  53.637  1.00  0.00     0.000 C 
BRANCH  16  17
ATOM     17  C   UNL     1      56.697  28.478  55.164  1.00  0.00     0.000 C 
BRANCH  17  18
ATOM     18  C   UNL     1      55.390  29.149  55.627  1.00  0.00     0.000 C 
BRANCH  18  19
ATOM     19  C   UNL     1      54.649  29.901  54.498  1.00  0.00     0.000 C 
BRANCH  19  20
ATOM     20  C   UNL     1      54.963  31.407  54.449  1.00  0.00     0.006 C 
BRANCH  20  21
ATOM     21  C   UNL     1      55.349  32.003  55.812  1.00  0.00     0.053 C 
BRANCH  21  22
ATOM     22  C   UNL     1      56.671  32.707  55.759  1.00  0.00     0.041 C 
ATOM     23  O   UNL     1      57.644  32.184  55.154  1.00  0.00    -0.550 OA
ATOM     24  O   UNL     1      56.834  33.927  56.402  1.00  0.00    -0.550 OA
ENDBRANCH  21  22
ENDBRANCH  20  21
ENDBRANCH  19  20
ENDBRANCH  18  19
ENDBRANCH  17  18
ENDBRANCH  16  17
ENDBRANCH  15  16
ENDBRANCH  14  15
ENDBRANCH  13  14
ENDBRANCH   1  13
TORSDOF 20
ENDMDL
