MODEL 1
REMARK VINA RESULT:    -3.325      0.000      0.000
REMARK INTER + INTRA:          -5.991
REMARK INTER:                  -5.268
REMARK INTRA:                  -0.723
REMARK UNBOUND:                -0.723
REMARK SMILES CCCCCCCCCCCC(=O)[O-]
REMARK SMILES IDX 7 1 8 2 9 3 10 4 11 5 12 6 13 7 14 8 6 9 5 10 4 11 3 12 2 13
REMARK SMILES IDX 1 14
REMARK H PARENT
REMARK Flexibility Score: inf
ROOT
ATOM      1  C   UNL     1     -14.765  12.802   6.829  1.00  0.00     0.000 C 
ENDROOT
BRANCH   1   2
ATOM      2  C   UNL     1     -13.833  13.450   7.864  1.00  0.00     0.000 C 
BRANCH   2   3
ATOM      3  C   UNL     1     -14.419  13.330   9.279  1.00  0.00     0.000 C 
BRANCH   3   4
ATOM      4  C   UNL     1     -13.916  14.434  10.223  1.00  0.00     0.006 C 
BRANCH   4   5
ATOM      5  C   UNL     1     -14.570  14.367  11.609  1.00  0.00     0.053 C 
BRANCH   5   6
ATOM      6  C   UNL     1     -13.819  13.424  12.495  1.00  0.00     0.041 C 
ATOM      7  O   UNL     1     -14.395  12.413  12.977  1.00  0.00    -0.550 OA
ATOM      8  O   UNL     1     -12.470  13.634  12.750  1.00  0.00    -0.550 OA
ENDBRANCH   5   6
ENDBRANCH   4   5
ENDBRANCH   3   4
ENDBRANCH   2   3
ENDBRANCH   1   2
BRANCH   1   9
ATOM      9  C   UNL     1     -16.245  13.139   7.070  1.00  0.00     0.000 C 
BRANCH   9  10
ATOM     10  C   UNL     1     -17.125  11.885   7.199  1.00  0.00    -0.000 C 
BRANCH  10  11
ATOM     11  C   UNL     1     -16.271  10.610   7.155  1.00  0.00    -0.000 C 
BRANCH  11  12
ATOM     12  C   UNL     1     -16.775   9.524   8.119  1.00  0.00    -0.000 C 
BRANCH  12  13
ATOM     13  C   UNL     1     -15.632   8.822   8.867  1.00  0.00    -0.003 C 
ATOM     14  C   UNL     1     -16.083   7.469   9.413  1.00  0.00     0.004 C 
ENDBRANCH  12  13
ENDBRANCH  11  12
ENDBRANCH  10  11
ENDBRANCH   9  10
ENDBRANCH   1   9
TORSDOF 10
ENDMDL
MODEL 2
REMARK VINA RESULT:    -3.289      2.865      5.146
REMARK INTER + INTRA:          -5.935
REMARK INTER:                  -5.417
REMARK INTRA:                  -0.518
REMARK UNBOUND:                -0.723
REMARK SMILES CCCCCCCCCCCC(=O)[O-]
REMARK SMILES IDX 7 1 8 2 9 3 10 4 11 5 12 6 13 7 14 8 6 9 5 10 4 11 3 12 2 13
REMARK SMILES IDX 1 14
REMARK H PARENT
REMARK Flexibility Score: inf
ROOT
ATOM      1  C   UNL     1     -16.015   8.836   9.476  1.00  0.00     0.000 C 
ENDROOT
BRANCH   1   2
ATOM      2  C   UNL     1     -15.269   9.437   8.276  1.00  0.00     0.000 C 
BRANCH   2   3
ATOM      3  C   UNL     1     -16.182  10.380   7.479  1.00  0.00     0.000 C 
BRANCH   3   4
ATOM      4  C   UNL     1     -16.188  11.812   8.039  1.00  0.00     0.006 C 
BRANCH   4   5
ATOM      5  C   UNL     1     -15.433  12.800   7.141  1.00  0.00     0.053 C 
BRANCH   5   6
ATOM      6  C   UNL     1     -14.178  13.260   7.813  1.00  0.00     0.041 C 
ATOM      7  O   UNL     1     -13.180  13.604   7.126  1.00  0.00    -0.550 OA
ATOM      8  O   UNL     1     -14.124  13.353   9.198  1.00  0.00    -0.550 OA
ENDBRANCH   5   6
ENDBRANCH   4   5
ENDBRANCH   3   4
ENDBRANCH   2   3
ENDBRANCH   1   2
BRANCH   1   9
ATOM      9  C   UNL     1     -16.361   7.351   9.277  1.00  0.00     0.000 C 
BRANCH   9  10
ATOM     10  C   UNL     1     -16.144   6.517  10.549  1.00  0.00    -0.000 C 
BRANCH  10  11
ATOM     11  C   UNL     1     -15.100   7.174  11.464  1.00  0.00    -0.000 C 
BRANCH  11  12
ATOM     12  C   UNL     1     -13.906   6.252  11.761  1.00  0.00    -0.000 C 
BRANCH  12  13
ATOM     13  C   UNL     1     -14.303   4.770  11.808  1.00  0.00    -0.003 C 
ATOM     14  C   UNL     1     -13.070   3.875  11.912  1.00  0.00     0.004 C 
ENDBRANCH  12  13
ENDBRANCH  11  12
ENDBRANCH  10  11
ENDBRANCH   9  10
ENDBRANCH   1   9
TORSDOF 10
ENDMDL
MODEL 3
REMARK VINA RESULT:    -3.250      3.138      4.975
REMARK INTER + INTRA:          -5.873
REMARK INTER:                  -5.310
REMARK INTRA:                  -0.563
REMARK UNBOUND:                -0.723
REMARK SMILES CCCCCCCCCCCC(=O)[O-]
REMARK SMILES IDX 7 1 8 2 9 3 10 4 11 5 12 6 13 7 14 8 6 9 5 10 4 11 3 12 2 13
REMARK SMILES IDX 1 14
REMARK H PARENT
REMARK Flexibility Score: inf
ROOT
ATOM      1  C   UNL     1     -15.649   8.770   8.837  1.00  0.00     0.000 C 
ENDROOT
BRANCH   1   2
ATOM      2  C   UNL     1     -16.330  10.118   8.561  1.00  0.00     0.000 C 
BRANCH   2   3
ATOM      3  C   UNL     1     -16.161  11.072   9.752  1.00  0.00     0.000 C 
BRANCH   3   4
ATOM      4  C   UNL     1     -15.941  12.530   9.318  1.00  0.00     0.006 C 
BRANCH   4   5
ATOM      5  C   UNL     1     -14.470  12.839   9.013  1.00  0.00     0.053 C 
BRANCH   5   6
ATOM      6  C   UNL     1     -14.313  13.281   7.592  1.00  0.00     0.041 C 
ATOM      7  O   UNL     1     -13.201  13.704   7.179  1.00  0.00    -0.550 OA
ATOM      8  O   UNL     1     -15.382  13.181   6.711  1.00  0.00    -0.550 OA
ENDBRANCH   5   6
ENDBRANCH   4   5
ENDBRANCH   3   4
ENDBRANCH   2   3
ENDBRANCH   1   2
BRANCH   1   9
ATOM      9  C   UNL     1     -16.615   7.581   8.716  1.00  0.00     0.000 C 
BRANCH   9  10
ATOM     10  C   UNL     1     -16.716   6.765  10.015  1.00  0.00    -0.000 C 
BRANCH  10  11
ATOM     11  C   UNL     1     -15.477   6.982  10.896  1.00  0.00    -0.000 C 
BRANCH  11  12
ATOM     12  C   UNL     1     -15.089   5.728  11.695  1.00  0.00    -0.000 C 
BRANCH  12  13
ATOM     13  C   UNL     1     -13.588   5.417  11.614  1.00  0.00    -0.003 C 
ATOM     14  C   UNL     1     -13.317   3.942  11.900  1.00  0.00     0.004 C 
ENDBRANCH  12  13
ENDBRANCH  11  12
ENDBRANCH  10  11
ENDBRANCH   9  10
ENDBRANCH   1   9
TORSDOF 10
ENDMDL
MODEL 4
REMARK VINA RESULT:    -3.230      2.955      5.797
REMARK INTER + INTRA:          -5.841
REMARK INTER:                  -5.098
REMARK INTRA:                  -0.743
REMARK UNBOUND:                -0.723
REMARK SMILES CCCCCCCCCCCC(=O)[O-]
REMARK SMILES IDX 7 1 8 2 9 3 10 4 11 5 12 6 13 7 14 8 6 9 5 10 4 11 3 12 2 13
REMARK SMILES IDX 1 14
REMARK H PARENT
REMARK Flexibility Score: inf
ROOT
ATOM      1  C   UNL     1     -15.551   9.387   8.421  1.00  0.00     0.000 C 
ENDROOT
BRANCH   1   2
ATOM      2  C   UNL     1     -16.357   9.737   9.681  1.00  0.00     0.000 C 
BRANCH   2   3
ATOM      3  C   UNL     1     -16.285   8.601  10.711  1.00  0.00     0.000 C 
BRANCH   3   4
ATOM      4  C   UNL     1     -15.490   7.388  10.201  1.00  0.00     0.006 C 
BRANCH   4   5
ATOM      5  C   UNL     1     -15.487   6.222  11.198  1.00  0.00     0.053 C 
BRANCH   5   6
ATOM      6  C   UNL     1     -14.087   5.894  11.612  1.00  0.00     0.041 C 
ATOM      7  O   UNL     1     -13.325   6.800  12.043  1.00  0.00    -0.550 OA
ATOM      8  O   UNL     1     -13.638   4.581  11.568  1.00  0.00    -0.550 OA
ENDBRANCH   5   6
ENDBRANCH   4   5
ENDBRANCH   3   4
ENDBRANCH   2   3
ENDBRANCH   1   2
BRANCH   1   9
ATOM      9  C   UNL     1     -15.880  10.303   7.232  1.00  0.00     0.000 C 
BRANCH   9  10
ATOM     10  C   UNL     1     -16.093  11.766   7.651  1.00  0.00    -0.000 C 
BRANCH  10  11
ATOM     11  C   UNL     1     -15.044  12.680   7.002  1.00  0.00    -0.000 C 
BRANCH  11  12
ATOM     12  C   UNL     1     -14.022  13.222   8.013  1.00  0.00    -0.000 C 
BRANCH  12  13
ATOM     13  C   UNL     1     -14.533  13.162   9.460  1.00  0.00    -0.003 C 
ATOM     14  C   UNL     1     -13.964  14.309  10.291  1.00  0.00     0.004 C 
ENDBRANCH  12  13
ENDBRANCH  11  12
ENDBRANCH  10  11
ENDBRANCH   9  10
ENDBRANCH   1   9
TORSDOF 10
ENDMDL
MODEL 5
REMARK VINA RESULT:    -3.147      2.621      5.408
REMARK INTER + INTRA:          -5.710
REMARK INTER:                  -4.928
REMARK INTRA:                  -0.781
REMARK UNBOUND:                -0.723
REMARK SMILES CCCCCCCCCCCC(=O)[O-]
REMARK SMILES IDX 7 1 8 2 9 3 10 4 11 5 12 6 13 7 14 8 6 9 5 10 4 11 3 12 2 13
REMARK SMILES IDX 1 14
REMARK H PARENT
REMARK Flexibility Score: inf
ROOT
ATOM      1  C   UNL     1     -15.601  10.062   7.646  1.00  0.00     0.000 C 
ENDROOT
BRANCH   1   2
ATOM      2  C   UNL     1     -15.629   8.844   8.580  1.00  0.00     0.000 C 
BRANCH   2   3
ATOM      3  C   UNL     1     -16.414   9.156   9.863  1.00  0.00     0.000 C 
BRANCH   3   4
ATOM      4  C   UNL     1     -16.091   8.181  11.007  1.00  0.00     0.006 C 
BRANCH   4   5
ATOM      5  C   UNL     1     -15.290   6.962  10.535  1.00  0.00     0.053 C 
BRANCH   5   6
ATOM      6  C   UNL     1     -14.297   6.555  11.578  1.00  0.00     0.041 C 
ATOM      7  O   UNL     1     -13.604   5.515  11.422  1.00  0.00    -0.550 OA
ATOM      8  O   UNL     1     -14.102   7.350  12.700  1.00  0.00    -0.550 OA
ENDBRANCH   5   6
ENDBRANCH   4   5
ENDBRANCH   3   4
ENDBRANCH   2   3
ENDBRANCH   1   2
BRANCH   1   9
ATOM      9  C   UNL     1     -16.831  10.969   7.814  1.00  0.00     0.000 C 
BRANCH   9  10
ATOM     10  C   UNL     1     -16.455  12.435   8.075  1.00  0.00    -0.000 C 
BRANCH  10  11
ATOM     11  C   UNL     1     -15.222  12.840   7.254  1.00  0.00    -0.000 C 
BRANCH  11  12
ATOM     12  C   UNL     1     -14.056  13.322   8.131  1.00  0.00    -0.000 C 
BRANCH  12  13
ATOM     13  C   UNL     1     -14.379  13.255   9.631  1.00  0.00    -0.003 C 
ATOM     14  C   UNL     1     -13.825  14.473  10.367  1.00  0.00     0.004 C 
ENDBRANCH  12  13
ENDBRANCH  11  12
ENDBRANCH  10  11
ENDBRANCH   9  10
ENDBRANCH   1   9
TORSDOF 10
ENDMDL
MODEL 6
REMARK VINA RESULT:    -3.139      2.388      5.437
REMARK INTER + INTRA:          -5.697
REMARK INTER:                  -4.861
REMARK INTRA:                  -0.837
REMARK UNBOUND:                -0.723
REMARK SMILES CCCCCCCCCCCC(=O)[O-]
REMARK SMILES IDX 7 1 8 2 9 3 10 4 11 5 12 6 13 7 14 8 6 9 5 10 4 11 3 12 2 13
REMARK SMILES IDX 1 14
REMARK H PARENT
REMARK Flexibility Score: inf
ROOT
ATOM      1  C   UNL     1     -14.181  13.324   9.296  1.00  0.00     0.000 C 
ENDROOT
BRANCH   1   2
ATOM      2  C   UNL     1     -13.770  13.564   7.835  1.00  0.00     0.000 C 
BRANCH   2   3
ATOM      3  C   UNL     1     -14.803  12.963   6.870  1.00  0.00     0.000 C 
BRANCH   3   4
ATOM      4  C   UNL     1     -16.106  12.555   7.576  1.00  0.00     0.006 C 
BRANCH   4   5
ATOM      5  C   UNL     1     -16.463  11.080   7.349  1.00  0.00     0.053 C 
BRANCH   5   6
ATOM      6  C   UNL     1     -15.968  10.243   8.486  1.00  0.00     0.041 C 
ATOM      7  O   UNL     1     -16.364  10.471   9.660  1.00  0.00    -0.550 OA
ATOM      8  O   UNL     1     -15.106   9.181   8.244  1.00  0.00    -0.550 OA
ENDBRANCH   5   6
ENDBRANCH   4   5
ENDBRANCH   3   4
ENDBRANCH   2   3
ENDBRANCH   1   2
BRANCH   1   9
ATOM      9  C   UNL     1     -13.761  14.472  10.227  1.00  0.00     0.000 C 
BRANCH   9  10
ATOM     10  C   UNL     1     -14.319  14.315  11.650  1.00  0.00    -0.000 C 
BRANCH  10  11
ATOM     11  C   UNL     1     -15.461  13.289  11.681  1.00  0.00    -0.000 C 
BRANCH  11  12
ATOM     12  C   UNL     1     -16.828  13.931  11.966  1.00  0.00    -0.000 C 
BRANCH  12  13
ATOM     13  C   UNL     1     -16.883  15.409  11.556  1.00  0.00    -0.003 C 
ATOM     14  C   UNL     1     -17.124  16.306  12.768  1.00  0.00     0.004 C 
ENDBRANCH  12  13
ENDBRANCH  11  12
ENDBRANCH  10  11
ENDBRANCH   9  10
ENDBRANCH   1   9
TORSDOF 10
ENDMDL
MODEL 7
REMARK VINA RESULT:    -3.135      2.276      4.300
REMARK INTER + INTRA:          -5.691
REMARK INTER:                  -5.239
REMARK INTRA:                  -0.452
REMARK UNBOUND:                -0.723
REMARK SMILES CCCCCCCCCCCC(=O)[O-]
REMARK SMILES IDX 7 1 8 2 9 3 10 4 11 5 12 6 13 7 14 8 6 9 5 10 4 11 3 12 2 13
REMARK SMILES IDX 1 14
REMARK H PARENT
REMARK Flexibility Score: inf
ROOT
ATOM      1  C   UNL     1     -15.509   9.216   8.390  1.00  0.00     0.000 C 
ENDROOT
BRANCH   1   2
ATOM      2  C   UNL     1     -16.289  10.524   8.197  1.00  0.00     0.000 C 
BRANCH   2   3
ATOM      3  C   UNL     1     -15.588  11.434   7.177  1.00  0.00     0.000 C 
BRANCH   3   4
ATOM      4  C   UNL     1     -15.497  12.894   7.649  1.00  0.00     0.006 C 
BRANCH   4   5
ATOM      5  C   UNL     1     -14.127  13.238   8.247  1.00  0.00     0.053 C 
BRANCH   5   6
ATOM      6  C   UNL     1     -14.258  13.559   9.702  1.00  0.00     0.041 C 
ATOM      7  O   UNL     1     -14.811  12.741  10.484  1.00  0.00    -0.550 OA
ATOM      8  O   UNL     1     -13.728  14.740  10.204  1.00  0.00    -0.550 OA
ENDBRANCH   5   6
ENDBRANCH   4   5
ENDBRANCH   3   4
ENDBRANCH   2   3
ENDBRANCH   1   2
BRANCH   1   9
ATOM      9  C   UNL     1     -16.264   8.197   9.258  1.00  0.00     0.000 C 
BRANCH   9  10
ATOM     10  C   UNL     1     -15.330   7.392  10.175  1.00  0.00    -0.000 C 
BRANCH  10  11
ATOM     11  C   UNL     1     -16.104   6.290  10.914  1.00  0.00    -0.000 C 
BRANCH  11  12
ATOM     12  C   UNL     1     -15.241   5.549  11.948  1.00  0.00    -0.000 C 
BRANCH  12  13
ATOM     13  C   UNL     1     -13.736   5.740  11.706  1.00  0.00    -0.003 C 
ATOM     14  C   UNL     1     -13.061   6.372  12.921  1.00  0.00     0.004 C 
ENDBRANCH  12  13
ENDBRANCH  11  12
ENDBRANCH  10  11
ENDBRANCH   9  10
ENDBRANCH   1   9
TORSDOF 10
ENDMDL
MODEL 8
REMARK VINA RESULT:    -3.057      2.412      5.278
REMARK INTER + INTRA:          -5.568
REMARK INTER:                  -4.675
REMARK INTRA:                  -0.893
REMARK UNBOUND:                -0.723
REMARK SMILES CCCCCCCCCCCC(=O)[O-]
REMARK SMILES IDX 7 1 8 2 9 3 10 4 11 5 12 6 13 7 14 8 6 9 5 10 4 11 3 12 2 13
REMARK SMILES IDX 1 14
REMARK H PARENT
REMARK Flexibility Score: inf
ROOT
ATOM      1  C   UNL     1     -15.591  11.379   7.096  1.00  0.00     0.000 C 
ENDROOT
BRANCH   1   2
ATOM      2  C   UNL     1     -16.915  10.987   7.770  1.00  0.00     0.000 C 
BRANCH   2   3
ATOM      3  C   UNL     1     -16.660  10.165   9.042  1.00  0.00     0.000 C 
BRANCH   3   4
ATOM      4  C   UNL     1     -15.588   9.081   8.841  1.00  0.00     0.006 C 
BRANCH   4   5
ATOM      5  C   UNL     1     -16.058   7.694   9.295  1.00  0.00     0.053 C 
BRANCH   5   6
ATOM      6  C   UNL     1     -15.550   7.395  10.670  1.00  0.00     0.041 C 
ATOM      7  O   UNL     1     -16.124   7.886  11.678  1.00  0.00    -0.550 OA
ATOM      8  O   UNL     1     -14.472   6.536  10.842  1.00  0.00    -0.550 OA
ENDBRANCH   5   6
ENDBRANCH   4   5
ENDBRANCH   3   4
ENDBRANCH   2   3
ENDBRANCH   1   2
BRANCH   1   9
ATOM      9  C   UNL     1     -15.345  12.896   7.108  1.00  0.00     0.000 C 
BRANCH   9  10
ATOM     10  C   UNL     1     -14.065  13.283   7.865  1.00  0.00    -0.000 C 
BRANCH  10  11
ATOM     11  C   UNL     1     -14.216  13.014   9.370  1.00  0.00    -0.000 C 
BRANCH  11  12
ATOM     12  C   UNL     1     -14.016  14.278  10.221  1.00  0.00    -0.000 C 
BRANCH  12  13
ATOM     13  C   UNL     1     -14.990  14.351  11.406  1.00  0.00    -0.003 C 
ATOM     14  C   UNL     1     -16.417  14.032  10.964  1.00  0.00     0.004 C 
ENDBRANCH  12  13
ENDBRANCH  11  12
ENDBRANCH  10  11
ENDBRANCH   9  10
ENDBRANCH   1   9
TORSDOF 10
ENDMDL
MODEL 9
REMARK VINA RESULT:    -3.051      1.480      2.718
REMARK INTER + INTRA:          -5.558
REMARK INTER:                  -4.492
REMARK INTRA:                  -1.066
REMARK UNBOUND:                -0.723
REMARK SMILES CCCCCCCCCCCC(=O)[O-]
REMARK SMILES IDX 7 1 8 2 9 3 10 4 11 5 12 6 13 7 14 8 6 9 5 10 4 11 3 12 2 13
REMARK SMILES IDX 1 14
REMARK H PARENT
REMARK Flexibility Score: inf
ROOT
ATOM      1  C   UNL     1     -14.455  13.241   9.323  1.00  0.00     0.000 C 
ENDROOT
BRANCH   1   2
ATOM      2  C   UNL     1     -14.025  14.283  10.367  1.00  0.00     0.000 C 
BRANCH   2   3
ATOM      3  C   UNL     1     -15.214  14.700  11.245  1.00  0.00     0.000 C 
BRANCH   3   4
ATOM      4  C   UNL     1     -16.458  13.827  11.013  1.00  0.00     0.006 C 
BRANCH   4   5
ATOM      5  C   UNL     1     -16.877  13.051  12.268  1.00  0.00     0.053 C 
BRANCH   5   6
ATOM      6  C   UNL     1     -16.018  11.839  12.442  1.00  0.00     0.041 C 
ATOM      7  O   UNL     1     -14.958  11.905  13.118  1.00  0.00    -0.550 OA
ATOM      8  O   UNL     1     -16.412  10.623  11.897  1.00  0.00    -0.550 OA
ENDBRANCH   5   6
ENDBRANCH   4   5
ENDBRANCH   3   4
ENDBRANCH   2   3
ENDBRANCH   1   2
BRANCH   1   9
ATOM      9  C   UNL     1     -13.840  13.500   7.939  1.00  0.00     0.000 C 
BRANCH   9  10
ATOM     10  C   UNL     1     -14.689  12.922   6.796  1.00  0.00    -0.000 C 
BRANCH  10  11
ATOM     11  C   UNL     1     -16.174  12.874   7.186  1.00  0.00    -0.000 C 
BRANCH  11  12
ATOM     12  C   UNL     1     -16.766  11.459   7.094  1.00  0.00    -0.000 C 
BRANCH  12  13
ATOM     13  C   UNL     1     -15.693  10.364   7.170  1.00  0.00    -0.003 C 
ATOM     14  C   UNL     1     -15.604   9.778   8.577  1.00  0.00     0.004 C 
ENDBRANCH  12  13
ENDBRANCH  11  12
ENDBRANCH  10  11
ENDBRANCH   9  10
ENDBRANCH   1   9
TORSDOF 10
ENDMDL
