MODEL 1
REMARK VINA RESULT:    -6.414      0.000      0.000
REMARK INTER + INTRA:          -7.821
REMARK INTER:                  -7.727
REMARK INTRA:                  -0.094
REMARK UNBOUND:                -0.094
REMARK SMILES O=c1c(O)c(-c2ccc(O)c(O)c2)oc2cc(O)cc(O)c12
REMARK SMILES IDX 5 1 3 2 2 3 1 4 22 5 20 6 19 7 17 8 16 9 15 10 14 11 6 12
REMARK SMILES IDX 7 13 8 14 9 15 13 16 11 17 10 18 12 20 4 22 21 24 18 26
REMARK H PARENT 10 19 12 21 4 23 21 25 18 27
REMARK Flexibility Score: inf
ROOT
ATOM      1  C   UNL     1       4.709 -14.879   7.118  1.00  0.00     0.180 A 
ATOM      2  C   UNL     1       5.632 -15.221   8.121  1.00  0.00     0.208 A 
ATOM      3  C   UNL     1       5.911 -16.577   8.356  1.00  0.00     0.238 A 
ATOM      4  O   UNL     1       6.696 -16.880   9.293  1.00  0.00    -0.285 OA
ATOM      5  C   UNL     1       5.277 -17.573   7.574  1.00  0.00     0.111 A 
ATOM      6  C   UNL     1       5.514 -18.974   7.699  1.00  0.00     0.134 A 
ATOM      7  C   UNL     1       4.735 -19.875   6.962  1.00  0.00     0.093 A 
ATOM      8  C   UNL     1       3.772 -19.424   6.060  1.00  0.00     0.123 A 
ATOM      9  C   UNL     1       3.573 -18.054   5.887  1.00  0.00     0.094 A 
ATOM     10  C   UNL     1       4.311 -17.132   6.633  1.00  0.00     0.146 A 
ATOM     11  O   UNL     1       4.082 -15.837   6.446  1.00  0.00    -0.452 OA
ENDROOT
BRANCH   1  12
ATOM     12  C   UNL     1       4.383 -13.471   6.795  1.00  0.00     0.025 A 
ATOM     13  C   UNL     1       3.042 -13.057   6.787  1.00  0.00     0.016 A 
ATOM     14  C   UNL     1       2.710 -11.739   6.464  1.00  0.00     0.051 A 
ATOM     15  C   UNL     1       3.712 -10.819   6.132  1.00  0.00     0.157 A 
ATOM     16  C   UNL     1       5.385 -12.549   6.440  1.00  0.00     0.062 A 
ATOM     17  C   UNL     1       5.056 -11.229   6.116  1.00  0.00     0.158 A 
BRANCH  15  18
ATOM     18  O   UNL     1       3.378  -9.503   5.812  1.00  0.00    -0.504 OA
ATOM     19  H   UNL     1       2.417  -9.224   5.654  1.00  0.00     0.293 HD
ENDBRANCH  15  18
BRANCH  17  20
ATOM     20  O   UNL     1       6.075 -10.341   5.774  1.00  0.00    -0.504 OA
ATOM     21  H   UNL     1       7.044 -10.631   5.710  1.00  0.00     0.293 HD
ENDBRANCH  17  20
ENDBRANCH   1  12
BRANCH   2  22
ATOM     22  O   UNL     1       6.230 -14.224   8.897  1.00  0.00    -0.502 OA
ATOM     23  H   UNL     1       6.152 -13.239   8.672  1.00  0.00     0.293 HD
ENDBRANCH   2  22
BRANCH   6  24
ATOM     24  O   UNL     1       6.514 -19.528   8.503  1.00  0.00    -0.507 OA
ATOM     25  H   UNL     1       6.497 -20.465   8.878  1.00  0.00     0.293 HD
ENDBRANCH   6  24
BRANCH   8  26
ATOM     26  O   UNL     1       3.026 -20.349   5.332  1.00  0.00    -0.508 OA
ATOM     27  H   UNL     1       2.306 -20.054   4.683  1.00  0.00     0.293 HD
ENDBRANCH   8  26
TORSDOF 6
ENDMDL
MODEL 2
REMARK VINA RESULT:    -6.174      1.619      3.183
REMARK INTER + INTRA:          -7.532
REMARK INTER:                  -7.253
REMARK INTRA:                  -0.280
REMARK UNBOUND:                -0.094
REMARK SMILES O=c1c(O)c(-c2ccc(O)c(O)c2)oc2cc(O)cc(O)c12
REMARK SMILES IDX 5 1 3 2 2 3 1 4 22 5 20 6 19 7 17 8 16 9 15 10 14 11 6 12
REMARK SMILES IDX 7 13 8 14 9 15 13 16 11 17 10 18 12 20 4 22 21 24 18 26
REMARK H PARENT 10 19 12 21 4 23 21 25 18 27
REMARK Flexibility Score: inf
ROOT
ATOM      1  C   UNL     1       4.456 -15.137   6.558  1.00  0.00     0.180 A 
ATOM      2  C   UNL     1       3.385 -15.549   5.747  1.00  0.00     0.208 A 
ATOM      3  C   UNL     1       3.186 -16.921   5.526  1.00  0.00     0.238 A 
ATOM      4  O   UNL     1       2.259 -17.281   4.753  1.00  0.00    -0.285 OA
ATOM      5  C   UNL     1       4.049 -17.866   6.132  1.00  0.00     0.111 A 
ATOM      6  C   UNL     1       3.918 -19.281   6.009  1.00  0.00     0.134 A 
ATOM      7  C   UNL     1       4.906 -20.116   6.545  1.00  0.00     0.093 A 
ATOM      8  C   UNL     1       5.985 -19.591   7.254  1.00  0.00     0.123 A 
ATOM      9  C   UNL     1       6.093 -18.211   7.430  1.00  0.00     0.094 A 
ATOM     10  C   UNL     1       5.142 -17.351   6.877  1.00  0.00     0.146 A 
ATOM     11  O   UNL     1       5.288 -16.043   7.059  1.00  0.00    -0.452 OA
ENDROOT
BRANCH   1  12
ATOM     12  C   UNL     1       4.715 -13.710   6.857  1.00  0.00     0.025 A 
ATOM     13  C   UNL     1       5.364 -12.911   5.903  1.00  0.00     0.016 A 
ATOM     14  C   UNL     1       5.637 -11.567   6.173  1.00  0.00     0.051 A 
ATOM     15  C   UNL     1       5.278 -11.008   7.406  1.00  0.00     0.157 A 
ATOM     16  C   UNL     1       4.375 -13.150   8.102  1.00  0.00     0.062 A 
ATOM     17  C   UNL     1       4.648 -11.805   8.376  1.00  0.00     0.158 A 
BRANCH  15  18
ATOM     18  O   UNL     1       5.549  -9.666   7.672  1.00  0.00    -0.504 OA
ATOM     19  H   UNL     1       6.487  -9.348   7.889  1.00  0.00     0.293 HD
ENDBRANCH  15  18
BRANCH  17  20
ATOM     20  O   UNL     1       4.292 -11.281   9.618  1.00  0.00    -0.504 OA
ATOM     21  H   UNL     1       4.652 -10.395   9.953  1.00  0.00     0.293 HD
ENDBRANCH  17  20
ENDBRANCH   1  12
BRANCH   2  22
ATOM     22  O   UNL     1       2.558 -14.600   5.139  1.00  0.00    -0.502 OA
ATOM     23  H   UNL     1       2.382 -13.690   5.548  1.00  0.00     0.293 HD
ENDBRANCH   2  22
BRANCH   6  24
ATOM     24  O   UNL     1       2.829 -19.913   5.400  1.00  0.00    -0.507 OA
ATOM     25  H   UNL     1       1.898 -19.953   5.786  1.00  0.00     0.293 HD
ENDBRANCH   6  24
BRANCH   8  26
ATOM     26  O   UNL     1       6.942 -20.453   7.787  1.00  0.00    -0.508 OA
ATOM     27  H   UNL     1       6.944 -20.698   8.770  1.00  0.00     0.293 HD
ENDBRANCH   8  26
TORSDOF 6
ENDMDL
MODEL 3
REMARK VINA RESULT:    -6.150      2.003      7.142
REMARK INTER + INTRA:          -7.502
REMARK INTER:                  -7.276
REMARK INTRA:                  -0.226
REMARK UNBOUND:                -0.094
REMARK SMILES O=c1c(O)c(-c2ccc(O)c(O)c2)oc2cc(O)cc(O)c12
REMARK SMILES IDX 5 1 3 2 2 3 1 4 22 5 20 6 19 7 17 8 16 9 15 10 14 11 6 12
REMARK SMILES IDX 7 13 8 14 9 15 13 16 11 17 10 18 12 20 4 22 21 24 18 26
REMARK H PARENT 10 19 12 21 4 23 21 25 18 27
REMARK Flexibility Score: inf
ROOT
ATOM      1  C   UNL     1       5.099 -18.508   6.712  1.00  0.00     0.180 A 
ATOM      2  C   UNL     1       5.880 -18.197   7.839  1.00  0.00     0.208 A 
ATOM      3  C   UNL     1       5.978 -16.859   8.251  1.00  0.00     0.238 A 
ATOM      4  O   UNL     1       6.724 -16.580   9.228  1.00  0.00    -0.285 OA
ATOM      5  C   UNL     1       5.282 -15.850   7.544  1.00  0.00     0.111 A 
ATOM      6  C   UNL     1       5.277 -14.467   7.897  1.00  0.00     0.134 A 
ATOM      7  C   UNL     1       4.658 -13.540   7.050  1.00  0.00     0.093 A 
ATOM      8  C   UNL     1       3.990 -13.951   5.898  1.00  0.00     0.123 A 
ATOM      9  C   UNL     1       3.938 -15.307   5.574  1.00  0.00     0.094 A 
ATOM     10  C   UNL     1       4.575 -16.252   6.381  1.00  0.00     0.146 A 
ATOM     11  O   UNL     1       4.511 -17.531   6.031  1.00  0.00    -0.452 OA
ENDROOT
BRANCH   1  12
ATOM     12  C   UNL     1       4.927 -19.898   6.231  1.00  0.00     0.025 A 
ATOM     13  C   UNL     1       3.707 -20.557   6.447  1.00  0.00     0.016 A 
ATOM     14  C   UNL     1       3.530 -21.876   6.021  1.00  0.00     0.051 A 
ATOM     15  C   UNL     1       4.575 -22.559   5.386  1.00  0.00     0.157 A 
ATOM     16  C   UNL     1       5.981 -20.594   5.612  1.00  0.00     0.062 A 
ATOM     17  C   UNL     1       5.808 -21.915   5.185  1.00  0.00     0.158 A 
BRANCH  15  18
ATOM     18  O   UNL     1       4.396 -23.875   4.959  1.00  0.00    -0.504 OA
ATOM     19  H   UNL     1       4.473 -24.130   3.982  1.00  0.00     0.293 HD
ENDBRANCH  15  18
BRANCH  17  20
ATOM     20  O   UNL     1       6.872 -22.573   4.570  1.00  0.00    -0.504 OA
ATOM     21  H   UNL     1       6.749 -23.446   4.068  1.00  0.00     0.293 HD
ENDBRANCH  17  20
ENDBRANCH   1  12
BRANCH   2  22
ATOM     22  O   UNL     1       6.578 -19.205   8.509  1.00  0.00    -0.502 OA
ATOM     23  H   UNL     1       6.778 -20.103   8.086  1.00  0.00     0.293 HD
ENDBRANCH   2  22
BRANCH   6  24
ATOM     24  O   UNL     1       5.836 -13.961   9.074  1.00  0.00    -0.507 OA
ATOM     25  H   UNL     1       5.853 -14.446   9.958  1.00  0.00     0.293 HD
ENDBRANCH   6  24
BRANCH   8  26
ATOM     26  O   UNL     1       3.372 -13.001   5.086  1.00  0.00    -0.508 OA
ATOM     27  H   UNL     1       3.197 -13.178   4.104  1.00  0.00     0.293 HD
ENDBRANCH   8  26
TORSDOF 6
ENDMDL
MODEL 4
REMARK VINA RESULT:    -5.996      2.873      4.088
REMARK INTER + INTRA:          -7.317
REMARK INTER:                  -7.218
REMARK INTRA:                  -0.099
REMARK UNBOUND:                -0.094
REMARK SMILES O=c1c(O)c(-c2ccc(O)c(O)c2)oc2cc(O)cc(O)c12
REMARK SMILES IDX 5 1 3 2 2 3 1 4 22 5 20 6 19 7 17 8 16 9 15 10 14 11 6 12
REMARK SMILES IDX 7 13 8 14 9 15 13 16 11 17 10 18 12 20 4 22 21 24 18 26
REMARK H PARENT 10 19 12 21 4 23 21 25 18 27
REMARK Flexibility Score: inf
ROOT
ATOM      1  C   UNL     1       3.662 -14.016   7.795  1.00  0.00     0.180 A 
ATOM      2  C   UNL     1       4.239 -13.633   6.572  1.00  0.00     0.208 A 
ATOM      3  C   UNL     1       5.124 -14.515   5.931  1.00  0.00     0.238 A 
ATOM      4  O   UNL     1       5.681 -14.144   4.864  1.00  0.00    -0.285 OA
ATOM      5  C   UNL     1       5.408 -15.775   6.511  1.00  0.00     0.111 A 
ATOM      6  C   UNL     1       6.257 -16.763   5.929  1.00  0.00     0.134 A 
ATOM      7  C   UNL     1       6.568 -17.920   6.654  1.00  0.00     0.093 A 
ATOM      8  C   UNL     1       6.011 -18.155   7.910  1.00  0.00     0.123 A 
ATOM      9  C   UNL     1       5.132 -17.222   8.463  1.00  0.00     0.094 A 
ATOM     10  C   UNL     1       4.830 -16.043   7.779  1.00  0.00     0.146 A 
ATOM     11  O   UNL     1       3.998 -15.177   8.346  1.00  0.00    -0.452 OA
ENDROOT
BRANCH   1  12
ATOM     12  C   UNL     1       2.701 -13.152   8.517  1.00  0.00     0.025 A 
ATOM     13  C   UNL     1       3.113 -11.888   8.968  1.00  0.00     0.016 A 
ATOM     14  C   UNL     1       2.229 -11.065   9.671  1.00  0.00     0.051 A 
ATOM     15  C   UNL     1       0.926 -11.498   9.945  1.00  0.00     0.157 A 
ATOM     16  C   UNL     1       1.398 -13.592   8.813  1.00  0.00     0.062 A 
ATOM     17  C   UNL     1       0.511 -12.771   9.517  1.00  0.00     0.158 A 
BRANCH  15  18
ATOM     18  O   UNL     1       0.045 -10.674  10.644  1.00  0.00    -0.504 OA
ATOM     19  H   UNL     1      -0.106  -9.709  10.373  1.00  0.00     0.293 HD
ENDBRANCH  15  18
BRANCH  17  20
ATOM     20  O   UNL     1      -0.775 -13.237   9.787  1.00  0.00    -0.504 OA
ATOM     21  H   UNL     1      -1.028 -13.631  10.686  1.00  0.00     0.293 HD
ENDBRANCH  17  20
ENDBRANCH   1  12
BRANCH   2  22
ATOM     22  O   UNL     1       3.964 -12.376   6.027  1.00  0.00    -0.502 OA
ATOM     23  H   UNL     1       4.453 -12.015   5.218  1.00  0.00     0.293 HD
ENDBRANCH   2  22
BRANCH   6  24
ATOM     24  O   UNL     1       6.794 -16.671   4.642  1.00  0.00    -0.507 OA
ATOM     25  H   UNL     1       6.291 -16.879   3.793  1.00  0.00     0.293 HD
ENDBRANCH   6  24
BRANCH   8  26
ATOM     26  O   UNL     1       6.331 -19.325   8.596  1.00  0.00    -0.508 OA
ATOM     27  H   UNL     1       6.326 -19.363   9.609  1.00  0.00     0.293 HD
ENDBRANCH   8  26
TORSDOF 6
ENDMDL
MODEL 5
REMARK VINA RESULT:    -5.948      1.759      7.163
REMARK INTER + INTRA:          -7.259
REMARK INTER:                  -7.096
REMARK INTRA:                  -0.163
REMARK UNBOUND:                -0.094
REMARK SMILES O=c1c(O)c(-c2ccc(O)c(O)c2)oc2cc(O)cc(O)c12
REMARK SMILES IDX 5 1 3 2 2 3 1 4 22 5 20 6 19 7 17 8 16 9 15 10 14 11 6 12
REMARK SMILES IDX 7 13 8 14 9 15 13 16 11 17 10 18 12 20 4 22 21 24 18 26
REMARK H PARENT 10 19 12 21 4 23 21 25 18 27
REMARK Flexibility Score: inf
ROOT
ATOM      1  C   UNL     1       4.201 -15.094   7.728  1.00  0.00     0.180 A 
ATOM      2  C   UNL     1       3.066 -14.622   8.410  1.00  0.00     0.208 A 
ATOM      3  C   UNL     1       2.803 -13.243   8.421  1.00  0.00     0.238 A 
ATOM      4  O   UNL     1       1.816 -12.821   9.081  1.00  0.00    -0.285 OA
ATOM      5  C   UNL     1       3.667 -12.354   7.737  1.00  0.00     0.111 A 
ATOM      6  C   UNL     1       3.475 -10.944   7.649  1.00  0.00     0.134 A 
ATOM      7  C   UNL     1       4.463 -10.147   7.056  1.00  0.00     0.093 A 
ATOM      8  C   UNL     1       5.604 -10.716   6.493  1.00  0.00     0.123 A 
ATOM      9  C   UNL     1       5.774 -12.101   6.521  1.00  0.00     0.094 A 
ATOM     10  C   UNL     1       4.823 -12.918   7.136  1.00  0.00     0.146 A 
ATOM     11  O   UNL     1       5.028 -14.230   7.151  1.00  0.00    -0.452 OA
ENDROOT
BRANCH   1  12
ATOM     12  C   UNL     1       4.531 -16.536   7.650  1.00  0.00     0.025 A 
ATOM     13  C   UNL     1       5.759 -16.991   8.153  1.00  0.00     0.016 A 
ATOM     14  C   UNL     1       6.100 -18.344   8.071  1.00  0.00     0.051 A 
ATOM     15  C   UNL     1       5.224 -19.258   7.472  1.00  0.00     0.157 A 
ATOM     16  C   UNL     1       3.663 -17.453   7.030  1.00  0.00     0.062 A 
ATOM     17  C   UNL     1       4.001 -18.808   6.945  1.00  0.00     0.158 A 
BRANCH  15  18
ATOM     18  O   UNL     1       5.565 -20.608   7.392  1.00  0.00    -0.504 OA
ATOM     19  H   UNL     1       6.456 -20.950   7.733  1.00  0.00     0.293 HD
ENDBRANCH  15  18
BRANCH  17  20
ATOM     20  O   UNL     1       3.115 -19.690   6.329  1.00  0.00    -0.504 OA
ATOM     21  H   UNL     1       3.205 -19.952   5.354  1.00  0.00     0.293 HD
ENDBRANCH  17  20
ENDBRANCH   1  12
BRANCH   2  22
ATOM     22  O   UNL     1       2.238 -15.514   9.098  1.00  0.00    -0.502 OA
ATOM     23  H   UNL     1       1.304 -15.266   9.400  1.00  0.00     0.293 HD
ENDBRANCH   2  22
BRANCH   6  24
ATOM     24  O   UNL     1       2.328 -10.282   8.098  1.00  0.00    -0.507 OA
ATOM     25  H   UNL     1       2.208  -9.906   9.027  1.00  0.00     0.293 HD
ENDBRANCH   6  24
BRANCH   8  26
ATOM     26  O   UNL     1       6.559  -9.895   5.898  1.00  0.00    -0.508 OA
ATOM     27  H   UNL     1       6.925 -10.091   4.973  1.00  0.00     0.293 HD
ENDBRANCH   8  26
TORSDOF 6
ENDMDL
MODEL 6
REMARK VINA RESULT:    -5.870      1.868      7.156
REMARK INTER + INTRA:          -7.165
REMARK INTER:                  -6.882
REMARK INTRA:                  -0.283
REMARK UNBOUND:                -0.094
REMARK SMILES O=c1c(O)c(-c2ccc(O)c(O)c2)oc2cc(O)cc(O)c12
REMARK SMILES IDX 5 1 3 2 2 3 1 4 22 5 20 6 19 7 17 8 16 9 15 10 14 11 6 12
REMARK SMILES IDX 7 13 8 14 9 15 13 16 11 17 10 18 12 20 4 22 21 24 18 26
REMARK H PARENT 10 19 12 21 4 23 21 25 18 27
REMARK Flexibility Score: inf
ROOT
ATOM      1  C   UNL     1       5.222 -16.321   6.750  1.00  0.00     0.180 A 
ATOM      2  C   UNL     1       5.732 -15.765   5.565  1.00  0.00     0.208 A 
ATOM      3  C   UNL     1       5.775 -14.368   5.431  1.00  0.00     0.238 A 
ATOM      4  O   UNL     1       6.181 -13.877   4.344  1.00  0.00    -0.285 OA
ATOM      5  C   UNL     1       5.323 -13.544   6.489  1.00  0.00     0.111 A 
ATOM      6  C   UNL     1       5.357 -12.118   6.479  1.00  0.00     0.134 A 
ATOM      7  C   UNL     1       4.764 -11.404   7.527  1.00  0.00     0.093 A 
ATOM      8  C   UNL     1       4.196 -12.064   8.616  1.00  0.00     0.123 A 
ATOM      9  C   UNL     1       4.209 -13.458   8.665  1.00  0.00     0.094 A 
ATOM     10  C   UNL     1       4.762 -14.198   7.617  1.00  0.00     0.146 A 
ATOM     11  O   UNL     1       4.745 -15.523   7.699  1.00  0.00    -0.452 OA
ENDROOT
BRANCH   1  12
ATOM     12  C   UNL     1       5.168 -17.784   6.975  1.00  0.00     0.025 A 
ATOM     13  C   UNL     1       6.164 -18.401   7.748  1.00  0.00     0.016 A 
ATOM     14  C   UNL     1       6.144 -19.782   7.955  1.00  0.00     0.051 A 
ATOM     15  C   UNL     1       5.138 -20.569   7.381  1.00  0.00     0.157 A 
ATOM     16  C   UNL     1       4.171 -18.580   6.383  1.00  0.00     0.062 A 
ATOM     17  C   UNL     1       4.149 -19.963   6.587  1.00  0.00     0.158 A 
BRANCH  15  18
ATOM     18  O   UNL     1       5.119 -21.947   7.591  1.00  0.00    -0.504 OA
ATOM     19  H   UNL     1       5.518 -22.362   8.425  1.00  0.00     0.293 HD
ENDBRANCH  15  18
BRANCH  17  20
ATOM     20  O   UNL     1       3.142 -20.721   5.989  1.00  0.00    -0.504 OA
ATOM     21  H   UNL     1       2.177 -20.412   5.965  1.00  0.00     0.293 HD
ENDBRANCH  17  20
ENDBRANCH   1  12
BRANCH   2  22
ATOM     22  O   UNL     1       6.152 -16.596   4.522  1.00  0.00    -0.502 OA
ATOM     23  H   UNL     1       7.099 -16.581   4.162  1.00  0.00     0.293 HD
ENDBRANCH   2  22
BRANCH   6  24
ATOM     24  O   UNL     1       5.981 -11.360   5.483  1.00  0.00    -0.507 OA
ATOM     25  H   UNL     1       6.774 -11.666   4.940  1.00  0.00     0.293 HD
ENDBRANCH   6  24
BRANCH   8  26
ATOM     26  O   UNL     1       3.628 -11.321   9.650  1.00  0.00    -0.508 OA
ATOM     27  H   UNL     1       4.097 -10.512  10.040  1.00  0.00     0.293 HD
ENDBRANCH   8  26
TORSDOF 6
ENDMDL
MODEL 7
REMARK VINA RESULT:    -5.867      2.393      3.223
REMARK INTER + INTRA:          -7.162
REMARK INTER:                  -7.119
REMARK INTRA:                  -0.043
REMARK UNBOUND:                -0.094
REMARK SMILES O=c1c(O)c(-c2ccc(O)c(O)c2)oc2cc(O)cc(O)c12
REMARK SMILES IDX 5 1 3 2 2 3 1 4 22 5 20 6 19 7 17 8 16 9 15 10 14 11 6 12
REMARK SMILES IDX 7 13 8 14 9 15 13 16 11 17 10 18 12 20 4 22 21 24 18 26
REMARK H PARENT 10 19 12 21 4 23 21 25 18 27
REMARK Flexibility Score: inf
ROOT
ATOM      1  C   UNL     1       5.541 -16.045   6.052  1.00  0.00     0.180 A 
ATOM      2  C   UNL     1       6.110 -16.209   4.778  1.00  0.00     0.208 A 
ATOM      3  C   UNL     1       6.328 -17.508   4.291  1.00  0.00     0.238 A 
ATOM      4  O   UNL     1       6.890 -17.648   3.172  1.00  0.00    -0.285 OA
ATOM      5  C   UNL     1       5.959 -18.626   5.076  1.00  0.00     0.111 A 
ATOM      6  C   UNL     1       6.097 -19.986   4.666  1.00  0.00     0.134 A 
ATOM      7  C   UNL     1       5.819 -21.014   5.576  1.00  0.00     0.093 A 
ATOM      8  C   UNL     1       5.348 -20.733   6.858  1.00  0.00     0.123 A 
ATOM      9  C   UNL     1       5.153 -19.408   7.249  1.00  0.00     0.094 A 
ATOM     10  C   UNL     1       5.455 -18.360   6.375  1.00  0.00     0.146 A 
ATOM     11  O   UNL     1       5.265 -17.114   6.791  1.00  0.00    -0.452 OA
ENDROOT
BRANCH   1  12
ATOM     12  C   UNL     1       5.257 -14.709   6.623  1.00  0.00     0.025 A 
ATOM     13  C   UNL     1       5.684 -14.410   7.926  1.00  0.00     0.016 A 
ATOM     14  C   UNL     1       5.409 -13.162   8.492  1.00  0.00     0.051 A 
ATOM     15  C   UNL     1       4.691 -12.201   7.769  1.00  0.00     0.157 A 
ATOM     16  C   UNL     1       4.519 -13.748   5.908  1.00  0.00     0.062 A 
ATOM     17  C   UNL     1       4.241 -12.499   6.472  1.00  0.00     0.158 A 
BRANCH  15  18
ATOM     18  O   UNL     1       4.419 -10.956   8.335  1.00  0.00    -0.504 OA
ATOM     19  H   UNL     1       5.100 -10.476   8.912  1.00  0.00     0.293 HD
ENDBRANCH  15  18
BRANCH  17  20
ATOM     20  O   UNL     1       3.511 -11.569   5.732  1.00  0.00    -0.504 OA
ATOM     21  H   UNL     1       2.635 -11.183   6.065  1.00  0.00     0.293 HD
ENDBRANCH  17  20
ENDBRANCH   1  12
BRANCH   2  22
ATOM     22  O   UNL     1       6.489 -15.092   4.028  1.00  0.00    -0.502 OA
ATOM     23  H   UNL     1       6.734 -15.152   3.047  1.00  0.00     0.293 HD
ENDBRANCH   2  22
BRANCH   6  24
ATOM     24  O   UNL     1       6.473 -20.379   3.378  1.00  0.00    -0.507 OA
ATOM     25  H   UNL     1       6.912 -19.776   2.699  1.00  0.00     0.293 HD
ENDBRANCH   6  24
BRANCH   8  26
ATOM     26  O   UNL     1       5.067 -21.781   7.732  1.00  0.00    -0.508 OA
ATOM     27  H   UNL     1       5.382 -21.767   8.694  1.00  0.00     0.293 HD
ENDBRANCH   8  26
TORSDOF 6
ENDMDL
MODEL 8
REMARK VINA RESULT:    -5.845      2.818      7.054
REMARK INTER + INTRA:          -7.136
REMARK INTER:                  -7.072
REMARK INTRA:                  -0.063
REMARK UNBOUND:                -0.094
REMARK SMILES O=c1c(O)c(-c2ccc(O)c(O)c2)oc2cc(O)cc(O)c12
REMARK SMILES IDX 5 1 3 2 2 3 1 4 22 5 20 6 19 7 17 8 16 9 15 10 14 11 6 12
REMARK SMILES IDX 7 13 8 14 9 15 13 16 11 17 10 18 12 20 4 22 21 24 18 26
REMARK H PARENT 10 19 12 21 4 23 21 25 18 27
REMARK Flexibility Score: inf
ROOT
ATOM      1  C   UNL     1       3.735 -14.454   8.397  1.00  0.00     0.180 A 
ATOM      2  C   UNL     1       4.328 -13.240   8.009  1.00  0.00     0.208 A 
ATOM      3  C   UNL     1       3.613 -12.045   8.188  1.00  0.00     0.238 A 
ATOM      4  O   UNL     1       4.126 -10.967   7.788  1.00  0.00    -0.285 OA
ATOM      5  C   UNL     1       2.321 -12.076   8.768  1.00  0.00     0.111 A 
ATOM      6  C   UNL     1       1.524 -10.924   9.034  1.00  0.00     0.134 A 
ATOM      7  C   UNL     1       0.209 -11.083   9.490  1.00  0.00     0.093 A 
ATOM      8  C   UNL     1      -0.314 -12.349   9.752  1.00  0.00     0.123 A 
ATOM      9  C   UNL     1       0.479 -13.480   9.552  1.00  0.00     0.094 A 
ATOM     10  C   UNL     1       1.781 -13.355   9.064  1.00  0.00     0.146 A 
ATOM     11  O   UNL     1       2.497 -14.458   8.877  1.00  0.00    -0.452 OA
ENDROOT
BRANCH   1  12
ATOM     12  C   UNL     1       4.436 -15.751   8.262  1.00  0.00     0.025 A 
ATOM     13  C   UNL     1       5.693 -15.923   8.864  1.00  0.00     0.016 A 
ATOM     14  C   UNL     1       6.382 -17.131   8.732  1.00  0.00     0.051 A 
ATOM     15  C   UNL     1       5.831 -18.180   7.985  1.00  0.00     0.157 A 
ATOM     16  C   UNL     1       3.896 -16.800   7.496  1.00  0.00     0.062 A 
ATOM     17  C   UNL     1       4.584 -18.011   7.360  1.00  0.00     0.158 A 
BRANCH  15  18
ATOM     18  O   UNL     1       6.519 -19.387   7.857  1.00  0.00    -0.504 OA
ATOM     19  H   UNL     1       6.035 -20.277   7.869  1.00  0.00     0.293 HD
ENDBRANCH  15  18
BRANCH  17  20
ATOM     20  O   UNL     1       4.016 -19.031   6.598  1.00  0.00    -0.504 OA
ATOM     21  H   UNL     1       4.305 -19.998   6.691  1.00  0.00     0.293 HD
ENDBRANCH  17  20
ENDBRANCH   1  12
BRANCH   2  22
ATOM     22  O   UNL     1       5.594 -13.233   7.417  1.00  0.00    -0.502 OA
ATOM     23  H   UNL     1       5.854 -12.571   6.697  1.00  0.00     0.293 HD
ENDBRANCH   2  22
BRANCH   6  24
ATOM     24  O   UNL     1       1.980  -9.610   8.894  1.00  0.00    -0.507 OA
ATOM     25  H   UNL     1       2.442  -9.246   8.074  1.00  0.00     0.293 HD
ENDBRANCH   6  24
BRANCH   8  26
ATOM     26  O   UNL     1      -1.621 -12.469  10.220  1.00  0.00    -0.508 OA
ATOM     27  H   UNL     1      -1.835 -12.988  11.063  1.00  0.00     0.293 HD
ENDBRANCH   8  26
TORSDOF 6
ENDMDL
MODEL 9
REMARK VINA RESULT:    -5.761      2.995      7.646
REMARK INTER + INTRA:          -7.035
REMARK INTER:                  -7.074
REMARK INTRA:                   0.039
REMARK UNBOUND:                -0.094
REMARK SMILES O=c1c(O)c(-c2ccc(O)c(O)c2)oc2cc(O)cc(O)c12
REMARK SMILES IDX 5 1 3 2 2 3 1 4 22 5 20 6 19 7 17 8 16 9 15 10 14 11 6 12
REMARK SMILES IDX 7 13 8 14 9 15 13 16 11 17 10 18 12 20 4 22 21 24 18 26
REMARK H PARENT 10 19 12 21 4 23 21 25 18 27
REMARK Flexibility Score: inf
ROOT
ATOM      1  C   UNL     1       5.141 -19.174   5.741  1.00  0.00     0.180 A 
ATOM      2  C   UNL     1       3.812 -19.399   6.139  1.00  0.00     0.208 A 
ATOM      3  C   UNL     1       3.195 -18.480   7.003  1.00  0.00     0.238 A 
ATOM      4  O   UNL     1       2.023 -18.716   7.400  1.00  0.00    -0.285 OA
ATOM      5  C   UNL     1       3.908 -17.340   7.446  1.00  0.00     0.111 A 
ATOM      6  C   UNL     1       3.370 -16.324   8.290  1.00  0.00     0.134 A 
ATOM      7  C   UNL     1       4.207 -15.308   8.769  1.00  0.00     0.093 A 
ATOM      8  C   UNL     1       5.545 -15.237   8.385  1.00  0.00     0.123 A 
ATOM      9  C   UNL     1       6.067 -16.192   7.512  1.00  0.00     0.094 A 
ATOM     10  C   UNL     1       5.266 -17.236   7.045  1.00  0.00     0.146 A 
ATOM     11  O   UNL     1       5.805 -18.131   6.225  1.00  0.00    -0.452 OA
ENDROOT
BRANCH   1  12
ATOM     12  C   UNL     1       5.850 -20.084   4.812  1.00  0.00     0.025 A 
ATOM     13  C   UNL     1       6.489 -19.555   3.681  1.00  0.00     0.016 A 
ATOM     14  C   UNL     1       7.146 -20.398   2.780  1.00  0.00     0.051 A 
ATOM     15  C   UNL     1       7.160 -21.782   2.990  1.00  0.00     0.157 A 
ATOM     16  C   UNL     1       5.848 -21.478   5.008  1.00  0.00     0.062 A 
ATOM     17  C   UNL     1       6.503 -22.324   4.108  1.00  0.00     0.158 A 
BRANCH  15  18
ATOM     18  O   UNL     1       7.818 -22.621   2.090  1.00  0.00    -0.504 OA
ATOM     19  H   UNL     1       7.421 -22.842   1.185  1.00  0.00     0.293 HD
ENDBRANCH  15  18
BRANCH  17  20
ATOM     20  O   UNL     1       6.487 -23.699   4.336  1.00  0.00    -0.504 OA
ATOM     21  H   UNL     1       5.731 -24.291   4.009  1.00  0.00     0.293 HD
ENDBRANCH  17  20
ENDBRANCH   1  12
BRANCH   2  22
ATOM     22  O   UNL     1       3.133 -20.542   5.709  1.00  0.00    -0.502 OA
ATOM     23  H   UNL     1       2.972 -20.744   4.729  1.00  0.00     0.293 HD
ENDBRANCH   2  22
BRANCH   6  24
ATOM     24  O   UNL     1       2.024 -16.249   8.661  1.00  0.00    -0.507 OA
ATOM     25  H   UNL     1       1.338 -16.967   8.482  1.00  0.00     0.293 HD
ENDBRANCH   6  24
BRANCH   8  26
ATOM     26  O   UNL     1       6.345 -14.204   8.869  1.00  0.00    -0.508 OA
ATOM     27  H   UNL     1       6.440 -14.029   9.863  1.00  0.00     0.293 HD
ENDBRANCH   8  26
TORSDOF 6
ENDMDL
