MODEL 1
REMARK VINA RESULT:    -2.658      0.000      0.000
REMARK INTER + INTRA:          -9.781
REMARK INTER:                  -7.008
REMARK INTRA:                  -2.772
REMARK UNBOUND:                -2.772
REMARK SMILES CCCCCCCCCCCCCCCCCCCCCCCCCCCCCC(=O)[O-]
REMARK SMILES IDX 16 1 17 2 18 3 19 4 20 5 21 6 22 7 23 8 24 9 25 10 26 11
REMARK SMILES IDX 27 12 28 13 29 14 30 15 31 16 32 17 15 18 14 19 13 20 12 21
REMARK SMILES IDX 11 22 10 23 9 24 8 25 7 26 6 27 5 28 4 29 3 30 2 31 1 32
REMARK H PARENT
REMARK Flexibility Score: inf
ROOT
ATOM      1  C   UNL     1      -1.470  11.116 -37.471  1.00  0.00     0.000 C 
ENDROOT
BRANCH   1   2
ATOM      2  C   UNL     1      -0.782  12.471 -37.225  1.00  0.00     0.000 C 
BRANCH   2   3
ATOM      3  C   UNL     1       0.744  12.415 -37.411  1.00  0.00     0.000 C 
BRANCH   3   4
ATOM      4  C   UNL     1       1.215  13.111 -38.701  1.00  0.00     0.000 C 
BRANCH   4   5
ATOM      5  C   UNL     1       1.785  12.172 -39.784  1.00  0.00     0.000 C 
BRANCH   5   6
ATOM      6  C   UNL     1       2.550  12.874 -40.919  1.00  0.00     0.000 C 
BRANCH   6   7
ATOM      7  C   UNL     1       2.864  11.938 -42.096  1.00  0.00     0.000 C 
BRANCH   7   8
ATOM      8  C   UNL     1       2.597  10.472 -41.723  1.00  0.00     0.000 C 
BRANCH   8   9
ATOM      9  C   UNL     1       1.568   9.800 -42.648  1.00  0.00     0.000 C 
BRANCH   9  10
ATOM     10  C   UNL     1       0.697   8.768 -41.917  1.00  0.00     0.000 C 
BRANCH  10  11
ATOM     11  C   UNL     1       0.949   7.353 -42.460  1.00  0.00     0.000 C 
BRANCH  11  12
ATOM     12  C   UNL     1       0.447   6.255 -41.508  1.00  0.00     0.000 C 
BRANCH  12  13
ATOM     13  C   UNL     1       1.523   5.197 -41.207  1.00  0.00     0.006 C 
BRANCH  13  14
ATOM     14  C   UNL     1       2.697   5.263 -42.195  1.00  0.00     0.053 C 
BRANCH  14  15
ATOM     15  C   UNL     1       4.029   5.251 -41.505  1.00  0.00     0.041 C 
ATOM     16  O   UNL     1       4.227   5.961 -40.484  1.00  0.00    -0.550 OA
ATOM     17  O   UNL     1       5.044   4.426 -41.972  1.00  0.00    -0.550 OA
ENDBRANCH  14  15
ENDBRANCH  13  14
ENDBRANCH  12  13
ENDBRANCH  11  12
ENDBRANCH  10  11
ENDBRANCH   9  10
ENDBRANCH   8   9
ENDBRANCH   7   8
ENDBRANCH   6   7
ENDBRANCH   5   6
ENDBRANCH   4   5
ENDBRANCH   3   4
ENDBRANCH   2   3
ENDBRANCH   1   2
BRANCH   1  18
ATOM     18  C   UNL     1      -0.889  10.285 -38.631  1.00  0.00     0.000 C 
BRANCH  18  19
ATOM     19  C   UNL     1      -1.036   8.771 -38.419  1.00  0.00     0.000 C 
BRANCH  19  20
ATOM     20  C   UNL     1      -1.967   8.156 -39.476  1.00  0.00     0.000 C 
BRANCH  20  21
ATOM     21  C   UNL     1      -2.807   9.208 -40.222  1.00  0.00     0.000 C 
BRANCH  21  22
ATOM     22  C   UNL     1      -4.280   9.300 -39.785  1.00  0.00     0.000 C 
BRANCH  22  23
ATOM     23  C   UNL     1      -4.526   8.727 -38.379  1.00  0.00     0.000 C 
BRANCH  23  24
ATOM     24  C   UNL     1      -5.996   8.850 -37.946  1.00  0.00    -0.000 C 
BRANCH  24  25
ATOM     25  C   UNL     1      -6.874   9.520 -39.019  1.00  0.00    -0.000 C 
BRANCH  25  26
ATOM     26  C   UNL     1      -7.900   8.550 -39.625  1.00  0.00    -0.000 C 
BRANCH  26  27
ATOM     27  C   UNL     1      -7.355   7.116 -39.745  1.00  0.00    -0.000 C 
BRANCH  27  28
ATOM     28  C   UNL     1      -7.316   6.617 -41.198  1.00  0.00    -0.000 C 
BRANCH  28  29
ATOM     29  C   UNL     1      -8.080   5.295 -41.390  1.00  0.00    -0.000 C 
BRANCH  29  30
ATOM     30  C   UNL     1      -8.465   4.646 -40.044  1.00  0.00    -0.000 C 
BRANCH  30  31
ATOM     31  C   UNL     1      -9.614   3.632 -40.161  1.00  0.00    -0.003 C 
ATOM     32  C   UNL     1      -9.688   2.973 -41.537  1.00  0.00     0.004 C 
ENDBRANCH  30  31
ENDBRANCH  29  30
ENDBRANCH  28  29
ENDBRANCH  27  28
ENDBRANCH  26  27
ENDBRANCH  25  26
ENDBRANCH  24  25
ENDBRANCH  23  24
ENDBRANCH  22  23
ENDBRANCH  21  22
ENDBRANCH  20  21
ENDBRANCH  19  20
ENDBRANCH  18  19
ENDBRANCH   1  18
TORSDOF 28
ENDMDL
MODEL 2
REMARK VINA RESULT:    -2.628      3.334      8.383
REMARK INTER + INTRA:          -9.703
REMARK INTER:                  -6.673
REMARK INTRA:                  -3.030
REMARK UNBOUND:                -2.772
REMARK SMILES CCCCCCCCCCCCCCCCCCCCCCCCCCCCCC(=O)[O-]
REMARK SMILES IDX 16 1 17 2 18 3 19 4 20 5 21 6 22 7 23 8 24 9 25 10 26 11
REMARK SMILES IDX 27 12 28 13 29 14 30 15 31 16 32 17 15 18 14 19 13 20 12 21
REMARK SMILES IDX 11 22 10 23 9 24 8 25 7 26 6 27 5 28 4 29 3 30 2 31 1 32
REMARK H PARENT
REMARK Flexibility Score: inf
ROOT
ATOM      1  C   UNL     1      -0.598  12.955 -37.671  1.00  0.00     0.000 C 
ENDROOT
BRANCH   1   2
ATOM      2  C   UNL     1      -1.368  13.228 -36.365  1.00  0.00     0.000 C 
BRANCH   2   3
ATOM      3  C   UNL     1      -2.076  11.980 -35.812  1.00  0.00     0.000 C 
BRANCH   3   4
ATOM      4  C   UNL     1      -2.803  11.173 -36.902  1.00  0.00     0.000 C 
BRANCH   4   5
ATOM      5  C   UNL     1      -2.261   9.748 -37.138  1.00  0.00     0.000 C 
BRANCH   5   6
ATOM      6  C   UNL     1      -1.770   9.465 -38.569  1.00  0.00     0.000 C 
BRANCH   6   7
ATOM      7  C   UNL     1      -2.744   8.591 -39.372  1.00  0.00     0.000 C 
BRANCH   7   8
ATOM      8  C   UNL     1      -3.616   9.445 -40.303  1.00  0.00     0.000 C 
BRANCH   8   9
ATOM      9  C   UNL     1      -5.034   9.669 -39.752  1.00  0.00     0.000 C 
BRANCH   9  10
ATOM     10  C   UNL     1      -5.396   8.687 -38.628  1.00  0.00     0.000 C 
BRANCH  10  11
ATOM     11  C   UNL     1      -6.910   8.678 -38.371  1.00  0.00     0.000 C 
BRANCH  11  12
ATOM     12  C   UNL     1      -7.711   8.126 -39.562  1.00  0.00     0.000 C 
BRANCH  12  13
ATOM     13  C   UNL     1      -7.016   6.930 -40.238  1.00  0.00     0.006 C 
BRANCH  13  14
ATOM     14  C   UNL     1      -7.759   5.610 -39.990  1.00  0.00     0.053 C 
BRANCH  14  15
ATOM     15  C   UNL     1      -8.138   4.916 -41.265  1.00  0.00     0.041 C 
ATOM     16  O   UNL     1      -7.762   5.372 -42.377  1.00  0.00    -0.550 OA
ATOM     17  O   UNL     1      -8.881   3.743 -41.222  1.00  0.00    -0.550 OA
ENDBRANCH  14  15
ENDBRANCH  13  14
ENDBRANCH  12  13
ENDBRANCH  11  12
ENDBRANCH  10  11
ENDBRANCH   9  10
ENDBRANCH   8   9
ENDBRANCH   7   8
ENDBRANCH   6   7
ENDBRANCH   5   6
ENDBRANCH   4   5
ENDBRANCH   3   4
ENDBRANCH   2   3
ENDBRANCH   1   2
BRANCH   1  18
ATOM     18  C   UNL     1       0.561  11.947 -37.553  1.00  0.00     0.000 C 
BRANCH  18  19
ATOM     19  C   UNL     1       1.253  11.666 -38.895  1.00  0.00     0.000 C 
BRANCH  19  20
ATOM     20  C   UNL     1       1.626  12.976 -39.605  1.00  0.00     0.000 C 
BRANCH  20  21
ATOM     21  C   UNL     1       2.490  12.755 -40.860  1.00  0.00     0.000 C 
BRANCH  21  22
ATOM     22  C   UNL     1       2.751  11.284 -41.225  1.00  0.00     0.000 C 
BRANCH  22  23
ATOM     23  C   UNL     1       2.124  10.879 -42.571  1.00  0.00     0.000 C 
BRANCH  23  24
ATOM     24  C   UNL     1       1.621   9.427 -42.569  1.00  0.00    -0.000 C 
BRANCH  24  25
ATOM     25  C   UNL     1       0.542   9.177 -41.500  1.00  0.00    -0.000 C 
BRANCH  25  26
ATOM     26  C   UNL     1      -0.239   7.877 -41.748  1.00  0.00    -0.000 C 
BRANCH  26  27
ATOM     27  C   UNL     1       0.017   6.820 -40.661  1.00  0.00    -0.000 C 
BRANCH  27  28
ATOM     28  C   UNL     1       0.271   5.421 -41.243  1.00  0.00    -0.000 C 
BRANCH  28  29
ATOM     29  C   UNL     1       0.925   5.468 -42.635  1.00  0.00    -0.000 C 
BRANCH  29  30
ATOM     30  C   UNL     1       2.384   5.966 -42.574  1.00  0.00    -0.000 C 
BRANCH  30  31
ATOM     31  C   UNL     1       3.110   5.574 -41.278  1.00  0.00    -0.003 C 
ATOM     32  C   UNL     1       4.440   4.865 -41.530  1.00  0.00     0.004 C 
ENDBRANCH  30  31
ENDBRANCH  29  30
ENDBRANCH  28  29
ENDBRANCH  27  28
ENDBRANCH  26  27
ENDBRANCH  25  26
ENDBRANCH  24  25
ENDBRANCH  23  24
ENDBRANCH  22  23
ENDBRANCH  21  22
ENDBRANCH  20  21
ENDBRANCH  19  20
ENDBRANCH  18  19
ENDBRANCH   1  18
TORSDOF 28
ENDMDL
MODEL 3
REMARK VINA RESULT:    -2.525      0.758      2.042
REMARK INTER + INTRA:          -9.430
REMARK INTER:                  -7.901
REMARK INTRA:                  -1.529
REMARK UNBOUND:                -2.772
REMARK SMILES CCCCCCCCCCCCCCCCCCCCCCCCCCCCCC(=O)[O-]
REMARK SMILES IDX 16 1 17 2 18 3 19 4 20 5 21 6 22 7 23 8 24 9 25 10 26 11
REMARK SMILES IDX 27 12 28 13 29 14 30 15 31 16 32 17 15 18 14 19 13 20 12 21
REMARK SMILES IDX 11 22 10 23 9 24 8 25 7 26 6 27 5 28 4 29 3 30 2 31 1 32
REMARK H PARENT
REMARK Flexibility Score: inf
ROOT
ATOM      1  C   UNL     1       0.610  12.395 -37.269  1.00  0.00     0.000 C 
ENDROOT
BRANCH   1   2
ATOM      2  C   UNL     1       1.027  13.203 -38.511  1.00  0.00     0.000 C 
BRANCH   2   3
ATOM      3  C   UNL     1       1.676  12.336 -39.603  1.00  0.00     0.000 C 
BRANCH   3   4
ATOM      4  C   UNL     1       2.396  13.169 -40.678  1.00  0.00     0.000 C 
BRANCH   4   5
ATOM      5  C   UNL     1       3.041  12.354 -41.819  1.00  0.00     0.000 C 
BRANCH   5   6
ATOM      6  C   UNL     1       2.881  10.828 -41.701  1.00  0.00     0.000 C 
BRANCH   6   7
ATOM      7  C   UNL     1       1.613  10.305 -42.392  1.00  0.00     0.000 C 
BRANCH   7   8
ATOM      8  C   UNL     1       1.564   8.771 -42.372  1.00  0.00     0.000 C 
BRANCH   8   9
ATOM      9  C   UNL     1       0.131   8.222 -42.285  1.00  0.00     0.000 C 
BRANCH   9  10
ATOM     10  C   UNL     1      -0.108   7.382 -41.022  1.00  0.00     0.000 C 
BRANCH  10  11
ATOM     11  C   UNL     1       0.337   5.926 -41.237  1.00  0.00     0.000 C 
BRANCH  11  12
ATOM     12  C   UNL     1       0.832   5.663 -42.668  1.00  0.00     0.000 C 
BRANCH  12  13
ATOM     13  C   UNL     1       2.368   5.623 -42.764  1.00  0.00     0.006 C 
BRANCH  13  14
ATOM     14  C   UNL     1       3.027   5.307 -41.413  1.00  0.00     0.053 C 
BRANCH  14  15
ATOM     15  C   UNL     1       4.453   4.866 -41.560  1.00  0.00     0.041 C 
ATOM     16  O   UNL     1       4.856   3.808 -41.008  1.00  0.00    -0.550 OA
ATOM     17  O   UNL     1       5.331   5.608 -42.339  1.00  0.00    -0.550 OA
ENDBRANCH  14  15
ENDBRANCH  13  14
ENDBRANCH  12  13
ENDBRANCH  11  12
ENDBRANCH  10  11
ENDBRANCH   9  10
ENDBRANCH   8   9
ENDBRANCH   7   8
ENDBRANCH   6   7
ENDBRANCH   5   6
ENDBRANCH   4   5
ENDBRANCH   3   4
ENDBRANCH   2   3
ENDBRANCH   1   2
BRANCH   1  18
ATOM     18  C   UNL     1      -0.889  12.452 -36.919  1.00  0.00     0.000 C 
BRANCH  18  19
ATOM     19  C   UNL     1      -1.681  11.254 -37.464  1.00  0.00     0.000 C 
BRANCH  19  20
ATOM     20  C   UNL     1      -0.793  10.366 -38.349  1.00  0.00     0.000 C 
BRANCH  20  21
ATOM     21  C   UNL     1      -1.154   8.872 -38.258  1.00  0.00     0.000 C 
BRANCH  21  22
ATOM     22  C   UNL     1      -2.567   8.508 -38.747  1.00  0.00     0.000 C 
BRANCH  22  23
ATOM     23  C   UNL     1      -3.010   9.331 -39.970  1.00  0.00     0.000 C 
BRANCH  23  24
ATOM     24  C   UNL     1      -4.532   9.539 -40.015  1.00  0.00    -0.000 C 
BRANCH  24  25
ATOM     25  C   UNL     1      -5.278   8.671 -38.985  1.00  0.00    -0.000 C 
BRANCH  25  26
ATOM     26  C   UNL     1      -6.664   9.236 -38.636  1.00  0.00    -0.000 C 
BRANCH  26  27
ATOM     27  C   UNL     1      -7.808   8.363 -39.177  1.00  0.00    -0.000 C 
BRANCH  27  28
ATOM     28  C   UNL     1      -7.325   6.989 -39.666  1.00  0.00    -0.000 C 
BRANCH  28  29
ATOM     29  C   UNL     1      -7.400   6.843 -41.195  1.00  0.00    -0.000 C 
BRANCH  29  30
ATOM     30  C   UNL     1      -7.993   5.484 -41.622  1.00  0.00    -0.000 C 
BRANCH  30  31
ATOM     31  C   UNL     1      -8.431   4.610 -40.436  1.00  0.00    -0.003 C 
ATOM     32  C   UNL     1      -9.444   3.536 -40.830  1.00  0.00     0.004 C 
ENDBRANCH  30  31
ENDBRANCH  29  30
ENDBRANCH  28  29
ENDBRANCH  27  28
ENDBRANCH  26  27
ENDBRANCH  25  26
ENDBRANCH  24  25
ENDBRANCH  23  24
ENDBRANCH  22  23
ENDBRANCH  21  22
ENDBRANCH  20  21
ENDBRANCH  19  20
ENDBRANCH  18  19
ENDBRANCH   1  18
TORSDOF 28
ENDMDL
MODEL 4
REMARK VINA RESULT:    -2.363      3.686      9.473
REMARK INTER + INTRA:          -9.004
REMARK INTER:                  -7.805
REMARK INTRA:                  -1.199
REMARK UNBOUND:                -2.772
REMARK SMILES CCCCCCCCCCCCCCCCCCCCCCCCCCCCCC(=O)[O-]
REMARK SMILES IDX 16 1 17 2 18 3 19 4 20 5 21 6 22 7 23 8 24 9 25 10 26 11
REMARK SMILES IDX 27 12 28 13 29 14 30 15 31 16 32 17 15 18 14 19 13 20 12 21
REMARK SMILES IDX 11 22 10 23 9 24 8 25 7 26 6 27 5 28 4 29 3 30 2 31 1 32
REMARK H PARENT
REMARK Flexibility Score: inf
ROOT
ATOM      1  C   UNL     1      -0.695   5.732 -40.089  1.00  0.00     0.000 C 
ENDROOT
BRANCH   1   2
ATOM      2  C   UNL     1      -1.065   7.222 -40.214  1.00  0.00     0.000 C 
BRANCH   2   3
ATOM      3  C   UNL     1      -0.760   8.026 -38.939  1.00  0.00     0.000 C 
BRANCH   3   4
ATOM      4  C   UNL     1      -1.266   9.477 -39.012  1.00  0.00     0.000 C 
BRANCH   4   5
ATOM      5  C   UNL     1      -2.780   9.634 -39.262  1.00  0.00     0.000 C 
BRANCH   5   6
ATOM      6  C   UNL     1      -3.686   9.054 -38.162  1.00  0.00     0.000 C 
BRANCH   6   7
ATOM      7  C   UNL     1      -5.133   8.842 -38.632  1.00  0.00     0.000 C 
BRANCH   7   8
ATOM      8  C   UNL     1      -6.119   8.964 -37.460  1.00  0.00     0.000 C 
BRANCH   8   9
ATOM      9  C   UNL     1      -7.557   9.257 -37.919  1.00  0.00     0.000 C 
BRANCH   9  10
ATOM     10  C   UNL     1      -7.786   8.926 -39.401  1.00  0.00     0.000 C 
BRANCH  10  11
ATOM     11  C   UNL     1      -7.313   7.501 -39.727  1.00  0.00     0.000 C 
BRANCH  11  12
ATOM     12  C   UNL     1      -7.425   7.167 -41.223  1.00  0.00     0.000 C 
BRANCH  12  13
ATOM     13  C   UNL     1      -7.778   5.690 -41.474  1.00  0.00     0.006 C 
BRANCH  13  14
ATOM     14  C   UNL     1      -8.004   4.916 -40.167  1.00  0.00     0.053 C 
BRANCH  14  15
ATOM     15  C   UNL     1      -9.197   4.009 -40.236  1.00  0.00     0.041 C 
ATOM     16  O   UNL     1     -10.119   4.099 -39.384  1.00  0.00    -0.550 OA
ATOM     17  O   UNL     1      -9.305   3.084 -41.267  1.00  0.00    -0.550 OA
ENDBRANCH  14  15
ENDBRANCH  13  14
ENDBRANCH  12  13
ENDBRANCH  11  12
ENDBRANCH  10  11
ENDBRANCH   9  10
ENDBRANCH   8   9
ENDBRANCH   7   8
ENDBRANCH   6   7
ENDBRANCH   5   6
ENDBRANCH   4   5
ENDBRANCH   3   4
ENDBRANCH   2   3
ENDBRANCH   1   2
BRANCH   1  18
ATOM     18  C   UNL     1       0.084   5.146 -41.282  1.00  0.00     0.000 C 
BRANCH  18  19
ATOM     19  C   UNL     1       1.433   5.840 -41.520  1.00  0.00     0.000 C 
BRANCH  19  20
ATOM     20  C   UNL     1       1.416   6.640 -42.831  1.00  0.00     0.000 C 
BRANCH  20  21
ATOM     21  C   UNL     1       0.869   8.068 -42.658  1.00  0.00     0.000 C 
BRANCH  21  22
ATOM     22  C   UNL     1       1.730   8.998 -41.786  1.00  0.00     0.000 C 
BRANCH  22  23
ATOM     23  C   UNL     1       1.913  10.397 -42.401  1.00  0.00     0.000 C 
BRANCH  23  24
ATOM     24  C   UNL     1       2.982  11.223 -41.667  1.00  0.00    -0.000 C 
BRANCH  24  25
ATOM     25  C   UNL     1       2.572  12.697 -41.490  1.00  0.00    -0.000 C 
BRANCH  25  26
ATOM     26  C   UNL     1       2.022  12.987 -40.085  1.00  0.00    -0.000 C 
BRANCH  26  27
ATOM     27  C   UNL     1       1.573  11.710 -39.354  1.00  0.00    -0.000 C 
BRANCH  27  28
ATOM     28  C   UNL     1       1.237  11.961 -37.876  1.00  0.00    -0.000 C 
BRANCH  28  29
ATOM     29  C   UNL     1      -0.273  11.895 -37.592  1.00  0.00    -0.000 C 
BRANCH  29  30
ATOM     30  C   UNL     1      -0.888  13.296 -37.387  1.00  0.00    -0.000 C 
BRANCH  30  31
ATOM     31  C   UNL     1      -1.464  13.509 -35.978  1.00  0.00    -0.003 C 
ATOM     32  C   UNL     1      -2.486  12.444 -35.584  1.00  0.00     0.004 C 
ENDBRANCH  30  31
ENDBRANCH  29  30
ENDBRANCH  28  29
ENDBRANCH  27  28
ENDBRANCH  26  27
ENDBRANCH  25  26
ENDBRANCH  24  25
ENDBRANCH  23  24
ENDBRANCH  22  23
ENDBRANCH  21  22
ENDBRANCH  20  21
ENDBRANCH  19  20
ENDBRANCH  18  19
ENDBRANCH   1  18
TORSDOF 28
ENDMDL
MODEL 5
REMARK VINA RESULT:    -2.357      1.645      2.553
REMARK INTER + INTRA:          -8.987
REMARK INTER:                  -6.664
REMARK INTRA:                  -2.323
REMARK UNBOUND:                -2.772
REMARK SMILES CCCCCCCCCCCCCCCCCCCCCCCCCCCCCC(=O)[O-]
REMARK SMILES IDX 16 1 17 2 18 3 19 4 20 5 21 6 22 7 23 8 24 9 25 10 26 11
REMARK SMILES IDX 27 12 28 13 29 14 30 15 31 16 32 17 15 18 14 19 13 20 12 21
REMARK SMILES IDX 11 22 10 23 9 24 8 25 7 26 6 27 5 28 4 29 3 30 2 31 1 32
REMARK H PARENT
REMARK Flexibility Score: inf
ROOT
ATOM      1  C   UNL     1      -2.253  12.071 -35.772  1.00  0.00     0.000 C 
ENDROOT
BRANCH   1   2
ATOM      2  C   UNL     1      -1.102  13.038 -36.104  1.00  0.00     0.000 C 
BRANCH   2   3
ATOM      3  C   UNL     1      -0.795  13.115 -37.609  1.00  0.00     0.000 C 
BRANCH   3   4
ATOM      4  C   UNL     1       0.700  12.934 -37.925  1.00  0.00     0.000 C 
BRANCH   4   5
ATOM      5  C   UNL     1       1.086  11.564 -38.518  1.00  0.00     0.000 C 
BRANCH   5   6
ATOM      6  C   UNL     1       0.282  10.368 -37.978  1.00  0.00     0.000 C 
BRANCH   6   7
ATOM      7  C   UNL     1      -0.661   9.760 -39.027  1.00  0.00     0.000 C 
BRANCH   7   8
ATOM      8  C   UNL     1      -0.925   8.275 -38.738  1.00  0.00     0.000 C 
BRANCH   8   9
ATOM      9  C   UNL     1      -0.931   7.413 -40.012  1.00  0.00     0.000 C 
BRANCH   9  10
ATOM     10  C   UNL     1      -0.308   8.130 -41.217  1.00  0.00     0.000 C 
BRANCH  10  11
ATOM     11  C   UNL     1       0.537   7.161 -42.059  1.00  0.00     0.000 C 
BRANCH  11  12
ATOM     12  C   UNL     1       0.395   5.700 -41.601  1.00  0.00     0.000 C 
BRANCH  12  13
ATOM     13  C   UNL     1       1.751   5.048 -41.279  1.00  0.00     0.006 C 
BRANCH  13  14
ATOM     14  C   UNL     1       2.907   5.693 -42.058  1.00  0.00     0.053 C 
BRANCH  14  15
ATOM     15  C   UNL     1       4.249   5.184 -41.621  1.00  0.00     0.041 C 
ATOM     16  O   UNL     1       4.368   4.534 -40.549  1.00  0.00    -0.550 OA
ATOM     17  O   UNL     1       5.365   5.397 -42.420  1.00  0.00    -0.550 OA
ENDBRANCH  14  15
ENDBRANCH  13  14
ENDBRANCH  12  13
ENDBRANCH  11  12
ENDBRANCH  10  11
ENDBRANCH   9  10
ENDBRANCH   8   9
ENDBRANCH   7   8
ENDBRANCH   6   7
ENDBRANCH   5   6
ENDBRANCH   4   5
ENDBRANCH   3   4
ENDBRANCH   2   3
ENDBRANCH   1   2
BRANCH   1  18
ATOM     18  C   UNL     1      -2.630  11.087 -36.896  1.00  0.00     0.000 C 
BRANCH  18  19
ATOM     19  C   UNL     1      -3.330   9.821 -36.378  1.00  0.00     0.000 C 
BRANCH  19  20
ATOM     20  C   UNL     1      -4.510   9.437 -37.283  1.00  0.00     0.000 C 
BRANCH  20  21
ATOM     21  C   UNL     1      -4.074   8.691 -38.557  1.00  0.00     0.000 C 
BRANCH  21  22
ATOM     22  C   UNL     1      -4.791   9.124 -39.848  1.00  0.00     0.000 C 
BRANCH  22  23
ATOM     23  C   UNL     1      -6.307   8.860 -39.810  1.00  0.00     0.000 C 
BRANCH  23  24
ATOM     24  C   UNL     1      -7.120  10.149 -39.614  1.00  0.00    -0.000 C 
BRANCH  24  25
ATOM     25  C   UNL     1      -8.181  10.016 -38.506  1.00  0.00    -0.000 C 
BRANCH  25  26
ATOM     26  C   UNL     1      -8.078   8.680 -37.754  1.00  0.00    -0.000 C 
BRANCH  26  27
ATOM     27  C   UNL     1      -9.448   8.011 -37.552  1.00  0.00    -0.000 C 
BRANCH  27  28
ATOM     28  C   UNL     1      -9.561   6.662 -38.278  1.00  0.00    -0.000 C 
BRANCH  28  29
ATOM     29  C   UNL     1      -8.509   6.497 -39.389  1.00  0.00    -0.000 C 
BRANCH  29  30
ATOM     30  C   UNL     1      -8.332   5.022 -39.808  1.00  0.00    -0.000 C 
BRANCH  30  31
ATOM     31  C   UNL     1      -8.400   4.807 -41.328  1.00  0.00    -0.003 C 
ATOM     32  C   UNL     1      -7.482   5.750 -42.105  1.00  0.00     0.004 C 
ENDBRANCH  30  31
ENDBRANCH  29  30
ENDBRANCH  28  29
ENDBRANCH  27  28
ENDBRANCH  26  27
ENDBRANCH  25  26
ENDBRANCH  24  25
ENDBRANCH  23  24
ENDBRANCH  22  23
ENDBRANCH  21  22
ENDBRANCH  20  21
ENDBRANCH  19  20
ENDBRANCH  18  19
ENDBRANCH   1  18
TORSDOF 28
ENDMDL
MODEL 6
REMARK VINA RESULT:    -2.311      3.584      8.803
REMARK INTER + INTRA:          -8.866
REMARK INTER:                  -6.458
REMARK INTRA:                  -2.408
REMARK UNBOUND:                -2.772
REMARK SMILES CCCCCCCCCCCCCCCCCCCCCCCCCCCCCC(=O)[O-]
REMARK SMILES IDX 16 1 17 2 18 3 19 4 20 5 21 6 22 7 23 8 24 9 25 10 26 11
REMARK SMILES IDX 27 12 28 13 29 14 30 15 31 16 32 17 15 18 14 19 13 20 12 21
REMARK SMILES IDX 11 22 10 23 9 24 8 25 7 26 6 27 5 28 4 29 3 30 2 31 1 32
REMARK H PARENT
REMARK Flexibility Score: inf
ROOT
ATOM      1  C   UNL     1      -1.756  12.575 -37.034  1.00  0.00     0.000 C 
ENDROOT
BRANCH   1   2
ATOM      2  C   UNL     1      -2.369  11.415 -36.228  1.00  0.00     0.000 C 
BRANCH   2   3
ATOM      3  C   UNL     1      -2.529  10.127 -37.054  1.00  0.00     0.000 C 
BRANCH   3   4
ATOM      4  C   UNL     1      -1.456   9.981 -38.148  1.00  0.00     0.000 C 
BRANCH   4   5
ATOM      5  C   UNL     1      -1.391   8.597 -38.825  1.00  0.00     0.000 C 
BRANCH   5   6
ATOM      6  C   UNL     1      -2.620   8.228 -39.674  1.00  0.00     0.000 C 
BRANCH   6   7
ATOM      7  C   UNL     1      -3.271   9.447 -40.343  1.00  0.00     0.000 C 
BRANCH   7   8
ATOM      8  C   UNL     1      -4.755   9.559 -39.965  1.00  0.00     0.000 C 
BRANCH   8   9
ATOM      9  C   UNL     1      -5.183   8.518 -38.917  1.00  0.00     0.000 C 
BRANCH   9  10
ATOM     10  C   UNL     1      -6.597   8.767 -38.375  1.00  0.00     0.000 C 
BRANCH  10  11
ATOM     11  C   UNL     1      -7.649   8.037 -39.224  1.00  0.00     0.000 C 
BRANCH  11  12
ATOM     12  C   UNL     1      -7.104   7.592 -40.590  1.00  0.00     0.000 C 
BRANCH  12  13
ATOM     13  C   UNL     1      -7.797   6.324 -41.119  1.00  0.00     0.006 C 
BRANCH  13  14
ATOM     14  C   UNL     1      -7.801   5.189 -40.085  1.00  0.00     0.053 C 
BRANCH  14  15
ATOM     15  C   UNL     1      -8.980   4.275 -40.241  1.00  0.00     0.041 C 
ATOM     16  O   UNL     1      -9.014   3.428 -41.173  1.00  0.00    -0.550 OA
ATOM     17  O   UNL     1     -10.029   4.334 -39.332  1.00  0.00    -0.550 OA
ENDBRANCH  14  15
ENDBRANCH  13  14
ENDBRANCH  12  13
ENDBRANCH  11  12
ENDBRANCH  10  11
ENDBRANCH   9  10
ENDBRANCH   8   9
ENDBRANCH   7   8
ENDBRANCH   6   7
ENDBRANCH   5   6
ENDBRANCH   4   5
ENDBRANCH   3   4
ENDBRANCH   2   3
ENDBRANCH   1   2
BRANCH   1  18
ATOM     18  C   UNL     1      -0.438  13.141 -36.474  1.00  0.00     0.000 C 
BRANCH  18  19
ATOM     19  C   UNL     1       0.783  12.275 -36.817  1.00  0.00     0.000 C 
BRANCH  19  20
ATOM     20  C   UNL     1       0.916  12.089 -38.336  1.00  0.00     0.000 C 
BRANCH  20  21
ATOM     21  C   UNL     1       1.447  13.343 -39.051  1.00  0.00     0.000 C 
BRANCH  21  22
ATOM     22  C   UNL     1       1.638  13.200 -40.571  1.00  0.00     0.000 C 
BRANCH  22  23
ATOM     23  C   UNL     1       3.106  12.972 -40.974  1.00  0.00     0.000 C 
BRANCH  23  24
ATOM     24  C   UNL     1       3.375  11.522 -41.407  1.00  0.00    -0.000 C 
BRANCH  24  25
ATOM     25  C   UNL     1       2.201  10.913 -42.195  1.00  0.00    -0.000 C 
BRANCH  25  26
ATOM     26  C   UNL     1       1.669   9.624 -41.549  1.00  0.00    -0.000 C 
BRANCH  26  27
ATOM     27  C   UNL     1       1.077   8.650 -42.581  1.00  0.00    -0.000 C 
BRANCH  27  28
ATOM     28  C   UNL     1       0.129   7.619 -41.947  1.00  0.00    -0.000 C 
BRANCH  28  29
ATOM     29  C   UNL     1       0.511   6.171 -42.296  1.00  0.00    -0.000 C 
BRANCH  29  30
ATOM     30  C   UNL     1       1.573   5.601 -41.331  1.00  0.00    -0.000 C 
BRANCH  30  31
ATOM     31  C   UNL     1       2.884   5.206 -42.028  1.00  0.00    -0.003 C 
ATOM     32  C   UNL     1       4.078   5.171 -41.076  1.00  0.00     0.004 C 
ENDBRANCH  30  31
ENDBRANCH  29  30
ENDBRANCH  28  29
ENDBRANCH  27  28
ENDBRANCH  26  27
ENDBRANCH  25  26
ENDBRANCH  24  25
ENDBRANCH  23  24
ENDBRANCH  22  23
ENDBRANCH  21  22
ENDBRANCH  20  21
ENDBRANCH  19  20
ENDBRANCH  18  19
ENDBRANCH   1  18
TORSDOF 28
ENDMDL
MODEL 7
REMARK VINA RESULT:    -2.133      3.966      9.146
REMARK INTER + INTRA:          -8.398
REMARK INTER:                  -6.609
REMARK INTRA:                  -1.789
REMARK UNBOUND:                -2.772
REMARK SMILES CCCCCCCCCCCCCCCCCCCCCCCCCCCCCC(=O)[O-]
REMARK SMILES IDX 16 1 17 2 18 3 19 4 20 5 21 6 22 7 23 8 24 9 25 10 26 11
REMARK SMILES IDX 27 12 28 13 29 14 30 15 31 16 32 17 15 18 14 19 13 20 12 21
REMARK SMILES IDX 11 22 10 23 9 24 8 25 7 26 6 27 5 28 4 29 3 30 2 31 1 32
REMARK H PARENT
REMARK Flexibility Score: inf
ROOT
ATOM      1  C   UNL     1      -2.690  10.661 -36.675  1.00  0.00     0.000 C 
ENDROOT
BRANCH   1   2
ATOM      2  C   UNL     1      -3.974   9.822 -36.812  1.00  0.00     0.000 C 
BRANCH   2   3
ATOM      3  C   UNL     1      -3.883   8.759 -37.919  1.00  0.00     0.000 C 
BRANCH   3   4
ATOM      4  C   UNL     1      -3.508   9.352 -39.289  1.00  0.00     0.000 C 
BRANCH   4   5
ATOM      5  C   UNL     1      -4.701   9.713 -40.198  1.00  0.00     0.000 C 
BRANCH   5   6
ATOM      6  C   UNL     1      -6.066   9.183 -39.724  1.00  0.00     0.000 C 
BRANCH   6   7
ATOM      7  C   UNL     1      -7.154  10.267 -39.710  1.00  0.00     0.000 C 
BRANCH   7   8
ATOM      8  C   UNL     1      -7.960  10.225 -38.404  1.00  0.00     0.000 C 
BRANCH   8   9
ATOM      9  C   UNL     1      -7.930   8.843 -37.730  1.00  0.00     0.000 C 
BRANCH   9  10
ATOM     10  C   UNL     1      -9.293   8.139 -37.758  1.00  0.00     0.000 C 
BRANCH  10  11
ATOM     11  C   UNL     1      -9.203   6.793 -38.494  1.00  0.00     0.000 C 
BRANCH  11  12
ATOM     12  C   UNL     1      -8.147   6.798 -39.612  1.00  0.00     0.000 C 
BRANCH  12  13
ATOM     13  C   UNL     1      -7.625   5.388 -39.939  1.00  0.00     0.006 C 
BRANCH  13  14
ATOM     14  C   UNL     1      -8.335   4.772 -41.153  1.00  0.00     0.053 C 
BRANCH  14  15
ATOM     15  C   UNL     1      -9.330   3.720 -40.762  1.00  0.00     0.041 C 
ATOM     16  O   UNL     1      -9.506   2.705 -41.487  1.00  0.00    -0.550 OA
ATOM     17  O   UNL     1     -10.042   3.845 -39.575  1.00  0.00    -0.550 OA
ENDBRANCH  14  15
ENDBRANCH  13  14
ENDBRANCH  12  13
ENDBRANCH  11  12
ENDBRANCH  10  11
ENDBRANCH   9  10
ENDBRANCH   8   9
ENDBRANCH   7   8
ENDBRANCH   6   7
ENDBRANCH   5   6
ENDBRANCH   4   5
ENDBRANCH   3   4
ENDBRANCH   2   3
ENDBRANCH   1   2
BRANCH   1  18
ATOM     18  C   UNL     1      -2.711  11.718 -35.554  1.00  0.00     0.000 C 
BRANCH  18  19
ATOM     19  C   UNL     1      -2.097  13.060 -35.981  1.00  0.00     0.000 C 
BRANCH  19  20
ATOM     20  C   UNL     1      -0.615  12.892 -36.351  1.00  0.00     0.000 C 
BRANCH  20  21
ATOM     21  C   UNL     1      -0.346  13.081 -37.855  1.00  0.00     0.000 C 
BRANCH  21  22
ATOM     22  C   UNL     1       0.923  12.391 -38.385  1.00  0.00     0.000 C 
BRANCH  22  23
ATOM     23  C   UNL     1       0.912  10.867 -38.172  1.00  0.00     0.000 C 
BRANCH  23  24
ATOM     24  C   UNL     1      -0.403  10.221 -38.640  1.00  0.00    -0.000 C 
BRANCH  24  25
ATOM     25  C   UNL     1      -0.308   8.687 -38.728  1.00  0.00    -0.000 C 
BRANCH  25  26
ATOM     26  C   UNL     1      -0.691   8.155 -40.118  1.00  0.00    -0.000 C 
BRANCH  26  27
ATOM     27  C   UNL     1      -0.932   6.636 -40.121  1.00  0.00    -0.000 C 
BRANCH  27  28
ATOM     28  C   UNL     1       0.101   5.874 -40.964  1.00  0.00    -0.000 C 
BRANCH  28  29
ATOM     29  C   UNL     1       0.816   6.778 -41.984  1.00  0.00    -0.000 C 
BRANCH  29  30
ATOM     30  C   UNL     1       2.102   6.127 -42.536  1.00  0.00    -0.000 C 
BRANCH  30  31
ATOM     31  C   UNL     1       2.806   5.209 -41.523  1.00  0.00    -0.003 C 
ATOM     32  C   UNL     1       4.328   5.256 -41.635  1.00  0.00     0.004 C 
ENDBRANCH  30  31
ENDBRANCH  29  30
ENDBRANCH  28  29
ENDBRANCH  27  28
ENDBRANCH  26  27
ENDBRANCH  25  26
ENDBRANCH  24  25
ENDBRANCH  23  24
ENDBRANCH  22  23
ENDBRANCH  21  22
ENDBRANCH  20  21
ENDBRANCH  19  20
ENDBRANCH  18  19
ENDBRANCH   1  18
TORSDOF 28
ENDMDL
MODEL 8
REMARK VINA RESULT:    -2.037     13.470     15.602
REMARK INTER + INTRA:          -8.144
REMARK INTER:                  -7.024
REMARK INTRA:                  -1.120
REMARK UNBOUND:                -2.772
REMARK SMILES CCCCCCCCCCCCCCCCCCCCCCCCCCCCCC(=O)[O-]
REMARK SMILES IDX 16 1 17 2 18 3 19 4 20 5 21 6 22 7 23 8 24 9 25 10 26 11
REMARK SMILES IDX 27 12 28 13 29 14 30 15 31 16 32 17 15 18 14 19 13 20 12 21
REMARK SMILES IDX 11 22 10 23 9 24 8 25 7 26 6 27 5 28 4 29 3 30 2 31 1 32
REMARK H PARENT
REMARK Flexibility Score: inf
ROOT
ATOM      1  C   UNL     1      -7.907   3.986 -26.701  1.00  0.00     0.000 C 
ENDROOT
BRANCH   1   2
ATOM      2  C   UNL     1      -6.694   3.908 -27.646  1.00  0.00     0.000 C 
BRANCH   2   3
ATOM      3  C   UNL     1      -5.964   2.556 -27.578  1.00  0.00     0.000 C 
BRANCH   3   4
ATOM      4  C   UNL     1      -5.220   2.212 -28.880  1.00  0.00     0.000 C 
BRANCH   4   5
ATOM      5  C   UNL     1      -3.724   1.875 -28.713  1.00  0.00     0.000 C 
BRANCH   5   6
ATOM      6  C   UNL     1      -3.099   2.321 -27.379  1.00  0.00     0.000 C 
BRANCH   6   7
ATOM      7  C   UNL     1      -1.630   1.895 -27.236  1.00  0.00     0.000 C 
BRANCH   7   8
ATOM      8  C   UNL     1      -0.773   2.473 -28.372  1.00  0.00     0.000 C 
BRANCH   8   9
ATOM      9  C   UNL     1       0.670   1.943 -28.358  1.00  0.00     0.000 C 
BRANCH   9  10
ATOM     10  C   UNL     1       1.534   2.542 -29.477  1.00  0.00     0.000 C 
BRANCH  10  11
ATOM     11  C   UNL     1       2.979   2.026 -29.393  1.00  0.00     0.000 C 
BRANCH  11  12
ATOM     12  C   UNL     1       3.701   2.492 -28.118  1.00  0.00     0.000 C 
BRANCH  12  13
ATOM     13  C   UNL     1       5.233   2.427 -28.250  1.00  0.00     0.006 C 
BRANCH  13  14
ATOM     14  C   UNL     1       5.943   3.339 -27.238  1.00  0.00     0.053 C 
BRANCH  14  15
ATOM     15  C   UNL     1       5.289   3.317 -25.889  1.00  0.00     0.041 C 
ATOM     16  O   UNL     1       5.111   2.228 -25.281  1.00  0.00    -0.550 OA
ATOM     17  O   UNL     1       4.906   4.508 -25.285  1.00  0.00    -0.550 OA
ENDBRANCH  14  15
ENDBRANCH  13  14
ENDBRANCH  12  13
ENDBRANCH  11  12
ENDBRANCH  10  11
ENDBRANCH   9  10
ENDBRANCH   8   9
ENDBRANCH   7   8
ENDBRANCH   6   7
ENDBRANCH   5   6
ENDBRANCH   4   5
ENDBRANCH   3   4
ENDBRANCH   2   3
ENDBRANCH   1   2
BRANCH   1  18
ATOM     18  C   UNL     1      -8.778   2.717 -26.642  1.00  0.00     0.000 C 
BRANCH  18  19
ATOM     19  C   UNL     1      -8.658   1.964 -25.308  1.00  0.00     0.000 C 
BRANCH  19  20
ATOM     20  C   UNL     1      -7.823   2.766 -24.299  1.00  0.00     0.000 C 
BRANCH  20  21
ATOM     21  C   UNL     1      -8.671   3.385 -23.173  1.00  0.00     0.000 C 
BRANCH  21  22
ATOM     22  C   UNL     1     -10.194   3.278 -23.364  1.00  0.00     0.000 C 
BRANCH  22  23
ATOM     23  C   UNL     1     -10.772   4.416 -24.224  1.00  0.00     0.000 C 
BRANCH  23  24
ATOM     24  C   UNL     1      -9.954   5.713 -24.104  1.00  0.00    -0.000 C 
BRANCH  24  25
ATOM     25  C   UNL     1     -10.832   6.975 -24.182  1.00  0.00    -0.000 C 
BRANCH  25  26
ATOM     26  C   UNL     1     -12.315   6.643 -24.410  1.00  0.00    -0.000 C 
BRANCH  26  27
ATOM     27  C   UNL     1     -12.607   6.219 -25.859  1.00  0.00    -0.000 C 
BRANCH  27  28
ATOM     28  C   UNL     1     -12.732   7.416 -26.814  1.00  0.00    -0.000 C 
BRANCH  28  29
ATOM     29  C   UNL     1     -12.130   7.133 -28.201  1.00  0.00    -0.000 C 
BRANCH  29  30
ATOM     30  C   UNL     1     -11.271   5.851 -28.211  1.00  0.00    -0.000 C 
BRANCH  30  31
ATOM     31  C   UNL     1     -12.102   4.558 -28.173  1.00  0.00    -0.003 C 
ATOM     32  C   UNL     1     -13.469   4.709 -28.838  1.00  0.00     0.004 C 
ENDBRANCH  30  31
ENDBRANCH  29  30
ENDBRANCH  28  29
ENDBRANCH  27  28
ENDBRANCH  26  27
ENDBRANCH  25  26
ENDBRANCH  24  25
ENDBRANCH  23  24
ENDBRANCH  22  23
ENDBRANCH  21  22
ENDBRANCH  20  21
ENDBRANCH  19  20
ENDBRANCH  18  19
ENDBRANCH   1  18
TORSDOF 28
ENDMDL
MODEL 9
REMARK VINA RESULT:    -1.660     14.097     15.928
REMARK INTER + INTRA:          -7.151
REMARK INTER:                  -4.639
REMARK INTRA:                  -2.512
REMARK UNBOUND:                -2.772
REMARK SMILES CCCCCCCCCCCCCCCCCCCCCCCCCCCCCC(=O)[O-]
REMARK SMILES IDX 16 1 17 2 18 3 19 4 20 5 21 6 22 7 23 8 24 9 25 10 26 11
REMARK SMILES IDX 27 12 28 13 29 14 30 15 31 16 32 17 15 18 14 19 13 20 12 21
REMARK SMILES IDX 11 22 10 23 9 24 8 25 7 26 6 27 5 28 4 29 3 30 2 31 1 32
REMARK H PARENT
REMARK Flexibility Score: inf
ROOT
ATOM      1  C   UNL     1      -8.608   4.847 -26.909  1.00  0.00     0.000 C 
ENDROOT
BRANCH   1   2
ATOM      2  C   UNL     1      -7.519   4.551 -27.958  1.00  0.00     0.000 C 
BRANCH   2   3
ATOM      3  C   UNL     1      -6.279   3.865 -27.361  1.00  0.00     0.000 C 
BRANCH   3   4
ATOM      4  C   UNL     1      -5.800   2.664 -28.195  1.00  0.00     0.000 C 
BRANCH   4   5
ATOM      5  C   UNL     1      -4.326   2.262 -27.984  1.00  0.00     0.000 C 
BRANCH   5   6
ATOM      6  C   UNL     1      -3.884   2.149 -26.514  1.00  0.00     0.000 C 
BRANCH   6   7
ATOM      7  C   UNL     1      -2.378   1.884 -26.363  1.00  0.00     0.000 C 
BRANCH   7   8
ATOM      8  C   UNL     1      -1.618   2.265 -27.641  1.00  0.00     0.000 C 
BRANCH   8   9
ATOM      9  C   UNL     1      -0.176   2.721 -27.363  1.00  0.00     0.000 C 
BRANCH   9  10
ATOM     10  C   UNL     1       0.457   1.992 -26.170  1.00  0.00     0.000 C 
BRANCH  10  11
ATOM     11  C   UNL     1       1.174   2.981 -25.238  1.00  0.00     0.000 C 
BRANCH  11  12
ATOM     12  C   UNL     1       2.706   2.886 -25.339  1.00  0.00     0.000 C 
BRANCH  12  13
ATOM     13  C   UNL     1       3.417   3.483 -24.112  1.00  0.00     0.006 C 
BRANCH  13  14
ATOM     14  C   UNL     1       4.940   3.301 -24.177  1.00  0.00     0.053 C 
BRANCH  14  15
ATOM     15  C   UNL     1       5.594   4.265 -25.122  1.00  0.00     0.041 C 
ATOM     16  O   UNL     1       6.124   3.855 -26.188  1.00  0.00    -0.550 OA
ATOM     17  O   UNL     1       5.586   5.625 -24.841  1.00  0.00    -0.550 OA
ENDBRANCH  14  15
ENDBRANCH  13  14
ENDBRANCH  12  13
ENDBRANCH  11  12
ENDBRANCH  10  11
ENDBRANCH   9  10
ENDBRANCH   8   9
ENDBRANCH   7   8
ENDBRANCH   6   7
ENDBRANCH   5   6
ENDBRANCH   4   5
ENDBRANCH   3   4
ENDBRANCH   2   3
ENDBRANCH   1   2
BRANCH   1  18
ATOM     18  C   UNL     1      -8.623   3.902 -25.693  1.00  0.00     0.000 C 
BRANCH  18  19
ATOM     19  C   UNL     1      -9.256   4.537 -24.446  1.00  0.00     0.000 C 
BRANCH  19  20
ATOM     20  C   UNL     1      -9.293   6.068 -24.567  1.00  0.00     0.000 C 
BRANCH  20  21
ATOM     21  C   UNL     1     -10.453   6.706 -23.782  1.00  0.00     0.000 C 
BRANCH  21  22
ATOM     22  C   UNL     1     -11.629   7.203 -24.640  1.00  0.00     0.000 C 
BRANCH  22  23
ATOM     23  C   UNL     1     -11.189   7.723 -26.020  1.00  0.00     0.000 C 
BRANCH  23  24
ATOM     24  C   UNL     1     -12.383   8.051 -26.930  1.00  0.00    -0.000 C 
BRANCH  24  25
ATOM     25  C   UNL     1     -13.010   6.792 -27.558  1.00  0.00    -0.000 C 
BRANCH  25  26
ATOM     26  C   UNL     1     -14.122   6.193 -26.683  1.00  0.00    -0.000 C 
BRANCH  26  27
ATOM     27  C   UNL     1     -13.693   4.880 -26.005  1.00  0.00    -0.000 C 
BRANCH  27  28
ATOM     28  C   UNL     1     -12.347   4.356 -26.528  1.00  0.00    -0.000 C 
BRANCH  28  29
ATOM     29  C   UNL     1     -12.420   2.889 -26.986  1.00  0.00    -0.000 C 
BRANCH  29  30
ATOM     30  C   UNL     1     -12.283   2.751 -28.517  1.00  0.00    -0.000 C 
BRANCH  30  31
ATOM     31  C   UNL     1     -13.466   2.022 -29.174  1.00  0.00    -0.003 C 
ATOM     32  C   UNL     1     -14.054   2.786 -30.358  1.00  0.00     0.004 C 
ENDBRANCH  30  31
ENDBRANCH  29  30
ENDBRANCH  28  29
ENDBRANCH  27  28
ENDBRANCH  26  27
ENDBRANCH  25  26
ENDBRANCH  24  25
ENDBRANCH  23  24
ENDBRANCH  22  23
ENDBRANCH  21  22
ENDBRANCH  20  21
ENDBRANCH  19  20
ENDBRANCH  18  19
ENDBRANCH   1  18
TORSDOF 28
ENDMDL
