MODEL 1
REMARK VINA RESULT:    -3.640      0.000      0.000
REMARK INTER + INTRA:         -12.270
REMARK INTER:                  -7.896
REMARK INTRA:                  -4.374
REMARK UNBOUND:                -4.374
REMARK SMILES CCCCCCCCCCCCCCCCCCCCCC(=O)[O-]
REMARK SMILES IDX 12 1 11 2 10 3 9 4 8 5 7 6 6 7 5 8 4 9 3 10 2 11 1 12 13 13
REMARK SMILES IDX 14 14 15 15 16 16 17 17 18 18 19 19 20 20 21 21 22 22 23 23
REMARK SMILES IDX 24 24
REMARK H PARENT
REMARK Flexibility Score: inf
ROOT
ATOM      1  C   UNL     1      -8.896   5.293  55.027  1.00  0.00     0.000 C 
ENDROOT
BRANCH   1   2
ATOM      2  C   UNL     1      -7.635   6.090  55.402  1.00  0.00     0.000 C 
BRANCH   2   3
ATOM      3  C   UNL     1      -6.501   5.196  55.937  1.00  0.00     0.000 C 
BRANCH   3   4
ATOM      4  C   UNL     1      -5.831   5.709  57.224  1.00  0.00    -0.000 C 
BRANCH   4   5
ATOM      5  C   UNL     1      -6.790   5.746  58.427  1.00  0.00    -0.000 C 
BRANCH   5   6
ATOM      6  C   UNL     1      -6.612   4.525  59.352  1.00  0.00    -0.000 C 
BRANCH   6   7
ATOM      7  C   UNL     1      -7.864   3.632  59.461  1.00  0.00    -0.000 C 
BRANCH   7   8
ATOM      8  C   UNL     1      -7.598   2.131  59.228  1.00  0.00    -0.000 C 
BRANCH   8   9
ATOM      9  C   UNL     1      -6.218   1.861  58.605  1.00  0.00    -0.000 C 
BRANCH   9  10
ATOM     10  C   UNL     1      -6.282   1.619  57.084  1.00  0.00    -0.000 C 
BRANCH  10  11
ATOM     11  C   UNL     1      -4.967   1.926  56.341  1.00  0.00    -0.003 C 
ATOM     12  C   UNL     1      -3.880   2.501  57.246  1.00  0.00     0.004 C 
ENDBRANCH  10  11
ENDBRANCH   9  10
ENDBRANCH   8   9
ENDBRANCH   7   8
ENDBRANCH   6   7
ENDBRANCH   5   6
ENDBRANCH   4   5
ENDBRANCH   3   4
ENDBRANCH   2   3
ENDBRANCH   1   2
BRANCH   1  13
ATOM     13  C   UNL     1      -9.304   4.278  56.109  1.00  0.00     0.000 C 
BRANCH  13  14
ATOM     14  C   UNL     1      -9.474   2.826  55.612  1.00  0.00     0.000 C 
BRANCH  14  15
ATOM     15  C   UNL     1      -9.604   2.670  54.085  1.00  0.00     0.000 C 
BRANCH  15  16
ATOM     16  C   UNL     1      -8.828   1.479  53.491  1.00  0.00     0.000 C 
BRANCH  16  17
ATOM     17  C   UNL     1      -7.750   1.896  52.468  1.00  0.00     0.000 C 
BRANCH  17  18
ATOM     18  C   UNL     1      -6.612   2.703  53.115  1.00  0.00     0.000 C 
BRANCH  18  19
ATOM     19  C   UNL     1      -6.435   4.085  52.462  1.00  0.00     0.000 C 
BRANCH  19  20
ATOM     20  C   UNL     1      -7.361   4.272  51.248  1.00  0.00     0.006 C 
BRANCH  20  21
ATOM     21  C   UNL     1      -8.269   5.501  51.395  1.00  0.00     0.053 C 
BRANCH  21  22
ATOM     22  C   UNL     1      -9.681   5.189  51.006  1.00  0.00     0.041 C 
ATOM     23  O   UNL     1     -10.036   3.998  50.799  1.00  0.00    -0.550 OA
ATOM     24  O   UNL     1     -10.614   6.214  50.894  1.00  0.00    -0.550 OA
ENDBRANCH  21  22
ENDBRANCH  20  21
ENDBRANCH  19  20
ENDBRANCH  18  19
ENDBRANCH  17  18
ENDBRANCH  16  17
ENDBRANCH  15  16
ENDBRANCH  14  15
ENDBRANCH  13  14
ENDBRANCH   1  13
TORSDOF 20
ENDMDL
MODEL 2
REMARK VINA RESULT:    -3.637      3.182      7.176
REMARK INTER + INTRA:         -12.264
REMARK INTER:                  -8.512
REMARK INTRA:                  -3.752
REMARK UNBOUND:                -4.374
REMARK SMILES CCCCCCCCCCCCCCCCCCCCCC(=O)[O-]
REMARK SMILES IDX 12 1 11 2 10 3 9 4 8 5 7 6 6 7 5 8 4 9 3 10 2 11 1 12 13 13
REMARK SMILES IDX 14 14 15 15 16 16 17 17 18 18 19 19 20 20 21 21 22 22 23 23
REMARK SMILES IDX 24 24
REMARK H PARENT
REMARK Flexibility Score: inf
ROOT
ATOM      1  C   UNL     1      -6.527   5.436  55.645  1.00  0.00     0.000 C 
ENDROOT
BRANCH   1   2
ATOM      2  C   UNL     1      -6.234   3.957  55.339  1.00  0.00     0.000 C 
BRANCH   2   3
ATOM      3  C   UNL     1      -5.790   3.726  53.883  1.00  0.00     0.000 C 
BRANCH   3   4
ATOM      4  C   UNL     1      -6.556   2.612  53.148  1.00  0.00    -0.000 C 
BRANCH   4   5
ATOM      5  C   UNL     1      -7.396   3.136  51.970  1.00  0.00    -0.000 C 
BRANCH   5   6
ATOM      6  C   UNL     1      -6.976   4.555  51.540  1.00  0.00    -0.000 C 
BRANCH   6   7
ATOM      7  C   UNL     1      -8.073   5.621  51.732  1.00  0.00    -0.000 C 
BRANCH   7   8
ATOM      8  C   UNL     1      -9.321   5.122  52.487  1.00  0.00    -0.000 C 
BRANCH   8   9
ATOM      9  C   UNL     1      -9.626   5.951  53.746  1.00  0.00    -0.000 C 
BRANCH   9  10
ATOM     10  C   UNL     1     -10.204   5.104  54.897  1.00  0.00    -0.000 C 
BRANCH  10  11
ATOM     11  C   UNL     1      -9.961   3.590  54.749  1.00  0.00    -0.003 C 
ATOM     12  C   UNL     1      -9.518   2.918  56.046  1.00  0.00     0.004 C 
ENDBRANCH  10  11
ENDBRANCH   9  10
ENDBRANCH   8   9
ENDBRANCH   7   8
ENDBRANCH   6   7
ENDBRANCH   5   6
ENDBRANCH   4   5
ENDBRANCH   3   4
ENDBRANCH   2   3
ENDBRANCH   1   2
BRANCH   1  13
ATOM     13  C   UNL     1      -6.596   5.729  57.154  1.00  0.00     0.000 C 
BRANCH  13  14
ATOM     14  C   UNL     1      -5.238   5.694  57.889  1.00  0.00     0.000 C 
BRANCH  14  15
ATOM     15  C   UNL     1      -5.323   5.819  59.422  1.00  0.00     0.000 C 
BRANCH  15  16
ATOM     16  C   UNL     1      -6.738   5.641  60.006  1.00  0.00     0.000 C 
BRANCH  16  17
ATOM     17  C   UNL     1      -7.002   4.223  60.555  1.00  0.00     0.000 C 
BRANCH  17  18
ATOM     18  C   UNL     1      -7.869   3.380  59.604  1.00  0.00     0.000 C 
BRANCH  18  19
ATOM     19  C   UNL     1      -7.390   1.921  59.521  1.00  0.00     0.000 C 
BRANCH  19  20
ATOM     20  C   UNL     1      -6.394   1.704  58.368  1.00  0.00     0.006 C 
BRANCH  20  21
ATOM     21  C   UNL     1      -5.033   1.200  58.865  1.00  0.00     0.053 C 
BRANCH  21  22
ATOM     22  C   UNL     1      -3.989   2.271  58.783  1.00  0.00     0.041 C 
ATOM     23  O   UNL     1      -3.534   2.798  59.833  1.00  0.00    -0.550 OA
ATOM     24  O   UNL     1      -3.498   2.671  57.545  1.00  0.00    -0.550 OA
ENDBRANCH  21  22
ENDBRANCH  20  21
ENDBRANCH  19  20
ENDBRANCH  18  19
ENDBRANCH  17  18
ENDBRANCH  16  17
ENDBRANCH  15  16
ENDBRANCH  14  15
ENDBRANCH  13  14
ENDBRANCH   1  13
TORSDOF 20
ENDMDL
MODEL 3
REMARK VINA RESULT:    -3.537     10.199     13.265
REMARK INTER + INTRA:         -12.046
REMARK INTER:                  -9.282
REMARK INTRA:                  -2.764
REMARK UNBOUND:                -4.374
REMARK SMILES CCCCCCCCCCCCCCCCCCCCCC(=O)[O-]
REMARK SMILES IDX 12 1 11 2 10 3 9 4 8 5 7 6 6 7 5 8 4 9 3 10 2 11 1 12 13 13
REMARK SMILES IDX 14 14 15 15 16 16 17 17 18 18 19 19 20 20 21 21 22 22 23 23
REMARK SMILES IDX 24 24
REMARK H PARENT
REMARK Flexibility Score: inf
ROOT
ATOM      1  C   UNL     1       2.034  -0.366  57.608  1.00  0.00     0.000 C 
ENDROOT
BRANCH   1   2
ATOM      2  C   UNL     1       0.857   0.384  56.962  1.00  0.00     0.000 C 
BRANCH   2   3
ATOM      3  C   UNL     1       1.296   1.308  55.812  1.00  0.00     0.000 C 
BRANCH   3   4
ATOM      4  C   UNL     1       2.638   0.930  55.161  1.00  0.00    -0.000 C 
BRANCH   4   5
ATOM      5  C   UNL     1       2.552   0.815  53.628  1.00  0.00    -0.000 C 
BRANCH   5   6
ATOM      6  C   UNL     1       2.797  -0.625  53.137  1.00  0.00    -0.000 C 
BRANCH   6   7
ATOM      7  C   UNL     1       1.717  -1.633  53.581  1.00  0.00    -0.000 C 
BRANCH   7   8
ATOM      8  C   UNL     1       2.218  -2.709  54.565  1.00  0.00    -0.000 C 
BRANCH   8   9
ATOM      9  C   UNL     1       3.742  -2.905  54.509  1.00  0.00    -0.000 C 
BRANCH   9  10
ATOM     10  C   UNL     1       4.466  -2.345  55.749  1.00  0.00    -0.000 C 
BRANCH  10  11
ATOM     11  C   UNL     1       4.944  -3.423  56.740  1.00  0.00    -0.003 C 
ATOM     12  C   UNL     1       4.411  -3.225  58.156  1.00  0.00     0.004 C 
ENDBRANCH  10  11
ENDBRANCH   9  10
ENDBRANCH   8   9
ENDBRANCH   7   8
ENDBRANCH   6   7
ENDBRANCH   5   6
ENDBRANCH   4   5
ENDBRANCH   3   4
ENDBRANCH   2   3
ENDBRANCH   1   2
BRANCH   1  13
ATOM     13  C   UNL     1       2.350   0.133  59.029  1.00  0.00     0.000 C 
BRANCH  13  14
ATOM     14  C   UNL     1       1.403   1.230  59.563  1.00  0.00     0.000 C 
BRANCH  14  15
ATOM     15  C   UNL     1       0.464   0.785  60.699  1.00  0.00     0.000 C 
BRANCH  15  16
ATOM     16  C   UNL     1      -0.575  -0.280  60.298  1.00  0.00     0.000 C 
BRANCH  16  17
ATOM     17  C   UNL     1      -0.309  -1.665  60.925  1.00  0.00     0.000 C 
BRANCH  17  18
ATOM     18  C   UNL     1       0.834  -1.631  61.954  1.00  0.00     0.000 C 
BRANCH  18  19
ATOM     19  C   UNL     1       1.674  -2.919  61.931  1.00  0.00     0.000 C 
BRANCH  19  20
ATOM     20  C   UNL     1       1.846  -3.521  63.337  1.00  0.00     0.006 C 
BRANCH  20  21
ATOM     21  C   UNL     1       0.554  -3.447  64.161  1.00  0.00     0.053 C 
BRANCH  21  22
ATOM     22  C   UNL     1      -0.476  -4.410  63.653  1.00  0.00     0.041 C 
ATOM     23  O   UNL     1      -0.240  -5.647  63.643  1.00  0.00    -0.550 OA
ATOM     24  O   UNL     1      -1.708  -3.941  63.212  1.00  0.00    -0.550 OA
ENDBRANCH  21  22
ENDBRANCH  20  21
ENDBRANCH  19  20
ENDBRANCH  18  19
ENDBRANCH  17  18
ENDBRANCH  16  17
ENDBRANCH  15  16
ENDBRANCH  14  15
ENDBRANCH  13  14
ENDBRANCH   1  13
TORSDOF 20
ENDMDL
MODEL 4
REMARK VINA RESULT:    -3.531      3.252      7.112
REMARK INTER + INTRA:         -12.033
REMARK INTER:                  -8.557
REMARK INTRA:                  -3.476
REMARK UNBOUND:                -4.374
REMARK SMILES CCCCCCCCCCCCCCCCCCCCCC(=O)[O-]
REMARK SMILES IDX 12 1 11 2 10 3 9 4 8 5 7 6 6 7 5 8 4 9 3 10 2 11 1 12 13 13
REMARK SMILES IDX 14 14 15 15 16 16 17 17 18 18 19 19 20 20 21 21 22 22 23 23
REMARK SMILES IDX 24 24
REMARK H PARENT
REMARK Flexibility Score: inf
ROOT
ATOM      1  C   UNL     1      -6.364   3.120  54.505  1.00  0.00     0.000 C 
ENDROOT
BRANCH   1   2
ATOM      2  C   UNL     1      -6.127   3.260  52.992  1.00  0.00     0.000 C 
BRANCH   2   3
ATOM      3  C   UNL     1      -7.294   2.712  52.152  1.00  0.00     0.000 C 
BRANCH   3   4
ATOM      4  C   UNL     1      -7.746   3.630  51.003  1.00  0.00    -0.000 C 
BRANCH   4   5
ATOM      5  C   UNL     1      -7.757   5.119  51.392  1.00  0.00    -0.000 C 
BRANCH   5   6
ATOM      6  C   UNL     1      -9.155   5.751  51.244  1.00  0.00    -0.000 C 
BRANCH   6   7
ATOM      7  C   UNL     1      -9.699   6.385  52.539  1.00  0.00    -0.000 C 
BRANCH   7   8
ATOM      8  C   UNL     1     -10.931   5.670  53.130  1.00  0.00    -0.000 C 
BRANCH   8   9
ATOM      9  C   UNL     1     -11.103   4.239  52.592  1.00  0.00    -0.000 C 
BRANCH   9  10
ATOM     10  C   UNL     1     -11.276   3.194  53.712  1.00  0.00    -0.000 C 
BRANCH  10  11
ATOM     11  C   UNL     1      -9.978   2.872  54.478  1.00  0.00    -0.003 C 
ATOM     12  C   UNL     1     -10.120   3.003  55.992  1.00  0.00     0.004 C 
ENDBRANCH  10  11
ENDBRANCH   9  10
ENDBRANCH   8   9
ENDBRANCH   7   8
ENDBRANCH   6   7
ENDBRANCH   5   6
ENDBRANCH   4   5
ENDBRANCH   3   4
ENDBRANCH   2   3
ENDBRANCH   1   2
BRANCH   1  13
ATOM     13  C   UNL     1      -6.166   4.444  55.264  1.00  0.00     0.000 C 
BRANCH  13  14
ATOM     14  C   UNL     1      -7.324   5.455  55.127  1.00  0.00     0.000 C 
BRANCH  14  15
ATOM     15  C   UNL     1      -7.476   6.437  56.305  1.00  0.00     0.000 C 
BRANCH  15  16
ATOM     16  C   UNL     1      -8.762   6.256  57.133  1.00  0.00     0.000 C 
BRANCH  16  17
ATOM     17  C   UNL     1      -8.548   5.450  58.432  1.00  0.00     0.000 C 
BRANCH  17  18
ATOM     18  C   UNL     1      -7.905   6.294  59.544  1.00  0.00     0.000 C 
BRANCH  18  19
ATOM     19  C   UNL     1      -6.742   5.559  60.233  1.00  0.00     0.000 C 
BRANCH  19  20
ATOM     20  C   UNL     1      -5.372   6.035  59.720  1.00  0.00     0.006 C 
BRANCH  20  21
ATOM     21  C   UNL     1      -4.818   5.123  58.618  1.00  0.00     0.053 C 
BRANCH  21  22
ATOM     22  C   UNL     1      -4.825   3.686  59.041  1.00  0.00     0.041 C 
ATOM     23  O   UNL     1      -5.545   2.847  58.436  1.00  0.00    -0.550 OA
ATOM     24  O   UNL     1      -4.016   3.267  60.092  1.00  0.00    -0.550 OA
ENDBRANCH  21  22
ENDBRANCH  20  21
ENDBRANCH  19  20
ENDBRANCH  18  19
ENDBRANCH  17  18
ENDBRANCH  16  17
ENDBRANCH  15  16
ENDBRANCH  14  15
ENDBRANCH  13  14
ENDBRANCH   1  13
TORSDOF 20
ENDMDL
MODEL 5
REMARK VINA RESULT:    -3.530      7.367     10.568
REMARK INTER + INTRA:         -12.031
REMARK INTER:                  -8.618
REMARK INTRA:                  -3.414
REMARK UNBOUND:                -4.374
REMARK SMILES CCCCCCCCCCCCCCCCCCCCCC(=O)[O-]
REMARK SMILES IDX 12 1 11 2 10 3 9 4 8 5 7 6 6 7 5 8 4 9 3 10 2 11 1 12 13 13
REMARK SMILES IDX 14 14 15 15 16 16 17 17 18 18 19 19 20 20 21 21 22 22 23 23
REMARK SMILES IDX 24 24
REMARK H PARENT
REMARK Flexibility Score: inf
ROOT
ATOM      1  C   UNL     1      -0.720  -1.539  58.002  1.00  0.00     0.000 C 
ENDROOT
BRANCH   1   2
ATOM      2  C   UNL     1      -0.034  -2.322  59.135  1.00  0.00     0.000 C 
BRANCH   2   3
ATOM      3  C   UNL     1      -0.386  -1.783  60.532  1.00  0.00     0.000 C 
BRANCH   3   4
ATOM      4  C   UNL     1       0.678  -0.861  61.153  1.00  0.00    -0.000 C 
BRANCH   4   5
ATOM      5  C   UNL     1       2.007  -0.869  60.376  1.00  0.00    -0.000 C 
BRANCH   5   6
ATOM      6  C   UNL     1       2.244   0.449  59.613  1.00  0.00    -0.000 C 
BRANCH   6   7
ATOM      7  C   UNL     1       1.831   1.712  60.396  1.00  0.00    -0.000 C 
BRANCH   7   8
ATOM      8  C   UNL     1       0.816   2.612  59.663  1.00  0.00    -0.000 C 
BRANCH   8   9
ATOM      9  C   UNL     1      -0.609   2.485  60.227  1.00  0.00    -0.000 C 
BRANCH   9  10
ATOM     10  C   UNL     1      -1.494   1.522  59.412  1.00  0.00    -0.000 C 
BRANCH  10  11
ATOM     11  C   UNL     1      -2.836   2.129  58.960  1.00  0.00    -0.003 C 
ATOM     12  C   UNL     1      -3.077   2.019  57.457  1.00  0.00     0.004 C 
ENDBRANCH  10  11
ENDBRANCH   9  10
ENDBRANCH   8   9
ENDBRANCH   7   8
ENDBRANCH   6   7
ENDBRANCH   5   6
ENDBRANCH   4   5
ENDBRANCH   3   4
ENDBRANCH   2   3
ENDBRANCH   1   2
BRANCH   1  13
ATOM     13  C   UNL     1       0.255  -1.131  56.884  1.00  0.00     0.000 C 
BRANCH  13  14
ATOM     14  C   UNL     1      -0.037   0.235  56.227  1.00  0.00     0.000 C 
BRANCH  14  15
ATOM     15  C   UNL     1       1.145   1.223  56.224  1.00  0.00     0.000 C 
BRANCH  15  16
ATOM     16  C   UNL     1       1.945   1.265  54.908  1.00  0.00     0.000 C 
BRANCH  16  17
ATOM     17  C   UNL     1       2.960   0.110  54.769  1.00  0.00     0.000 C 
BRANCH  17  18
ATOM     18  C   UNL     1       2.778  -0.673  53.458  1.00  0.00     0.000 C 
BRANCH  18  19
ATOM     19  C   UNL     1       2.218  -2.086  53.698  1.00  0.00     0.000 C 
BRANCH  19  20
ATOM     20  C   UNL     1       0.744  -2.203  53.272  1.00  0.00     0.006 C 
BRANCH  20  21
ATOM     21  C   UNL     1       0.034  -3.378  53.957  1.00  0.00     0.053 C 
BRANCH  21  22
ATOM     22  C   UNL     1       0.524  -4.694  53.435  1.00  0.00     0.041 C 
ATOM     23  O   UNL     1       1.279  -5.417  54.137  1.00  0.00    -0.550 OA
ATOM     24  O   UNL     1       0.125  -5.134  52.178  1.00  0.00    -0.550 OA
ENDBRANCH  21  22
ENDBRANCH  20  21
ENDBRANCH  19  20
ENDBRANCH  18  19
ENDBRANCH  17  18
ENDBRANCH  16  17
ENDBRANCH  15  16
ENDBRANCH  14  15
ENDBRANCH  13  14
ENDBRANCH   1  13
TORSDOF 20
ENDMDL
MODEL 6
REMARK VINA RESULT:    -3.509      1.851      3.741
REMARK INTER + INTRA:         -11.986
REMARK INTER:                  -9.247
REMARK INTRA:                  -2.739
REMARK UNBOUND:                -4.374
REMARK SMILES CCCCCCCCCCCCCCCCCCCCCC(=O)[O-]
REMARK SMILES IDX 12 1 11 2 10 3 9 4 8 5 7 6 6 7 5 8 4 9 3 10 2 11 1 12 13 13
REMARK SMILES IDX 14 14 15 15 16 16 17 17 18 18 19 19 20 20 21 21 22 22 23 23
REMARK SMILES IDX 24 24
REMARK H PARENT
REMARK Flexibility Score: inf
ROOT
ATOM      1  C   UNL     1      -7.571   5.696  56.501  1.00  0.00     0.000 C 
ENDROOT
BRANCH   1   2
ATOM      2  C   UNL     1      -6.902   6.167  57.803  1.00  0.00     0.000 C 
BRANCH   2   3
ATOM      3  C   UNL     1      -5.447   5.683  57.936  1.00  0.00     0.000 C 
BRANCH   3   4
ATOM      4  C   UNL     1      -5.165   4.832  59.187  1.00  0.00    -0.000 C 
BRANCH   4   5
ATOM      5  C   UNL     1      -5.635   3.374  59.041  1.00  0.00    -0.000 C 
BRANCH   5   6
ATOM      6  C   UNL     1      -6.739   3.013  60.054  1.00  0.00    -0.000 C 
BRANCH   6   7
ATOM      7  C   UNL     1      -8.170   3.289  59.549  1.00  0.00    -0.000 C 
BRANCH   7   8
ATOM      8  C   UNL     1      -8.900   4.425  60.294  1.00  0.00    -0.000 C 
BRANCH   8   9
ATOM      9  C   UNL     1      -8.287   4.723  61.673  1.00  0.00    -0.000 C 
BRANCH   9  10
ATOM     10  C   UNL     1      -7.753   6.164  61.794  1.00  0.00    -0.000 C 
BRANCH  10  11
ATOM     11  C   UNL     1      -8.417   7.165  60.828  1.00  0.00    -0.003 C 
ATOM     12  C   UNL     1      -8.942   8.419  61.521  1.00  0.00     0.004 C 
ENDBRANCH  10  11
ENDBRANCH   9  10
ENDBRANCH   8   9
ENDBRANCH   7   8
ENDBRANCH   6   7
ENDBRANCH   5   6
ENDBRANCH   4   5
ENDBRANCH   3   4
ENDBRANCH   2   3
ENDBRANCH   1   2
BRANCH   1  13
ATOM     13  C   UNL     1      -6.626   4.869  55.610  1.00  0.00     0.000 C 
BRANCH  13  14
ATOM     14  C   UNL     1      -6.992   3.375  55.480  1.00  0.00     0.000 C 
BRANCH  14  15
ATOM     15  C   UNL     1      -6.358   2.650  54.278  1.00  0.00     0.000 C 
BRANCH  15  16
ATOM     16  C   UNL     1      -5.922   3.575  53.125  1.00  0.00     0.000 C 
BRANCH  16  17
ATOM     17  C   UNL     1      -6.909   3.582  51.938  1.00  0.00     0.000 C 
BRANCH  17  18
ATOM     18  C   UNL     1      -7.056   4.977  51.307  1.00  0.00     0.000 C 
BRANCH  18  19
ATOM     19  C   UNL     1      -8.241   5.759  51.897  1.00  0.00     0.000 C 
BRANCH  19  20
ATOM     20  C   UNL     1      -9.496   5.662  51.012  1.00  0.00     0.006 C 
BRANCH  20  21
ATOM     21  C   UNL     1     -10.623   4.871  51.690  1.00  0.00     0.053 C 
BRANCH  21  22
ATOM     22  C   UNL     1     -10.643   3.445  51.233  1.00  0.00     0.041 C 
ATOM     23  O   UNL     1     -11.006   3.156  50.062  1.00  0.00    -0.550 OA
ATOM     24  O   UNL     1     -10.238   2.433  52.096  1.00  0.00    -0.550 OA
ENDBRANCH  21  22
ENDBRANCH  20  21
ENDBRANCH  19  20
ENDBRANCH  18  19
ENDBRANCH  17  18
ENDBRANCH  16  17
ENDBRANCH  15  16
ENDBRANCH  14  15
ENDBRANCH  13  14
ENDBRANCH   1  13
TORSDOF 20
ENDMDL
MODEL 7
REMARK VINA RESULT:    -3.509      1.801      3.571
REMARK INTER + INTRA:         -11.985
REMARK INTER:                  -8.636
REMARK INTRA:                  -3.349
REMARK UNBOUND:                -4.374
REMARK SMILES CCCCCCCCCCCCCCCCCCCCCC(=O)[O-]
REMARK SMILES IDX 12 1 11 2 10 3 9 4 8 5 7 6 6 7 5 8 4 9 3 10 2 11 1 12 13 13
REMARK SMILES IDX 14 14 15 15 16 16 17 17 18 18 19 19 20 20 21 21 22 22 23 23
REMARK SMILES IDX 24 24
REMARK H PARENT
REMARK Flexibility Score: inf
ROOT
ATOM      1  C   UNL     1      -8.509   5.051  59.477  1.00  0.00     0.000 C 
ENDROOT
BRANCH   1   2
ATOM      2  C   UNL     1      -7.214   4.856  60.282  1.00  0.00     0.000 C 
BRANCH   2   3
ATOM      3  C   UNL     1      -6.197   5.989  60.062  1.00  0.00     0.000 C 
BRANCH   3   4
ATOM      4  C   UNL     1      -4.784   5.519  59.675  1.00  0.00    -0.000 C 
BRANCH   4   5
ATOM      5  C   UNL     1      -4.726   4.025  59.309  1.00  0.00    -0.000 C 
BRANCH   5   6
ATOM      6  C   UNL     1      -3.567   3.296  60.017  1.00  0.00    -0.000 C 
BRANCH   6   7
ATOM      7  C   UNL     1      -3.051   2.055  59.263  1.00  0.00    -0.000 C 
BRANCH   7   8
ATOM      8  C   UNL     1      -3.700   1.834  57.881  1.00  0.00    -0.000 C 
BRANCH   8   9
ATOM      9  C   UNL     1      -4.149   0.380  57.659  1.00  0.00    -0.000 C 
BRANCH   9  10
ATOM     10  C   UNL     1      -5.529   0.274  56.981  1.00  0.00    -0.000 C 
BRANCH  10  11
ATOM     11  C   UNL     1      -6.687   0.854  57.816  1.00  0.00    -0.003 C 
ATOM     12  C   UNL     1      -6.562   0.564  59.310  1.00  0.00     0.004 C 
ENDBRANCH  10  11
ENDBRANCH   9  10
ENDBRANCH   8   9
ENDBRANCH   7   8
ENDBRANCH   6   7
ENDBRANCH   5   6
ENDBRANCH   4   5
ENDBRANCH   3   4
ENDBRANCH   2   3
ENDBRANCH   1   2
BRANCH   1  13
ATOM     13  C   UNL     1      -8.497   6.336  58.630  1.00  0.00     0.000 C 
BRANCH  13  14
ATOM     14  C   UNL     1      -8.849   6.140  57.140  1.00  0.00     0.000 C 
BRANCH  14  15
ATOM     15  C   UNL     1      -7.737   6.535  56.150  1.00  0.00     0.000 C 
BRANCH  15  16
ATOM     16  C   UNL     1      -6.415   5.763  56.325  1.00  0.00     0.000 C 
BRANCH  16  17
ATOM     17  C   UNL     1      -6.592   4.230  56.306  1.00  0.00     0.000 C 
BRANCH  17  18
ATOM     18  C   UNL     1      -5.647   3.544  55.306  1.00  0.00     0.000 C 
BRANCH  18  19
ATOM     19  C   UNL     1      -6.401   2.958  54.101  1.00  0.00     0.000 C 
BRANCH  19  20
ATOM     20  C   UNL     1      -6.321   3.874  52.868  1.00  0.00     0.006 C 
BRANCH  20  21
ATOM     21  C   UNL     1      -7.540   4.799  52.753  1.00  0.00     0.053 C 
BRANCH  21  22
ATOM     22  C   UNL     1      -7.808   5.179  51.329  1.00  0.00     0.041 C 
ATOM     23  O   UNL     1      -8.915   5.684  51.002  1.00  0.00    -0.550 OA
ATOM     24  O   UNL     1      -6.824   4.995  50.364  1.00  0.00    -0.550 OA
ENDBRANCH  21  22
ENDBRANCH  20  21
ENDBRANCH  19  20
ENDBRANCH  18  19
ENDBRANCH  17  18
ENDBRANCH  16  17
ENDBRANCH  15  16
ENDBRANCH  14  15
ENDBRANCH  13  14
ENDBRANCH   1  13
TORSDOF 20
ENDMDL
MODEL 8
REMARK VINA RESULT:    -3.501      1.619      3.325
REMARK INTER + INTRA:         -11.969
REMARK INTER:                  -8.105
REMARK INTRA:                  -3.864
REMARK UNBOUND:                -4.374
REMARK SMILES CCCCCCCCCCCCCCCCCCCCCC(=O)[O-]
REMARK SMILES IDX 12 1 11 2 10 3 9 4 8 5 7 6 6 7 5 8 4 9 3 10 2 11 1 12 13 13
REMARK SMILES IDX 14 14 15 15 16 16 17 17 18 18 19 19 20 20 21 21 22 22 23 23
REMARK SMILES IDX 24 24
REMARK H PARENT
REMARK Flexibility Score: inf
ROOT
ATOM      1  C   UNL     1      -8.748   5.816  54.787  1.00  0.00     0.000 C 
ENDROOT
BRANCH   1   2
ATOM      2  C   UNL     1      -9.972   4.948  55.122  1.00  0.00     0.000 C 
BRANCH   2   3
ATOM      3  C   UNL     1      -9.655   3.442  55.121  1.00  0.00     0.000 C 
BRANCH   3   4
ATOM      4  C   UNL     1     -10.342   2.640  56.240  1.00  0.00    -0.000 C 
BRANCH   4   5
ATOM      5  C   UNL     1     -10.814   3.522  57.410  1.00  0.00    -0.000 C 
BRANCH   5   6
ATOM      6  C   UNL     1     -10.027   3.241  58.705  1.00  0.00    -0.000 C 
BRANCH   6   7
ATOM      7  C   UNL     1      -8.807   4.160  58.911  1.00  0.00    -0.000 C 
BRANCH   7   8
ATOM      8  C   UNL     1      -9.151   5.570  59.433  1.00  0.00    -0.000 C 
BRANCH   8   9
ATOM      9  C   UNL     1      -7.904   6.386  59.812  1.00  0.00    -0.000 C 
BRANCH   9  10
ATOM     10  C   UNL     1      -6.727   5.504  60.276  1.00  0.00    -0.000 C 
BRANCH  10  11
ATOM     11  C   UNL     1      -5.396   5.803  59.560  1.00  0.00    -0.003 C 
ATOM     12  C   UNL     1      -4.453   4.603  59.509  1.00  0.00     0.004 C 
ENDBRANCH  10  11
ENDBRANCH   9  10
ENDBRANCH   8   9
ENDBRANCH   7   8
ENDBRANCH   6   7
ENDBRANCH   5   6
ENDBRANCH   4   5
ENDBRANCH   3   4
ENDBRANCH   2   3
ENDBRANCH   1   2
BRANCH   1  13
ATOM     13  C   UNL     1      -8.012   6.320  56.041  1.00  0.00     0.000 C 
BRANCH  13  14
ATOM     14  C   UNL     1      -6.539   5.875  56.158  1.00  0.00     0.000 C 
BRANCH  14  15
ATOM     15  C   UNL     1      -6.316   4.351  56.173  1.00  0.00     0.000 C 
BRANCH  15  16
ATOM     16  C   UNL     1      -5.609   3.791  54.924  1.00  0.00     0.000 C 
BRANCH  16  17
ATOM     17  C   UNL     1      -6.225   2.473  54.408  1.00  0.00     0.000 C 
BRANCH  17  18
ATOM     18  C   UNL     1      -6.718   2.587  52.956  1.00  0.00     0.000 C 
BRANCH  18  19
ATOM     19  C   UNL     1      -6.623   4.026  52.421  1.00  0.00     0.000 C 
BRANCH  19  20
ATOM     20  C   UNL     1      -7.486   4.234  51.165  1.00  0.00     0.006 C 
BRANCH  20  21
ATOM     21  C   UNL     1      -8.288   5.541  51.222  1.00  0.00     0.053 C 
BRANCH  21  22
ATOM     22  C   UNL     1      -9.759   5.287  51.100  1.00  0.00     0.041 C 
ATOM     23  O   UNL     1     -10.515   6.157  50.590  1.00  0.00    -0.550 OA
ATOM     24  O   UNL     1     -10.294   4.077  51.528  1.00  0.00    -0.550 OA
ENDBRANCH  21  22
ENDBRANCH  20  21
ENDBRANCH  19  20
ENDBRANCH  18  19
ENDBRANCH  17  18
ENDBRANCH  16  17
ENDBRANCH  15  16
ENDBRANCH  14  15
ENDBRANCH  13  14
ENDBRANCH   1  13
TORSDOF 20
ENDMDL
MODEL 9
REMARK VINA RESULT:    -3.461      3.348      7.335
REMARK INTER + INTRA:         -11.882
REMARK INTER:                  -8.433
REMARK INTRA:                  -3.449
REMARK UNBOUND:                -4.374
REMARK SMILES CCCCCCCCCCCCCCCCCCCCCC(=O)[O-]
REMARK SMILES IDX 12 1 11 2 10 3 9 4 8 5 7 6 6 7 5 8 4 9 3 10 2 11 1 12 13 13
REMARK SMILES IDX 14 14 15 15 16 16 17 17 18 18 19 19 20 20 21 21 22 22 23 23
REMARK SMILES IDX 24 24
REMARK H PARENT
REMARK Flexibility Score: inf
ROOT
ATOM      1  C   UNL     1      -5.508   5.745  57.533  1.00  0.00     0.000 C 
ENDROOT
BRANCH   1   2
ATOM      2  C   UNL     1      -6.942   6.125  57.129  1.00  0.00     0.000 C 
BRANCH   2   3
ATOM      3  C   UNL     1      -7.475   5.282  55.956  1.00  0.00     0.000 C 
BRANCH   3   4
ATOM      4  C   UNL     1      -6.489   4.229  55.421  1.00  0.00    -0.000 C 
BRANCH   4   5
ATOM      5  C   UNL     1      -7.007   3.503  54.167  1.00  0.00    -0.000 C 
BRANCH   5   6
ATOM      6  C   UNL     1      -6.199   3.869  52.906  1.00  0.00    -0.000 C 
BRANCH   6   7
ATOM      7  C   UNL     1      -7.065   4.122  51.656  1.00  0.00    -0.000 C 
BRANCH   7   8
ATOM      8  C   UNL     1      -7.686   5.532  51.587  1.00  0.00    -0.000 C 
BRANCH   8   9
ATOM      9  C   UNL     1      -9.203   5.503  51.337  1.00  0.00    -0.000 C 
BRANCH   9  10
ATOM     10  C   UNL     1     -10.014   6.127  52.490  1.00  0.00    -0.000 C 
BRANCH  10  11
ATOM     11  C   UNL     1     -10.293   5.162  53.659  1.00  0.00    -0.003 C 
ATOM     12  C   UNL     1     -10.599   3.736  53.207  1.00  0.00     0.004 C 
ENDBRANCH  10  11
ENDBRANCH   9  10
ENDBRANCH   8   9
ENDBRANCH   7   8
ENDBRANCH   6   7
ENDBRANCH   5   6
ENDBRANCH   4   5
ENDBRANCH   3   4
ENDBRANCH   2   3
ENDBRANCH   1   2
BRANCH   1  13
ATOM     13  C   UNL     1      -5.300   5.743  59.058  1.00  0.00     0.000 C 
BRANCH  13  14
ATOM     14  C   UNL     1      -4.615   4.480  59.623  1.00  0.00     0.000 C 
BRANCH  14  15
ATOM     15  C   UNL     1      -4.382   3.352  58.600  1.00  0.00     0.000 C 
BRANCH  15  16
ATOM     16  C   UNL     1      -5.260   2.103  58.807  1.00  0.00     0.000 C 
BRANCH  16  17
ATOM     17  C   UNL     1      -6.534   2.378  59.634  1.00  0.00     0.000 C 
BRANCH  17  18
ATOM     18  C   UNL     1      -7.727   2.784  58.752  1.00  0.00     0.000 C 
BRANCH  18  19
ATOM     19  C   UNL     1      -8.608   3.851  59.422  1.00  0.00     0.000 C 
BRANCH  19  20
ATOM     20  C   UNL     1      -8.142   4.170  60.853  1.00  0.00     0.006 C 
BRANCH  20  21
ATOM     21  C   UNL     1      -8.975   5.286  61.499  1.00  0.00     0.053 C 
BRANCH  21  22
ATOM     22  C   UNL     1      -8.495   6.641  61.078  1.00  0.00     0.041 C 
ATOM     23  O   UNL     1      -9.114   7.290  60.193  1.00  0.00    -0.550 OA
ATOM     24  O   UNL     1      -7.375   7.200  61.683  1.00  0.00    -0.550 OA
ENDBRANCH  21  22
ENDBRANCH  20  21
ENDBRANCH  19  20
ENDBRANCH  18  19
ENDBRANCH  17  18
ENDBRANCH  16  17
ENDBRANCH  15  16
ENDBRANCH  14  15
ENDBRANCH  13  14
ENDBRANCH   1  13
TORSDOF 20
ENDMDL
