MODEL 1
REMARK VINA RESULT:    -6.855      0.000      0.000
REMARK INTER + INTRA:          -8.128
REMARK INTER:                  -8.257
REMARK INTRA:                   0.130
REMARK UNBOUND:                 0.130
REMARK SMILES O=c1c(O)c(-c2ccc(O)c(O)c2)oc2cc(O)cc(O)c12
REMARK SMILES IDX 5 1 3 2 2 3 1 4 22 5 20 6 19 7 17 8 16 9 15 10 14 11 6 12
REMARK SMILES IDX 7 13 8 14 9 15 13 16 11 17 10 18 12 20 4 22 21 24 18 26
REMARK H PARENT 10 19 12 21 4 23 21 25 18 27
REMARK Flexibility Score: inf
ROOT
ATOM      1  C   UNL     1       2.463  -8.152   6.753  1.00  0.00     0.180 A 
ATOM      2  C   UNL     1       3.658  -7.572   7.212  1.00  0.00     0.208 A 
ATOM      3  C   UNL     1       3.606  -6.655   8.274  1.00  0.00     0.238 A 
ATOM      4  O   UNL     1       4.686  -6.197   8.729  1.00  0.00    -0.285 OA
ATOM      5  C   UNL     1       2.355  -6.286   8.826  1.00  0.00     0.111 A 
ATOM      6  C   UNL     1       2.179  -5.331   9.874  1.00  0.00     0.134 A 
ATOM      7  C   UNL     1       0.903  -5.124  10.413  1.00  0.00     0.093 A 
ATOM      8  C   UNL     1      -0.212  -5.787   9.901  1.00  0.00     0.123 A 
ATOM      9  C   UNL     1      -0.060  -6.681   8.840  1.00  0.00     0.094 A 
ATOM     10  C   UNL     1       1.206  -6.938   8.306  1.00  0.00     0.146 A 
ATOM     11  O   UNL     1       1.309  -7.811   7.312  1.00  0.00    -0.452 OA
ENDROOT
BRANCH   1  12
ATOM     12  C   UNL     1       2.439  -9.138   5.649  1.00  0.00     0.025 A 
ATOM     13  C   UNL     1       1.622 -10.280   5.704  1.00  0.00     0.016 A 
ATOM     14  C   UNL     1       1.599 -11.184   4.638  1.00  0.00     0.051 A 
ATOM     15  C   UNL     1       2.379 -10.954   3.498  1.00  0.00     0.157 A 
ATOM     16  C   UNL     1       3.204  -8.900   4.495  1.00  0.00     0.062 A 
ATOM     17  C   UNL     1       3.182  -9.804   3.425  1.00  0.00     0.158 A 
BRANCH  15  18
ATOM     18  O   UNL     1       2.354 -11.859   2.438  1.00  0.00    -0.504 OA
ATOM     19  H   UNL     1       3.064 -12.573   2.333  1.00  0.00     0.293 HD
ENDBRANCH  15  18
BRANCH  17  20
ATOM     20  O   UNL     1       3.966  -9.541   2.301  1.00  0.00    -0.504 OA
ATOM     21  H   UNL     1       3.603  -9.632   1.360  1.00  0.00     0.293 HD
ENDBRANCH  17  20
ENDBRANCH   1  12
BRANCH   2  22
ATOM     22  O   UNL     1       4.875  -7.893   6.604  1.00  0.00    -0.502 OA
ATOM     23  H   UNL     1       5.357  -7.253   5.983  1.00  0.00     0.293 HD
ENDBRANCH   2  22
BRANCH   6  24
ATOM     24  O   UNL     1       3.211  -4.548  10.401  1.00  0.00    -0.507 OA
ATOM     25  H   UNL     1       3.349  -4.358  11.382  1.00  0.00     0.293 HD
ENDBRANCH   6  24
BRANCH   8  26
ATOM     26  O   UNL     1      -1.469  -5.544  10.450  1.00  0.00    -0.508 OA
ATOM     27  H   UNL     1      -2.293  -6.038  10.128  1.00  0.00     0.293 HD
ENDBRANCH   8  26
TORSDOF 6
ENDMDL
MODEL 2
REMARK VINA RESULT:    -6.632      1.406      7.399
REMARK INTER + INTRA:          -7.859
REMARK INTER:                  -8.069
REMARK INTRA:                   0.210
REMARK UNBOUND:                 0.130
REMARK SMILES O=c1c(O)c(-c2ccc(O)c(O)c2)oc2cc(O)cc(O)c12
REMARK SMILES IDX 5 1 3 2 2 3 1 4 22 5 20 6 19 7 17 8 16 9 15 10 14 11 6 12
REMARK SMILES IDX 7 13 8 14 9 15 13 16 11 17 10 18 12 20 4 22 21 24 18 26
REMARK H PARENT 10 19 12 21 4 23 21 25 18 27
REMARK Flexibility Score: inf
ROOT
ATOM      1  C   UNL     1       2.783  -8.427   6.335  1.00  0.00     0.180 A 
ATOM      2  C   UNL     1       1.946  -9.556   6.287  1.00  0.00     0.208 A 
ATOM      3  C   UNL     1       2.038 -10.425   5.188  1.00  0.00     0.238 A 
ATOM      4  O   UNL     1       1.340 -11.471   5.187  1.00  0.00    -0.285 OA
ATOM      5  C   UNL     1       2.923 -10.125   4.124  1.00  0.00     0.111 A 
ATOM      6  C   UNL     1       3.065 -10.910   2.940  1.00  0.00     0.134 A 
ATOM      7  C   UNL     1       4.049 -10.575   2.002  1.00  0.00     0.093 A 
ATOM      8  C   UNL     1       4.853  -9.448   2.172  1.00  0.00     0.123 A 
ATOM      9  C   UNL     1       4.685  -8.642   3.299  1.00  0.00     0.094 A 
ATOM     10  C   UNL     1       3.737  -8.972   4.271  1.00  0.00     0.146 A 
ATOM     11  O   UNL     1       3.626  -8.190   5.337  1.00  0.00    -0.452 OA
ENDROOT
BRANCH   1  12
ATOM     12  C   UNL     1       2.755  -7.473   7.467  1.00  0.00     0.025 A 
ATOM     13  C   UNL     1       3.929  -6.860   7.937  1.00  0.00     0.016 A 
ATOM     14  C   UNL     1       3.875  -5.945   8.992  1.00  0.00     0.051 A 
ATOM     15  C   UNL     1       2.647  -5.618   9.582  1.00  0.00     0.157 A 
ATOM     16  C   UNL     1       1.524  -7.126   8.047  1.00  0.00     0.062 A 
ATOM     17  C   UNL     1       1.466  -6.209   9.104  1.00  0.00     0.158 A 
BRANCH  15  18
ATOM     18  O   UNL     1       2.597  -4.706  10.635  1.00  0.00    -0.504 OA
ATOM     19  H   UNL     1       2.830  -4.975  11.583  1.00  0.00     0.293 HD
ENDBRANCH  15  18
BRANCH  17  20
ATOM     20  O   UNL     1       0.227  -5.900   9.665  1.00  0.00    -0.504 OA
ATOM     21  H   UNL     1      -0.111  -4.947   9.731  1.00  0.00     0.293 HD
ENDBRANCH  17  20
ENDBRANCH   1  12
BRANCH   2  22
ATOM     22  O   UNL     1       1.026  -9.792   7.311  1.00  0.00    -0.502 OA
ATOM     23  H   UNL     1       1.304 -10.126   8.227  1.00  0.00     0.293 HD
ENDBRANCH   2  22
BRANCH   6  24
ATOM     24  O   UNL     1       2.255 -12.007   2.626  1.00  0.00    -0.507 OA
ATOM     25  H   UNL     1       1.839 -12.630   3.300  1.00  0.00     0.293 HD
ENDBRANCH   6  24
BRANCH   8  26
ATOM     26  O   UNL     1       5.811  -9.135   1.210  1.00  0.00    -0.508 OA
ATOM     27  H   UNL     1       6.505  -9.811   0.914  1.00  0.00     0.293 HD
ENDBRANCH   8  26
TORSDOF 6
ENDMDL
MODEL 3
REMARK VINA RESULT:    -6.364      9.727     11.564
REMARK INTER + INTRA:          -7.537
REMARK INTER:                  -7.207
REMARK INTRA:                  -0.330
REMARK UNBOUND:                 0.130
REMARK SMILES O=c1c(O)c(-c2ccc(O)c(O)c2)oc2cc(O)cc(O)c12
REMARK SMILES IDX 5 1 3 2 2 3 1 4 22 5 20 6 19 7 17 8 16 9 15 10 14 11 6 12
REMARK SMILES IDX 7 13 8 14 9 15 13 16 11 17 10 18 12 20 4 22 21 24 18 26
REMARK H PARENT 10 19 12 21 4 23 21 25 18 27
REMARK Flexibility Score: inf
ROOT
ATOM      1  C   UNL     1      -3.594  -0.135  10.779  1.00  0.00     0.180 A 
ATOM      2  C   UNL     1      -4.852   0.284  10.313  1.00  0.00     0.208 A 
ATOM      3  C   UNL     1      -5.950  -0.581  10.447  1.00  0.00     0.238 A 
ATOM      4  O   UNL     1      -7.087  -0.171  10.096  1.00  0.00    -0.285 OA
ATOM      5  C   UNL     1      -5.767  -1.875  10.992  1.00  0.00     0.111 A 
ATOM      6  C   UNL     1      -6.799  -2.852  11.133  1.00  0.00     0.134 A 
ATOM      7  C   UNL     1      -6.523  -4.060  11.784  1.00  0.00     0.093 A 
ATOM      8  C   UNL     1      -5.240  -4.355  12.243  1.00  0.00     0.123 A 
ATOM      9  C   UNL     1      -4.210  -3.431  12.061  1.00  0.00     0.094 A 
ATOM     10  C   UNL     1      -4.463  -2.200  11.449  1.00  0.00     0.146 A 
ATOM     11  O   UNL     1      -3.459  -1.342  11.316  1.00  0.00    -0.452 OA
ENDROOT
BRANCH   1  12
ATOM     12  C   UNL     1      -2.393   0.725  10.687  1.00  0.00     0.025 A 
ATOM     13  C   UNL     1      -2.091   1.671  11.682  1.00  0.00     0.016 A 
ATOM     14  C   UNL     1      -0.938   2.455  11.585  1.00  0.00     0.051 A 
ATOM     15  C   UNL     1      -0.064   2.297  10.501  1.00  0.00     0.157 A 
ATOM     16  C   UNL     1      -1.503   0.555   9.614  1.00  0.00     0.062 A 
ATOM     17  C   UNL     1      -0.346   1.339   9.513  1.00  0.00     0.158 A 
BRANCH  15  18
ATOM     18  O   UNL     1       1.084   3.082  10.407  1.00  0.00    -0.504 OA
ATOM     19  H   UNL     1       1.241   3.700   9.620  1.00  0.00     0.293 HD
ENDBRANCH  15  18
BRANCH  17  20
ATOM     20  O   UNL     1       0.506   1.151   8.426  1.00  0.00    -0.504 OA
ATOM     21  H   UNL     1       1.359   0.609   8.499  1.00  0.00     0.293 HD
ENDBRANCH  17  20
ENDBRANCH   1  12
BRANCH   2  22
ATOM     22  O   UNL     1      -4.997   1.535   9.709  1.00  0.00    -0.502 OA
ATOM     23  H   UNL     1      -4.288   1.932   9.102  1.00  0.00     0.293 HD
ENDBRANCH   2  22
BRANCH   6  24
ATOM     24  O   UNL     1      -8.096  -2.697  10.634  1.00  0.00    -0.507 OA
ATOM     25  H   UNL     1      -8.796  -3.422  10.608  1.00  0.00     0.293 HD
ENDBRANCH   6  24
BRANCH   8  26
ATOM     26  O   UNL     1      -4.997  -5.575  12.871  1.00  0.00    -0.508 OA
ATOM     27  H   UNL     1      -5.498  -5.848  13.709  1.00  0.00     0.293 HD
ENDBRANCH   8  26
TORSDOF 6
ENDMDL
MODEL 4
REMARK VINA RESULT:    -6.133      9.803     11.423
REMARK INTER + INTRA:          -7.258
REMARK INTER:                  -6.975
REMARK INTRA:                  -0.284
REMARK UNBOUND:                 0.130
REMARK SMILES O=c1c(O)c(-c2ccc(O)c(O)c2)oc2cc(O)cc(O)c12
REMARK SMILES IDX 5 1 3 2 2 3 1 4 22 5 20 6 19 7 17 8 16 9 15 10 14 11 6 12
REMARK SMILES IDX 7 13 8 14 9 15 13 16 11 17 10 18 12 20 4 22 21 24 18 26
REMARK H PARENT 10 19 12 21 4 23 21 25 18 27
REMARK Flexibility Score: inf
ROOT
ATOM      1  C   UNL     1      -3.283  -0.251  11.660  1.00  0.00     0.180 A 
ATOM      2  C   UNL     1      -4.092   0.831  12.048  1.00  0.00     0.208 A 
ATOM      3  C   UNL     1      -3.613   2.138  11.868  1.00  0.00     0.238 A 
ATOM      4  O   UNL     1      -4.371   3.102  12.148  1.00  0.00    -0.285 OA
ATOM      5  C   UNL     1      -2.309   2.347  11.356  1.00  0.00     0.111 A 
ATOM      6  C   UNL     1      -1.702   3.627  11.175  1.00  0.00     0.134 A 
ATOM      7  C   UNL     1      -0.446   3.717  10.561  1.00  0.00     0.093 A 
ATOM      8  C   UNL     1       0.252   2.572  10.180  1.00  0.00     0.123 A 
ATOM      9  C   UNL     1      -0.306   1.313  10.403  1.00  0.00     0.094 A 
ATOM     10  C   UNL     1      -1.574   1.193  10.979  1.00  0.00     0.146 A 
ATOM     11  O   UNL     1      -2.077  -0.023  11.153  1.00  0.00    -0.452 OA
ENDROOT
BRANCH   1  12
ATOM     12  C   UNL     1      -3.724  -1.657  11.804  1.00  0.00     0.025 A 
ATOM     13  C   UNL     1      -3.304  -2.450  12.885  1.00  0.00     0.016 A 
ATOM     14  C   UNL     1      -3.753  -3.767  13.013  1.00  0.00     0.051 A 
ATOM     15  C   UNL     1      -4.639  -4.306  12.071  1.00  0.00     0.157 A 
ATOM     16  C   UNL     1      -4.629  -2.194  10.874  1.00  0.00     0.062 A 
ATOM     17  C   UNL     1      -5.082  -3.514  10.998  1.00  0.00     0.158 A 
BRANCH  15  18
ATOM     18  O   UNL     1      -5.084  -5.621  12.200  1.00  0.00    -0.504 OA
ATOM     19  H   UNL     1      -6.047  -5.835  12.431  1.00  0.00     0.293 HD
ENDBRANCH  15  18
BRANCH  17  20
ATOM     20  O   UNL     1      -5.969  -4.018  10.048  1.00  0.00    -0.504 OA
ATOM     21  H   UNL     1      -6.293  -3.461   9.266  1.00  0.00     0.293 HD
ENDBRANCH  17  20
ENDBRANCH   1  12
BRANCH   2  22
ATOM     22  O   UNL     1      -5.345   0.601  12.622  1.00  0.00    -0.502 OA
ATOM     23  H   UNL     1      -6.018  -0.040  12.219  1.00  0.00     0.293 HD
ENDBRANCH   2  22
BRANCH   6  24
ATOM     24  O   UNL     1      -2.274   4.832  11.599  1.00  0.00    -0.507 OA
ATOM     25  H   UNL     1      -2.214   5.203  12.534  1.00  0.00     0.293 HD
ENDBRANCH   6  24
BRANCH   8  26
ATOM     26  O   UNL     1       1.507   2.698   9.587  1.00  0.00    -0.508 OA
ATOM     27  H   UNL     1       2.180   1.941   9.606  1.00  0.00     0.293 HD
ENDBRANCH   8  26
TORSDOF 6
ENDMDL
MODEL 5
REMARK VINA RESULT:    -6.119      9.694     12.371
REMARK INTER + INTRA:          -7.241
REMARK INTER:                  -6.925
REMARK INTRA:                  -0.316
REMARK UNBOUND:                 0.130
REMARK SMILES O=c1c(O)c(-c2ccc(O)c(O)c2)oc2cc(O)cc(O)c12
REMARK SMILES IDX 5 1 3 2 2 3 1 4 22 5 20 6 19 7 17 8 16 9 15 10 14 11 6 12
REMARK SMILES IDX 7 13 8 14 9 15 13 16 11 17 10 18 12 20 4 22 21 24 18 26
REMARK H PARENT 10 19 12 21 4 23 21 25 18 27
REMARK Flexibility Score: inf
ROOT
ATOM      1  C   UNL     1      -1.427   1.709  10.677  1.00  0.00     0.180 A 
ATOM      2  C   UNL     1      -0.594   0.697  10.166  1.00  0.00     0.208 A 
ATOM      3  C   UNL     1       0.659   1.048   9.640  1.00  0.00     0.238 A 
ATOM      4  O   UNL     1       1.429   0.131   9.253  1.00  0.00    -0.285 OA
ATOM      5  C   UNL     1       1.043   2.410   9.578  1.00  0.00     0.111 A 
ATOM      6  C   UNL     1       2.270   2.885   9.024  1.00  0.00     0.134 A 
ATOM      7  C   UNL     1       2.588   4.246   9.114  1.00  0.00     0.093 A 
ATOM      8  C   UNL     1       1.698   5.158   9.679  1.00  0.00     0.123 A 
ATOM      9  C   UNL     1       0.471   4.714  10.174  1.00  0.00     0.094 A 
ATOM     10  C   UNL     1       0.142   3.356  10.134  1.00  0.00     0.146 A 
ATOM     11  O   UNL     1      -1.026   2.974  10.635  1.00  0.00    -0.452 OA
ENDROOT
BRANCH   1  12
ATOM     12  C   UNL     1      -2.755   1.416  11.261  1.00  0.00     0.025 A 
ATOM     13  C   UNL     1      -2.890   0.974  12.588  1.00  0.00     0.016 A 
ATOM     14  C   UNL     1      -4.157   0.727  13.125  1.00  0.00     0.051 A 
ATOM     15  C   UNL     1      -5.306   0.931  12.350  1.00  0.00     0.157 A 
ATOM     16  C   UNL     1      -3.910   1.640  10.494  1.00  0.00     0.062 A 
ATOM     17  C   UNL     1      -5.181   1.394  11.029  1.00  0.00     0.158 A 
BRANCH  15  18
ATOM     18  O   UNL     1      -6.567   0.683  12.888  1.00  0.00    -0.504 OA
ATOM     19  H   UNL     1      -6.756   0.800  13.876  1.00  0.00     0.293 HD
ENDBRANCH  15  18
BRANCH  17  20
ATOM     20  O   UNL     1      -6.305   1.614  10.233  1.00  0.00    -0.504 OA
ATOM     21  H   UNL     1      -6.993   2.322  10.458  1.00  0.00     0.293 HD
ENDBRANCH  17  20
ENDBRANCH   1  12
BRANCH   2  22
ATOM     22  O   UNL     1      -1.023  -0.633  10.166  1.00  0.00    -0.502 OA
ATOM     23  H   UNL     1      -1.970  -0.899  10.411  1.00  0.00     0.293 HD
ENDBRANCH   2  22
BRANCH   6  24
ATOM     24  O   UNL     1       3.194   2.074   8.357  1.00  0.00    -0.507 OA
ATOM     25  H   UNL     1       3.077   1.711   7.424  1.00  0.00     0.293 HD
ENDBRANCH   6  24
BRANCH   8  26
ATOM     26  O   UNL     1       2.041   6.507   9.737  1.00  0.00    -0.508 OA
ATOM     27  H   UNL     1       3.001   6.806   9.861  1.00  0.00     0.293 HD
ENDBRANCH   8  26
TORSDOF 6
ENDMDL
MODEL 6
REMARK VINA RESULT:    -5.987      9.435     11.351
REMARK INTER + INTRA:          -7.082
REMARK INTER:                  -7.230
REMARK INTRA:                   0.148
REMARK UNBOUND:                 0.130
REMARK SMILES O=c1c(O)c(-c2ccc(O)c(O)c2)oc2cc(O)cc(O)c12
REMARK SMILES IDX 5 1 3 2 2 3 1 4 22 5 20 6 19 7 17 8 16 9 15 10 14 11 6 12
REMARK SMILES IDX 7 13 8 14 9 15 13 16 11 17 10 18 12 20 4 22 21 24 18 26
REMARK H PARENT 10 19 12 21 4 23 21 25 18 27
REMARK Flexibility Score: inf
ROOT
ATOM      1  C   UNL     1      -2.317   0.388  10.578  1.00  0.00     0.180 A 
ATOM      2  C   UNL     1      -3.519   1.116  10.578  1.00  0.00     0.208 A 
ATOM      3  C   UNL     1      -4.700   0.483  10.996  1.00  0.00     0.238 A 
ATOM      4  O   UNL     1      -5.758   1.161  11.063  1.00  0.00    -0.285 OA
ATOM      5  C   UNL     1      -4.677  -0.887  11.355  1.00  0.00     0.111 A 
ATOM      6  C   UNL     1      -5.821  -1.644  11.750  1.00  0.00     0.134 A 
ATOM      7  C   UNL     1      -5.660  -2.965  12.185  1.00  0.00     0.093 A 
ATOM      8  C   UNL     1      -4.408  -3.578  12.180  1.00  0.00     0.123 A 
ATOM      9  C   UNL     1      -3.290  -2.866  11.743  1.00  0.00     0.094 A 
ATOM     10  C   UNL     1      -3.413  -1.533  11.339  1.00  0.00     0.146 A 
ATOM     11  O   UNL     1      -2.321  -0.887  10.952  1.00  0.00    -0.452 OA
ENDROOT
BRANCH   1  12
ATOM     12  C   UNL     1      -1.030   0.991  10.166  1.00  0.00     0.025 A 
ATOM     13  C   UNL     1      -0.141   0.311   9.316  1.00  0.00     0.016 A 
ATOM     14  C   UNL     1       1.058   0.910   8.922  1.00  0.00     0.051 A 
ATOM     15  C   UNL     1       1.380   2.202   9.358  1.00  0.00     0.157 A 
ATOM     16  C   UNL     1      -0.713   2.294  10.584  1.00  0.00     0.062 A 
ATOM     17  C   UNL     1       0.487   2.898  10.190  1.00  0.00     0.158 A 
BRANCH  15  18
ATOM     18  O   UNL     1       2.578   2.797   8.964  1.00  0.00    -0.504 OA
ATOM     19  H   UNL     1       3.266   2.293   8.418  1.00  0.00     0.293 HD
ENDBRANCH  15  18
BRANCH  17  20
ATOM     20  O   UNL     1       0.774   4.188  10.636  1.00  0.00    -0.504 OA
ATOM     21  H   UNL     1       0.488   5.012  10.120  1.00  0.00     0.293 HD
ENDBRANCH  17  20
ENDBRANCH   1  12
BRANCH   2  22
ATOM     22  O   UNL     1      -3.535   2.446  10.147  1.00  0.00    -0.502 OA
ATOM     23  H   UNL     1      -3.627   3.225  10.789  1.00  0.00     0.293 HD
ENDBRANCH   2  22
BRANCH   6  24
ATOM     24  O   UNL     1      -7.132  -1.159  11.711  1.00  0.00    -0.507 OA
ATOM     25  H   UNL     1      -7.803  -1.362  10.985  1.00  0.00     0.293 HD
ENDBRANCH   6  24
BRANCH   8  26
ATOM     26  O   UNL     1      -4.287  -4.899  12.604  1.00  0.00    -0.508 OA
ATOM     27  H   UNL     1      -3.393  -5.286  12.886  1.00  0.00     0.293 HD
ENDBRANCH   8  26
TORSDOF 6
ENDMDL
MODEL 7
REMARK VINA RESULT:    -5.964      9.099     10.949
REMARK INTER + INTRA:          -7.055
REMARK INTER:                  -6.805
REMARK INTRA:                  -0.251
REMARK UNBOUND:                 0.130
REMARK SMILES O=c1c(O)c(-c2ccc(O)c(O)c2)oc2cc(O)cc(O)c12
REMARK SMILES IDX 5 1 3 2 2 3 1 4 22 5 20 6 19 7 17 8 16 9 15 10 14 11 6 12
REMARK SMILES IDX 7 13 8 14 9 15 13 16 11 17 10 18 12 20 4 22 21 24 18 26
REMARK H PARENT 10 19 12 21 4 23 21 25 18 27
REMARK Flexibility Score: inf
ROOT
ATOM      1  C   UNL     1      -2.591  -0.071  10.936  1.00  0.00     0.180 A 
ATOM      2  C   UNL     1      -2.767   1.178  11.557  1.00  0.00     0.208 A 
ATOM      3  C   UNL     1      -1.822   2.191  11.329  1.00  0.00     0.238 A 
ATOM      4  O   UNL     1      -2.024   3.328  11.827  1.00  0.00    -0.285 OA
ATOM      5  C   UNL     1      -0.683   1.927  10.529  1.00  0.00     0.111 A 
ATOM      6  C   UNL     1       0.362   2.864  10.267  1.00  0.00     0.134 A 
ATOM      7  C   UNL     1       1.387   2.525   9.374  1.00  0.00     0.093 A 
ATOM      8  C   UNL     1       1.440   1.264   8.783  1.00  0.00     0.123 A 
ATOM      9  C   UNL     1       0.454   0.320   9.075  1.00  0.00     0.094 A 
ATOM     10  C   UNL     1      -0.602   0.641   9.932  1.00  0.00     0.146 A 
ATOM     11  O   UNL     1      -1.530  -0.278  10.165  1.00  0.00    -0.452 OA
ENDROOT
BRANCH   1  12
ATOM     12  C   UNL     1      -3.551  -1.182  11.116  1.00  0.00     0.025 A 
ATOM     13  C   UNL     1      -4.827  -1.151  10.527  1.00  0.00     0.016 A 
ATOM     14  C   UNL     1      -5.708  -2.224  10.692  1.00  0.00     0.051 A 
ATOM     15  C   UNL     1      -5.323  -3.348  11.434  1.00  0.00     0.157 A 
ATOM     16  C   UNL     1      -3.161  -2.320  11.841  1.00  0.00     0.062 A 
ATOM     17  C   UNL     1      -4.041  -3.397  12.008  1.00  0.00     0.158 A 
BRANCH  15  18
ATOM     18  O   UNL     1      -6.204  -4.415  11.598  1.00  0.00    -0.504 OA
ATOM     19  H   UNL     1      -6.637  -4.614  12.492  1.00  0.00     0.293 HD
ENDBRANCH  15  18
BRANCH  17  20
ATOM     20  O   UNL     1      -3.624  -4.504  12.747  1.00  0.00    -0.504 OA
ATOM     21  H   UNL     1      -4.221  -4.947  13.436  1.00  0.00     0.293 HD
ENDBRANCH  17  20
ENDBRANCH   1  12
BRANCH   2  22
ATOM     22  O   UNL     1      -3.857   1.395  12.404  1.00  0.00    -0.502 OA
ATOM     23  H   UNL     1      -4.007   0.853  13.247  1.00  0.00     0.293 HD
ENDBRANCH   2  22
BRANCH   6  24
ATOM     24  O   UNL     1       0.455   4.122  10.871  1.00  0.00    -0.507 OA
ATOM     25  H   UNL     1       0.290   4.308  11.849  1.00  0.00     0.293 HD
ENDBRANCH   6  24
BRANCH   8  26
ATOM     26  O   UNL     1       2.483   0.956   7.913  1.00  0.00    -0.508 OA
ATOM     27  H   UNL     1       3.412   0.739   8.254  1.00  0.00     0.293 HD
ENDBRANCH   8  26
TORSDOF 6
ENDMDL
MODEL 8
REMARK VINA RESULT:    -5.895      9.462     11.837
REMARK INTER + INTRA:          -6.971
REMARK INTER:                  -6.671
REMARK INTRA:                  -0.300
REMARK UNBOUND:                 0.130
REMARK SMILES O=c1c(O)c(-c2ccc(O)c(O)c2)oc2cc(O)cc(O)c12
REMARK SMILES IDX 5 1 3 2 2 3 1 4 22 5 20 6 19 7 17 8 16 9 15 10 14 11 6 12
REMARK SMILES IDX 7 13 8 14 9 15 13 16 11 17 10 18 12 20 4 22 21 24 18 26
REMARK H PARENT 10 19 12 21 4 23 21 25 18 27
REMARK Flexibility Score: inf
ROOT
ATOM      1  C   UNL     1      -4.985  -2.444  11.958  1.00  0.00     0.180 A 
ATOM      2  C   UNL     1      -4.504  -3.714  11.598  1.00  0.00     0.208 A 
ATOM      3  C   UNL     1      -5.386  -4.807  11.613  1.00  0.00     0.238 A 
ATOM      4  O   UNL     1      -4.967  -5.925  11.219  1.00  0.00    -0.285 OA
ATOM      5  C   UNL     1      -6.723  -4.627  12.043  1.00  0.00     0.111 A 
ATOM      6  C   UNL     1      -7.692  -5.671  12.142  1.00  0.00     0.134 A 
ATOM      7  C   UNL     1      -9.015  -5.357  12.477  1.00  0.00     0.093 A 
ATOM      8  C   UNL     1      -9.391  -4.049  12.779  1.00  0.00     0.123 A 
ATOM      9  C   UNL     1      -8.440  -3.028  12.739  1.00  0.00     0.094 A 
ATOM     10  C   UNL     1      -7.120  -3.304  12.371  1.00  0.00     0.146 A 
ATOM     11  O   UNL     1      -6.254  -2.301  12.325  1.00  0.00    -0.452 OA
ENDROOT
BRANCH   1  12
ATOM     12  C   UNL     1      -4.121  -1.242  11.952  1.00  0.00     0.025 A 
ATOM     13  C   UNL     1      -3.498  -0.782  13.125  1.00  0.00     0.016 A 
ATOM     14  C   UNL     1      -2.667   0.342  13.090  1.00  0.00     0.051 A 
ATOM     15  C   UNL     1      -2.435   1.012  11.881  1.00  0.00     0.157 A 
ATOM     16  C   UNL     1      -3.868  -0.580  10.740  1.00  0.00     0.062 A 
ATOM     17  C   UNL     1      -3.036   0.546  10.700  1.00  0.00     0.158 A 
BRANCH  15  18
ATOM     18  O   UNL     1      -1.607   2.133  11.850  1.00  0.00    -0.504 OA
ATOM     19  H   UNL     1      -0.740   2.167  12.373  1.00  0.00     0.293 HD
ENDBRANCH  15  18
BRANCH  17  20
ATOM     20  O   UNL     1      -2.820   1.186   9.480  1.00  0.00    -0.504 OA
ATOM     21  H   UNL     1      -3.023   2.169   9.345  1.00  0.00     0.293 HD
ENDBRANCH  17  20
ENDBRANCH   1  12
BRANCH   2  22
ATOM     22  O   UNL     1      -3.161  -3.884  11.251  1.00  0.00    -0.502 OA
ATOM     23  H   UNL     1      -2.474  -3.146  11.355  1.00  0.00     0.293 HD
ENDBRANCH   2  22
BRANCH   6  24
ATOM     24  O   UNL     1      -7.405  -7.026  11.947  1.00  0.00    -0.507 OA
ATOM     25  H   UNL     1      -6.693  -7.384  11.329  1.00  0.00     0.293 HD
ENDBRANCH   6  24
BRANCH   8  26
ATOM     26  O   UNL     1     -10.712  -3.775  13.125  1.00  0.00    -0.508 OA
ATOM     27  H   UNL     1     -11.289  -4.461  13.598  1.00  0.00     0.293 HD
ENDBRANCH   8  26
TORSDOF 6
ENDMDL
MODEL 9
REMARK VINA RESULT:    -5.644      8.171     11.203
REMARK INTER + INTRA:          -6.670
REMARK INTER:                  -6.348
REMARK INTRA:                  -0.322
REMARK UNBOUND:                 0.130
REMARK SMILES O=c1c(O)c(-c2ccc(O)c(O)c2)oc2cc(O)cc(O)c12
REMARK SMILES IDX 5 1 3 2 2 3 1 4 22 5 20 6 19 7 17 8 16 9 15 10 14 11 6 12
REMARK SMILES IDX 7 13 8 14 9 15 13 16 11 17 10 18 12 20 4 22 21 24 18 26
REMARK H PARENT 10 19 12 21 4 23 21 25 18 27
REMARK Flexibility Score: inf
ROOT
ATOM      1  C   UNL     1      -2.182   0.350  10.679  1.00  0.00     0.180 A 
ATOM      2  C   UNL     1      -2.094   1.753  10.697  1.00  0.00     0.208 A 
ATOM      3  C   UNL     1      -0.935   2.369  10.198  1.00  0.00     0.238 A 
ATOM      4  O   UNL     1      -0.894   3.626  10.148  1.00  0.00    -0.285 OA
ATOM      5  C   UNL     1       0.144   1.575   9.740  1.00  0.00     0.111 A 
ATOM      6  C   UNL     1       1.385   2.091   9.257  1.00  0.00     0.134 A 
ATOM      7  C   UNL     1       2.341   1.213   8.730  1.00  0.00     0.093 A 
ATOM      8  C   UNL     1       2.129  -0.165   8.729  1.00  0.00     0.123 A 
ATOM      9  C   UNL     1       0.944  -0.685   9.250  1.00  0.00     0.094 A 
ATOM     10  C   UNL     1      -0.045   0.169   9.747  1.00  0.00     0.146 A 
ATOM     11  O   UNL     1      -1.166  -0.367  10.213  1.00  0.00    -0.452 OA
ENDROOT
BRANCH   1  12
ATOM     12  C   UNL     1      -3.377  -0.371  11.173  1.00  0.00     0.025 A 
ATOM     13  C   UNL     1      -3.484  -0.779  12.513  1.00  0.00     0.016 A 
ATOM     14  C   UNL     1      -4.632  -1.438  12.962  1.00  0.00     0.051 A 
ATOM     15  C   UNL     1      -5.694  -1.685  12.083  1.00  0.00     0.157 A 
ATOM     16  C   UNL     1      -4.453  -0.601  10.301  1.00  0.00     0.062 A 
ATOM     17  C   UNL     1      -5.606  -1.261  10.747  1.00  0.00     0.158 A 
BRANCH  15  18
ATOM     18  O   UNL     1      -6.838  -2.344  12.533  1.00  0.00    -0.504 OA
ATOM     19  H   UNL     1      -7.658  -1.834  12.840  1.00  0.00     0.293 HD
ENDBRANCH  15  18
BRANCH  17  20
ATOM     20  O   UNL     1      -6.648  -1.484   9.848  1.00  0.00    -0.504 OA
ATOM     21  H   UNL     1      -6.965  -0.770   9.203  1.00  0.00     0.293 HD
ENDBRANCH  17  20
ENDBRANCH   1  12
BRANCH   2  22
ATOM     22  O   UNL     1      -3.140   2.517  11.223  1.00  0.00    -0.502 OA
ATOM     23  H   UNL     1      -2.985   3.264  11.890  1.00  0.00     0.293 HD
ENDBRANCH   2  22
BRANCH   6  24
ATOM     24  O   UNL     1       1.737   3.444   9.291  1.00  0.00    -0.507 OA
ATOM     25  H   UNL     1       1.177   4.198   8.923  1.00  0.00     0.293 HD
ENDBRANCH   6  24
BRANCH   8  26
ATOM     26  O   UNL     1       3.109  -1.010   8.213  1.00  0.00    -0.508 OA
ATOM     27  H   UNL     1       4.074  -0.952   8.519  1.00  0.00     0.293 HD
ENDBRANCH   8  26
TORSDOF 6
ENDMDL
