MODEL 1
REMARK VINA RESULT:    -3.830      0.000      0.000
REMARK INTER + INTRA:          -3.830
REMARK INTER:                  -3.830
REMARK INTRA:                   0.000
REMARK UNBOUND:                 0.000
REMARK SMILES CC1(C)O[C@]2(C)CC[C@H]1CC2
REMARK SMILES IDX 1 1 2 2 9 3 10 4 11 5 5 6 4 7 7 8 8 9 6 10 3 11
REMARK H PARENT
REMARK Flexibility Score: inf
ROOT
ATOM      1  C   UNL     1     113.384 116.216 118.545  1.00  0.00     0.042 C 
ATOM      2  C   UNL     1     114.719 115.534 118.176  1.00  0.00     0.066 C 
ATOM      3  C   UNL     1     115.907 116.139 119.019  1.00  0.00     0.021 C 
ATOM      4  C   UNL     1     117.222 115.457 118.572  1.00  0.00     0.009 C 
ATOM      5  C   UNL     1     117.342 115.544 117.031  1.00  0.00     0.035 C 
ATOM      6  C   UNL     1     116.151 116.365 116.456  1.00  0.00     0.066 C 
ATOM      7  O   UNL     1     114.928 115.698 116.765  1.00  0.00    -0.369 OA
ATOM      8  C   UNL     1     116.147 117.775 117.114  1.00  0.00     0.035 C 
ATOM      9  C   UNL     1     116.055 117.635 118.653  1.00  0.00     0.009 C 
ATOM     10  C   UNL     1     116.277 116.489 114.934  1.00  0.00     0.042 C 
ATOM     11  C   UNL     1     114.558 114.025 118.464  1.00  0.00     0.042 C 
ENDROOT
TORSDOF 0
ENDMDL
MODEL 2
REMARK VINA RESULT:    -3.828      1.553      2.580
REMARK INTER + INTRA:          -3.828
REMARK INTER:                  -3.828
REMARK INTRA:                   0.000
REMARK UNBOUND:                 0.000
REMARK SMILES CC1(C)O[C@]2(C)CC[C@H]1CC2
REMARK SMILES IDX 1 1 2 2 9 3 10 4 11 5 5 6 4 7 7 8 8 9 6 10 3 11
REMARK H PARENT
REMARK Flexibility Score: inf
ROOT
ATOM      1  C   UNL     1     116.956 113.443 118.584  1.00  0.00     0.042 C 
ATOM      2  C   UNL     1     117.663 114.764 118.212  1.00  0.00     0.066 C 
ATOM      3  C   UNL     1     117.064 115.968 119.036  1.00  0.00     0.021 C 
ATOM      4  C   UNL     1     117.771 117.269 118.587  1.00  0.00     0.009 C 
ATOM      5  C   UNL     1     117.705 117.377 117.044  1.00  0.00     0.035 C 
ATOM      6  C   UNL     1     116.875 116.194 116.468  1.00  0.00     0.066 C 
ATOM      7  O   UNL     1     117.520 114.964 116.797  1.00  0.00    -0.369 OA
ATOM      8  C   UNL     1     115.456 116.215 117.108  1.00  0.00     0.035 C 
ATOM      9  C   UNL     1     115.576 116.135 118.650  1.00  0.00     0.009 C 
ATOM     10  C   UNL     1     116.773 116.307 114.944  1.00  0.00     0.042 C 
ATOM     11  C   UNL     1     119.166 114.584 118.521  1.00  0.00     0.042 C 
ENDROOT
TORSDOF 0
ENDMDL
MODEL 3
REMARK VINA RESULT:    -3.822      1.947      3.650
REMARK INTER + INTRA:          -3.822
REMARK INTER:                  -3.822
REMARK INTRA:                   0.000
REMARK UNBOUND:                 0.000
REMARK SMILES CC1(C)O[C@]2(C)CC[C@H]1CC2
REMARK SMILES IDX 1 1 2 2 9 3 10 4 11 5 5 6 4 7 7 8 8 9 6 10 3 11
REMARK H PARENT
REMARK Flexibility Score: inf
ROOT
ATOM      1  C   UNL     1     119.760 116.926 118.606  1.00  0.00     0.042 C 
ATOM      2  C   UNL     1     118.451 117.655 118.232  1.00  0.00     0.066 C 
ATOM      3  C   UNL     1     117.236 117.078 119.055  1.00  0.00     0.021 C 
ATOM      4  C   UNL     1     115.948 117.807 118.603  1.00  0.00     0.009 C 
ATOM      5  C   UNL     1     115.841 117.742 117.060  1.00  0.00     0.035 C 
ATOM      6  C   UNL     1     117.011 116.891 116.487  1.00  0.00     0.066 C 
ATOM      7  O   UNL     1     118.251 117.515 116.817  1.00  0.00    -0.369 OA
ATOM      8  C   UNL     1     116.964 115.474 117.127  1.00  0.00     0.035 C 
ATOM      9  C   UNL     1     117.044 115.592 118.669  1.00  0.00     0.009 C 
ATOM     10  C   UNL     1     116.898 116.790 114.962  1.00  0.00     0.042 C 
ATOM     11  C   UNL     1     118.657 119.155 118.540  1.00  0.00     0.042 C 
ENDROOT
TORSDOF 0
ENDMDL
MODEL 4
REMARK VINA RESULT:    -3.817      1.506      2.570
REMARK INTER + INTRA:          -3.817
REMARK INTER:                  -3.817
REMARK INTRA:                   0.000
REMARK UNBOUND:                 0.000
REMARK SMILES CC1(C)O[C@]2(C)CC[C@H]1CC2
REMARK SMILES IDX 1 1 2 2 9 3 10 4 11 5 5 6 4 7 7 8 8 9 6 10 3 11
REMARK H PARENT
REMARK Flexibility Score: inf
ROOT
ATOM      1  C   UNL     1     116.253 119.767 118.521  1.00  0.00     0.042 C 
ATOM      2  C   UNL     1     115.554 118.432 118.187  1.00  0.00     0.066 C 
ATOM      3  C   UNL     1     116.178 117.250 119.024  1.00  0.00     0.021 C 
ATOM      4  C   UNL     1     115.477 115.933 118.611  1.00  0.00     0.009 C 
ATOM      5  C   UNL     1     115.519 115.796 117.070  1.00  0.00     0.035 C 
ATOM      6  C   UNL     1     116.328 116.977 116.458  1.00  0.00     0.066 C 
ATOM      7  O   UNL     1     115.675 118.206 116.774  1.00  0.00    -0.369 OA
ATOM      8  C   UNL     1     117.756 116.981 117.075  1.00  0.00     0.035 C 
ATOM      9  C   UNL     1     117.662 117.090 118.616  1.00  0.00     0.009 C 
ATOM     10  C   UNL     1     116.406 116.835 114.935  1.00  0.00     0.042 C 
ATOM     11  C   UNL     1     114.055 118.603 118.517  1.00  0.00     0.042 C 
ENDROOT
TORSDOF 0
ENDMDL
MODEL 5
REMARK VINA RESULT:    -3.579      1.669      3.278
REMARK INTER + INTRA:          -3.579
REMARK INTER:                  -3.579
REMARK INTRA:                   0.000
REMARK UNBOUND:                 0.000
REMARK SMILES CC1(C)O[C@]2(C)CC[C@H]1CC2
REMARK SMILES IDX 1 1 2 2 9 3 10 4 11 5 5 6 4 7 7 8 8 9 6 10 3 11
REMARK H PARENT
REMARK Flexibility Score: inf
ROOT
ATOM      1  C   UNL     1     119.165 116.986 118.125  1.00  0.00     0.042 C 
ATOM      2  C   UNL     1     117.712 116.652 118.528  1.00  0.00     0.066 C 
ATOM      3  C   UNL     1     117.108 115.550 117.575  1.00  0.00     0.021 C 
ATOM      4  C   UNL     1     115.640 115.294 117.991  1.00  0.00     0.009 C 
ATOM      5  C   UNL     1     114.888 116.645 118.062  1.00  0.00     0.035 C 
ATOM      6  C   UNL     1     115.830 117.797 117.604  1.00  0.00     0.066 C 
ATOM      7  O   UNL     1     116.948 117.867 118.489  1.00  0.00    -0.369 OA
ATOM      8  C   UNL     1     116.335 117.493 116.164  1.00  0.00     0.035 C 
ATOM      9  C   UNL     1     117.053 116.122 116.139  1.00  0.00     0.009 C 
ATOM     10  C   UNL     1     115.088 119.136 117.637  1.00  0.00     0.042 C 
ATOM     11  C   UNL     1     117.744 116.153 119.990  1.00  0.00     0.042 C 
ENDROOT
TORSDOF 0
ENDMDL
MODEL 6
REMARK VINA RESULT:    -3.579      1.328      2.465
REMARK INTER + INTRA:          -3.579
REMARK INTER:                  -3.579
REMARK INTRA:                   0.000
REMARK UNBOUND:                 0.000
REMARK SMILES CC1(C)O[C@]2(C)CC[C@H]1CC2
REMARK SMILES IDX 1 1 2 2 9 3 10 4 11 5 5 6 4 7 7 8 8 9 6 10 3 11
REMARK H PARENT
REMARK Flexibility Score: inf
ROOT
ATOM      1  C   UNL     1     114.073 116.314 118.158  1.00  0.00     0.042 C 
ATOM      2  C   UNL     1     115.528 116.623 118.571  1.00  0.00     0.066 C 
ATOM      3  C   UNL     1     116.152 117.728 117.634  1.00  0.00     0.021 C 
ATOM      4  C   UNL     1     117.622 117.958 118.059  1.00  0.00     0.009 C 
ATOM      5  C   UNL     1     118.354 116.596 118.116  1.00  0.00     0.035 C 
ATOM      6  C   UNL     1     117.398 115.464 117.641  1.00  0.00     0.066 C 
ATOM      7  O   UNL     1     116.275 115.398 118.520  1.00  0.00    -0.369 OA
ATOM      8  C   UNL     1     116.904 115.792 116.202  1.00  0.00     0.035 C 
ATOM      9  C   UNL     1     116.205 117.173 116.191  1.00  0.00     0.009 C 
ATOM     10  C   UNL     1     118.121 114.114 117.660  1.00  0.00     0.042 C 
ATOM     11  C   UNL     1     115.497 117.104 120.038  1.00  0.00     0.042 C 
ENDROOT
TORSDOF 0
ENDMDL
MODEL 7
REMARK VINA RESULT:    -3.572      1.323      2.846
REMARK INTER + INTRA:          -3.572
REMARK INTER:                  -3.572
REMARK INTRA:                   0.000
REMARK UNBOUND:                 0.000
REMARK SMILES CC1(C)O[C@]2(C)CC[C@H]1CC2
REMARK SMILES IDX 1 1 2 2 9 3 10 4 11 5 5 6 4 7 7 8 8 9 6 10 3 11
REMARK H PARENT
REMARK Flexibility Score: inf
ROOT
ATOM      1  C   UNL     1     116.238 119.150 118.122  1.00  0.00     0.042 C 
ATOM      2  C   UNL     1     116.577 117.704 118.542  1.00  0.00     0.066 C 
ATOM      3  C   UNL     1     117.686 117.095 117.600  1.00  0.00     0.021 C 
ATOM      4  C   UNL     1     117.948 115.632 118.033  1.00  0.00     0.009 C 
ATOM      5  C   UNL     1     116.600 114.875 118.108  1.00  0.00     0.035 C 
ATOM      6  C   UNL     1     115.446 115.806 117.637  1.00  0.00     0.066 C 
ATOM      7  O   UNL     1     115.367 116.933 118.508  1.00  0.00    -0.369 OA
ATOM      8  C   UNL     1     115.751 116.295 116.192  1.00  0.00     0.035 C 
ATOM      9  C   UNL     1     117.119 117.020 116.162  1.00  0.00     0.009 C 
ATOM     10  C   UNL     1     114.110 115.057 117.674  1.00  0.00     0.042 C 
ATOM     11  C   UNL     1     117.072 117.755 120.005  1.00  0.00     0.042 C 
ENDROOT
TORSDOF 0
ENDMDL
MODEL 8
REMARK VINA RESULT:    -3.545      1.776      2.966
REMARK INTER + INTRA:          -3.545
REMARK INTER:                  -3.545
REMARK INTRA:                   0.000
REMARK UNBOUND:                 0.000
REMARK SMILES CC1(C)O[C@]2(C)CC[C@H]1CC2
REMARK SMILES IDX 1 1 2 2 9 3 10 4 11 5 5 6 4 7 7 8 8 9 6 10 3 11
REMARK H PARENT
REMARK Flexibility Score: inf
ROOT
ATOM      1  C   UNL     1     116.951 114.098 118.136  1.00  0.00     0.042 C 
ATOM      2  C   UNL     1     116.612 115.546 118.548  1.00  0.00     0.066 C 
ATOM      3  C   UNL     1     115.546 116.171 117.568  1.00  0.00     0.021 C 
ATOM      4  C   UNL     1     115.284 117.634 117.997  1.00  0.00     0.009 C 
ATOM      5  C   UNL     1     116.636 118.377 118.123  1.00  0.00     0.035 C 
ATOM      6  C   UNL     1     117.797 117.435 117.690  1.00  0.00     0.066 C 
ATOM      7  O   UNL     1     117.832 116.304 118.561  1.00  0.00    -0.369 OA
ATOM      8  C   UNL     1     117.538 116.953 116.234  1.00  0.00     0.035 C 
ATOM      9  C   UNL     1     116.165 116.244 116.152  1.00  0.00     0.009 C 
ATOM     10  C   UNL     1     119.138 118.169 117.778  1.00  0.00     0.042 C 
ATOM     11  C   UNL     1     116.065 115.497 119.992  1.00  0.00     0.042 C 
ENDROOT
TORSDOF 0
ENDMDL
MODEL 9
REMARK VINA RESULT:    -3.537      1.262      2.856
REMARK INTER + INTRA:          -3.537
REMARK INTER:                  -3.537
REMARK INTRA:                   0.000
REMARK UNBOUND:                 0.000
REMARK SMILES CC1(C)O[C@]2(C)CC[C@H]1CC2
REMARK SMILES IDX 1 1 2 2 9 3 10 4 11 5 5 6 4 7 7 8 8 9 6 10 3 11
REMARK H PARENT
REMARK Flexibility Score: inf
ROOT
ATOM      1  C   UNL     1     118.100 115.582 119.713  1.00  0.00     0.042 C 
ATOM      2  C   UNL     1     117.439 115.398 118.331  1.00  0.00     0.066 C 
ATOM      3  C   UNL     1     117.711 116.650 117.410  1.00  0.00     0.021 C 
ATOM      4  C   UNL     1     116.984 116.433 116.061  1.00  0.00     0.009 C 
ATOM      5  C   UNL     1     115.503 116.074 116.334  1.00  0.00     0.035 C 
ATOM      6  C   UNL     1     115.218 116.140 117.862  1.00  0.00     0.066 C 
ATOM      7  O   UNL     1     116.034 115.181 118.533  1.00  0.00    -0.369 OA
ATOM      8  C   UNL     1     115.569 117.564 118.380  1.00  0.00     0.035 C 
ATOM      9  C   UNL     1     117.049 117.888 118.060  1.00  0.00     0.009 C 
ATOM     10  C   UNL     1     113.746 115.820 118.142  1.00  0.00     0.042 C 
ATOM     11  C   UNL     1     118.036 114.118 117.703  1.00  0.00     0.042 C 
ENDROOT
TORSDOF 0
ENDMDL
