MODEL 1
REMARK VINA RESULT:    -5.118      0.000      0.000
REMARK INTER + INTRA:          -6.256
REMARK INTER:                  -6.016
REMARK INTRA:                  -0.240
REMARK UNBOUND:                -0.240
REMARK SMILES O=c1c(O)c(-c2ccc(O)cc2)oc2cc(O)cc(O)c12
REMARK SMILES IDX 5 1 3 2 2 3 1 4 21 5 19 6 18 7 16 8 15 9 14 10 13 11 6 12
REMARK SMILES IDX 7 13 8 14 9 15 12 16 11 17 10 18 4 20 20 22 17 24
REMARK H PARENT 10 19 4 21 20 23 17 25
REMARK Flexibility Score: inf
ROOT
ATOM      1  C   UNL     1      -4.694  91.175 -15.165  1.00  0.00     0.180 A 
ATOM      2  C   UNL     1      -5.213  90.025 -14.546  1.00  0.00     0.208 A 
ATOM      3  C   UNL     1      -5.325  89.998 -13.147  1.00  0.00     0.238 A 
ATOM      4  O   UNL     1      -5.841  88.988 -12.601  1.00  0.00    -0.285 OA
ATOM      5  C   UNL     1      -4.902  91.113 -12.384  1.00  0.00     0.111 A 
ATOM      6  C   UNL     1      -4.931  91.178 -10.958  1.00  0.00     0.134 A 
ATOM      7  C   UNL     1      -4.611  92.379 -10.315  1.00  0.00     0.093 A 
ATOM      8  C   UNL     1      -4.198  93.496 -11.039  1.00  0.00     0.123 A 
ATOM      9  C   UNL     1      -4.108  93.426 -12.430  1.00  0.00     0.094 A 
ATOM     10  C   UNL     1      -4.456  92.252 -13.103  1.00  0.00     0.146 A 
ATOM     11  O   UNL     1      -4.366  92.230 -14.427  1.00  0.00    -0.452 OA
ENDROOT
BRANCH   1  12
ATOM     12  C   UNL     1      -4.522  91.270 -16.633  1.00  0.00     0.021 A 
ATOM     13  C   UNL     1      -5.637  91.537 -17.445  1.00  0.00     0.016 A 
ATOM     14  C   UNL     1      -5.494  91.653 -18.831  1.00  0.00     0.047 A 
ATOM     15  C   UNL     1      -4.233  91.519 -19.422  1.00  0.00     0.115 A 
ATOM     16  C   UNL     1      -3.253  91.158 -17.232  1.00  0.00     0.016 A 
ATOM     17  C   UNL     1      -3.112  91.275 -18.618  1.00  0.00     0.047 A 
BRANCH  15  18
ATOM     18  O   UNL     1      -4.106  91.636 -20.804  1.00  0.00    -0.508 OA
ATOM     19  H   UNL     1      -4.530  92.404 -21.311  1.00  0.00     0.293 HD
ENDBRANCH  15  18
ENDBRANCH   1  12
BRANCH   2  20
ATOM     20  O   UNL     1      -5.645  88.945 -15.320  1.00  0.00    -0.502 OA
ATOM     21  H   UNL     1      -6.435  89.011 -15.952  1.00  0.00     0.293 HD
ENDBRANCH   2  20
BRANCH   6  22
ATOM     22  O   UNL     1      -5.241  90.092 -10.134  1.00  0.00    -0.507 OA
ATOM     23  H   UNL     1      -5.130  90.082  -9.131  1.00  0.00     0.293 HD
ENDBRANCH   6  22
BRANCH   8  24
ATOM     24  O   UNL     1      -3.871  94.671 -10.365  1.00  0.00    -0.508 OA
ATOM     25  H   UNL     1      -4.093  95.583 -10.749  1.00  0.00     0.293 HD
ENDBRANCH   8  24
TORSDOF 5
ENDMDL
MODEL 2
REMARK VINA RESULT:    -5.101     10.544     12.065
REMARK INTER + INTRA:          -6.236
REMARK INTER:                  -5.940
REMARK INTRA:                  -0.295
REMARK UNBOUND:                -0.240
REMARK SMILES O=c1c(O)c(-c2ccc(O)cc2)oc2cc(O)cc(O)c12
REMARK SMILES IDX 5 1 3 2 2 3 1 4 21 5 19 6 18 7 16 8 15 9 14 10 13 11 6 12
REMARK SMILES IDX 7 13 8 14 9 15 12 16 11 17 10 18 4 20 20 22 17 24
REMARK H PARENT 10 19 4 21 20 23 17 25
REMARK Flexibility Score: inf
ROOT
ATOM      1  C   UNL     1      -9.675  83.477  -8.737  1.00  0.00     0.180 A 
ATOM      2  C   UNL     1     -10.517  82.355  -8.824  1.00  0.00     0.208 A 
ATOM      3  C   UNL     1     -11.865  82.541  -9.168  1.00  0.00     0.238 A 
ATOM      4  O   UNL     1     -12.601  81.528  -9.298  1.00  0.00    -0.285 OA
ATOM      5  C   UNL     1     -12.359  83.847  -9.406  1.00  0.00     0.111 A 
ATOM      6  C   UNL     1     -13.716  84.156  -9.721  1.00  0.00     0.134 A 
ATOM      7  C   UNL     1     -14.064  85.467 -10.064  1.00  0.00     0.093 A 
ATOM      8  C   UNL     1     -13.121  86.493 -10.040  1.00  0.00     0.123 A 
ATOM      9  C   UNL     1     -11.803  86.214  -9.675  1.00  0.00     0.094 A 
ATOM     10  C   UNL     1     -11.417  84.907  -9.362  1.00  0.00     0.146 A 
ATOM     11  O   UNL     1     -10.152  84.682  -9.029  1.00  0.00    -0.452 OA
ENDROOT
BRANCH   1  12
ATOM     12  C   UNL     1      -8.249  83.364  -8.356  1.00  0.00     0.021 A 
ATOM     13  C   UNL     1      -7.264  83.337  -9.358  1.00  0.00     0.016 A 
ATOM     14  C   UNL     1      -5.910  83.254  -9.019  1.00  0.00     0.047 A 
ATOM     15  C   UNL     1      -5.522  83.212  -7.676  1.00  0.00     0.115 A 
ATOM     16  C   UNL     1      -7.850  83.343  -7.006  1.00  0.00     0.016 A 
ATOM     17  C   UNL     1      -6.495  83.261  -6.670  1.00  0.00     0.047 A 
BRANCH  15  18
ATOM     18  O   UNL     1      -4.170  83.128  -7.354  1.00  0.00    -0.508 OA
ATOM     19  H   UNL     1      -3.545  82.504  -7.850  1.00  0.00     0.293 HD
ENDBRANCH  15  18
ENDBRANCH   1  12
BRANCH   2  20
ATOM     20  O   UNL     1     -10.004  81.074  -8.607  1.00  0.00    -0.502 OA
ATOM     21  H   UNL     1     -10.228  80.290  -9.210  1.00  0.00     0.293 HD
ENDBRANCH   2  20
BRANCH   6  22
ATOM     22  O   UNL     1     -14.757  83.223  -9.686  1.00  0.00    -0.507 OA
ATOM     23  H   UNL     1     -14.967  82.625  -8.901  1.00  0.00     0.293 HD
ENDBRANCH   6  22
BRANCH   8  24
ATOM     24  O   UNL     1     -13.505  87.791 -10.371  1.00  0.00    -0.508 OA
ATOM     25  H   UNL     1     -12.896  88.583 -10.206  1.00  0.00     0.293 HD
ENDBRANCH   8  24
TORSDOF 5
ENDMDL
MODEL 3
REMARK VINA RESULT:    -5.005     12.951     15.299
REMARK INTER + INTRA:          -6.123
REMARK INTER:                  -5.901
REMARK INTRA:                  -0.223
REMARK UNBOUND:                -0.240
REMARK SMILES O=c1c(O)c(-c2ccc(O)cc2)oc2cc(O)cc(O)c12
REMARK SMILES IDX 5 1 3 2 2 3 1 4 21 5 19 6 18 7 16 8 15 9 14 10 13 11 6 12
REMARK SMILES IDX 7 13 8 14 9 15 12 16 11 17 10 18 4 20 20 22 17 24
REMARK H PARENT 10 19 4 21 20 23 17 25
REMARK Flexibility Score: inf
ROOT
ATOM      1  C   UNL     1     -13.522  81.953  -7.848  1.00  0.00     0.180 A 
ATOM      2  C   UNL     1     -14.494  80.955  -7.663  1.00  0.00     0.208 A 
ATOM      3  C   UNL     1     -14.115  79.736  -7.077  1.00  0.00     0.238 A 
ATOM      4  O   UNL     1     -15.000  78.867  -6.865  1.00  0.00    -0.285 OA
ATOM      5  C   UNL     1     -12.767  79.525  -6.699  1.00  0.00     0.111 A 
ATOM      6  C   UNL     1     -12.264  78.314  -6.135  1.00  0.00     0.134 A 
ATOM      7  C   UNL     1     -10.942  78.262  -5.678  1.00  0.00     0.093 A 
ATOM      8  C   UNL     1     -10.086  79.353  -5.824  1.00  0.00     0.123 A 
ATOM      9  C   UNL     1     -10.550  80.522  -6.428  1.00  0.00     0.094 A 
ATOM     10  C   UNL     1     -11.875  80.616  -6.862  1.00  0.00     0.146 A 
ATOM     11  O   UNL     1     -12.280  81.749  -7.423  1.00  0.00    -0.452 OA
ENDROOT
BRANCH   1  12
ATOM     12  C   UNL     1     -13.838  83.254  -8.480  1.00  0.00     0.021 A 
ATOM     13  C   UNL     1     -13.475  83.480  -9.819  1.00  0.00     0.016 A 
ATOM     14  C   UNL     1     -13.784  84.692 -10.443  1.00  0.00     0.047 A 
ATOM     15  C   UNL     1     -14.473  85.688  -9.743  1.00  0.00     0.115 A 
ATOM     16  C   UNL     1     -14.550  84.252  -7.789  1.00  0.00     0.016 A 
ATOM     17  C   UNL     1     -14.859  85.463  -8.415  1.00  0.00     0.047 A 
BRANCH  15  18
ATOM     18  O   UNL     1     -14.774  86.891 -10.377  1.00  0.00    -0.508 OA
ATOM     19  H   UNL     1     -14.162  87.285 -11.082  1.00  0.00     0.293 HD
ENDBRANCH  15  18
ENDBRANCH   1  12
BRANCH   2  20
ATOM     20  O   UNL     1     -15.822  81.193  -8.023  1.00  0.00    -0.502 OA
ATOM     21  H   UNL     1     -16.528  80.465  -8.012  1.00  0.00     0.293 HD
ENDBRANCH   2  20
BRANCH   6  22
ATOM     22  O   UNL     1     -13.008  77.136  -6.026  1.00  0.00    -0.507 OA
ATOM     23  H   UNL     1     -13.545  76.723  -6.774  1.00  0.00     0.293 HD
ENDBRANCH   6  22
BRANCH   8  24
ATOM     24  O   UNL     1      -8.771  79.261  -5.373  1.00  0.00    -0.508 OA
ATOM     25  H   UNL     1      -8.082  78.696  -5.856  1.00  0.00     0.293 HD
ENDBRANCH   8  24
TORSDOF 5
ENDMDL
MODEL 4
REMARK VINA RESULT:    -4.969      7.367     10.503
REMARK INTER + INTRA:          -6.080
REMARK INTER:                  -5.829
REMARK INTRA:                  -0.251
REMARK UNBOUND:                -0.240
REMARK SMILES O=c1c(O)c(-c2ccc(O)cc2)oc2cc(O)cc(O)c12
REMARK SMILES IDX 5 1 3 2 2 3 1 4 21 5 19 6 18 7 16 8 15 9 14 10 13 11 6 12
REMARK SMILES IDX 7 13 8 14 9 15 12 16 11 17 10 18 4 20 20 22 17 24
REMARK H PARENT 10 19 4 21 20 23 17 25
REMARK Flexibility Score: inf
ROOT
ATOM      1  C   UNL     1      -4.532  84.449  -7.859  1.00  0.00     0.180 A 
ATOM      2  C   UNL     1      -5.445  84.642  -8.910  1.00  0.00     0.208 A 
ATOM      3  C   UNL     1      -5.748  85.952  -9.315  1.00  0.00     0.238 A 
ATOM      4  O   UNL     1      -6.524  86.117 -10.292  1.00  0.00    -0.285 OA
ATOM      5  C   UNL     1      -5.150  87.051  -8.653  1.00  0.00     0.111 A 
ATOM      6  C   UNL     1      -5.416  88.421  -8.954  1.00  0.00     0.134 A 
ATOM      7  C   UNL     1      -4.670  89.424  -8.325  1.00  0.00     0.093 A 
ATOM      8  C   UNL     1      -3.713  89.111  -7.360  1.00  0.00     0.123 A 
ATOM      9  C   UNL     1      -3.486  87.778  -7.015  1.00  0.00     0.094 A 
ATOM     10  C   UNL     1      -4.191  86.753  -7.652  1.00  0.00     0.146 A 
ATOM     11  O   UNL     1      -3.938  85.497  -7.302  1.00  0.00    -0.452 OA
ENDROOT
BRANCH   1  12
ATOM     12  C   UNL     1      -4.180  83.100  -7.360  1.00  0.00     0.021 A 
ATOM     13  C   UNL     1      -3.239  82.326  -8.060  1.00  0.00     0.016 A 
ATOM     14  C   UNL     1      -2.875  81.059  -7.594  1.00  0.00     0.047 A 
ATOM     15  C   UNL     1      -3.434  80.555  -6.415  1.00  0.00     0.115 A 
ATOM     16  C   UNL     1      -4.722  82.596  -6.163  1.00  0.00     0.016 A 
ATOM     17  C   UNL     1      -4.356  81.329  -5.698  1.00  0.00     0.047 A 
BRANCH  15  18
ATOM     18  O   UNL     1      -3.063  79.291  -5.963  1.00  0.00    -0.508 OA
ATOM     19  H   UNL     1      -2.245  79.157  -5.379  1.00  0.00     0.293 HD
ENDBRANCH  15  18
ENDBRANCH   1  12
BRANCH   2  20
ATOM     20  O   UNL     1      -6.007  83.542  -9.564  1.00  0.00    -0.502 OA
ATOM     21  H   UNL     1      -6.315  83.583 -10.529  1.00  0.00     0.293 HD
ENDBRANCH   2  20
BRANCH   6  22
ATOM     22  O   UNL     1      -6.415  88.846  -9.835  1.00  0.00    -0.507 OA
ATOM     23  H   UNL     1      -6.552  89.802 -10.130  1.00  0.00     0.293 HD
ENDBRANCH   6  22
BRANCH   8  24
ATOM     24  O   UNL     1      -2.999  90.136  -6.741  1.00  0.00    -0.508 OA
ATOM     25  H   UNL     1      -2.004  90.059  -6.567  1.00  0.00     0.293 HD
ENDBRANCH   8  24
TORSDOF 5
ENDMDL
MODEL 5
REMARK VINA RESULT:    -4.956      4.123      5.871
REMARK INTER + INTRA:          -6.065
REMARK INTER:                  -6.075
REMARK INTRA:                   0.010
REMARK UNBOUND:                -0.240
REMARK SMILES O=c1c(O)c(-c2ccc(O)cc2)oc2cc(O)cc(O)c12
REMARK SMILES IDX 5 1 3 2 2 3 1 4 21 5 19 6 18 7 16 8 15 9 14 10 13 11 6 12
REMARK SMILES IDX 7 13 8 14 9 15 12 16 11 17 10 18 4 20 20 22 17 24
REMARK H PARENT 10 19 4 21 20 23 17 25
REMARK Flexibility Score: inf
ROOT
ATOM      1  C   UNL     1      -8.467  90.502 -13.255  1.00  0.00     0.180 A 
ATOM      2  C   UNL     1      -7.603  89.433 -13.547  1.00  0.00     0.208 A 
ATOM      3  C   UNL     1      -6.219  89.668 -13.587  1.00  0.00     0.238 A 
ATOM      4  O   UNL     1      -5.447  88.695 -13.794  1.00  0.00    -0.285 OA
ATOM      5  C   UNL     1      -5.718  90.970 -13.352  1.00  0.00     0.111 A 
ATOM      6  C   UNL     1      -4.338  91.331 -13.408  1.00  0.00     0.134 A 
ATOM      7  C   UNL     1      -3.945  92.620 -13.030  1.00  0.00     0.093 A 
ATOM      8  C   UNL     1      -4.885  93.580 -12.662  1.00  0.00     0.123 A 
ATOM      9  C   UNL     1      -6.243  93.258 -12.661  1.00  0.00     0.094 A 
ATOM     10  C   UNL     1      -6.663  91.968 -12.998  1.00  0.00     0.146 A 
ATOM     11  O   UNL     1      -7.963  91.698 -12.975  1.00  0.00    -0.452 OA
ENDROOT
BRANCH   1  12
ATOM     12  C   UNL     1      -9.938  90.339 -13.219  1.00  0.00     0.021 A 
ATOM     13  C   UNL     1     -10.745  91.153 -14.031  1.00  0.00     0.016 A 
ATOM     14  C   UNL     1     -12.135  91.001 -14.030  1.00  0.00     0.047 A 
ATOM     15  C   UNL     1     -12.735  90.024 -13.229  1.00  0.00     0.115 A 
ATOM     16  C   UNL     1     -10.547  89.343 -12.432  1.00  0.00     0.016 A 
ATOM     17  C   UNL     1     -11.937  89.192 -12.433  1.00  0.00     0.047 A 
BRANCH  15  18
ATOM     18  O   UNL     1     -14.121  89.884 -13.237  1.00  0.00    -0.508 OA
ATOM     19  H   UNL     1     -14.576  89.101 -12.782  1.00  0.00     0.293 HD
ENDBRANCH  15  18
ENDBRANCH   1  12
BRANCH   2  20
ATOM     20  O   UNL     1      -8.117  88.150 -13.753  1.00  0.00    -0.502 OA
ATOM     21  H   UNL     1      -9.112  87.969 -13.829  1.00  0.00     0.293 HD
ENDBRANCH   2  20
BRANCH   6  22
ATOM     22  O   UNL     1      -3.325  90.474 -13.850  1.00  0.00    -0.507 OA
ATOM     23  H   UNL     1      -2.443  90.336 -13.380  1.00  0.00     0.293 HD
ENDBRANCH   6  22
BRANCH   8  24
ATOM     24  O   UNL     1      -4.460  94.860 -12.307  1.00  0.00    -0.508 OA
ATOM     25  H   UNL     1      -3.604  95.008 -11.785  1.00  0.00     0.293 HD
ENDBRANCH   8  24
TORSDOF 5
ENDMDL
MODEL 6
REMARK VINA RESULT:    -4.939      1.850      3.615
REMARK INTER + INTRA:          -6.046
REMARK INTER:                  -5.863
REMARK INTRA:                  -0.183
REMARK UNBOUND:                -0.240
REMARK SMILES O=c1c(O)c(-c2ccc(O)cc2)oc2cc(O)cc(O)c12
REMARK SMILES IDX 5 1 3 2 2 3 1 4 21 5 19 6 18 7 16 8 15 9 14 10 13 11 6 12
REMARK SMILES IDX 7 13 8 14 9 15 12 16 11 17 10 18 4 20 20 22 17 24
REMARK H PARENT 10 19 4 21 20 23 17 25
REMARK Flexibility Score: inf
ROOT
ATOM      1  C   UNL     1      -5.761  91.401 -14.404  1.00  0.00     0.180 A 
ATOM      2  C   UNL     1      -5.014  92.195 -13.517  1.00  0.00     0.208 A 
ATOM      3  C   UNL     1      -4.929  91.812 -12.169  1.00  0.00     0.238 A 
ATOM      4  O   UNL     1      -4.214  92.497 -11.391  1.00  0.00    -0.285 OA
ATOM      5  C   UNL     1      -5.603  90.651 -11.722  1.00  0.00     0.111 A 
ATOM      6  C   UNL     1      -5.618  90.192 -10.370  1.00  0.00     0.134 A 
ATOM      7  C   UNL     1      -6.209  88.960 -10.065  1.00  0.00     0.093 A 
ATOM      8  C   UNL     1      -6.842  88.202 -11.049  1.00  0.00     0.123 A 
ATOM      9  C   UNL     1      -6.885  88.669 -12.363  1.00  0.00     0.094 A 
ATOM     10  C   UNL     1      -6.273  89.878 -12.705  1.00  0.00     0.146 A 
ATOM     11  O   UNL     1      -6.328  90.282 -13.968  1.00  0.00    -0.452 OA
ENDROOT
BRANCH   1  12
ATOM     12  C   UNL     1      -5.918  91.753 -15.834  1.00  0.00     0.021 A 
ATOM     13  C   UNL     1      -5.390  90.901 -16.819  1.00  0.00     0.016 A 
ATOM     14  C   UNL     1      -5.547  91.202 -18.175  1.00  0.00     0.047 A 
ATOM     15  C   UNL     1      -6.246  92.349 -18.565  1.00  0.00     0.115 A 
ATOM     16  C   UNL     1      -6.639  92.894 -16.234  1.00  0.00     0.016 A 
ATOM     17  C   UNL     1      -6.795  93.192 -17.591  1.00  0.00     0.047 A 
BRANCH  15  18
ATOM     18  O   UNL     1      -6.394  92.636 -19.920  1.00  0.00    -0.508 OA
ATOM     19  H   UNL     1      -6.721  93.542 -20.236  1.00  0.00     0.293 HD
ENDBRANCH  15  18
ENDBRANCH   1  12
BRANCH   2  20
ATOM     20  O   UNL     1      -4.338  93.326 -13.984  1.00  0.00    -0.502 OA
ATOM     21  H   UNL     1      -4.132  94.120 -13.389  1.00  0.00     0.293 HD
ENDBRANCH   2  20
BRANCH   6  22
ATOM     22  O   UNL     1      -5.095  90.916  -9.294  1.00  0.00    -0.507 OA
ATOM     23  H   UNL     1      -5.399  90.823  -8.337  1.00  0.00     0.293 HD
ENDBRANCH   6  22
BRANCH   8  24
ATOM     24  O   UNL     1      -7.434  86.988 -10.707  1.00  0.00    -0.508 OA
ATOM     25  H   UNL     1      -7.328  86.587  -9.783  1.00  0.00     0.293 HD
ENDBRANCH   8  24
TORSDOF 5
ENDMDL
MODEL 7
REMARK VINA RESULT:    -4.921     10.290     13.057
REMARK INTER + INTRA:          -6.024
REMARK INTER:                  -5.826
REMARK INTRA:                  -0.198
REMARK UNBOUND:                -0.240
REMARK SMILES O=c1c(O)c(-c2ccc(O)cc2)oc2cc(O)cc(O)c12
REMARK SMILES IDX 5 1 3 2 2 3 1 4 21 5 19 6 18 7 16 8 15 9 14 10 13 11 6 12
REMARK SMILES IDX 7 13 8 14 9 15 12 16 11 17 10 18 4 20 20 22 17 24
REMARK H PARENT 10 19 4 21 20 23 17 25
REMARK Flexibility Score: inf
ROOT
ATOM      1  C   UNL     1      -9.463  83.140  -8.430  1.00  0.00     0.180 A 
ATOM      2  C   UNL     1     -10.231  84.153  -9.031  1.00  0.00     0.208 A 
ATOM      3  C   UNL     1     -11.617  83.970  -9.160  1.00  0.00     0.238 A 
ATOM      4  O   UNL     1     -12.306  84.903  -9.648  1.00  0.00    -0.285 OA
ATOM      5  C   UNL     1     -12.215  82.771  -8.703  1.00  0.00     0.111 A 
ATOM      6  C   UNL     1     -13.604  82.462  -8.821  1.00  0.00     0.134 A 
ATOM      7  C   UNL     1     -14.107  81.303  -8.218  1.00  0.00     0.093 A 
ATOM      8  C   UNL     1     -13.264  80.410  -7.559  1.00  0.00     0.123 A 
ATOM      9  C   UNL     1     -11.895  80.672  -7.489  1.00  0.00     0.094 A 
ATOM     10  C   UNL     1     -11.368  81.838  -8.050  1.00  0.00     0.146 A 
ATOM     11  O   UNL     1     -10.062  82.055  -7.954  1.00  0.00    -0.452 OA
ENDROOT
BRANCH   1  12
ATOM     12  C   UNL     1      -7.994  83.249  -8.281  1.00  0.00     0.021 A 
ATOM     13  C   UNL     1      -7.433  83.333  -6.995  1.00  0.00     0.016 A 
ATOM     14  C   UNL     1      -6.047  83.414  -6.830  1.00  0.00     0.047 A 
ATOM     15  C   UNL     1      -5.203  83.397  -7.945  1.00  0.00     0.115 A 
ATOM     16  C   UNL     1      -7.138  83.211  -9.397  1.00  0.00     0.016 A 
ATOM     17  C   UNL     1      -5.752  83.292  -9.229  1.00  0.00     0.047 A 
BRANCH  15  18
ATOM     18  O   UNL     1      -3.825  83.479  -7.765  1.00  0.00    -0.508 OA
ATOM     19  H   UNL     1      -3.370  84.360  -7.555  1.00  0.00     0.293 HD
ENDBRANCH  15  18
ENDBRANCH   1  12
BRANCH   2  20
ATOM     20  O   UNL     1      -9.623  85.338  -9.454  1.00  0.00    -0.502 OA
ATOM     21  H   UNL     1      -9.211  85.999  -8.806  1.00  0.00     0.293 HD
ENDBRANCH   2  20
BRANCH   6  22
ATOM     22  O   UNL     1     -14.518  83.240  -9.537  1.00  0.00    -0.507 OA
ATOM     23  H   UNL     1     -15.500  83.321  -9.318  1.00  0.00     0.293 HD
ENDBRANCH   6  22
BRANCH   8  24
ATOM     24  O   UNL     1     -13.796  79.258  -6.983  1.00  0.00    -0.508 OA
ATOM     25  H   UNL     1     -14.783  79.037  -7.053  1.00  0.00     0.293 HD
ENDBRANCH   8  24
TORSDOF 5
ENDMDL
MODEL 8
REMARK VINA RESULT:    -4.892      1.812      6.709
REMARK INTER + INTRA:          -5.990
REMARK INTER:                  -5.701
REMARK INTRA:                  -0.289
REMARK UNBOUND:                -0.240
REMARK SMILES O=c1c(O)c(-c2ccc(O)cc2)oc2cc(O)cc(O)c12
REMARK SMILES IDX 5 1 3 2 2 3 1 4 21 5 19 6 18 7 16 8 15 9 14 10 13 11 6 12
REMARK SMILES IDX 7 13 8 14 9 15 12 16 11 17 10 18 4 20 20 22 17 24
REMARK H PARENT 10 19 4 21 20 23 17 25
REMARK Flexibility Score: inf
ROOT
ATOM      1  C   UNL     1      -5.018  91.275 -14.622  1.00  0.00     0.180 A 
ATOM      2  C   UNL     1      -3.944  90.691 -15.316  1.00  0.00     0.208 A 
ATOM      3  C   UNL     1      -3.868  90.850 -16.709  1.00  0.00     0.238 A 
ATOM      4  O   UNL     1      -2.875  90.372 -17.317  1.00  0.00    -0.285 OA
ATOM      5  C   UNL     1      -4.873  91.575 -17.392  1.00  0.00     0.111 A 
ATOM      6  C   UNL     1      -4.917  91.763 -18.806  1.00  0.00     0.134 A 
ATOM      7  C   UNL     1      -5.886  92.607 -19.361  1.00  0.00     0.093 A 
ATOM      8  C   UNL     1      -6.852  93.218 -18.562  1.00  0.00     0.123 A 
ATOM      9  C   UNL     1      -6.855  92.994 -17.185  1.00  0.00     0.094 A 
ATOM     10  C   UNL     1      -5.878  92.184 -16.598  1.00  0.00     0.146 A 
ATOM     11  O   UNL     1      -5.910  92.004 -15.283  1.00  0.00    -0.452 OA
ENDROOT
BRANCH   1  12
ATOM     12  C   UNL     1      -5.181  91.132 -13.157  1.00  0.00     0.021 A 
ATOM     13  C   UNL     1      -5.875  90.023 -12.643  1.00  0.00     0.016 A 
ATOM     14  C   UNL     1      -6.021  89.856 -11.263  1.00  0.00     0.047 A 
ATOM     15  C   UNL     1      -5.464  90.785 -10.379  1.00  0.00     0.115 A 
ATOM     16  C   UNL     1      -4.604  92.051 -12.261  1.00  0.00     0.016 A 
ATOM     17  C   UNL     1      -4.751  91.881 -10.881  1.00  0.00     0.047 A 
BRANCH  15  18
ATOM     18  O   UNL     1      -5.618  90.606  -9.006  1.00  0.00    -0.508 OA
ATOM     19  H   UNL     1      -4.820  90.458  -8.399  1.00  0.00     0.293 HD
ENDBRANCH  15  18
ENDBRANCH   1  12
BRANCH   2  20
ATOM     20  O   UNL     1      -2.951  89.999 -14.619  1.00  0.00    -0.502 OA
ATOM     21  H   UNL     1      -2.225  89.470 -15.088  1.00  0.00     0.293 HD
ENDBRANCH   2  20
BRANCH   6  22
ATOM     22  O   UNL     1      -4.056  91.127 -19.706  1.00  0.00    -0.507 OA
ATOM     23  H   UNL     1      -3.953  90.127 -19.794  1.00  0.00     0.293 HD
ENDBRANCH   6  22
BRANCH   8  24
ATOM     24  O   UNL     1      -7.812  94.040 -19.149  1.00  0.00    -0.508 OA
ATOM     25  H   UNL     1      -7.558  94.902 -19.618  1.00  0.00     0.293 HD
ENDBRANCH   8  24
TORSDOF 5
ENDMDL
MODEL 9
REMARK VINA RESULT:    -4.811      6.348      9.216
REMARK INTER + INTRA:          -5.895
REMARK INTER:                  -5.632
REMARK INTRA:                  -0.263
REMARK UNBOUND:                -0.240
REMARK SMILES O=c1c(O)c(-c2ccc(O)cc2)oc2cc(O)cc(O)c12
REMARK SMILES IDX 5 1 3 2 2 3 1 4 21 5 19 6 18 7 16 8 15 9 14 10 13 11 6 12
REMARK SMILES IDX 7 13 8 14 9 15 12 16 11 17 10 18 4 20 20 22 17 24
REMARK H PARENT 10 19 4 21 20 23 17 25
REMARK Flexibility Score: inf
ROOT
ATOM      1  C   UNL     1      -4.830  87.934  -8.067  1.00  0.00     0.180 A 
ATOM      2  C   UNL     1      -4.029  87.660  -6.945  1.00  0.00     0.208 A 
ATOM      3  C   UNL     1      -3.637  86.335  -6.697  1.00  0.00     0.238 A 
ATOM      4  O   UNL     1      -2.875  86.103  -5.722  1.00  0.00    -0.285 OA
ATOM      5  C   UNL     1      -4.064  85.299  -7.562  1.00  0.00     0.111 A 
ATOM      6  C   UNL     1      -3.760  83.916  -7.383  1.00  0.00     0.134 A 
ATOM      7  C   UNL     1      -4.125  82.995  -8.372  1.00  0.00     0.093 A 
ATOM      8  C   UNL     1      -4.838  83.395  -9.500  1.00  0.00     0.123 A 
ATOM      9  C   UNL     1      -5.193  84.735  -9.658  1.00  0.00     0.094 A 
ATOM     10  C   UNL     1      -4.812  85.684  -8.704  1.00  0.00     0.146 A 
ATOM     11  O   UNL     1      -5.161  86.951  -8.896  1.00  0.00    -0.452 OA
ENDROOT
BRANCH   1  12
ATOM     12  C   UNL     1      -5.305  89.301  -8.381  1.00  0.00     0.021 A 
ATOM     13  C   UNL     1      -4.453  90.191  -9.056  1.00  0.00     0.016 A 
ATOM     14  C   UNL     1      -4.887  91.479  -9.383  1.00  0.00     0.047 A 
ATOM     15  C   UNL     1      -6.183  91.889  -9.054  1.00  0.00     0.115 A 
ATOM     16  C   UNL     1      -6.614  89.712  -8.072  1.00  0.00     0.016 A 
ATOM     17  C   UNL     1      -7.048  91.001  -8.400  1.00  0.00     0.047 A 
BRANCH  15  18
ATOM     18  O   UNL     1      -6.603  93.175  -9.385  1.00  0.00    -0.508 OA
ATOM     19  H   UNL     1      -6.700  93.468 -10.350  1.00  0.00     0.293 HD
ENDBRANCH  15  18
ENDBRANCH   1  12
BRANCH   2  20
ATOM     20  O   UNL     1      -3.601  88.700  -6.116  1.00  0.00    -0.502 OA
ATOM     21  H   UNL     1      -4.227  89.181  -5.480  1.00  0.00     0.293 HD
ENDBRANCH   2  20
BRANCH   6  22
ATOM     22  O   UNL     1      -3.131  83.396  -6.248  1.00  0.00    -0.507 OA
ATOM     23  H   UNL     1      -2.701  82.485  -6.195  1.00  0.00     0.293 HD
ENDBRANCH   6  22
BRANCH   8  24
ATOM     24  O   UNL     1      -5.199  82.448 -10.458  1.00  0.00    -0.508 OA
ATOM     25  H   UNL     1      -5.123  81.454 -10.276  1.00  0.00     0.293 HD
ENDBRANCH   8  24
TORSDOF 5
ENDMDL
