MODEL 1
REMARK VINA RESULT:    -3.500      0.000      0.000
REMARK INTER + INTRA:          -8.743
REMARK INTER:                  -6.569
REMARK INTRA:                  -2.174
REMARK UNBOUND:                -2.174
REMARK SMILES CCCCCCCCC=CCCCCCCCC(=O)[O-]
REMARK SMILES IDX 10 1 9 2 11 3 12 4 13 5 14 6 15 7 16 8 17 9 18 10 19 11
REMARK SMILES IDX 20 12 8 13 7 14 6 15 5 16 4 17 3 18 2 19 1 20
REMARK H PARENT
REMARK Flexibility Score: inf
ROOT
ATOM      1  C   UNL     1      20.996   9.800  36.416  1.00  0.00    -0.031 C 
ATOM      2  C   UNL     1      21.989   9.128  37.016  1.00  0.00    -0.031 C 
ENDROOT
BRANCH   1   3
ATOM      3  C   UNL     1      20.263   9.237  35.229  1.00  0.00     0.027 C 
BRANCH   3   4
ATOM      4  C   UNL     1      19.961   7.740  35.382  1.00  0.00     0.004 C 
BRANCH   4   5
ATOM      5  C   UNL     1      20.671   6.890  34.314  1.00  0.00     0.000 C 
BRANCH   5   6
ATOM      6  C   UNL     1      21.167   5.541  34.878  1.00  0.00     0.000 C 
BRANCH   6   7
ATOM      7  C   UNL     1      21.586   5.607  36.357  1.00  0.00     0.000 C 
BRANCH   7   8
ATOM      8  C   UNL     1      21.482   4.252  37.069  1.00  0.00     0.006 C 
BRANCH   8   9
ATOM      9  C   UNL     1      22.268   4.260  38.384  1.00  0.00     0.053 C 
BRANCH   9  10
ATOM     10  C   UNL     1      21.416   3.757  39.506  1.00  0.00     0.041 C 
ATOM     11  O   UNL     1      21.259   4.452  40.544  1.00  0.00    -0.550 OA
ATOM     12  O   UNL     1      20.837   2.496  39.427  1.00  0.00    -0.550 OA
ENDBRANCH   9  10
ENDBRANCH   8   9
ENDBRANCH   7   8
ENDBRANCH   6   7
ENDBRANCH   5   6
ENDBRANCH   4   5
ENDBRANCH   3   4
ENDBRANCH   1   3
BRANCH   2  13
ATOM     13  C   UNL     1      22.710   9.689  38.210  1.00  0.00     0.027 C 
BRANCH  13  14
ATOM     14  C   UNL     1      22.323   8.940  39.494  1.00  0.00     0.004 C 
BRANCH  14  15
ATOM     15  C   UNL     1      21.398   7.737  39.232  1.00  0.00     0.000 C 
BRANCH  15  16
ATOM     16  C   UNL     1      20.056   7.771  39.985  1.00  0.00     0.000 C 
BRANCH  16  17
ATOM     17  C   UNL     1      19.504   9.193  40.165  1.00  0.00    -0.000 C 
BRANCH  17  18
ATOM     18  C   UNL     1      18.638   9.601  38.963  1.00  0.00    -0.000 C 
BRANCH  18  19
ATOM     19  C   UNL     1      17.211   9.999  39.371  1.00  0.00    -0.003 C 
ATOM     20  C   UNL     1      16.715   9.242  40.603  1.00  0.00     0.004 C 
ENDBRANCH  18  19
ENDBRANCH  17  18
ENDBRANCH  16  17
ENDBRANCH  15  16
ENDBRANCH  14  15
ENDBRANCH  13  14
ENDBRANCH   2  13
TORSDOF 15
ENDMDL
MODEL 2
REMARK VINA RESULT:    -3.476     10.783     12.567
REMARK INTER + INTRA:          -8.698
REMARK INTER:                  -5.477
REMARK INTRA:                  -3.221
REMARK UNBOUND:                -2.174
REMARK SMILES CCCCCCCCC=CCCCCCCCC(=O)[O-]
REMARK SMILES IDX 10 1 9 2 11 3 12 4 13 5 14 6 15 7 16 8 17 9 18 10 19 11
REMARK SMILES IDX 20 12 8 13 7 14 6 15 5 16 4 17 3 18 2 19 1 20
REMARK H PARENT
REMARK Flexibility Score: inf
ROOT
ATOM      1  C   UNL     1       9.608   3.029  29.997  1.00  0.00    -0.031 C 
ATOM      2  C   UNL     1      10.223   4.153  29.602  1.00  0.00    -0.031 C 
ENDROOT
BRANCH   1   3
ATOM      3  C   UNL     1      10.365   1.893  30.631  1.00  0.00     0.027 C 
BRANCH   3   4
ATOM      4  C   UNL     1       9.973   1.675  32.100  1.00  0.00     0.004 C 
BRANCH   4   5
ATOM      5  C   UNL     1      11.098   2.081  33.069  1.00  0.00     0.000 C 
BRANCH   5   6
ATOM      6  C   UNL     1      12.331   2.641  32.328  1.00  0.00     0.000 C 
BRANCH   6   7
ATOM      7  C   UNL     1      12.770   4.030  32.822  1.00  0.00     0.000 C 
BRANCH   7   8
ATOM      8  C   UNL     1      13.479   4.854  31.739  1.00  0.00     0.006 C 
BRANCH   8   9
ATOM      9  C   UNL     1      13.725   4.014  30.482  1.00  0.00     0.053 C 
BRANCH   9  10
ATOM     10  C   UNL     1      14.239   4.874  29.371  1.00  0.00     0.041 C 
ATOM     11  O   UNL     1      15.448   5.227  29.350  1.00  0.00    -0.550 OA
ATOM     12  O   UNL     1      13.371   5.328  28.385  1.00  0.00    -0.550 OA
ENDBRANCH   9  10
ENDBRANCH   8   9
ENDBRANCH   7   8
ENDBRANCH   6   7
ENDBRANCH   5   6
ENDBRANCH   4   5
ENDBRANCH   3   4
ENDBRANCH   1   3
BRANCH   2  13
ATOM     13  C   UNL     1       9.461   5.290  28.980  1.00  0.00     0.027 C 
BRANCH  13  14
ATOM     14  C   UNL     1       9.206   6.410  29.999  1.00  0.00     0.004 C 
BRANCH  14  15
ATOM     15  C   UNL     1      10.378   6.610  30.978  1.00  0.00     0.000 C 
BRANCH  15  16
ATOM     16  C   UNL     1      10.005   6.522  32.469  1.00  0.00     0.000 C 
BRANCH  16  17
ATOM     17  C   UNL     1       9.021   5.384  32.776  1.00  0.00    -0.000 C 
BRANCH  17  18
ATOM     18  C   UNL     1       9.104   4.970  34.253  1.00  0.00    -0.000 C 
BRANCH  18  19
ATOM     19  C   UNL     1      10.195   5.734  35.020  1.00  0.00    -0.003 C 
ATOM     20  C   UNL     1      10.985   4.837  35.973  1.00  0.00     0.004 C 
ENDBRANCH  18  19
ENDBRANCH  17  18
ENDBRANCH  16  17
ENDBRANCH  15  16
ENDBRANCH  14  15
ENDBRANCH  13  14
ENDBRANCH   2  13
TORSDOF 15
ENDMDL
MODEL 3
REMARK VINA RESULT:    -3.457     10.695     12.835
REMARK INTER + INTRA:          -8.663
REMARK INTER:                  -5.922
REMARK INTRA:                  -2.741
REMARK UNBOUND:                -2.174
REMARK SMILES CCCCCCCCC=CCCCCCCCC(=O)[O-]
REMARK SMILES IDX 10 1 9 2 11 3 12 4 13 5 14 6 15 7 16 8 17 9 18 10 19 11
REMARK SMILES IDX 20 12 8 13 7 14 6 15 5 16 4 17 3 18 2 19 1 20
REMARK H PARENT
REMARK Flexibility Score: inf
ROOT
ATOM      1  C   UNL     1       9.784   7.670  31.826  1.00  0.00    -0.031 C 
ATOM      2  C   UNL     1      10.012   7.349  30.544  1.00  0.00    -0.031 C 
ENDROOT
BRANCH   1   3
ATOM      3  C   UNL     1      10.899   7.739  32.835  1.00  0.00     0.027 C 
BRANCH   3   4
ATOM      4  C   UNL     1      10.682   6.779  34.014  1.00  0.00     0.004 C 
BRANCH   4   5
ATOM      5  C   UNL     1       9.913   5.512  33.601  1.00  0.00     0.000 C 
BRANCH   5   6
ATOM      6  C   UNL     1      10.860   4.367  33.181  1.00  0.00     0.000 C 
BRANCH   6   7
ATOM      7  C   UNL     1      12.223   4.401  33.892  1.00  0.00     0.000 C 
BRANCH   7   8
ATOM      8  C   UNL     1      13.407   4.423  32.915  1.00  0.00     0.006 C 
BRANCH   8   9
ATOM      9  C   UNL     1      12.990   4.998  31.559  1.00  0.00     0.053 C 
BRANCH   9  10
ATOM     10  C   UNL     1      14.036   4.717  30.527  1.00  0.00     0.041 C 
ATOM     11  O   UNL     1      15.247   4.626  30.860  1.00  0.00    -0.550 OA
ATOM     12  O   UNL     1      13.680   4.605  29.189  1.00  0.00    -0.550 OA
ENDBRANCH   9  10
ENDBRANCH   8   9
ENDBRANCH   7   8
ENDBRANCH   6   7
ENDBRANCH   5   6
ENDBRANCH   4   5
ENDBRANCH   3   4
ENDBRANCH   1   3
BRANCH   2  13
ATOM     13  C   UNL     1       8.897   7.294  29.537  1.00  0.00     0.027 C 
BRANCH  13  14
ATOM     14  C   UNL     1       8.922   5.973  28.754  1.00  0.00     0.004 C 
BRANCH  14  15
ATOM     15  C   UNL     1      10.092   5.057  29.158  1.00  0.00     0.000 C 
BRANCH  15  16
ATOM     16  C   UNL     1       9.681   3.710  29.779  1.00  0.00     0.000 C 
BRANCH  16  17
ATOM     17  C   UNL     1      10.799   2.658  29.726  1.00  0.00    -0.000 C 
BRANCH  17  18
ATOM     18  C   UNL     1      10.595   1.587  30.808  1.00  0.00    -0.000 C 
BRANCH  18  19
ATOM     19  C   UNL     1      11.917   1.132  31.446  1.00  0.00    -0.003 C 
ATOM     20  C   UNL     1      11.710   0.151  32.600  1.00  0.00     0.004 C 
ENDBRANCH  18  19
ENDBRANCH  17  18
ENDBRANCH  16  17
ENDBRANCH  15  16
ENDBRANCH  14  15
ENDBRANCH  13  14
ENDBRANCH   2  13
TORSDOF 15
ENDMDL
MODEL 4
REMARK VINA RESULT:    -3.452      3.571      6.824
REMARK INTER + INTRA:          -8.653
REMARK INTER:                  -7.025
REMARK INTRA:                  -1.627
REMARK UNBOUND:                -2.174
REMARK SMILES CCCCCCCCC=CCCCCCCCC(=O)[O-]
REMARK SMILES IDX 10 1 9 2 11 3 12 4 13 5 14 6 15 7 16 8 17 9 18 10 19 11
REMARK SMILES IDX 20 12 8 13 7 14 6 15 5 16 4 17 3 18 2 19 1 20
REMARK H PARENT
REMARK Flexibility Score: inf
ROOT
ATOM      1  C   UNL     1      20.713   8.906  38.910  1.00  0.00    -0.031 C 
ATOM      2  C   UNL     1      20.833   9.631  37.788  1.00  0.00    -0.031 C 
ENDROOT
BRANCH   1   3
ATOM      3  C   UNL     1      19.425   8.856  39.687  1.00  0.00     0.027 C 
BRANCH   3   4
ATOM      4  C   UNL     1      18.423   9.926  39.230  1.00  0.00     0.004 C 
BRANCH   4   5
ATOM      5  C   UNL     1      17.038   9.741  39.876  1.00  0.00     0.000 C 
BRANCH   5   6
ATOM      6  C   UNL     1      17.059   8.690  41.007  1.00  0.00     0.000 C 
BRANCH   6   7
ATOM      7  C   UNL     1      15.762   8.647  41.832  1.00  0.00     0.000 C 
BRANCH   7   8
ATOM      8  C   UNL     1      14.744   7.631  41.294  1.00  0.00     0.006 C 
BRANCH   8   9
ATOM      9  C   UNL     1      13.450   8.326  40.860  1.00  0.00     0.053 C 
BRANCH   9  10
ATOM     10  C   UNL     1      12.300   7.370  40.914  1.00  0.00     0.041 C 
ATOM     11  O   UNL     1      12.106   6.558  39.971  1.00  0.00    -0.550 OA
ATOM     12  O   UNL     1      11.412   7.412  41.982  1.00  0.00    -0.550 OA
ENDBRANCH   9  10
ENDBRANCH   8   9
ENDBRANCH   7   8
ENDBRANCH   6   7
ENDBRANCH   5   6
ENDBRANCH   4   5
ENDBRANCH   3   4
ENDBRANCH   1   3
BRANCH   2  13
ATOM     13  C   UNL     1      22.118   9.667  37.009  1.00  0.00     0.027 C 
BRANCH  13  14
ATOM     14  C   UNL     1      21.859   9.499  35.504  1.00  0.00     0.004 C 
BRANCH  14  15
ATOM     15  C   UNL     1      20.727   8.500  35.197  1.00  0.00     0.000 C 
BRANCH  15  16
ATOM     16  C   UNL     1      21.186   7.164  34.587  1.00  0.00     0.000 C 
BRANCH  16  17
ATOM     17  C   UNL     1      21.608   6.134  35.645  1.00  0.00    -0.000 C 
BRANCH  17  18
ATOM     18  C   UNL     1      20.577   6.061  36.781  1.00  0.00    -0.000 C 
BRANCH  18  19
ATOM     19  C   UNL     1      20.996   5.094  37.899  1.00  0.00    -0.003 C 
ATOM     20  C   UNL     1      22.155   5.630  38.741  1.00  0.00     0.004 C 
ENDBRANCH  18  19
ENDBRANCH  17  18
ENDBRANCH  16  17
ENDBRANCH  15  16
ENDBRANCH  14  15
ENDBRANCH  13  14
ENDBRANCH   2  13
TORSDOF 15
ENDMDL
MODEL 5
REMARK VINA RESULT:    -3.394      2.350      5.988
REMARK INTER + INTRA:          -8.545
REMARK INTER:                  -6.282
REMARK INTRA:                  -2.263
REMARK UNBOUND:                -2.174
REMARK SMILES CCCCCCCCC=CCCCCCCCC(=O)[O-]
REMARK SMILES IDX 10 1 9 2 11 3 12 4 13 5 14 6 15 7 16 8 17 9 18 10 19 11
REMARK SMILES IDX 20 12 8 13 7 14 6 15 5 16 4 17 3 18 2 19 1 20
REMARK H PARENT
REMARK Flexibility Score: inf
ROOT
ATOM      1  C   UNL     1      20.252   6.229  34.001  1.00  0.00    -0.031 C 
ATOM      2  C   UNL     1      21.465   6.425  33.464  1.00  0.00    -0.031 C 
ENDROOT
BRANCH   1   3
ATOM      3  C   UNL     1      19.735   7.086  35.125  1.00  0.00     0.027 C 
BRANCH   3   4
ATOM      4  C   UNL     1      20.373   8.483  35.138  1.00  0.00     0.004 C 
BRANCH   4   5
ATOM      5  C   UNL     1      20.141   9.217  36.470  1.00  0.00     0.000 C 
BRANCH   5   6
ATOM      6  C   UNL     1      21.462   9.706  37.103  1.00  0.00     0.000 C 
BRANCH   6   7
ATOM      7  C   UNL     1      22.212   8.615  37.886  1.00  0.00     0.000 C 
BRANCH   7   8
ATOM      8  C   UNL     1      22.068   8.764  39.407  1.00  0.00     0.006 C 
BRANCH   8   9
ATOM      9  C   UNL     1      20.872   7.961  39.927  1.00  0.00     0.053 C 
BRANCH   9  10
ATOM     10  C   UNL     1      19.873   8.868  40.573  1.00  0.00     0.041 C 
ATOM     11  O   UNL     1      19.721   8.856  41.823  1.00  0.00    -0.550 OA
ATOM     12  O   UNL     1      19.073   9.690  39.790  1.00  0.00    -0.550 OA
ENDBRANCH   9  10
ENDBRANCH   8   9
ENDBRANCH   7   8
ENDBRANCH   6   7
ENDBRANCH   5   6
ENDBRANCH   4   5
ENDBRANCH   3   4
ENDBRANCH   1   3
BRANCH   2  13
ATOM     13  C   UNL     1      21.972   5.574  32.333  1.00  0.00     0.027 C 
BRANCH  13  14
ATOM     14  C   UNL     1      22.951   4.505  32.839  1.00  0.00     0.004 C 
BRANCH  14  15
ATOM     15  C   UNL     1      22.339   3.091  32.858  1.00  0.00     0.000 C 
BRANCH  15  16
ATOM     16  C   UNL     1      22.378   2.383  34.225  1.00  0.00     0.000 C 
BRANCH  16  17
ATOM     17  C   UNL     1      22.894   3.287  35.355  1.00  0.00    -0.000 C 
BRANCH  17  18
ATOM     18  C   UNL     1      21.753   3.679  36.306  1.00  0.00    -0.000 C 
BRANCH  18  19
ATOM     19  C   UNL     1      22.042   4.981  37.069  1.00  0.00    -0.003 C 
ATOM     20  C   UNL     1      22.112   4.776  38.582  1.00  0.00     0.004 C 
ENDBRANCH  18  19
ENDBRANCH  17  18
ENDBRANCH  16  17
ENDBRANCH  15  16
ENDBRANCH  14  15
ENDBRANCH  13  14
ENDBRANCH   2  13
TORSDOF 15
ENDMDL
MODEL 6
REMARK VINA RESULT:    -3.368     10.535     12.329
REMARK INTER + INTRA:          -8.495
REMARK INTER:                  -5.574
REMARK INTRA:                  -2.921
REMARK UNBOUND:                -2.174
REMARK SMILES CCCCCCCCC=CCCCCCCCC(=O)[O-]
REMARK SMILES IDX 10 1 9 2 11 3 12 4 13 5 14 6 15 7 16 8 17 9 18 10 19 11
REMARK SMILES IDX 20 12 8 13 7 14 6 15 5 16 4 17 3 18 2 19 1 20
REMARK H PARENT
REMARK Flexibility Score: inf
ROOT
ATOM      1  C   UNL     1       9.829   4.063  30.857  1.00  0.00    -0.031 C 
ATOM      2  C   UNL     1       9.988   4.945  29.859  1.00  0.00    -0.031 C 
ENDROOT
BRANCH   1   3
ATOM      3  C   UNL     1       9.500   2.619  30.593  1.00  0.00     0.027 C 
BRANCH   3   4
ATOM      4  C   UNL     1      10.230   1.666  31.549  1.00  0.00     0.004 C 
BRANCH   4   5
ATOM      5  C   UNL     1      11.745   1.624  31.287  1.00  0.00     0.000 C 
BRANCH   5   6
ATOM      6  C   UNL     1      12.072   1.342  29.804  1.00  0.00     0.000 C 
BRANCH   6   7
ATOM      7  C   UNL     1      13.024   2.372  29.175  1.00  0.00     0.000 C 
BRANCH   7   8
ATOM      8  C   UNL     1      13.856   3.132  30.217  1.00  0.00     0.006 C 
BRANCH   8   9
ATOM      9  C   UNL     1      13.626   4.643  30.109  1.00  0.00     0.053 C 
BRANCH   9  10
ATOM     10  C   UNL     1      14.294   5.187  28.886  1.00  0.00     0.041 C 
ATOM     11  O   UNL     1      13.662   5.942  28.102  1.00  0.00    -0.550 OA
ATOM     12  O   UNL     1      15.599   4.818  28.585  1.00  0.00    -0.550 OA
ENDBRANCH   9  10
ENDBRANCH   8   9
ENDBRANCH   7   8
ENDBRANCH   6   7
ENDBRANCH   5   6
ENDBRANCH   4   5
ENDBRANCH   3   4
ENDBRANCH   1   3
BRANCH   2  13
ATOM     13  C   UNL     1      10.330   6.384  30.127  1.00  0.00     0.027 C 
BRANCH  13  14
ATOM     14  C   UNL     1       9.596   6.906  31.371  1.00  0.00     0.004 C 
BRANCH  14  15
ATOM     15  C   UNL     1      10.462   7.848  32.228  1.00  0.00     0.000 C 
BRANCH  15  16
ATOM     16  C   UNL     1      10.799   7.322  33.635  1.00  0.00     0.000 C 
BRANCH  16  17
ATOM     17  C   UNL     1      10.091   6.001  33.969  1.00  0.00    -0.000 C 
BRANCH  17  18
ATOM     18  C   UNL     1      11.111   4.893  34.270  1.00  0.00    -0.000 C 
BRANCH  18  19
ATOM     19  C   UNL     1      12.383   5.013  33.416  1.00  0.00    -0.003 C 
ATOM     20  C   UNL     1      13.618   4.438  34.111  1.00  0.00     0.004 C 
ENDBRANCH  18  19
ENDBRANCH  17  18
ENDBRANCH  16  17
ENDBRANCH  15  16
ENDBRANCH  14  15
ENDBRANCH  13  14
ENDBRANCH   2  13
TORSDOF 15
ENDMDL
MODEL 7
REMARK VINA RESULT:    -3.342     10.936     13.110
REMARK INTER + INTRA:          -8.447
REMARK INTER:                  -5.463
REMARK INTRA:                  -2.985
REMARK UNBOUND:                -2.174
REMARK SMILES CCCCCCCCC=CCCCCCCCC(=O)[O-]
REMARK SMILES IDX 10 1 9 2 11 3 12 4 13 5 14 6 15 7 16 8 17 9 18 10 19 11
REMARK SMILES IDX 20 12 8 13 7 14 6 15 5 16 4 17 3 18 2 19 1 20
REMARK H PARENT
REMARK Flexibility Score: inf
ROOT
ATOM      1  C   UNL     1      10.456   5.586  32.998  1.00  0.00    -0.031 C 
ATOM      2  C   UNL     1       9.248   5.672  32.421  1.00  0.00    -0.031 C 
ENDROOT
BRANCH   1   3
ATOM      3  C   UNL     1      10.714   4.666  34.161  1.00  0.00     0.027 C 
BRANCH   3   4
ATOM      4  C   UNL     1      12.134   4.081  34.142  1.00  0.00     0.004 C 
BRANCH   4   5
ATOM      5  C   UNL     1      13.151   5.041  33.500  1.00  0.00     0.000 C 
BRANCH   5   6
ATOM      6  C   UNL     1      13.821   4.428  32.251  1.00  0.00     0.000 C 
BRANCH   6   7
ATOM      7  C   UNL     1      13.344   5.048  30.927  1.00  0.00     0.000 C 
BRANCH   7   8
ATOM      8  C   UNL     1      14.205   4.632  29.727  1.00  0.00     0.006 C 
BRANCH   8   9
ATOM      9  C   UNL     1      13.601   5.140  28.414  1.00  0.00     0.053 C 
BRANCH   9  10
ATOM     10  C   UNL     1      13.351   4.000  27.478  1.00  0.00     0.041 C 
ATOM     11  O   UNL     1      13.281   2.822  27.917  1.00  0.00    -0.550 OA
ATOM     12  O   UNL     1      13.245   4.233  26.112  1.00  0.00    -0.550 OA
ENDBRANCH   9  10
ENDBRANCH   8   9
ENDBRANCH   7   8
ENDBRANCH   6   7
ENDBRANCH   5   6
ENDBRANCH   4   5
ENDBRANCH   3   4
ENDBRANCH   1   3
BRANCH   2  13
ATOM     13  C   UNL     1       8.998   6.582  31.251  1.00  0.00     0.027 C 
BRANCH  13  14
ATOM     14  C   UNL     1       9.984   6.300  30.108  1.00  0.00     0.004 C 
BRANCH  14  15
ATOM     15  C   UNL     1       9.544   5.128  29.211  1.00  0.00     0.000 C 
BRANCH  15  16
ATOM     16  C   UNL     1      10.238   3.786  29.504  1.00  0.00     0.000 C 
BRANCH  16  17
ATOM     17  C   UNL     1       9.279   2.722  30.057  1.00  0.00    -0.000 C 
BRANCH  17  18
ATOM     18  C   UNL     1       9.836   2.097  31.344  1.00  0.00    -0.000 C 
BRANCH  18  19
ATOM     19  C   UNL     1      11.344   1.815  31.260  1.00  0.00    -0.003 C 
ATOM     20  C   UNL     1      11.812   0.783  32.286  1.00  0.00     0.004 C 
ENDBRANCH  18  19
ENDBRANCH  17  18
ENDBRANCH  16  17
ENDBRANCH  15  16
ENDBRANCH  14  15
ENDBRANCH  13  14
ENDBRANCH   2  13
TORSDOF 15
ENDMDL
MODEL 8
REMARK VINA RESULT:    -3.325     10.720     12.926
REMARK INTER + INTRA:          -8.416
REMARK INTER:                  -5.423
REMARK INTRA:                  -2.993
REMARK UNBOUND:                -2.174
REMARK SMILES CCCCCCCCC=CCCCCCCCC(=O)[O-]
REMARK SMILES IDX 10 1 9 2 11 3 12 4 13 5 14 6 15 7 16 8 17 9 18 10 19 11
REMARK SMILES IDX 20 12 8 13 7 14 6 15 5 16 4 17 3 18 2 19 1 20
REMARK H PARENT
REMARK Flexibility Score: inf
ROOT
ATOM      1  C   UNL     1       9.928   4.678  29.233  1.00  0.00    -0.031 C 
ATOM      2  C   UNL     1       9.643   3.663  30.063  1.00  0.00    -0.031 C 
ENDROOT
BRANCH   1   3
ATOM      3  C   UNL     1       9.291   6.032  29.391  1.00  0.00     0.027 C 
BRANCH   3   4
ATOM      4  C   UNL     1      10.247   7.061  30.010  1.00  0.00     0.004 C 
BRANCH   4   5
ATOM      5  C   UNL     1       9.750   7.570  31.375  1.00  0.00     0.000 C 
BRANCH   5   6
ATOM      6  C   UNL     1      10.838   7.467  32.466  1.00  0.00     0.000 C 
BRANCH   6   7
ATOM      7  C   UNL     1      10.427   6.601  33.668  1.00  0.00     0.000 C 
BRANCH   7   8
ATOM      8  C   UNL     1       9.978   5.190  33.263  1.00  0.00     0.006 C 
BRANCH   8   9
ATOM      9  C   UNL     1       9.040   4.588  34.314  1.00  0.00     0.053 C 
BRANCH   9  10
ATOM     10  C   UNL     1       9.696   3.432  35.000  1.00  0.00     0.041 C 
ATOM     11  O   UNL     1       9.072   2.777  35.876  1.00  0.00    -0.550 OA
ATOM     12  O   UNL     1      11.015   3.108  34.708  1.00  0.00    -0.550 OA
ENDBRANCH   9  10
ENDBRANCH   8   9
ENDBRANCH   7   8
ENDBRANCH   6   7
ENDBRANCH   5   6
ENDBRANCH   4   5
ENDBRANCH   3   4
ENDBRANCH   1   3
BRANCH   2  13
ATOM     13  C   UNL     1      10.291   2.316  29.910  1.00  0.00     0.027 C 
BRANCH  13  14
ATOM     14  C   UNL     1      11.133   1.961  31.145  1.00  0.00     0.004 C 
BRANCH  14  15
ATOM     15  C   UNL     1      12.605   2.393  31.013  1.00  0.00     0.000 C 
BRANCH  15  16
ATOM     16  C   UNL     1      13.008   3.607  31.869  1.00  0.00     0.000 C 
BRANCH  16  17
ATOM     17  C   UNL     1      13.073   4.914  31.065  1.00  0.00    -0.000 C 
BRANCH  17  18
ATOM     18  C   UNL     1      14.077   4.797  29.909  1.00  0.00    -0.000 C 
BRANCH  18  19
ATOM     19  C   UNL     1      13.499   5.286  28.572  1.00  0.00    -0.003 C 
ATOM     20  C   UNL     1      13.168   4.140  27.616  1.00  0.00     0.004 C 
ENDBRANCH  18  19
ENDBRANCH  17  18
ENDBRANCH  16  17
ENDBRANCH  15  16
ENDBRANCH  14  15
ENDBRANCH  13  14
ENDBRANCH   2  13
TORSDOF 15
ENDMDL
MODEL 9
REMARK VINA RESULT:    -3.320     10.354     12.399
REMARK INTER + INTRA:          -8.405
REMARK INTER:                  -5.345
REMARK INTRA:                  -3.061
REMARK UNBOUND:                -2.174
REMARK SMILES CCCCCCCCC=CCCCCCCCC(=O)[O-]
REMARK SMILES IDX 10 1 9 2 11 3 12 4 13 5 14 6 15 7 16 8 17 9 18 10 19 11
REMARK SMILES IDX 20 12 8 13 7 14 6 15 5 16 4 17 3 18 2 19 1 20
REMARK H PARENT
REMARK Flexibility Score: inf
ROOT
ATOM      1  C   UNL     1      10.924   2.278  32.145  1.00  0.00    -0.031 C 
ATOM      2  C   UNL     1      11.040   1.493  31.064  1.00  0.00    -0.031 C 
ENDROOT
BRANCH   1   3
ATOM      3  C   UNL     1      11.268   1.781  33.524  1.00  0.00     0.027 C 
BRANCH   3   4
ATOM      4  C   UNL     1      12.142   2.773  34.304  1.00  0.00     0.004 C 
BRANCH   4   5
ATOM      5  C   UNL     1      11.902   4.229  33.868  1.00  0.00     0.000 C 
BRANCH   5   6
ATOM      6  C   UNL     1      13.202   4.920  33.403  1.00  0.00     0.000 C 
BRANCH   6   7
ATOM      7  C   UNL     1      13.385   4.928  31.876  1.00  0.00     0.000 C 
BRANCH   7   8
ATOM      8  C   UNL     1      14.239   3.757  31.371  1.00  0.00     0.006 C 
BRANCH   8   9
ATOM      9  C   UNL     1      14.227   3.687  29.840  1.00  0.00     0.053 C 
BRANCH   9  10
ATOM     10  C   UNL     1      14.786   4.946  29.255  1.00  0.00     0.041 C 
ATOM     11  O   UNL     1      14.089   5.647  28.476  1.00  0.00    -0.550 OA
ATOM     12  O   UNL     1      16.096   5.317  29.531  1.00  0.00    -0.550 OA
ENDBRANCH   9  10
ENDBRANCH   8   9
ENDBRANCH   7   8
ENDBRANCH   6   7
ENDBRANCH   5   6
ENDBRANCH   4   5
ENDBRANCH   3   4
ENDBRANCH   1   3
BRANCH   2  13
ATOM     13  C   UNL     1      10.708   1.997  29.687  1.00  0.00     0.027 C 
BRANCH  13  14
ATOM     14  C   UNL     1       9.977   3.346  29.752  1.00  0.00     0.004 C 
BRANCH  14  15
ATOM     15  C   UNL     1      10.740   4.478  29.040  1.00  0.00     0.000 C 
BRANCH  15  16
ATOM     16  C   UNL     1      10.652   5.854  29.725  1.00  0.00     0.000 C 
BRANCH  16  17
ATOM     17  C   UNL     1       9.319   6.078  30.454  1.00  0.00    -0.000 C 
BRANCH  17  18
ATOM     18  C   UNL     1       9.555   6.426  31.932  1.00  0.00    -0.000 C 
BRANCH  18  19
ATOM     19  C   UNL     1      10.326   7.742  32.113  1.00  0.00    -0.003 C 
ATOM     20  C   UNL     1      11.018   7.840  33.473  1.00  0.00     0.004 C 
ENDBRANCH  18  19
ENDBRANCH  17  18
ENDBRANCH  16  17
ENDBRANCH  15  16
ENDBRANCH  14  15
ENDBRANCH  13  14
ENDBRANCH   2  13
TORSDOF 15
ENDMDL
