MODEL 1
REMARK VINA RESULT:    -4.284      0.000      0.000
REMARK INTER + INTRA:          -5.314
REMARK INTER:                  -5.161
REMARK INTRA:                  -0.153
REMARK UNBOUND:                -0.153
REMARK SMILES O=c1c(O)c(-c2ccc(O)c(O)c2)oc2cc(O)cc(O)c12
REMARK SMILES IDX 5 1 3 2 2 3 1 4 22 5 20 6 19 7 17 8 16 9 15 10 14 11 6 12
REMARK SMILES IDX 7 13 8 14 9 15 13 16 11 17 10 18 12 20 4 22 21 24 18 26
REMARK H PARENT 10 19 12 21 4 23 21 25 18 27
REMARK Flexibility Score: inf
ROOT
ATOM      1  C   UNL     1      23.365  24.998   5.108  1.00  0.00     0.180 A 
ATOM      2  C   UNL     1      24.636  24.695   5.633  1.00  0.00     0.208 A 
ATOM      3  C   UNL     1      25.423  25.739   6.146  1.00  0.00     0.238 A 
ATOM      4  O   UNL     1      26.558  25.479   6.629  1.00  0.00    -0.285 OA
ATOM      5  C   UNL     1      24.938  27.062   6.106  1.00  0.00     0.111 A 
ATOM      6  C   UNL     1      25.670  28.170   6.597  1.00  0.00     0.134 A 
ATOM      7  C   UNL     1      25.122  29.459   6.513  1.00  0.00     0.093 A 
ATOM      8  C   UNL     1      23.859  29.659   5.946  1.00  0.00     0.123 A 
ATOM      9  C   UNL     1      23.133  28.571   5.461  1.00  0.00     0.094 A 
ATOM     10  C   UNL     1      23.660  27.278   5.537  1.00  0.00     0.146 A 
ATOM     11  O   UNL     1      22.946  26.259   5.073  1.00  0.00    -0.452 OA
ENDROOT
BRANCH   1  12
ATOM     12  C   UNL     1      22.468  23.951   4.566  1.00  0.00     0.025 A 
ATOM     13  C   UNL     1      22.846  23.245   3.414  1.00  0.00     0.016 A 
ATOM     14  C   UNL     1      22.006  22.268   2.875  1.00  0.00     0.051 A 
ATOM     15  C   UNL     1      20.767  21.994   3.470  1.00  0.00     0.157 A 
ATOM     16  C   UNL     1      21.215  23.687   5.149  1.00  0.00     0.062 A 
ATOM     17  C   UNL     1      20.369  22.711   4.611  1.00  0.00     0.158 A 
BRANCH  15  18
ATOM     18  O   UNL     1      19.932  21.016   2.931  1.00  0.00    -0.504 OA
ATOM     19  H   UNL     1      20.055  20.676   1.984  1.00  0.00     0.293 HD
ENDBRANCH  15  18
BRANCH  17  20
ATOM     20  O   UNL     1      19.137  22.472   5.217  1.00  0.00    -0.504 OA
ATOM     21  H   UNL     1      18.702  23.144   5.838  1.00  0.00     0.293 HD
ENDBRANCH  17  20
ENDBRANCH   1  12
BRANCH   2  22
ATOM     22  O   UNL     1      25.113  23.383   5.616  1.00  0.00    -0.502 OA
ATOM     23  H   UNL     1      24.672  22.638   6.140  1.00  0.00     0.293 HD
ENDBRANCH   2  22
BRANCH   6  24
ATOM     24  O   UNL     1      26.933  28.001   7.166  1.00  0.00    -0.507 OA
ATOM     25  H   UNL     1      27.350  28.709   7.759  1.00  0.00     0.293 HD
ENDBRANCH   6  24
BRANCH   8  26
ATOM     26  O   UNL     1      23.315  30.939   5.861  1.00  0.00    -0.508 OA
ATOM     27  H   UNL     1      23.731  31.655   5.277  1.00  0.00     0.293 HD
ENDBRANCH   8  26
TORSDOF 6
ENDMDL
MODEL 2
REMARK VINA RESULT:    -4.109      1.558      3.078
REMARK INTER + INTRA:          -5.102
REMARK INTER:                  -4.780
REMARK INTRA:                  -0.322
REMARK UNBOUND:                -0.153
REMARK SMILES O=c1c(O)c(-c2ccc(O)c(O)c2)oc2cc(O)cc(O)c12
REMARK SMILES IDX 5 1 3 2 2 3 1 4 22 5 20 6 19 7 17 8 16 9 15 10 14 11 6 12
REMARK SMILES IDX 7 13 8 14 9 15 13 16 11 17 10 18 12 20 4 22 21 24 18 26
REMARK H PARENT 10 19 12 21 4 23 21 25 18 27
REMARK Flexibility Score: inf
ROOT
ATOM      1  C   UNL     1      22.424  26.258   4.479  1.00  0.00     0.180 A 
ATOM      2  C   UNL     1      21.849  27.360   3.819  1.00  0.00     0.208 A 
ATOM      3  C   UNL     1      22.291  28.652   4.147  1.00  0.00     0.238 A 
ATOM      4  O   UNL     1      21.792  29.647   3.554  1.00  0.00    -0.285 OA
ATOM      5  C   UNL     1      23.278  28.820   5.139  1.00  0.00     0.111 A 
ATOM      6  C   UNL     1      23.773  30.088   5.532  1.00  0.00     0.134 A 
ATOM      7  C   UNL     1      24.751  30.172   6.535  1.00  0.00     0.093 A 
ATOM      8  C   UNL     1      25.239  29.015   7.152  1.00  0.00     0.123 A 
ATOM      9  C   UNL     1      24.755  27.764   6.769  1.00  0.00     0.094 A 
ATOM     10  C   UNL     1      23.782  27.658   5.770  1.00  0.00     0.146 A 
ATOM     11  O   UNL     1      23.342  26.455   5.420  1.00  0.00    -0.452 OA
ENDROOT
BRANCH   1  12
ATOM     12  C   UNL     1      22.026  24.863   4.175  1.00  0.00     0.025 A 
ATOM     13  C   UNL     1      22.722  24.145   3.191  1.00  0.00     0.016 A 
ATOM     14  C   UNL     1      22.350  22.836   2.875  1.00  0.00     0.051 A 
ATOM     15  C   UNL     1      21.268  22.231   3.527  1.00  0.00     0.157 A 
ATOM     16  C   UNL     1      20.927  24.260   4.814  1.00  0.00     0.062 A 
ATOM     17  C   UNL     1      20.550  22.950   4.498  1.00  0.00     0.158 A 
BRANCH  15  18
ATOM     18  O   UNL     1      20.901  20.924   3.211  1.00  0.00    -0.504 OA
ATOM     19  H   UNL     1      20.740  20.634   2.253  1.00  0.00     0.293 HD
ENDBRANCH  15  18
BRANCH  17  20
ATOM     20  O   UNL     1      19.459  22.381   5.153  1.00  0.00    -0.504 OA
ATOM     21  H   UNL     1      18.504  22.610   4.907  1.00  0.00     0.293 HD
ENDBRANCH  17  20
ENDBRANCH   1  12
BRANCH   2  22
ATOM     22  O   UNL     1      20.838  27.170   2.875  1.00  0.00    -0.502 OA
ATOM     23  H   UNL     1      20.422  26.264   2.700  1.00  0.00     0.293 HD
ENDBRANCH   2  22
BRANCH   6  24
ATOM     24  O   UNL     1      23.304  31.258   4.935  1.00  0.00    -0.507 OA
ATOM     25  H   UNL     1      23.508  31.483   3.969  1.00  0.00     0.293 HD
ENDBRANCH   6  24
BRANCH   8  26
ATOM     26  O   UNL     1      26.209  29.100   8.149  1.00  0.00    -0.508 OA
ATOM     27  H   UNL     1      27.052  29.648   8.025  1.00  0.00     0.293 HD
ENDBRANCH   8  26
TORSDOF 6
ENDMDL
MODEL 3
REMARK VINA RESULT:    -4.052      1.654      2.072
REMARK INTER + INTRA:          -5.034
REMARK INTER:                  -4.784
REMARK INTRA:                  -0.250
REMARK UNBOUND:                -0.153
REMARK SMILES O=c1c(O)c(-c2ccc(O)c(O)c2)oc2cc(O)cc(O)c12
REMARK SMILES IDX 5 1 3 2 2 3 1 4 22 5 20 6 19 7 17 8 16 9 15 10 14 11 6 12
REMARK SMILES IDX 7 13 8 14 9 15 13 16 11 17 10 18 12 20 4 22 21 24 18 26
REMARK H PARENT 10 19 12 21 4 23 21 25 18 27
REMARK Flexibility Score: inf
ROOT
ATOM      1  C   UNL     1      23.152  25.370   4.788  1.00  0.00     0.180 A 
ATOM      2  C   UNL     1      24.308  24.616   4.509  1.00  0.00     0.208 A 
ATOM      3  C   UNL     1      25.542  25.056   5.015  1.00  0.00     0.238 A 
ATOM      4  O   UNL     1      26.582  24.383   4.782  1.00  0.00    -0.285 OA
ATOM      5  C   UNL     1      25.603  26.247   5.767  1.00  0.00     0.111 A 
ATOM      6  C   UNL     1      26.806  26.761   6.308  1.00  0.00     0.134 A 
ATOM      7  C   UNL     1      26.785  27.959   7.038  1.00  0.00     0.093 A 
ATOM      8  C   UNL     1      25.585  28.651   7.236  1.00  0.00     0.123 A 
ATOM      9  C   UNL     1      24.396  28.148   6.706  1.00  0.00     0.094 A 
ATOM     10  C   UNL     1      24.395  26.955   5.977  1.00  0.00     0.146 A 
ATOM     11  O   UNL     1      23.249  26.496   5.488  1.00  0.00    -0.452 OA
ENDROOT
BRANCH   1  12
ATOM     12  C   UNL     1      21.812  24.962   4.307  1.00  0.00     0.025 A 
ATOM     13  C   UNL     1      21.165  25.731   3.328  1.00  0.00     0.016 A 
ATOM     14  C   UNL     1      19.893  25.376   2.875  1.00  0.00     0.051 A 
ATOM     15  C   UNL     1      19.240  24.256   3.406  1.00  0.00     0.157 A 
ATOM     16  C   UNL     1      21.146  23.849   4.852  1.00  0.00     0.062 A 
ATOM     17  C   UNL     1      19.870  23.492   4.403  1.00  0.00     0.158 A 
BRANCH  15  18
ATOM     18  O   UNL     1      17.971  23.903   2.950  1.00  0.00    -0.504 OA
ATOM     19  H   UNL     1      17.268  23.525   3.575  1.00  0.00     0.293 HD
ENDBRANCH  15  18
BRANCH  17  20
ATOM     20  O   UNL     1      19.241  22.380   4.962  1.00  0.00    -0.504 OA
ATOM     21  H   UNL     1      18.470  21.909   4.503  1.00  0.00     0.293 HD
ENDBRANCH  17  20
ENDBRANCH   1  12
BRANCH   2  22
ATOM     22  O   UNL     1      24.229  23.467   3.721  1.00  0.00    -0.502 OA
ATOM     23  H   UNL     1      24.873  22.692   3.823  1.00  0.00     0.293 HD
ENDBRANCH   2  22
BRANCH   6  24
ATOM     24  O   UNL     1      28.018  26.094   6.125  1.00  0.00    -0.507 OA
ATOM     25  H   UNL     1      28.845  26.573   5.788  1.00  0.00     0.293 HD
ENDBRANCH   6  24
BRANCH   8  26
ATOM     26  O   UNL     1      25.564  29.841   7.961  1.00  0.00    -0.508 OA
ATOM     27  H   UNL     1      24.922  30.590   7.733  1.00  0.00     0.293 HD
ENDBRANCH   8  26
TORSDOF 6
ENDMDL
MODEL 4
REMARK VINA RESULT:    -4.020      1.904      7.324
REMARK INTER + INTRA:          -4.995
REMARK INTER:                  -4.772
REMARK INTRA:                  -0.223
REMARK UNBOUND:                -0.153
REMARK SMILES O=c1c(O)c(-c2ccc(O)c(O)c2)oc2cc(O)cc(O)c12
REMARK SMILES IDX 5 1 3 2 2 3 1 4 22 5 20 6 19 7 17 8 16 9 15 10 14 11 6 12
REMARK SMILES IDX 7 13 8 14 9 15 13 16 11 17 10 18 12 20 4 22 21 24 18 26
REMARK H PARENT 10 19 12 21 4 23 21 25 18 27
REMARK Flexibility Score: inf
ROOT
ATOM      1  C   UNL     1      22.001  25.412   4.202  1.00  0.00     0.180 A 
ATOM      2  C   UNL     1      20.616  25.234   4.022  1.00  0.00     0.208 A 
ATOM      3  C   UNL     1      20.131  23.951   3.726  1.00  0.00     0.238 A 
ATOM      4  O   UNL     1      18.891  23.778   3.573  1.00  0.00    -0.285 OA
ATOM      5  C   UNL     1      21.034  22.876   3.594  1.00  0.00     0.111 A 
ATOM      6  C   UNL     1      20.626  21.554   3.293  1.00  0.00     0.134 A 
ATOM      7  C   UNL     1      21.588  20.540   3.169  1.00  0.00     0.093 A 
ATOM      8  C   UNL     1      22.947  20.825   3.340  1.00  0.00     0.123 A 
ATOM      9  C   UNL     1      23.354  22.126   3.637  1.00  0.00     0.094 A 
ATOM     10  C   UNL     1      22.411  23.150   3.767  1.00  0.00     0.146 A 
ATOM     11  O   UNL     1      22.825  24.378   4.056  1.00  0.00    -0.452 OA
ENDROOT
BRANCH   1  12
ATOM     12  C   UNL     1      22.590  26.730   4.536  1.00  0.00     0.025 A 
ATOM     13  C   UNL     1      22.645  27.730   3.553  1.00  0.00     0.016 A 
ATOM     14  C   UNL     1      23.214  28.972   3.840  1.00  0.00     0.051 A 
ATOM     15  C   UNL     1      23.751  29.229   5.109  1.00  0.00     0.157 A 
ATOM     16  C   UNL     1      23.147  26.983   5.802  1.00  0.00     0.062 A 
ATOM     17  C   UNL     1      23.720  28.226   6.093  1.00  0.00     0.158 A 
BRANCH  15  18
ATOM     18  O   UNL     1      24.316  30.472   5.393  1.00  0.00    -0.504 OA
ATOM     19  H   UNL     1      25.241  30.722   5.064  1.00  0.00     0.293 HD
ENDBRANCH  15  18
BRANCH  17  20
ATOM     20  O   UNL     1      24.259  28.445   7.360  1.00  0.00    -0.504 OA
ATOM     21  H   UNL     1      23.705  28.811   8.125  1.00  0.00     0.293 HD
ENDBRANCH  17  20
ENDBRANCH   1  12
BRANCH   2  22
ATOM     22  O   UNL     1      19.748  26.324   4.109  1.00  0.00    -0.502 OA
ATOM     23  H   UNL     1      19.459  26.855   3.297  1.00  0.00     0.293 HD
ENDBRANCH   2  22
BRANCH   6  24
ATOM     24  O   UNL     1      19.278  21.242   3.115  1.00  0.00    -0.507 OA
ATOM     25  H   UNL     1      18.888  20.363   3.435  1.00  0.00     0.293 HD
ENDBRANCH   6  24
BRANCH   8  26
ATOM     26  O   UNL     1      23.903  19.818   3.216  1.00  0.00    -0.508 OA
ATOM     27  H   UNL     1      24.839  19.926   3.588  1.00  0.00     0.293 HD
ENDBRANCH   8  26
TORSDOF 6
ENDMDL
MODEL 5
REMARK VINA RESULT:    -3.982      2.304      6.422
REMARK INTER + INTRA:          -4.949
REMARK INTER:                  -4.636
REMARK INTRA:                  -0.313
REMARK UNBOUND:                -0.153
REMARK SMILES O=c1c(O)c(-c2ccc(O)c(O)c2)oc2cc(O)cc(O)c12
REMARK SMILES IDX 5 1 3 2 2 3 1 4 22 5 20 6 19 7 17 8 16 9 15 10 14 11 6 12
REMARK SMILES IDX 7 13 8 14 9 15 13 16 11 17 10 18 12 20 4 22 21 24 18 26
REMARK H PARENT 10 19 12 21 4 23 21 25 18 27
REMARK Flexibility Score: inf
ROOT
ATOM      1  C   UNL     1      24.828  27.710   4.967  1.00  0.00     0.180 A 
ATOM      2  C   UNL     1      25.920  27.601   5.850  1.00  0.00     0.208 A 
ATOM      3  C   UNL     1      26.374  26.323   6.211  1.00  0.00     0.238 A 
ATOM      4  O   UNL     1      27.358  26.213   6.992  1.00  0.00    -0.285 OA
ATOM      5  C   UNL     1      25.720  25.181   5.705  1.00  0.00     0.111 A 
ATOM      6  C   UNL     1      26.112  23.859   6.024  1.00  0.00     0.134 A 
ATOM      7  C   UNL     1      25.403  22.774   5.487  1.00  0.00     0.093 A 
ATOM      8  C   UNL     1      24.311  22.987   4.639  1.00  0.00     0.123 A 
ATOM      9  C   UNL     1      23.921  24.289   4.321  1.00  0.00     0.094 A 
ATOM     10  C   UNL     1      24.615  25.384   4.844  1.00  0.00     0.146 A 
ATOM     11  O   UNL     1      24.226  26.611   4.521  1.00  0.00    -0.452 OA
ENDROOT
BRANCH   1  12
ATOM     12  C   UNL     1      24.302  29.022   4.523  1.00  0.00     0.025 A 
ATOM     13  C   UNL     1      24.766  29.581   3.323  1.00  0.00     0.016 A 
ATOM     14  C   UNL     1      24.298  30.826   2.895  1.00  0.00     0.051 A 
ATOM     15  C   UNL     1      23.373  31.538   3.669  1.00  0.00     0.157 A 
ATOM     16  C   UNL     1      23.388  29.748   5.308  1.00  0.00     0.062 A 
ATOM     17  C   UNL     1      22.919  30.996   4.884  1.00  0.00     0.158 A 
BRANCH  15  18
ATOM     18  O   UNL     1      22.906  32.779   3.239  1.00  0.00    -0.504 OA
ATOM     19  H   UNL     1      21.972  33.102   3.462  1.00  0.00     0.293 HD
ENDBRANCH  15  18
BRANCH  17  20
ATOM     20  O   UNL     1      22.010  31.686   5.684  1.00  0.00    -0.504 OA
ATOM     21  H   UNL     1      21.428  31.216   6.367  1.00  0.00     0.293 HD
ENDBRANCH  17  20
ENDBRANCH   1  12
BRANCH   2  22
ATOM     22  O   UNL     1      26.519  28.747   6.376  1.00  0.00    -0.502 OA
ATOM     23  H   UNL     1      27.497  28.965   6.229  1.00  0.00     0.293 HD
ENDBRANCH   2  22
BRANCH   6  24
ATOM     24  O   UNL     1      27.195  23.616   6.869  1.00  0.00    -0.507 OA
ATOM     25  H   UNL     1      27.456  24.265   7.602  1.00  0.00     0.293 HD
ENDBRANCH   6  24
BRANCH   8  26
ATOM     26  O   UNL     1      23.606  21.910   4.105  1.00  0.00    -0.508 OA
ATOM     27  H   UNL     1      22.766  21.554   4.546  1.00  0.00     0.293 HD
ENDBRANCH   8  26
TORSDOF 6
ENDMDL
MODEL 6
REMARK VINA RESULT:    -3.955      1.902      6.555
REMARK INTER + INTRA:          -4.917
REMARK INTER:                  -4.738
REMARK INTRA:                  -0.178
REMARK UNBOUND:                -0.153
REMARK SMILES O=c1c(O)c(-c2ccc(O)c(O)c2)oc2cc(O)cc(O)c12
REMARK SMILES IDX 5 1 3 2 2 3 1 4 22 5 20 6 19 7 17 8 16 9 15 10 14 11 6 12
REMARK SMILES IDX 7 13 8 14 9 15 13 16 11 17 10 18 12 20 4 22 21 24 18 26
REMARK H PARENT 10 19 12 21 4 23 21 25 18 27
REMARK Flexibility Score: inf
ROOT
ATOM      1  C   UNL     1      24.819  25.367   5.248  1.00  0.00     0.180 A 
ATOM      2  C   UNL     1      25.961  24.773   5.818  1.00  0.00     0.208 A 
ATOM      3  C   UNL     1      26.105  23.378   5.750  1.00  0.00     0.238 A 
ATOM      4  O   UNL     1      27.129  22.836   6.247  1.00  0.00    -0.285 OA
ATOM      5  C   UNL     1      25.100  22.603   5.137  1.00  0.00     0.111 A 
ATOM      6  C   UNL     1      25.166  21.192   5.032  1.00  0.00     0.134 A 
ATOM      7  C   UNL     1      24.120  20.490   4.415  1.00  0.00     0.093 A 
ATOM      8  C   UNL     1      23.010  21.172   3.903  1.00  0.00     0.123 A 
ATOM      9  C   UNL     1      22.940  22.562   4.003  1.00  0.00     0.094 A 
ATOM     10  C   UNL     1      23.973  23.280   4.613  1.00  0.00     0.146 A 
ATOM     11  O   UNL     1      23.884  24.603   4.690  1.00  0.00    -0.452 OA
ENDROOT
BRANCH   1  12
ATOM     12  C   UNL     1      24.604  26.833   5.260  1.00  0.00     0.025 A 
ATOM     13  C   UNL     1      24.653  27.549   4.055  1.00  0.00     0.016 A 
ATOM     14  C   UNL     1      24.473  28.934   4.047  1.00  0.00     0.051 A 
ATOM     15  C   UNL     1      24.257  29.626   5.246  1.00  0.00     0.157 A 
ATOM     16  C   UNL     1      24.407  27.533   6.464  1.00  0.00     0.062 A 
ATOM     17  C   UNL     1      24.228  28.921   6.461  1.00  0.00     0.158 A 
BRANCH  15  18
ATOM     18  O   UNL     1      24.075  31.009   5.234  1.00  0.00    -0.504 OA
ATOM     19  H   UNL     1      23.227  31.429   4.873  1.00  0.00     0.293 HD
ENDBRANCH  15  18
BRANCH  17  20
ATOM     20  O   UNL     1      24.030  29.583   7.672  1.00  0.00    -0.504 OA
ATOM     21  H   UNL     1      23.918  30.588   7.725  1.00  0.00     0.293 HD
ENDBRANCH  17  20
ENDBRANCH   1  12
BRANCH   2  22
ATOM     22  O   UNL     1      26.918  25.559   6.463  1.00  0.00    -0.502 OA
ATOM     23  H   UNL     1      27.897  25.302   6.500  1.00  0.00     0.293 HD
ENDBRANCH   2  22
BRANCH   6  24
ATOM     24  O   UNL     1      26.259  20.486   5.535  1.00  0.00    -0.507 OA
ATOM     25  H   UNL     1      26.787  19.840   4.960  1.00  0.00     0.293 HD
ENDBRANCH   6  24
BRANCH   8  26
ATOM     26  O   UNL     1      21.970  20.475   3.291  1.00  0.00    -0.508 OA
ATOM     27  H   UNL     1      21.034  20.471   3.678  1.00  0.00     0.293 HD
ENDBRANCH   8  26
TORSDOF 6
ENDMDL
MODEL 7
REMARK VINA RESULT:    -3.827      1.991      7.127
REMARK INTER + INTRA:          -4.763
REMARK INTER:                  -4.619
REMARK INTRA:                  -0.144
REMARK UNBOUND:                -0.153
REMARK SMILES O=c1c(O)c(-c2ccc(O)c(O)c2)oc2cc(O)cc(O)c12
REMARK SMILES IDX 5 1 3 2 2 3 1 4 22 5 20 6 19 7 17 8 16 9 15 10 14 11 6 12
REMARK SMILES IDX 7 13 8 14 9 15 13 16 11 17 10 18 12 20 4 22 21 24 18 26
REMARK H PARENT 10 19 12 21 4 23 21 25 18 27
REMARK Flexibility Score: inf
ROOT
ATOM      1  C   UNL     1      22.883  26.283   4.532  1.00  0.00     0.180 A 
ATOM      2  C   UNL     1      21.765  27.115   4.333  1.00  0.00     0.208 A 
ATOM      3  C   UNL     1      20.543  26.530   3.964  1.00  0.00     0.238 A 
ATOM      4  O   UNL     1      19.532  27.264   3.794  1.00  0.00    -0.285 OA
ATOM      5  C   UNL     1      20.465  25.135   3.779  1.00  0.00     0.111 A 
ATOM      6  C   UNL     1      19.273  24.469   3.403  1.00  0.00     0.134 A 
ATOM      7  C   UNL     1      19.279  23.077   3.230  1.00  0.00     0.093 A 
ATOM      8  C   UNL     1      20.453  22.340   3.425  1.00  0.00     0.123 A 
ATOM      9  C   UNL     1      21.629  22.991   3.796  1.00  0.00     0.094 A 
ATOM     10  C   UNL     1      21.644  24.378   3.976  1.00  0.00     0.146 A 
ATOM     11  O   UNL     1      22.777  24.972   4.334  1.00  0.00    -0.452 OA
ENDROOT
BRANCH   1  12
ATOM     12  C   UNL     1      24.202  26.820   4.941  1.00  0.00     0.025 A 
ATOM     13  C   UNL     1      25.326  26.576   4.138  1.00  0.00     0.016 A 
ATOM     14  C   UNL     1      26.582  27.056   4.515  1.00  0.00     0.051 A 
ATOM     15  C   UNL     1      26.736  27.774   5.709  1.00  0.00     0.157 A 
ATOM     16  C   UNL     1      24.363  27.523   6.148  1.00  0.00     0.062 A 
ATOM     17  C   UNL     1      25.620  28.004   6.531  1.00  0.00     0.158 A 
BRANCH  15  18
ATOM     18  O   UNL     1      27.991  28.254   6.081  1.00  0.00    -0.504 OA
ATOM     19  H   UNL     1      28.638  27.688   6.618  1.00  0.00     0.293 HD
ENDBRANCH  15  18
BRANCH  17  20
ATOM     20  O   UNL     1      25.743  28.702   7.732  1.00  0.00    -0.504 OA
ATOM     21  H   UNL     1      25.678  29.711   7.778  1.00  0.00     0.293 HD
ENDBRANCH  17  20
ENDBRANCH   1  12
BRANCH   2  22
ATOM     22  O   UNL     1      21.881  28.499   4.474  1.00  0.00    -0.502 OA
ATOM     23  H   UNL     1      21.503  28.997   5.271  1.00  0.00     0.293 HD
ENDBRANCH   2  22
BRANCH   6  24
ATOM     24  O   UNL     1      18.089  25.177   3.200  1.00  0.00    -0.507 OA
ATOM     25  H   UNL     1      17.589  25.612   3.967  1.00  0.00     0.293 HD
ENDBRANCH   6  24
BRANCH   8  26
ATOM     26  O   UNL     1      20.459  20.957   3.252  1.00  0.00    -0.508 OA
ATOM     27  H   UNL     1      21.256  20.475   2.856  1.00  0.00     0.293 HD
ENDBRANCH   8  26
TORSDOF 6
ENDMDL
MODEL 8
REMARK VINA RESULT:    -3.797      3.416      5.217
REMARK INTER + INTRA:          -4.727
REMARK INTER:                  -4.711
REMARK INTRA:                  -0.016
REMARK UNBOUND:                -0.153
REMARK SMILES O=c1c(O)c(-c2ccc(O)c(O)c2)oc2cc(O)cc(O)c12
REMARK SMILES IDX 5 1 3 2 2 3 1 4 22 5 20 6 19 7 17 8 16 9 15 10 14 11 6 12
REMARK SMILES IDX 7 13 8 14 9 15 13 16 11 17 10 18 12 20 4 22 21 24 18 26
REMARK H PARENT 10 19 12 21 4 23 21 25 18 27
REMARK Flexibility Score: inf
ROOT
ATOM      1  C   UNL     1      24.796  27.763   5.854  1.00  0.00     0.180 A 
ATOM      2  C   UNL     1      24.104  27.966   4.645  1.00  0.00     0.208 A 
ATOM      3  C   UNL     1      23.336  29.131   4.491  1.00  0.00     0.238 A 
ATOM      4  O   UNL     1      22.721  29.329   3.408  1.00  0.00    -0.285 OA
ATOM      5  C   UNL     1      23.254  30.057   5.550  1.00  0.00     0.111 A 
ATOM      6  C   UNL     1      22.497  31.252   5.477  1.00  0.00     0.134 A 
ATOM      7  C   UNL     1      22.459  32.120   6.579  1.00  0.00     0.093 A 
ATOM      8  C   UNL     1      23.160  31.813   7.751  1.00  0.00     0.123 A 
ATOM      9  C   UNL     1      23.907  30.637   7.828  1.00  0.00     0.094 A 
ATOM     10  C   UNL     1      23.961  29.761   6.740  1.00  0.00     0.146 A 
ATOM     11  O   UNL     1      24.683  28.651   6.838  1.00  0.00    -0.452 OA
ENDROOT
BRANCH   1  12
ATOM     12  C   UNL     1      25.642  26.570   6.087  1.00  0.00     0.025 A 
ATOM     13  C   UNL     1      26.982  26.737   6.470  1.00  0.00     0.016 A 
ATOM     14  C   UNL     1      27.803  25.626   6.674  1.00  0.00     0.051 A 
ATOM     15  C   UNL     1      27.303  24.332   6.483  1.00  0.00     0.157 A 
ATOM     16  C   UNL     1      25.149  25.270   5.877  1.00  0.00     0.062 A 
ATOM     17  C   UNL     1      25.969  24.154   6.078  1.00  0.00     0.158 A 
BRANCH  15  18
ATOM     18  O   UNL     1      28.125  23.225   6.691  1.00  0.00    -0.504 OA
ATOM     19  H   UNL     1      28.514  23.016   7.603  1.00  0.00     0.293 HD
ENDBRANCH  15  18
BRANCH  17  20
ATOM     20  O   UNL     1      25.446  22.880   5.866  1.00  0.00    -0.504 OA
ATOM     21  H   UNL     1      25.937  22.041   6.150  1.00  0.00     0.293 HD
ENDBRANCH  17  20
ENDBRANCH   1  12
BRANCH   2  22
ATOM     22  O   UNL     1      24.162  27.009   3.629  1.00  0.00    -0.502 OA
ATOM     23  H   UNL     1      23.809  27.185   2.697  1.00  0.00     0.293 HD
ENDBRANCH   2  22
BRANCH   6  24
ATOM     24  O   UNL     1      21.787  31.582   4.323  1.00  0.00    -0.507 OA
ATOM     25  H   UNL     1      22.229  32.047   3.539  1.00  0.00     0.293 HD
ENDBRANCH   6  24
BRANCH   8  26
ATOM     26  O   UNL     1      23.121  32.675   8.846  1.00  0.00    -0.508 OA
ATOM     27  H   UNL     1      23.912  33.259   9.090  1.00  0.00     0.293 HD
ENDBRANCH   8  26
TORSDOF 6
ENDMDL
MODEL 9
REMARK VINA RESULT:    -3.780      1.730      6.869
REMARK INTER + INTRA:          -4.706
REMARK INTER:                  -4.568
REMARK INTRA:                  -0.138
REMARK UNBOUND:                -0.153
REMARK SMILES O=c1c(O)c(-c2ccc(O)c(O)c2)oc2cc(O)cc(O)c12
REMARK SMILES IDX 5 1 3 2 2 3 1 4 22 5 20 6 19 7 17 8 16 9 15 10 14 11 6 12
REMARK SMILES IDX 7 13 8 14 9 15 13 16 11 17 10 18 12 20 4 22 21 24 18 26
REMARK H PARENT 10 19 12 21 4 23 21 25 18 27
REMARK Flexibility Score: inf
ROOT
ATOM      1  C   UNL     1      22.379  25.416   4.330  1.00  0.00     0.180 A 
ATOM      2  C   UNL     1      23.310  24.363   4.249  1.00  0.00     0.208 A 
ATOM      3  C   UNL     1      22.853  23.080   3.910  1.00  0.00     0.238 A 
ATOM      4  O   UNL     1      23.679  22.131   3.822  1.00  0.00    -0.285 OA
ATOM      5  C   UNL     1      21.478  22.867   3.681  1.00  0.00     0.111 A 
ATOM      6  C   UNL     1      20.936  21.604   3.340  1.00  0.00     0.134 A 
ATOM      7  C   UNL     1      19.554  21.471   3.138  1.00  0.00     0.093 A 
ATOM      8  C   UNL     1      18.706  22.577   3.271  1.00  0.00     0.123 A 
ATOM      9  C   UNL     1      19.235  23.824   3.606  1.00  0.00     0.094 A 
ATOM     10  C   UNL     1      20.610  23.977   3.810  1.00  0.00     0.146 A 
ATOM     11  O   UNL     1      21.088  25.176   4.123  1.00  0.00    -0.452 OA
ENDROOT
BRANCH   1  12
ATOM     12  C   UNL     1      22.785  26.802   4.663  1.00  0.00     0.025 A 
ATOM     13  C   UNL     1      22.629  27.816   3.706  1.00  0.00     0.016 A 
ATOM     14  C   UNL     1      23.023  29.125   3.991  1.00  0.00     0.051 A 
ATOM     15  C   UNL     1      23.595  29.436   5.232  1.00  0.00     0.157 A 
ATOM     16  C   UNL     1      23.378  27.114   5.900  1.00  0.00     0.062 A 
ATOM     17  C   UNL     1      23.777  28.423   6.189  1.00  0.00     0.158 A 
BRANCH  15  18
ATOM     18  O   UNL     1      23.986  30.745   5.514  1.00  0.00    -0.504 OA
ATOM     19  H   UNL     1      24.855  31.128   5.160  1.00  0.00     0.293 HD
ENDBRANCH  15  18
BRANCH  17  20
ATOM     20  O   UNL     1      24.357  28.699   7.426  1.00  0.00    -0.504 OA
ATOM     21  H   UNL     1      23.846  28.596   8.295  1.00  0.00     0.293 HD
ENDBRANCH  17  20
ENDBRANCH   1  12
BRANCH   2  22
ATOM     22  O   UNL     1      24.659  24.589   4.528  1.00  0.00    -0.502 OA
ATOM     23  H   UNL     1      25.214  25.266   4.018  1.00  0.00     0.293 HD
ENDBRANCH   2  22
BRANCH   6  24
ATOM     24  O   UNL     1      21.756  20.484   3.203  1.00  0.00    -0.507 OA
ATOM     25  H   UNL     1      22.767  20.558   3.223  1.00  0.00     0.293 HD
ENDBRANCH   6  24
BRANCH   8  26
ATOM     26  O   UNL     1      17.333  22.445   3.070  1.00  0.00    -0.508 OA
ATOM     27  H   UNL     1      16.699  23.222   3.215  1.00  0.00     0.293 HD
ENDBRANCH   8  26
TORSDOF 6
ENDMDL
