MODEL 1
REMARK VINA RESULT:    -3.735      0.000      0.000
REMARK INTER + INTRA:         -13.070
REMARK INTER:                  -8.538
REMARK INTRA:                  -4.532
REMARK UNBOUND:                -4.532
REMARK SMILES CCCCCCCCCCCCCCCCCCCCCCCC(=O)[O-]
REMARK SMILES IDX 13 1 14 2 15 3 16 4 17 5 18 6 19 7 20 8 21 9 22 10 23 11
REMARK SMILES IDX 24 12 25 13 26 14 12 15 11 16 10 17 9 18 8 19 7 20 6 21 5 22
REMARK SMILES IDX 4 23 3 24 2 25 1 26
REMARK H PARENT
REMARK Flexibility Score: inf
ROOT
ATOM      1  C   UNL     1       9.521 -23.581 -35.219  1.00  0.00     0.000 C 
ENDROOT
BRANCH   1   2
ATOM      2  C   UNL     1       9.690 -22.055 -35.303  1.00  0.00     0.000 C 
BRANCH   2   3
ATOM      3  C   UNL     1       8.430 -21.297 -34.853  1.00  0.00     0.000 C 
BRANCH   3   4
ATOM      4  C   UNL     1       7.902 -20.337 -35.935  1.00  0.00     0.000 C 
BRANCH   4   5
ATOM      5  C   UNL     1       6.683 -20.914 -36.684  1.00  0.00     0.000 C 
BRANCH   5   6
ATOM      6  C   UNL     1       6.425 -20.247 -38.046  1.00  0.00     0.000 C 
BRANCH   6   7
ATOM      7  C   UNL     1       7.462 -19.165 -38.388  1.00  0.00     0.000 C 
BRANCH   7   8
ATOM      8  C   UNL     1       6.817 -17.783 -38.616  1.00  0.00     0.000 C 
BRANCH   8   9
ATOM      9  C   UNL     1       5.718 -17.424 -37.596  1.00  0.00     0.000 C 
BRANCH   9  10
ATOM     10  C   UNL     1       6.251 -16.850 -36.268  1.00  0.00     0.006 C 
BRANCH  10  11
ATOM     11  C   UNL     1       5.566 -17.473 -35.043  1.00  0.00     0.053 C 
BRANCH  11  12
ATOM     12  C   UNL     1       5.295 -16.427 -34.009  1.00  0.00     0.041 C 
ATOM     13  O   UNL     1       5.026 -16.761 -32.825  1.00  0.00    -0.550 OA
ATOM     14  O   UNL     1       5.293 -15.085 -34.363  1.00  0.00    -0.550 OA
ENDBRANCH  11  12
ENDBRANCH  10  11
ENDBRANCH   9  10
ENDBRANCH   8   9
ENDBRANCH   7   8
ENDBRANCH   6   7
ENDBRANCH   5   6
ENDBRANCH   4   5
ENDBRANCH   3   4
ENDBRANCH   2   3
ENDBRANCH   1   2
BRANCH   1  15
ATOM     15  C   UNL     1       9.563 -24.262 -36.598  1.00  0.00     0.000 C 
BRANCH  15  16
ATOM     16  C   UNL     1       8.400 -23.895 -37.544  1.00  0.00     0.000 C 
BRANCH  16  17
ATOM     17  C   UNL     1       8.822 -23.393 -38.938  1.00  0.00     0.000 C 
BRANCH  17  18
ATOM     18  C   UNL     1       9.670 -22.107 -38.938  1.00  0.00    -0.000 C 
BRANCH  18  19
ATOM     19  C   UNL     1      10.943 -22.197 -39.807  1.00  0.00    -0.000 C 
BRANCH  19  20
ATOM     20  C   UNL     1      12.128 -22.827 -39.056  1.00  0.00    -0.000 C 
BRANCH  20  21
ATOM     21  C   UNL     1      12.398 -22.145 -37.704  1.00  0.00    -0.000 C 
BRANCH  21  22
ATOM     22  C   UNL     1      13.615 -21.205 -37.749  1.00  0.00    -0.000 C 
BRANCH  22  23
ATOM     23  C   UNL     1      13.234 -19.735 -37.503  1.00  0.00    -0.000 C 
BRANCH  23  24
ATOM     24  C   UNL     1      11.869 -19.591 -36.807  1.00  0.00    -0.000 C 
BRANCH  24  25
ATOM     25  C   UNL     1      10.928 -18.631 -37.553  1.00  0.00    -0.003 C 
ATOM     26  C   UNL     1      11.185 -18.608 -39.059  1.00  0.00     0.004 C 
ENDBRANCH  24  25
ENDBRANCH  23  24
ENDBRANCH  22  23
ENDBRANCH  21  22
ENDBRANCH  20  21
ENDBRANCH  19  20
ENDBRANCH  18  19
ENDBRANCH  17  18
ENDBRANCH  16  17
ENDBRANCH  15  16
ENDBRANCH   1  15
TORSDOF 22
ENDMDL
MODEL 2
REMARK VINA RESULT:    -3.641      1.281      2.488
REMARK INTER + INTRA:         -12.856
REMARK INTER:                  -9.179
REMARK INTRA:                  -3.677
REMARK UNBOUND:                -4.532
REMARK SMILES CCCCCCCCCCCCCCCCCCCCCCCC(=O)[O-]
REMARK SMILES IDX 13 1 14 2 15 3 16 4 17 5 18 6 19 7 20 8 21 9 22 10 23 11
REMARK SMILES IDX 24 12 25 13 26 14 12 15 11 16 10 17 9 18 8 19 7 20 6 21 5 22
REMARK SMILES IDX 4 23 3 24 2 25 1 26
REMARK H PARENT
REMARK Flexibility Score: inf
ROOT
ATOM      1  C   UNL     1      10.298 -23.875 -36.029  1.00  0.00     0.000 C 
ENDROOT
BRANCH   1   2
ATOM      2  C   UNL     1       9.720 -23.057 -34.863  1.00  0.00     0.000 C 
BRANCH   2   3
ATOM      3  C   UNL     1       9.672 -21.550 -35.166  1.00  0.00     0.000 C 
BRANCH   3   4
ATOM      4  C   UNL     1       8.234 -21.008 -35.234  1.00  0.00     0.000 C 
BRANCH   4   5
ATOM      5  C   UNL     1       7.377 -21.751 -36.280  1.00  0.00     0.000 C 
BRANCH   5   6
ATOM      6  C   UNL     1       6.227 -20.902 -36.850  1.00  0.00     0.000 C 
BRANCH   6   7
ATOM      7  C   UNL     1       6.604 -19.421 -37.018  1.00  0.00     0.000 C 
BRANCH   7   8
ATOM      8  C   UNL     1       5.494 -18.473 -36.520  1.00  0.00     0.000 C 
BRANCH   8   9
ATOM      9  C   UNL     1       6.012 -17.128 -35.973  1.00  0.00     0.000 C 
BRANCH   9  10
ATOM     10  C   UNL     1       4.951 -16.299 -35.222  1.00  0.00     0.006 C 
BRANCH  10  11
ATOM     11  C   UNL     1       5.545 -15.512 -34.045  1.00  0.00     0.053 C 
BRANCH  11  12
ATOM     12  C   UNL     1       4.902 -15.930 -32.761  1.00  0.00     0.041 C 
ATOM     13  O   UNL     1       4.932 -17.136 -32.399  1.00  0.00    -0.550 OA
ATOM     14  O   UNL     1       4.229 -14.996 -31.986  1.00  0.00    -0.550 OA
ENDBRANCH  11  12
ENDBRANCH  10  11
ENDBRANCH   9  10
ENDBRANCH   8   9
ENDBRANCH   7   8
ENDBRANCH   6   7
ENDBRANCH   5   6
ENDBRANCH   4   5
ENDBRANCH   3   4
ENDBRANCH   2   3
ENDBRANCH   1   2
BRANCH   1  15
ATOM     15  C   UNL     1      10.803 -22.991 -37.184  1.00  0.00     0.000 C 
BRANCH  15  16
ATOM     16  C   UNL     1      10.224 -23.338 -38.573  1.00  0.00     0.000 C 
BRANCH  16  17
ATOM     17  C   UNL     1      10.130 -22.157 -39.558  1.00  0.00     0.000 C 
BRANCH  17  18
ATOM     18  C   UNL     1       9.542 -20.861 -38.967  1.00  0.00    -0.000 C 
BRANCH  18  19
ATOM     19  C   UNL     1      10.512 -19.660 -39.007  1.00  0.00    -0.000 C 
BRANCH  19  20
ATOM     20  C   UNL     1      10.590 -18.919 -37.662  1.00  0.00    -0.000 C 
BRANCH  20  21
ATOM     21  C   UNL     1      11.845 -19.291 -36.856  1.00  0.00    -0.000 C 
BRANCH  21  22
ATOM     22  C   UNL     1      13.030 -19.684 -37.755  1.00  0.00    -0.000 C 
BRANCH  22  23
ATOM     23  C   UNL     1      13.878 -20.817 -37.152  1.00  0.00    -0.000 C 
BRANCH  23  24
ATOM     24  C   UNL     1      14.711 -21.557 -38.213  1.00  0.00    -0.000 C 
BRANCH  24  25
ATOM     25  C   UNL     1      13.858 -22.042 -39.395  1.00  0.00    -0.003 C 
ATOM     26  C   UNL     1      13.861 -23.564 -39.539  1.00  0.00     0.004 C 
ENDBRANCH  24  25
ENDBRANCH  23  24
ENDBRANCH  22  23
ENDBRANCH  21  22
ENDBRANCH  20  21
ENDBRANCH  19  20
ENDBRANCH  18  19
ENDBRANCH  17  18
ENDBRANCH  16  17
ENDBRANCH  15  16
ENDBRANCH   1  15
TORSDOF 22
ENDMDL
MODEL 3
REMARK VINA RESULT:    -3.549      1.473      3.180
REMARK INTER + INTRA:         -12.646
REMARK INTER:                  -8.661
REMARK INTRA:                  -3.985
REMARK UNBOUND:                -4.532
REMARK SMILES CCCCCCCCCCCCCCCCCCCCCCCC(=O)[O-]
REMARK SMILES IDX 13 1 14 2 15 3 16 4 17 5 18 6 19 7 20 8 21 9 22 10 23 11
REMARK SMILES IDX 24 12 25 13 26 14 12 15 11 16 10 17 9 18 8 19 7 20 6 21 5 22
REMARK SMILES IDX 4 23 3 24 2 25 1 26
REMARK H PARENT
REMARK Flexibility Score: inf
ROOT
ATOM      1  C   UNL     1       8.427 -20.180 -37.418  1.00  0.00     0.000 C 
ENDROOT
BRANCH   1   2
ATOM      2  C   UNL     1       8.265 -21.057 -38.670  1.00  0.00     0.000 C 
BRANCH   2   3
ATOM      3  C   UNL     1       7.197 -22.149 -38.492  1.00  0.00     0.000 C 
BRANCH   3   4
ATOM      4  C   UNL     1       6.364 -21.955 -37.212  1.00  0.00     0.000 C 
BRANCH   4   5
ATOM      5  C   UNL     1       4.898 -21.586 -37.519  1.00  0.00     0.000 C 
BRANCH   5   6
ATOM      6  C   UNL     1       4.661 -21.165 -38.979  1.00  0.00     0.000 C 
BRANCH   6   7
ATOM      7  C   UNL     1       4.674 -19.639 -39.171  1.00  0.00     0.000 C 
BRANCH   7   8
ATOM      8  C   UNL     1       4.682 -18.878 -37.830  1.00  0.00     0.000 C 
BRANCH   8   9
ATOM      9  C   UNL     1       5.393 -17.511 -37.884  1.00  0.00     0.000 C 
BRANCH   9  10
ATOM     10  C   UNL     1       6.300 -17.222 -36.672  1.00  0.00     0.006 C 
BRANCH  10  11
ATOM     11  C   UNL     1       5.869 -17.997 -35.419  1.00  0.00     0.053 C 
BRANCH  11  12
ATOM     12  C   UNL     1       5.293 -17.064 -34.401  1.00  0.00     0.041 C 
ATOM     13  O   UNL     1       5.202 -17.418 -33.196  1.00  0.00    -0.550 OA
ATOM     14  O   UNL     1       4.813 -15.821 -34.791  1.00  0.00    -0.550 OA
ENDBRANCH  11  12
ENDBRANCH  10  11
ENDBRANCH   9  10
ENDBRANCH   8   9
ENDBRANCH   7   8
ENDBRANCH   6   7
ENDBRANCH   5   6
ENDBRANCH   4   5
ENDBRANCH   3   4
ENDBRANCH   2   3
ENDBRANCH   1   2
BRANCH   1  15
ATOM     15  C   UNL     1       9.781 -20.386 -36.716  1.00  0.00     0.000 C 
BRANCH  15  16
ATOM     16  C   UNL     1       9.694 -20.668 -35.200  1.00  0.00     0.000 C 
BRANCH  16  17
ATOM     17  C   UNL     1       8.962 -21.967 -34.815  1.00  0.00     0.000 C 
BRANCH  17  18
ATOM     18  C   UNL     1       9.765 -23.261 -35.051  1.00  0.00    -0.000 C 
BRANCH  18  19
ATOM     19  C   UNL     1       9.046 -24.286 -35.955  1.00  0.00    -0.000 C 
BRANCH  19  20
ATOM     20  C   UNL     1       9.748 -24.474 -37.310  1.00  0.00    -0.000 C 
BRANCH  20  21
ATOM     21  C   UNL     1      11.116 -23.773 -37.367  1.00  0.00    -0.000 C 
BRANCH  21  22
ATOM     22  C   UNL     1      11.347 -23.036 -38.698  1.00  0.00    -0.000 C 
BRANCH  22  23
ATOM     23  C   UNL     1      12.759 -22.436 -38.801  1.00  0.00    -0.000 C 
BRANCH  23  24
ATOM     24  C   UNL     1      13.123 -21.575 -37.578  1.00  0.00    -0.000 C 
BRANCH  24  25
ATOM     25  C   UNL     1      14.640 -21.492 -37.351  1.00  0.00    -0.003 C 
ATOM     26  C   UNL     1      15.442 -21.730 -38.630  1.00  0.00     0.004 C 
ENDBRANCH  24  25
ENDBRANCH  23  24
ENDBRANCH  22  23
ENDBRANCH  21  22
ENDBRANCH  20  21
ENDBRANCH  19  20
ENDBRANCH  18  19
ENDBRANCH  17  18
ENDBRANCH  16  17
ENDBRANCH  15  16
ENDBRANCH   1  15
TORSDOF 22
ENDMDL
MODEL 4
REMARK VINA RESULT:    -3.513      1.611      3.929
REMARK INTER + INTRA:         -12.562
REMARK INTER:                  -8.925
REMARK INTRA:                  -3.637
REMARK UNBOUND:                -4.532
REMARK SMILES CCCCCCCCCCCCCCCCCCCCCCCC(=O)[O-]
REMARK SMILES IDX 13 1 14 2 15 3 16 4 17 5 18 6 19 7 20 8 21 9 22 10 23 11
REMARK SMILES IDX 24 12 25 13 26 14 12 15 11 16 10 17 9 18 8 19 7 20 6 21 5 22
REMARK SMILES IDX 4 23 3 24 2 25 1 26
REMARK H PARENT
REMARK Flexibility Score: inf
ROOT
ATOM      1  C   UNL     1       9.916 -22.499 -38.449  1.00  0.00     0.000 C 
ENDROOT
BRANCH   1   2
ATOM      2  C   UNL     1      10.685 -23.109 -37.266  1.00  0.00     0.000 C 
BRANCH   2   3
ATOM      3  C   UNL     1       9.848 -24.134 -36.483  1.00  0.00     0.000 C 
BRANCH   3   4
ATOM      4  C   UNL     1       9.211 -23.532 -35.218  1.00  0.00     0.000 C 
BRANCH   4   5
ATOM      5  C   UNL     1       9.577 -22.044 -35.030  1.00  0.00     0.000 C 
BRANCH   5   6
ATOM      6  C   UNL     1       8.370 -21.096 -35.132  1.00  0.00     0.000 C 
BRANCH   6   7
ATOM      7  C   UNL     1       7.281 -21.613 -36.087  1.00  0.00     0.000 C 
BRANCH   7   8
ATOM      8  C   UNL     1       6.698 -20.494 -36.974  1.00  0.00     0.000 C 
BRANCH   8   9
ATOM      9  C   UNL     1       7.041 -19.069 -36.498  1.00  0.00     0.000 C 
BRANCH   9  10
ATOM     10  C   UNL     1       5.814 -18.160 -36.288  1.00  0.00     0.006 C 
BRANCH  10  11
ATOM     11  C   UNL     1       5.688 -17.670 -34.838  1.00  0.00     0.053 C 
BRANCH  11  12
ATOM     12  C   UNL     1       5.118 -16.288 -34.802  1.00  0.00     0.041 C 
ATOM     13  O   UNL     1       5.599 -15.424 -34.022  1.00  0.00    -0.550 OA
ATOM     14  O   UNL     1       4.025 -15.967 -35.596  1.00  0.00    -0.550 OA
ENDBRANCH  11  12
ENDBRANCH  10  11
ENDBRANCH   9  10
ENDBRANCH   8   9
ENDBRANCH   7   8
ENDBRANCH   6   7
ENDBRANCH   5   6
ENDBRANCH   4   5
ENDBRANCH   3   4
ENDBRANCH   2   3
ENDBRANCH   1   2
BRANCH   1  15
ATOM     15  C   UNL     1      10.564 -21.208 -38.979  1.00  0.00     0.000 C 
BRANCH  15  16
ATOM     16  C   UNL     1      10.228 -19.932 -38.177  1.00  0.00     0.000 C 
BRANCH  16  17
ATOM     17  C   UNL     1      11.325 -19.460 -37.204  1.00  0.00     0.000 C 
BRANCH  17  18
ATOM     18  C   UNL     1      12.748 -19.426 -37.794  1.00  0.00    -0.000 C 
BRANCH  18  19
ATOM     19  C   UNL     1      13.686 -20.512 -37.225  1.00  0.00    -0.000 C 
BRANCH  19  20
ATOM     20  C   UNL     1      14.408 -21.306 -38.326  1.00  0.00    -0.000 C 
BRANCH  20  21
ATOM     21  C   UNL     1      14.126 -22.816 -38.246  1.00  0.00    -0.000 C 
BRANCH  21  22
ATOM     22  C   UNL     1      15.061 -23.641 -39.147  1.00  0.00    -0.000 C 
BRANCH  22  23
ATOM     23  C   UNL     1      14.303 -24.682 -39.987  1.00  0.00    -0.000 C 
BRANCH  23  24
ATOM     24  C   UNL     1      12.776 -24.567 -39.828  1.00  0.00    -0.000 C 
BRANCH  24  25
ATOM     25  C   UNL     1      12.135 -25.880 -39.353  1.00  0.00    -0.003 C 
ATOM     26  C   UNL     1      10.664 -25.995 -39.751  1.00  0.00     0.004 C 
ENDBRANCH  24  25
ENDBRANCH  23  24
ENDBRANCH  22  23
ENDBRANCH  21  22
ENDBRANCH  20  21
ENDBRANCH  19  20
ENDBRANCH  18  19
ENDBRANCH  17  18
ENDBRANCH  16  17
ENDBRANCH  15  16
ENDBRANCH   1  15
TORSDOF 22
ENDMDL
MODEL 5
REMARK VINA RESULT:    -3.506      1.979      4.170
REMARK INTER + INTRA:         -12.548
REMARK INTER:                  -8.411
REMARK INTRA:                  -4.137
REMARK UNBOUND:                -4.532
REMARK SMILES CCCCCCCCCCCCCCCCCCCCCCCC(=O)[O-]
REMARK SMILES IDX 13 1 14 2 15 3 16 4 17 5 18 6 19 7 20 8 21 9 22 10 23 11
REMARK SMILES IDX 24 12 25 13 26 14 12 15 11 16 10 17 9 18 8 19 7 20 6 21 5 22
REMARK SMILES IDX 4 23 3 24 2 25 1 26
REMARK H PARENT
REMARK Flexibility Score: inf
ROOT
ATOM      1  C   UNL     1      10.417 -23.365 -38.720  1.00  0.00     0.000 C 
ENDROOT
BRANCH   1   2
ATOM      2  C   UNL     1      10.527 -24.297 -37.503  1.00  0.00     0.000 C 
BRANCH   2   3
ATOM      3  C   UNL     1       9.282 -24.240 -36.603  1.00  0.00     0.000 C 
BRANCH   3   4
ATOM      4  C   UNL     1       9.590 -23.671 -35.207  1.00  0.00     0.000 C 
BRANCH   4   5
ATOM      5  C   UNL     1       8.812 -22.369 -34.921  1.00  0.00     0.000 C 
BRANCH   5   6
ATOM      6  C   UNL     1       9.598 -21.093 -35.269  1.00  0.00     0.000 C 
BRANCH   6   7
ATOM      7  C   UNL     1       8.889 -20.221 -36.318  1.00  0.00     0.000 C 
BRANCH   7   8
ATOM      8  C   UNL     1       7.645 -20.911 -36.912  1.00  0.00     0.000 C 
BRANCH   8   9
ATOM      9  C   UNL     1       6.333 -20.126 -36.716  1.00  0.00     0.000 C 
BRANCH   9  10
ATOM     10  C   UNL     1       6.495 -18.810 -35.928  1.00  0.00     0.006 C 
BRANCH  10  11
ATOM     11  C   UNL     1       5.668 -17.663 -36.526  1.00  0.00     0.053 C 
BRANCH  11  12
ATOM     12  C   UNL     1       6.560 -16.532 -36.929  1.00  0.00     0.041 C 
ATOM     13  O   UNL     1       7.569 -16.747 -37.652  1.00  0.00    -0.550 OA
ATOM     14  O   UNL     1       6.304 -15.247 -36.469  1.00  0.00    -0.550 OA
ENDBRANCH  11  12
ENDBRANCH  10  11
ENDBRANCH   9  10
ENDBRANCH   8   9
ENDBRANCH   7   8
ENDBRANCH   6   7
ENDBRANCH   5   6
ENDBRANCH   4   5
ENDBRANCH   3   4
ENDBRANCH   2   3
ENDBRANCH   1   2
BRANCH   1  15
ATOM     15  C   UNL     1      11.123 -22.015 -38.503  1.00  0.00     0.000 C 
BRANCH  15  16
ATOM     16  C   UNL     1      12.313 -22.051 -37.520  1.00  0.00     0.000 C 
BRANCH  16  17
ATOM     17  C   UNL     1      13.054 -20.713 -37.337  1.00  0.00     0.000 C 
BRANCH  17  18
ATOM     18  C   UNL     1      12.231 -19.459 -37.688  1.00  0.00    -0.000 C 
BRANCH  18  19
ATOM     19  C   UNL     1      12.834 -18.616 -38.832  1.00  0.00    -0.000 C 
BRANCH  19  20
ATOM     20  C   UNL     1      13.898 -19.384 -39.635  1.00  0.00    -0.000 C 
BRANCH  20  21
ATOM     21  C   UNL     1      13.370 -19.876 -40.992  1.00  0.00    -0.000 C 
BRANCH  21  22
ATOM     22  C   UNL     1      13.977 -21.228 -41.407  1.00  0.00    -0.000 C 
BRANCH  22  23
ATOM     23  C   UNL     1      12.904 -22.289 -41.706  1.00  0.00    -0.000 C 
BRANCH  23  24
ATOM     24  C   UNL     1      13.317 -23.693 -41.231  1.00  0.00    -0.000 C 
BRANCH  24  25
ATOM     25  C   UNL     1      14.328 -23.648 -40.075  1.00  0.00    -0.003 C 
ATOM     26  C   UNL     1      14.394 -24.963 -39.298  1.00  0.00     0.004 C 
ENDBRANCH  24  25
ENDBRANCH  23  24
ENDBRANCH  22  23
ENDBRANCH  21  22
ENDBRANCH  20  21
ENDBRANCH  19  20
ENDBRANCH  18  19
ENDBRANCH  17  18
ENDBRANCH  16  17
ENDBRANCH  15  16
ENDBRANCH   1  15
TORSDOF 22
ENDMDL
MODEL 6
REMARK VINA RESULT:    -3.497      1.441      2.318
REMARK INTER + INTRA:         -12.526
REMARK INTER:                  -8.433
REMARK INTRA:                  -4.093
REMARK UNBOUND:                -4.532
REMARK SMILES CCCCCCCCCCCCCCCCCCCCCCCC(=O)[O-]
REMARK SMILES IDX 13 1 14 2 15 3 16 4 17 5 18 6 19 7 20 8 21 9 22 10 23 11
REMARK SMILES IDX 24 12 25 13 26 14 12 15 11 16 10 17 9 18 8 19 7 20 6 21 5 22
REMARK SMILES IDX 4 23 3 24 2 25 1 26
REMARK H PARENT
REMARK Flexibility Score: inf
ROOT
ATOM      1  C   UNL     1       9.608 -23.567 -35.252  1.00  0.00     0.000 C 
ENDROOT
BRANCH   1   2
ATOM      2  C   UNL     1       9.609 -22.083 -34.851  1.00  0.00     0.000 C 
BRANCH   2   3
ATOM      3  C   UNL     1       8.379 -21.328 -35.382  1.00  0.00     0.000 C 
BRANCH   3   4
ATOM      4  C   UNL     1       7.339 -22.268 -36.017  1.00  0.00     0.000 C 
BRANCH   4   5
ATOM      5  C   UNL     1       6.990 -21.862 -37.464  1.00  0.00     0.000 C 
BRANCH   5   6
ATOM      6  C   UNL     1       5.497 -21.557 -37.674  1.00  0.00     0.000 C 
BRANCH   6   7
ATOM      7  C   UNL     1       5.192 -20.050 -37.699  1.00  0.00     0.000 C 
BRANCH   7   8
ATOM      8  C   UNL     1       6.416 -19.209 -38.115  1.00  0.00     0.000 C 
BRANCH   8   9
ATOM      9  C   UNL     1       6.882 -18.200 -37.047  1.00  0.00     0.000 C 
BRANCH   9  10
ATOM     10  C   UNL     1       6.202 -18.374 -35.674  1.00  0.00     0.006 C 
BRANCH  10  11
ATOM     11  C   UNL     1       5.583 -17.068 -35.156  1.00  0.00     0.053 C 
BRANCH  11  12
ATOM     12  C   UNL     1       4.576 -16.545 -36.132  1.00  0.00     0.041 C 
ATOM     13  O   UNL     1       4.743 -15.422 -36.674  1.00  0.00    -0.550 OA
ATOM     14  O   UNL     1       3.430 -17.279 -36.407  1.00  0.00    -0.550 OA
ENDBRANCH  11  12
ENDBRANCH  10  11
ENDBRANCH   9  10
ENDBRANCH   8   9
ENDBRANCH   7   8
ENDBRANCH   6   7
ENDBRANCH   5   6
ENDBRANCH   4   5
ENDBRANCH   3   4
ENDBRANCH   2   3
ENDBRANCH   1   2
BRANCH   1  15
ATOM     15  C   UNL     1      10.700 -23.906 -36.282  1.00  0.00     0.000 C 
BRANCH  15  16
ATOM     16  C   UNL     1      10.290 -23.707 -37.757  1.00  0.00     0.000 C 
BRANCH  16  17
ATOM     17  C   UNL     1      11.378 -23.102 -38.665  1.00  0.00     0.000 C 
BRANCH  17  18
ATOM     18  C   UNL     1      12.813 -23.194 -38.112  1.00  0.00    -0.000 C 
BRANCH  18  19
ATOM     19  C   UNL     1      13.715 -22.008 -38.517  1.00  0.00    -0.000 C 
BRANCH  19  20
ATOM     20  C   UNL     1      13.866 -20.968 -37.393  1.00  0.00    -0.000 C 
BRANCH  20  21
ATOM     21  C   UNL     1      12.985 -19.728 -37.618  1.00  0.00    -0.000 C 
BRANCH  21  22
ATOM     22  C   UNL     1      11.618 -19.840 -36.920  1.00  0.00    -0.000 C 
BRANCH  22  23
ATOM     23  C   UNL     1      10.627 -18.761 -37.389  1.00  0.00    -0.000 C 
BRANCH  23  24
ATOM     24  C   UNL     1      10.611 -18.603 -38.920  1.00  0.00    -0.000 C 
BRANCH  24  25
ATOM     25  C   UNL     1       9.847 -19.739 -39.618  1.00  0.00    -0.003 C 
ATOM     26  C   UNL     1      10.638 -20.359 -40.771  1.00  0.00     0.004 C 
ENDBRANCH  24  25
ENDBRANCH  23  24
ENDBRANCH  22  23
ENDBRANCH  21  22
ENDBRANCH  20  21
ENDBRANCH  19  20
ENDBRANCH  18  19
ENDBRANCH  17  18
ENDBRANCH  16  17
ENDBRANCH  15  16
ENDBRANCH   1  15
TORSDOF 22
ENDMDL
MODEL 7
REMARK VINA RESULT:    -3.487      4.863      8.250
REMARK INTER + INTRA:         -12.503
REMARK INTER:                  -8.648
REMARK INTRA:                  -3.856
REMARK UNBOUND:                -4.532
REMARK SMILES CCCCCCCCCCCCCCCCCCCCCCCC(=O)[O-]
REMARK SMILES IDX 13 1 14 2 15 3 16 4 17 5 18 6 19 7 20 8 21 9 22 10 23 11
REMARK SMILES IDX 24 12 25 13 26 14 12 15 11 16 10 17 9 18 8 19 7 20 6 21 5 22
REMARK SMILES IDX 4 23 3 24 2 25 1 26
REMARK H PARENT
REMARK Flexibility Score: inf
ROOT
ATOM      1  C   UNL     1      10.504 -20.075 -39.135  1.00  0.00     0.000 C 
ENDROOT
BRANCH   1   2
ATOM      2  C   UNL     1      10.911 -18.990 -38.124  1.00  0.00     0.000 C 
BRANCH   2   3
ATOM      3  C   UNL     1      12.004 -19.469 -37.155  1.00  0.00     0.000 C 
BRANCH   3   4
ATOM      4  C   UNL     1      13.341 -19.748 -37.865  1.00  0.00     0.000 C 
BRANCH   4   5
ATOM      5  C   UNL     1      14.197 -20.788 -37.112  1.00  0.00     0.000 C 
BRANCH   5   6
ATOM      6  C   UNL     1      14.134 -22.197 -37.726  1.00  0.00     0.000 C 
BRANCH   6   7
ATOM      7  C   UNL     1      15.032 -22.351 -38.964  1.00  0.00     0.000 C 
BRANCH   7   8
ATOM      8  C   UNL     1      14.228 -22.699 -40.233  1.00  0.00     0.000 C 
BRANCH   8   9
ATOM      9  C   UNL     1      13.836 -21.478 -41.087  1.00  0.00     0.000 C 
BRANCH   9  10
ATOM     10  C   UNL     1      14.953 -20.427 -41.240  1.00  0.00     0.006 C 
BRANCH  10  11
ATOM     11  C   UNL     1      15.840 -20.687 -42.466  1.00  0.00     0.053 C 
BRANCH  11  12
ATOM     12  C   UNL     1      17.280 -20.743 -42.065  1.00  0.00     0.041 C 
ATOM     13  O   UNL     1      17.600 -21.067 -40.891  1.00  0.00    -0.550 OA
ATOM     14  O   UNL     1      18.268 -20.392 -42.976  1.00  0.00    -0.550 OA
ENDBRANCH  11  12
ENDBRANCH  10  11
ENDBRANCH   9  10
ENDBRANCH   8   9
ENDBRANCH   7   8
ENDBRANCH   6   7
ENDBRANCH   5   6
ENDBRANCH   4   5
ENDBRANCH   3   4
ENDBRANCH   2   3
ENDBRANCH   1   2
BRANCH   1  15
ATOM     15  C   UNL     1      10.007 -21.364 -38.457  1.00  0.00     0.000 C 
BRANCH  15  16
ATOM     16  C   UNL     1      10.708 -22.659 -38.923  1.00  0.00     0.000 C 
BRANCH  16  17
ATOM     17  C   UNL     1      10.875 -23.741 -37.840  1.00  0.00     0.000 C 
BRANCH  17  18
ATOM     18  C   UNL     1       9.648 -23.948 -36.931  1.00  0.00    -0.000 C 
BRANCH  18  19
ATOM     19  C   UNL     1       9.967 -23.868 -35.423  1.00  0.00    -0.000 C 
BRANCH  19  20
ATOM     20  C   UNL     1       9.655 -22.484 -34.826  1.00  0.00    -0.000 C 
BRANCH  20  21
ATOM     21  C   UNL     1       8.212 -22.034 -35.104  1.00  0.00    -0.000 C 
BRANCH  21  22
ATOM     22  C   UNL     1       8.130 -20.575 -35.585  1.00  0.00    -0.000 C 
BRANCH  22  23
ATOM     23  C   UNL     1       6.946 -20.333 -36.536  1.00  0.00    -0.000 C 
BRANCH  23  24
ATOM     24  C   UNL     1       6.226 -21.638 -36.921  1.00  0.00    -0.000 C 
BRANCH  24  25
ATOM     25  C   UNL     1       6.631 -22.142 -38.315  1.00  0.00    -0.003 C 
ATOM     26  C   UNL     1       6.275 -21.154 -39.426  1.00  0.00     0.004 C 
ENDBRANCH  24  25
ENDBRANCH  23  24
ENDBRANCH  22  23
ENDBRANCH  21  22
ENDBRANCH  20  21
ENDBRANCH  19  20
ENDBRANCH  18  19
ENDBRANCH  17  18
ENDBRANCH  16  17
ENDBRANCH  15  16
ENDBRANCH   1  15
TORSDOF 22
ENDMDL
MODEL 8
REMARK VINA RESULT:    -3.482      3.612      7.031
REMARK INTER + INTRA:         -12.493
REMARK INTER:                  -9.117
REMARK INTRA:                  -3.376
REMARK UNBOUND:                -4.532
REMARK SMILES CCCCCCCCCCCCCCCCCCCCCCCC(=O)[O-]
REMARK SMILES IDX 13 1 14 2 15 3 16 4 17 5 18 6 19 7 20 8 21 9 22 10 23 11
REMARK SMILES IDX 24 12 25 13 26 14 12 15 11 16 10 17 9 18 8 19 7 20 6 21 5 22
REMARK SMILES IDX 4 23 3 24 2 25 1 26
REMARK H PARENT
REMARK Flexibility Score: inf
ROOT
ATOM      1  C   UNL     1       8.902 -24.584 -38.124  1.00  0.00     0.000 C 
ENDROOT
BRANCH   1   2
ATOM      2  C   UNL     1       9.958 -24.264 -37.054  1.00  0.00     0.000 C 
BRANCH   2   3
ATOM      3  C   UNL     1       9.372 -24.255 -35.632  1.00  0.00     0.000 C 
BRANCH   3   4
ATOM      4  C   UNL     1       9.670 -22.946 -34.881  1.00  0.00     0.000 C 
BRANCH   4   5
ATOM      5  C   UNL     1       8.449 -22.004 -34.842  1.00  0.00     0.000 C 
BRANCH   5   6
ATOM      6  C   UNL     1       8.711 -20.630 -35.481  1.00  0.00     0.000 C 
BRANCH   6   7
ATOM      7  C   UNL     1      10.144 -20.484 -36.020  1.00  0.00     0.000 C 
BRANCH   7   8
ATOM      8  C   UNL     1      10.174 -20.134 -37.522  1.00  0.00     0.000 C 
BRANCH   8   9
ATOM      9  C   UNL     1      11.259 -20.882 -38.322  1.00  0.00     0.000 C 
BRANCH   9  10
ATOM     10  C   UNL     1      12.344 -21.544 -37.450  1.00  0.00     0.006 C 
BRANCH  10  11
ATOM     11  C   UNL     1      13.368 -22.330 -38.282  1.00  0.00     0.053 C 
BRANCH  11  12
ATOM     12  C   UNL     1      14.575 -21.489 -38.553  1.00  0.00     0.041 C 
ATOM     13  O   UNL     1      15.585 -21.571 -37.805  1.00  0.00    -0.550 OA
ATOM     14  O   UNL     1      14.568 -20.582 -39.604  1.00  0.00    -0.550 OA
ENDBRANCH  11  12
ENDBRANCH  10  11
ENDBRANCH   9  10
ENDBRANCH   8   9
ENDBRANCH   7   8
ENDBRANCH   6   7
ENDBRANCH   5   6
ENDBRANCH   4   5
ENDBRANCH   3   4
ENDBRANCH   2   3
ENDBRANCH   1   2
BRANCH   1  15
ATOM     15  C   UNL     1       8.524 -23.358 -38.975  1.00  0.00     0.000 C 
BRANCH  15  16
ATOM     16  C   UNL     1       7.067 -22.875 -38.812  1.00  0.00     0.000 C 
BRANCH  16  17
ATOM     17  C   UNL     1       6.902 -21.510 -38.117  1.00  0.00     0.000 C 
BRANCH  17  18
ATOM     18  C   UNL     1       5.512 -21.256 -37.502  1.00  0.00    -0.000 C 
BRANCH  18  19
ATOM     19  C   UNL     1       4.944 -19.851 -37.801  1.00  0.00    -0.000 C 
BRANCH  19  20
ATOM     20  C   UNL     1       6.012 -18.883 -38.338  1.00  0.00    -0.000 C 
BRANCH  20  21
ATOM     21  C   UNL     1       6.177 -17.638 -37.452  1.00  0.00    -0.000 C 
BRANCH  21  22
ATOM     22  C   UNL     1       6.004 -17.950 -35.956  1.00  0.00    -0.000 C 
BRANCH  22  23
ATOM     23  C   UNL     1       4.903 -17.100 -35.300  1.00  0.00    -0.000 C 
BRANCH  23  24
ATOM     24  C   UNL     1       5.475 -15.924 -34.487  1.00  0.00    -0.000 C 
BRANCH  24  25
ATOM     25  C   UNL     1       4.938 -15.890 -33.048  1.00  0.00    -0.003 C 
ATOM     26  C   UNL     1       4.906 -17.274 -32.398  1.00  0.00     0.004 C 
ENDBRANCH  24  25
ENDBRANCH  23  24
ENDBRANCH  22  23
ENDBRANCH  21  22
ENDBRANCH  20  21
ENDBRANCH  19  20
ENDBRANCH  18  19
ENDBRANCH  17  18
ENDBRANCH  16  17
ENDBRANCH  15  16
ENDBRANCH   1  15
TORSDOF 22
ENDMDL
MODEL 9
REMARK VINA RESULT:    -3.402      2.711      6.112
REMARK INTER + INTRA:         -12.310
REMARK INTER:                  -7.744
REMARK INTRA:                  -4.566
REMARK UNBOUND:                -4.532
REMARK SMILES CCCCCCCCCCCCCCCCCCCCCCCC(=O)[O-]
REMARK SMILES IDX 13 1 14 2 15 3 16 4 17 5 18 6 19 7 20 8 21 9 22 10 23 11
REMARK SMILES IDX 24 12 25 13 26 14 12 15 11 16 10 17 9 18 8 19 7 20 6 21 5 22
REMARK SMILES IDX 4 23 3 24 2 25 1 26
REMARK H PARENT
REMARK Flexibility Score: inf
ROOT
ATOM      1  C   UNL     1       7.197 -20.543 -36.316  1.00  0.00     0.000 C 
ENDROOT
BRANCH   1   2
ATOM      2  C   UNL     1       8.256 -20.872 -35.252  1.00  0.00     0.000 C 
BRANCH   2   3
ATOM      3  C   UNL     1       8.270 -22.363 -34.876  1.00  0.00     0.000 C 
BRANCH   3   4
ATOM      4  C   UNL     1       9.685 -22.966 -34.912  1.00  0.00     0.000 C 
BRANCH   4   5
ATOM      5  C   UNL     1       9.783 -24.173 -35.868  1.00  0.00     0.000 C 
BRANCH   5   6
ATOM      6  C   UNL     1       9.096 -23.940 -37.224  1.00  0.00     0.000 C 
BRANCH   6   7
ATOM      7  C   UNL     1       9.790 -22.859 -38.070  1.00  0.00     0.000 C 
BRANCH   7   8
ATOM      8  C   UNL     1       9.014 -22.537 -39.363  1.00  0.00     0.000 C 
BRANCH   8   9
ATOM      9  C   UNL     1       8.838 -21.030 -39.634  1.00  0.00     0.000 C 
BRANCH   9  10
ATOM     10  C   UNL     1       9.615 -20.118 -38.664  1.00  0.00     0.006 C 
BRANCH  10  11
ATOM     11  C   UNL     1      10.841 -19.470 -39.323  1.00  0.00     0.053 C 
BRANCH  11  12
ATOM     12  C   UNL     1      11.684 -18.783 -38.296  1.00  0.00     0.041 C 
ATOM     13  O   UNL     1      11.252 -18.625 -37.124  1.00  0.00    -0.550 OA
ATOM     14  O   UNL     1      12.928 -18.275 -38.644  1.00  0.00    -0.550 OA
ENDBRANCH  11  12
ENDBRANCH  10  11
ENDBRANCH   9  10
ENDBRANCH   8   9
ENDBRANCH   7   8
ENDBRANCH   6   7
ENDBRANCH   5   6
ENDBRANCH   4   5
ENDBRANCH   3   4
ENDBRANCH   2   3
ENDBRANCH   1   2
BRANCH   1  15
ATOM     15  C   UNL     1       6.374 -21.773 -36.739  1.00  0.00     0.000 C 
BRANCH  15  16
ATOM     16  C   UNL     1       5.282 -21.498 -37.796  1.00  0.00     0.000 C 
BRANCH  16  17
ATOM     17  C   UNL     1       5.340 -20.105 -38.450  1.00  0.00     0.000 C 
BRANCH  17  18
ATOM     18  C   UNL     1       3.969 -19.468 -38.749  1.00  0.00    -0.000 C 
BRANCH  18  19
ATOM     19  C   UNL     1       3.659 -18.221 -37.893  1.00  0.00    -0.000 C 
BRANCH  19  20
ATOM     20  C   UNL     1       4.825 -17.834 -36.967  1.00  0.00    -0.000 C 
BRANCH  20  21
ATOM     21  C   UNL     1       5.167 -16.338 -37.044  1.00  0.00    -0.000 C 
BRANCH  21  22
ATOM     22  C   UNL     1       6.682 -16.074 -36.983  1.00  0.00    -0.000 C 
BRANCH  22  23
ATOM     23  C   UNL     1       7.500 -17.171 -37.684  1.00  0.00    -0.000 C 
BRANCH  23  24
ATOM     24  C   UNL     1       7.966 -16.751 -39.089  1.00  0.00    -0.000 C 
BRANCH  24  25
ATOM     25  C   UNL     1       7.279 -17.559 -40.201  1.00  0.00    -0.003 C 
ATOM     26  C   UNL     1       5.994 -16.899 -40.701  1.00  0.00     0.004 C 
ENDBRANCH  24  25
ENDBRANCH  23  24
ENDBRANCH  22  23
ENDBRANCH  21  22
ENDBRANCH  20  21
ENDBRANCH  19  20
ENDBRANCH  18  19
ENDBRANCH  17  18
ENDBRANCH  16  17
ENDBRANCH  15  16
ENDBRANCH   1  15
TORSDOF 22
ENDMDL
