MODEL 1
REMARK VINA RESULT:    -3.945      0.000      0.000
REMARK INTER + INTRA:         -10.951
REMARK INTER:                  -8.557
REMARK INTRA:                  -2.394
REMARK UNBOUND:                -2.394
REMARK SMILES CCCCCCCCCCCCCCCCCCCCCC(=O)[O-]
REMARK SMILES IDX 12 1 11 2 10 3 9 4 8 5 7 6 6 7 5 8 4 9 3 10 2 11 1 12 13 13
REMARK SMILES IDX 14 14 15 15 16 16 17 17 18 18 19 19 20 20 21 21 22 22 23 23
REMARK SMILES IDX 24 24
REMARK H PARENT
REMARK Flexibility Score: inf
ROOT
ATOM      1  C   UNL     1      -5.722  -6.166   5.477  1.00  0.00     0.000 C 
ENDROOT
BRANCH   1   2
ATOM      2  C   UNL     1      -6.000  -6.796   4.108  1.00  0.00     0.000 C 
BRANCH   2   3
ATOM      3  C   UNL     1      -5.451  -8.230   4.043  1.00  0.00     0.000 C 
BRANCH   3   4
ATOM      4  C   UNL     1      -5.434  -8.804   2.615  1.00  0.00    -0.000 C 
BRANCH   4   5
ATOM      5  C   UNL     1      -6.807  -8.865   1.921  1.00  0.00    -0.000 C 
BRANCH   5   6
ATOM      6  C   UNL     1      -6.741  -8.479   0.434  1.00  0.00    -0.000 C 
BRANCH   6   7
ATOM      7  C   UNL     1      -7.721  -7.351   0.074  1.00  0.00    -0.000 C 
BRANCH   7   8
ATOM      8  C   UNL     1      -7.121  -5.949   0.290  1.00  0.00    -0.000 C 
BRANCH   8   9
ATOM      9  C   UNL     1      -7.893  -5.141   1.354  1.00  0.00    -0.000 C 
BRANCH   9  10
ATOM     10  C   UNL     1      -7.125  -3.916   1.878  1.00  0.00    -0.000 C 
BRANCH  10  11
ATOM     11  C   UNL     1      -6.367  -3.165   0.774  1.00  0.00    -0.003 C 
ATOM     12  C   UNL     1      -5.880  -1.804   1.264  1.00  0.00     0.004 C 
ENDBRANCH  10  11
ENDBRANCH   9  10
ENDBRANCH   8   9
ENDBRANCH   7   8
ENDBRANCH   6   7
ENDBRANCH   5   6
ENDBRANCH   4   5
ENDBRANCH   3   4
ENDBRANCH   2   3
ENDBRANCH   1   2
BRANCH   1  13
ATOM     13  C   UNL     1      -6.270  -4.734   5.558  1.00  0.00     0.000 C 
BRANCH  13  14
ATOM     14  C   UNL     1      -5.241  -3.671   5.131  1.00  0.00     0.000 C 
BRANCH  14  15
ATOM     15  C   UNL     1      -5.851  -2.269   4.926  1.00  0.00     0.000 C 
BRANCH  15  16
ATOM     16  C   UNL     1      -7.387  -2.288   5.018  1.00  0.00     0.000 C 
BRANCH  16  17
ATOM     17  C   UNL     1      -7.979  -0.881   4.847  1.00  0.00     0.000 C 
BRANCH  17  18
ATOM     18  C   UNL     1      -6.899   0.166   4.502  1.00  0.00     0.000 C 
BRANCH  18  19
ATOM     19  C   UNL     1      -7.031   1.479   5.296  1.00  0.00     0.000 C 
BRANCH  19  20
ATOM     20  C   UNL     1      -5.729   1.891   6.004  1.00  0.00     0.006 C 
BRANCH  20  21
ATOM     21  C   UNL     1      -5.420   3.383   5.834  1.00  0.00     0.053 C 
BRANCH  21  22
ATOM     22  C   UNL     1      -4.320   3.612   4.842  1.00  0.00     0.041 C 
ATOM     23  O   UNL     1      -4.521   3.410   3.616  1.00  0.00    -0.550 OA
ATOM     24  O   UNL     1      -3.082   4.077   5.270  1.00  0.00    -0.550 OA
ENDBRANCH  21  22
ENDBRANCH  20  21
ENDBRANCH  19  20
ENDBRANCH  18  19
ENDBRANCH  17  18
ENDBRANCH  16  17
ENDBRANCH  15  16
ENDBRANCH  14  15
ENDBRANCH  13  14
ENDBRANCH   1  13
TORSDOF 20
ENDMDL
MODEL 2
REMARK VINA RESULT:    -3.932     12.183     13.886
REMARK INTER + INTRA:         -10.922
REMARK INTER:                  -9.082
REMARK INTRA:                  -1.840
REMARK UNBOUND:                -2.394
REMARK SMILES CCCCCCCCCCCCCCCCCCCCCC(=O)[O-]
REMARK SMILES IDX 12 1 11 2 10 3 9 4 8 5 7 6 6 7 5 8 4 9 3 10 2 11 1 12 13 13
REMARK SMILES IDX 14 14 15 15 16 16 17 17 18 18 19 19 20 20 21 21 22 22 23 23
REMARK SMILES IDX 24 24
REMARK H PARENT
REMARK Flexibility Score: inf
ROOT
ATOM      1  C   UNL     1       1.194  -3.278  -5.642  1.00  0.00     0.000 C 
ENDROOT
BRANCH   1   2
ATOM      2  C   UNL     1       1.919  -4.552  -6.090  1.00  0.00     0.000 C 
BRANCH   2   3
ATOM      3  C   UNL     1       2.556  -4.361  -7.476  1.00  0.00     0.000 C 
BRANCH   3   4
ATOM      4  C   UNL     1       1.784  -5.080  -8.597  1.00  0.00    -0.000 C 
BRANCH   4   5
ATOM      5  C   UNL     1       0.347  -4.578  -8.824  1.00  0.00    -0.000 C 
BRANCH   5   6
ATOM      6  C   UNL     1      -0.536  -5.604  -9.554  1.00  0.00    -0.000 C 
BRANCH   6   7
ATOM      7  C   UNL     1      -0.961  -6.767  -8.644  1.00  0.00    -0.000 C 
BRANCH   7   8
ATOM      8  C   UNL     1      -1.139  -8.090  -9.412  1.00  0.00    -0.000 C 
BRANCH   8   9
ATOM      9  C   UNL     1      -2.490  -8.768  -9.100  1.00  0.00    -0.000 C 
BRANCH   9  10
ATOM     10  C   UNL     1      -3.631  -7.774  -8.820  1.00  0.00    -0.000 C 
BRANCH  10  11
ATOM     11  C   UNL     1      -4.470  -8.155  -7.591  1.00  0.00    -0.003 C 
ATOM     12  C   UNL     1      -5.005  -9.580  -7.708  1.00  0.00     0.004 C 
ENDBRANCH  10  11
ENDBRANCH   9  10
ENDBRANCH   8   9
ENDBRANCH   7   8
ENDBRANCH   6   7
ENDBRANCH   5   6
ENDBRANCH   4   5
ENDBRANCH   3   4
ENDBRANCH   2   3
ENDBRANCH   1   2
BRANCH   1  13
ATOM     13  C   UNL     1       1.825  -2.025  -6.266  1.00  0.00     0.000 C 
BRANCH  13  14
ATOM     14  C   UNL     1       0.797  -1.118  -6.965  1.00  0.00     0.000 C 
BRANCH  14  15
ATOM     15  C   UNL     1       0.940  -1.092  -8.502  1.00  0.00     0.000 C 
BRANCH  15  16
ATOM     16  C   UNL     1      -0.148  -0.233  -9.169  1.00  0.00     0.000 C 
BRANCH  16  17
ATOM     17  C   UNL     1      -1.504  -0.956  -9.185  1.00  0.00     0.000 C 
BRANCH  17  18
ATOM     18  C   UNL     1      -2.659  -0.033  -8.739  1.00  0.00     0.000 C 
BRANCH  18  19
ATOM     19  C   UNL     1      -3.941  -0.195  -9.577  1.00  0.00     0.000 C 
BRANCH  19  20
ATOM     20  C   UNL     1      -5.021  -1.033  -8.872  1.00  0.00     0.006 C 
BRANCH  20  21
ATOM     21  C   UNL     1      -4.986  -2.506  -9.297  1.00  0.00     0.053 C 
BRANCH  21  22
ATOM     22  C   UNL     1      -6.121  -3.282  -8.702  1.00  0.00     0.041 C 
ATOM     23  O   UNL     1      -6.340  -3.234  -7.463  1.00  0.00    -0.550 OA
ATOM     24  O   UNL     1      -6.954  -4.035  -9.520  1.00  0.00    -0.550 OA
ENDBRANCH  21  22
ENDBRANCH  20  21
ENDBRANCH  19  20
ENDBRANCH  18  19
ENDBRANCH  17  18
ENDBRANCH  16  17
ENDBRANCH  15  16
ENDBRANCH  14  15
ENDBRANCH  13  14
ENDBRANCH   1  13
TORSDOF 20
ENDMDL
MODEL 3
REMARK VINA RESULT:    -3.911      3.006      5.661
REMARK INTER + INTRA:         -10.878
REMARK INTER:                  -7.143
REMARK INTRA:                  -3.735
REMARK UNBOUND:                -2.394
REMARK SMILES CCCCCCCCCCCCCCCCCCCCCC(=O)[O-]
REMARK SMILES IDX 12 1 11 2 10 3 9 4 8 5 7 6 6 7 5 8 4 9 3 10 2 11 1 12 13 13
REMARK SMILES IDX 14 14 15 15 16 16 17 17 18 18 19 19 20 20 21 21 22 22 23 23
REMARK SMILES IDX 24 24
REMARK H PARENT
REMARK Flexibility Score: inf
ROOT
ATOM      1  C   UNL     1      -8.414  -5.746   1.793  1.00  0.00     0.000 C 
ENDROOT
BRANCH   1   2
ATOM      2  C   UNL     1      -7.041  -6.411   1.645  1.00  0.00     0.000 C 
BRANCH   2   3
ATOM      3  C   UNL     1      -7.143  -7.698   0.811  1.00  0.00     0.000 C 
BRANCH   3   4
ATOM      4  C   UNL     1      -6.553  -8.927   1.527  1.00  0.00    -0.000 C 
BRANCH   4   5
ATOM      5  C   UNL     1      -5.429  -8.618   2.532  1.00  0.00    -0.000 C 
BRANCH   5   6
ATOM      6  C   UNL     1      -5.535  -9.450   3.820  1.00  0.00    -0.000 C 
BRANCH   6   7
ATOM      7  C   UNL     1      -6.991  -9.747   4.212  1.00  0.00    -0.000 C 
BRANCH   7   8
ATOM      8  C   UNL     1      -7.173  -9.935   5.730  1.00  0.00    -0.000 C 
BRANCH   8   9
ATOM      9  C   UNL     1      -5.993  -9.351   6.536  1.00  0.00    -0.000 C 
BRANCH   9  10
ATOM     10  C   UNL     1      -6.375  -8.907   7.959  1.00  0.00    -0.000 C 
BRANCH  10  11
ATOM     11  C   UNL     1      -5.738  -7.569   8.362  1.00  0.00    -0.003 C 
ATOM     12  C   UNL     1      -4.793  -7.742   9.548  1.00  0.00     0.004 C 
ENDBRANCH  10  11
ENDBRANCH   9  10
ENDBRANCH   8   9
ENDBRANCH   7   8
ENDBRANCH   6   7
ENDBRANCH   5   6
ENDBRANCH   4   5
ENDBRANCH   3   4
ENDBRANCH   2   3
ENDBRANCH   1   2
BRANCH   1  13
ATOM     13  C   UNL     1      -8.686  -5.340   3.248  1.00  0.00     0.000 C 
BRANCH  13  14
ATOM     14  C   UNL     1      -8.414  -6.476   4.251  1.00  0.00     0.000 C 
BRANCH  14  15
ATOM     15  C   UNL     1      -7.493  -6.062   5.418  1.00  0.00     0.000 C 
BRANCH  15  16
ATOM     16  C   UNL     1      -6.021  -5.956   4.983  1.00  0.00     0.000 C 
BRANCH  16  17
ATOM     17  C   UNL     1      -5.442  -4.565   5.285  1.00  0.00     0.000 C 
BRANCH  17  18
ATOM     18  C   UNL     1      -6.500  -3.614   5.883  1.00  0.00     0.000 C 
BRANCH  18  19
ATOM     19  C   UNL     1      -6.723  -2.335   5.055  1.00  0.00     0.000 C 
BRANCH  19  20
ATOM     20  C   UNL     1      -5.992  -2.356   3.702  1.00  0.00     0.006 C 
BRANCH  20  21
ATOM     21  C   UNL     1      -6.962  -2.388   2.515  1.00  0.00     0.053 C 
BRANCH  21  22
ATOM     22  C   UNL     1      -6.239  -2.301   1.205  1.00  0.00     0.041 C 
ATOM     23  O   UNL     1      -6.306  -3.250   0.380  1.00  0.00    -0.550 OA
ATOM     24  O   UNL     1      -5.517  -1.159   0.883  1.00  0.00    -0.550 OA
ENDBRANCH  21  22
ENDBRANCH  20  21
ENDBRANCH  19  20
ENDBRANCH  18  19
ENDBRANCH  17  18
ENDBRANCH  16  17
ENDBRANCH  15  16
ENDBRANCH  14  15
ENDBRANCH  13  14
ENDBRANCH   1  13
TORSDOF 20
ENDMDL
MODEL 4
REMARK VINA RESULT:    -3.905      4.215      7.917
REMARK INTER + INTRA:         -10.864
REMARK INTER:                  -6.913
REMARK INTRA:                  -3.951
REMARK UNBOUND:                -2.394
REMARK SMILES CCCCCCCCCCCCCCCCCCCCCC(=O)[O-]
REMARK SMILES IDX 12 1 11 2 10 3 9 4 8 5 7 6 6 7 5 8 4 9 3 10 2 11 1 12 13 13
REMARK SMILES IDX 14 14 15 15 16 16 17 17 18 18 19 19 20 20 21 21 22 22 23 23
REMARK SMILES IDX 24 24
REMARK H PARENT
REMARK Flexibility Score: inf
ROOT
ATOM      1  C   UNL     1      -8.148  -6.034   4.913  1.00  0.00     0.000 C 
ENDROOT
BRANCH   1   2
ATOM      2  C   UNL     1      -9.175  -6.407   3.839  1.00  0.00     0.000 C 
BRANCH   2   3
ATOM      3  C   UNL     1      -8.755  -5.860   2.466  1.00  0.00     0.000 C 
BRANCH   3   4
ATOM      4  C   UNL     1      -7.419  -5.096   2.506  1.00  0.00    -0.000 C 
BRANCH   4   5
ATOM      5  C   UNL     1      -7.126  -4.230   1.267  1.00  0.00    -0.000 C 
BRANCH   5   6
ATOM      6  C   UNL     1      -7.171  -2.723   1.568  1.00  0.00    -0.000 C 
BRANCH   6   7
ATOM      7  C   UNL     1      -8.574  -2.246   1.977  1.00  0.00    -0.000 C 
BRANCH   7   8
ATOM      8  C   UNL     1      -8.655  -1.837   3.460  1.00  0.00    -0.000 C 
BRANCH   8   9
ATOM      9  C   UNL     1      -7.260  -1.631   4.086  1.00  0.00    -0.000 C 
BRANCH   9  10
ATOM     10  C   UNL     1      -7.230  -1.830   5.611  1.00  0.00    -0.000 C 
BRANCH  10  11
ATOM     11  C   UNL     1      -6.391  -3.042   6.042  1.00  0.00    -0.003 C 
ATOM     12  C   UNL     1      -5.319  -3.368   5.005  1.00  0.00     0.004 C 
ENDBRANCH  10  11
ENDBRANCH   9  10
ENDBRANCH   8   9
ENDBRANCH   7   8
ENDBRANCH   6   7
ENDBRANCH   5   6
ENDBRANCH   4   5
ENDBRANCH   3   4
ENDBRANCH   2   3
ENDBRANCH   1   2
BRANCH   1  13
ATOM     13  C   UNL     1      -7.584  -7.282   5.607  1.00  0.00     0.000 C 
BRANCH  13  14
ATOM     14  C   UNL     1      -6.046  -7.278   5.694  1.00  0.00     0.000 C 
BRANCH  14  15
ATOM     15  C   UNL     1      -5.350  -7.188   4.320  1.00  0.00     0.000 C 
BRANCH  15  16
ATOM     16  C   UNL     1      -5.241  -8.562   3.636  1.00  0.00     0.000 C 
BRANCH  16  17
ATOM     17  C   UNL     1      -6.062  -8.613   2.338  1.00  0.00     0.000 C 
BRANCH  17  18
ATOM     18  C   UNL     1      -7.395  -9.368   2.524  1.00  0.00     0.000 C 
BRANCH  18  19
ATOM     19  C   UNL     1      -8.314  -9.317   1.289  1.00  0.00     0.000 C 
BRANCH  19  20
ATOM     20  C   UNL     1      -7.576  -9.621  -0.026  1.00  0.00     0.006 C 
BRANCH  20  21
ATOM     21  C   UNL     1      -8.117  -8.799  -1.202  1.00  0.00     0.053 C 
BRANCH  21  22
ATOM     22  C   UNL     1      -7.832  -7.337  -1.034  1.00  0.00     0.041 C 
ATOM     23  O   UNL     1      -6.644  -6.931  -0.929  1.00  0.00    -0.550 OA
ATOM     24  O   UNL     1      -8.876  -6.421  -1.024  1.00  0.00    -0.550 OA
ENDBRANCH  21  22
ENDBRANCH  20  21
ENDBRANCH  19  20
ENDBRANCH  18  19
ENDBRANCH  17  18
ENDBRANCH  16  17
ENDBRANCH  15  16
ENDBRANCH  14  15
ENDBRANCH  13  14
ENDBRANCH   1  13
TORSDOF 20
ENDMDL
MODEL 5
REMARK VINA RESULT:    -3.861     11.787     14.177
REMARK INTER + INTRA:         -10.769
REMARK INTER:                  -8.289
REMARK INTRA:                  -2.480
REMARK UNBOUND:                -2.394
REMARK SMILES CCCCCCCCCCCCCCCCCCCCCC(=O)[O-]
REMARK SMILES IDX 12 1 11 2 10 3 9 4 8 5 7 6 6 7 5 8 4 9 3 10 2 11 1 12 13 13
REMARK SMILES IDX 14 14 15 15 16 16 17 17 18 18 19 19 20 20 21 21 22 22 23 23
REMARK SMILES IDX 24 24
REMARK H PARENT
REMARK Flexibility Score: inf
ROOT
ATOM      1  C   UNL     1       1.445  -1.131  -8.680  1.00  0.00     0.000 C 
ENDROOT
BRANCH   1   2
ATOM      2  C   UNL     1       0.822  -1.429  -7.312  1.00  0.00     0.000 C 
BRANCH   2   3
ATOM      3  C   UNL     1       1.872  -2.001  -6.346  1.00  0.00     0.000 C 
BRANCH   3   4
ATOM      4  C   UNL     1       1.474  -3.371  -5.767  1.00  0.00    -0.000 C 
BRANCH   4   5
ATOM      5  C   UNL     1       0.805  -4.331  -6.766  1.00  0.00    -0.000 C 
BRANCH   5   6
ATOM      6  C   UNL     1       1.760  -4.799  -7.876  1.00  0.00    -0.000 C 
BRANCH   6   7
ATOM      7  C   UNL     1       1.018  -5.418  -9.071  1.00  0.00    -0.000 C 
BRANCH   7   8
ATOM      8  C   UNL     1      -0.285  -6.129  -8.659  1.00  0.00    -0.000 C 
BRANCH   8   9
ATOM      9  C   UNL     1      -0.587  -7.354  -9.548  1.00  0.00    -0.000 C 
BRANCH   9  10
ATOM     10  C   UNL     1      -1.920  -8.046  -9.216  1.00  0.00    -0.000 C 
BRANCH  10  11
ATOM     11  C   UNL     1      -3.123  -7.093  -9.279  1.00  0.00    -0.003 C 
ATOM     12  C   UNL     1      -4.214  -7.515  -8.298  1.00  0.00     0.004 C 
ENDBRANCH  10  11
ENDBRANCH   9  10
ENDBRANCH   8   9
ENDBRANCH   7   8
ENDBRANCH   6   7
ENDBRANCH   5   6
ENDBRANCH   4   5
ENDBRANCH   3   4
ENDBRANCH   2   3
ENDBRANCH   1   2
BRANCH   1  13
ATOM     13  C   UNL     1       0.515  -1.556  -9.825  1.00  0.00     0.000 C 
BRANCH  13  14
ATOM     14  C   UNL     1      -0.895  -1.944  -9.342  1.00  0.00     0.000 C 
BRANCH  14  15
ATOM     15  C   UNL     1      -2.020  -1.103  -9.981  1.00  0.00     0.000 C 
BRANCH  15  16
ATOM     16  C   UNL     1      -2.887  -0.399  -8.923  1.00  0.00     0.000 C 
BRANCH  16  17
ATOM     17  C   UNL     1      -4.359  -0.328  -9.358  1.00  0.00     0.000 C 
BRANCH  17  18
ATOM     18  C   UNL     1      -5.205  -1.454  -8.728  1.00  0.00     0.000 C 
BRANCH  18  19
ATOM     19  C   UNL     1      -5.606  -2.560  -9.723  1.00  0.00     0.000 C 
BRANCH  19  20
ATOM     20  C   UNL     1      -5.421  -3.977  -9.156  1.00  0.00     0.006 C 
BRANCH  20  21
ATOM     21  C   UNL     1      -6.752  -4.616  -8.739  1.00  0.00     0.053 C 
BRANCH  21  22
ATOM     22  C   UNL     1      -6.921  -4.625  -7.250  1.00  0.00     0.041 C 
ATOM     23  O   UNL     1      -7.279  -3.579  -6.647  1.00  0.00    -0.550 OA
ATOM     24  O   UNL     1      -6.711  -5.796  -6.532  1.00  0.00    -0.550 OA
ENDBRANCH  21  22
ENDBRANCH  20  21
ENDBRANCH  19  20
ENDBRANCH  18  19
ENDBRANCH  17  18
ENDBRANCH  16  17
ENDBRANCH  15  16
ENDBRANCH  14  15
ENDBRANCH  13  14
ENDBRANCH   1  13
TORSDOF 20
ENDMDL
MODEL 6
REMARK VINA RESULT:    -3.835     11.342     13.482
REMARK INTER + INTRA:         -10.712
REMARK INTER:                  -8.534
REMARK INTRA:                  -2.178
REMARK UNBOUND:                -2.394
REMARK SMILES CCCCCCCCCCCCCCCCCCCCCC(=O)[O-]
REMARK SMILES IDX 12 1 11 2 10 3 9 4 8 5 7 6 6 7 5 8 4 9 3 10 2 11 1 12 13 13
REMARK SMILES IDX 14 14 15 15 16 16 17 17 18 18 19 19 20 20 21 21 22 22 23 23
REMARK SMILES IDX 24 24
REMARK H PARENT
REMARK Flexibility Score: inf
ROOT
ATOM      1  C   UNL     1       0.544  -4.847  -7.253  1.00  0.00     0.000 C 
ENDROOT
BRANCH   1   2
ATOM      2  C   UNL     1       0.936  -5.446  -8.608  1.00  0.00     0.000 C 
BRANCH   2   3
ATOM      3  C   UNL     1      -0.063  -5.030  -9.700  1.00  0.00     0.000 C 
BRANCH   3   4
ATOM      4  C   UNL     1      -1.346  -5.882  -9.697  1.00  0.00    -0.000 C 
BRANCH   4   5
ATOM      5  C   UNL     1      -1.201  -7.277  -9.065  1.00  0.00    -0.000 C 
BRANCH   5   6
ATOM      6  C   UNL     1      -2.553  -7.905  -8.688  1.00  0.00    -0.000 C 
BRANCH   6   7
ATOM      7  C   UNL     1      -3.743  -7.005  -9.055  1.00  0.00    -0.000 C 
BRANCH   7   8
ATOM      8  C   UNL     1      -5.023  -7.363  -8.277  1.00  0.00    -0.000 C 
BRANCH   8   9
ATOM      9  C   UNL     1      -6.106  -6.270  -8.401  1.00  0.00    -0.000 C 
BRANCH   9  10
ATOM     10  C   UNL     1      -6.855  -5.989  -7.087  1.00  0.00    -0.000 C 
BRANCH  10  11
ATOM     11  C   UNL     1      -6.916  -4.494  -6.739  1.00  0.00    -0.003 C 
ATOM     12  C   UNL     1      -6.482  -3.633  -7.922  1.00  0.00     0.004 C 
ENDBRANCH  10  11
ENDBRANCH   9  10
ENDBRANCH   8   9
ENDBRANCH   7   8
ENDBRANCH   6   7
ENDBRANCH   5   6
ENDBRANCH   4   5
ENDBRANCH   3   4
ENDBRANCH   2   3
ENDBRANCH   1   2
BRANCH   1  13
ATOM     13  C   UNL     1       1.774  -4.334  -6.490  1.00  0.00     0.000 C 
BRANCH  13  14
ATOM     14  C   UNL     1       1.521  -2.996  -5.772  1.00  0.00     0.000 C 
BRANCH  14  15
ATOM     15  C   UNL     1       1.928  -1.762  -6.604  1.00  0.00     0.000 C 
BRANCH  15  16
ATOM     16  C   UNL     1       2.997  -2.103  -7.657  1.00  0.00     0.000 C 
BRANCH  16  17
ATOM     17  C   UNL     1       2.429  -2.028  -9.082  1.00  0.00     0.000 C 
BRANCH  17  18
ATOM     18  C   UNL     1       1.376  -0.909  -9.230  1.00  0.00     0.000 C 
BRANCH  18  19
ATOM     19  C   UNL     1      -0.008  -1.414  -9.678  1.00  0.00     0.000 C 
BRANCH  19  20
ATOM     20  C   UNL     1      -1.149  -0.940  -8.762  1.00  0.00     0.006 C 
BRANCH  20  21
ATOM     21  C   UNL     1      -1.938   0.227  -9.370  1.00  0.00     0.053 C 
BRANCH  21  22
ATOM     22  C   UNL     1      -3.396   0.146  -9.034  1.00  0.00     0.041 C 
ATOM     23  O   UNL     1      -4.064   1.198  -8.854  1.00  0.00    -0.550 OA
ATOM     24  O   UNL     1      -4.023  -1.091  -8.950  1.00  0.00    -0.550 OA
ENDBRANCH  21  22
ENDBRANCH  20  21
ENDBRANCH  19  20
ENDBRANCH  18  19
ENDBRANCH  17  18
ENDBRANCH  16  17
ENDBRANCH  15  16
ENDBRANCH  14  15
ENDBRANCH  13  14
ENDBRANCH   1  13
TORSDOF 20
ENDMDL
MODEL 7
REMARK VINA RESULT:    -3.820      3.196      5.435
REMARK INTER + INTRA:         -10.679
REMARK INTER:                  -7.564
REMARK INTRA:                  -3.115
REMARK UNBOUND:                -2.394
REMARK SMILES CCCCCCCCCCCCCCCCCCCCCC(=O)[O-]
REMARK SMILES IDX 12 1 11 2 10 3 9 4 8 5 7 6 6 7 5 8 4 9 3 10 2 11 1 12 13 13
REMARK SMILES IDX 14 14 15 15 16 16 17 17 18 18 19 19 20 20 21 21 22 22 23 23
REMARK SMILES IDX 24 24
REMARK H PARENT
REMARK Flexibility Score: inf
ROOT
ATOM      1  C   UNL     1      -7.184  -5.661   0.437  1.00  0.00     0.000 C 
ENDROOT
BRANCH   1   2
ATOM      2  C   UNL     1      -6.827  -6.609  -0.713  1.00  0.00     0.000 C 
BRANCH   2   3
ATOM      3  C   UNL     1      -7.817  -7.782  -0.784  1.00  0.00     0.000 C 
BRANCH   3   4
ATOM      4  C   UNL     1      -7.249  -9.086  -0.195  1.00  0.00    -0.000 C 
BRANCH   4   5
ATOM      5  C   UNL     1      -8.020  -9.647   1.013  1.00  0.00    -0.000 C 
BRANCH   5   6
ATOM      6  C   UNL     1      -7.301  -9.396   2.349  1.00  0.00    -0.000 C 
BRANCH   6   7
ATOM      7  C   UNL     1      -5.874  -8.859   2.158  1.00  0.00    -0.000 C 
BRANCH   7   8
ATOM      8  C   UNL     1      -4.951  -9.185   3.347  1.00  0.00    -0.000 C 
BRANCH   8   9
ATOM      9  C   UNL     1      -5.733  -9.732   4.560  1.00  0.00    -0.000 C 
BRANCH   9  10
ATOM     10  C   UNL     1      -5.958  -8.691   5.671  1.00  0.00    -0.000 C 
BRANCH  10  11
ATOM     11  C   UNL     1      -7.069  -9.092   6.652  1.00  0.00    -0.003 C 
ATOM     12  C   UNL     1      -7.603  -7.879   7.409  1.00  0.00     0.004 C 
ENDBRANCH  10  11
ENDBRANCH   9  10
ENDBRANCH   8   9
ENDBRANCH   7   8
ENDBRANCH   6   7
ENDBRANCH   5   6
ENDBRANCH   4   5
ENDBRANCH   3   4
ENDBRANCH   2   3
ENDBRANCH   1   2
BRANCH   1  13
ATOM     13  C   UNL     1      -8.639  -5.851   0.887  1.00  0.00     0.000 C 
BRANCH  13  14
ATOM     14  C   UNL     1      -8.779  -6.037   2.410  1.00  0.00     0.000 C 
BRANCH  14  15
ATOM     15  C   UNL     1      -7.450  -5.872   3.176  1.00  0.00     0.000 C 
BRANCH  15  16
ATOM     16  C   UNL     1      -7.677  -5.560   4.666  1.00  0.00     0.000 C 
BRANCH  16  17
ATOM     17  C   UNL     1      -7.607  -4.050   4.942  1.00  0.00     0.000 C 
BRANCH  17  18
ATOM     18  C   UNL     1      -6.229  -3.623   5.490  1.00  0.00     0.000 C 
BRANCH  18  19
ATOM     19  C   UNL     1      -5.672  -2.343   4.840  1.00  0.00     0.000 C 
BRANCH  19  20
ATOM     20  C   UNL     1      -6.645  -1.705   3.834  1.00  0.00     0.006 C 
BRANCH  20  21
ATOM     21  C   UNL     1      -5.950  -1.304   2.526  1.00  0.00     0.053 C 
BRANCH  21  22
ATOM     22  C   UNL     1      -6.528  -2.026   1.347  1.00  0.00     0.041 C 
ATOM     23  O   UNL     1      -5.800  -2.314   0.361  1.00  0.00    -0.550 OA
ATOM     24  O   UNL     1      -7.865  -2.406   1.350  1.00  0.00    -0.550 OA
ENDBRANCH  21  22
ENDBRANCH  20  21
ENDBRANCH  19  20
ENDBRANCH  18  19
ENDBRANCH  17  18
ENDBRANCH  16  17
ENDBRANCH  15  16
ENDBRANCH  14  15
ENDBRANCH  13  14
ENDBRANCH   1  13
TORSDOF 20
ENDMDL
MODEL 8
REMARK VINA RESULT:    -3.784      4.486      8.107
REMARK INTER + INTRA:         -10.603
REMARK INTER:                  -7.062
REMARK INTRA:                  -3.541
REMARK UNBOUND:                -2.394
REMARK SMILES CCCCCCCCCCCCCCCCCCCCCC(=O)[O-]
REMARK SMILES IDX 12 1 11 2 10 3 9 4 8 5 7 6 6 7 5 8 4 9 3 10 2 11 1 12 13 13
REMARK SMILES IDX 14 14 15 15 16 16 17 17 18 18 19 19 20 20 21 21 22 22 23 23
REMARK SMILES IDX 24 24
REMARK H PARENT
REMARK Flexibility Score: inf
ROOT
ATOM      1  C   UNL     1      -6.273  -5.613   4.907  1.00  0.00     0.000 C 
ENDROOT
BRANCH   1   2
ATOM      2  C   UNL     1      -7.659  -6.257   4.788  1.00  0.00     0.000 C 
BRANCH   2   3
ATOM      3  C   UNL     1      -8.328  -5.874   3.459  1.00  0.00     0.000 C 
BRANCH   3   4
ATOM      4  C   UNL     1      -7.317  -5.636   2.323  1.00  0.00    -0.000 C 
BRANCH   4   5
ATOM      5  C   UNL     1      -7.845  -4.799   1.144  1.00  0.00    -0.000 C 
BRANCH   5   6
ATOM      6  C   UNL     1      -8.745  -3.636   1.594  1.00  0.00    -0.000 C 
BRANCH   6   7
ATOM      7  C   UNL     1      -8.192  -2.266   1.173  1.00  0.00    -0.000 C 
BRANCH   7   8
ATOM      8  C   UNL     1      -6.655  -2.248   1.074  1.00  0.00    -0.000 C 
BRANCH   8   9
ATOM      9  C   UNL     1      -6.003  -1.503   2.258  1.00  0.00    -0.000 C 
BRANCH   9  10
ATOM     10  C   UNL     1      -5.910  -2.345   3.543  1.00  0.00    -0.000 C 
BRANCH  10  11
ATOM     11  C   UNL     1      -6.637  -1.704   4.734  1.00  0.00    -0.003 C 
ATOM     12  C   UNL     1      -7.996  -2.358   4.969  1.00  0.00     0.004 C 
ENDBRANCH  10  11
ENDBRANCH   9  10
ENDBRANCH   8   9
ENDBRANCH   7   8
ENDBRANCH   6   7
ENDBRANCH   5   6
ENDBRANCH   4   5
ENDBRANCH   3   4
ENDBRANCH   2   3
ENDBRANCH   1   2
BRANCH   1  13
ATOM     13  C   UNL     1      -5.160  -6.671   4.880  1.00  0.00     0.000 C 
BRANCH  13  14
ATOM     14  C   UNL     1      -5.699  -8.112   4.924  1.00  0.00     0.000 C 
BRANCH  14  15
ATOM     15  C   UNL     1      -5.092  -9.032   3.843  1.00  0.00     0.000 C 
BRANCH  15  16
ATOM     16  C   UNL     1      -5.858  -8.941   2.512  1.00  0.00     0.000 C 
BRANCH  16  17
ATOM     17  C   UNL     1      -7.326  -9.365   2.676  1.00  0.00     0.000 C 
BRANCH  17  18
ATOM     18  C   UNL     1      -8.122  -9.225   1.361  1.00  0.00     0.000 C 
BRANCH  18  19
ATOM     19  C   UNL     1      -7.256  -8.829   0.151  1.00  0.00     0.000 C 
BRANCH  19  20
ATOM     20  C   UNL     1      -8.069  -8.661  -1.143  1.00  0.00     0.006 C 
BRANCH  20  21
ATOM     21  C   UNL     1      -8.260  -7.187  -1.525  1.00  0.00     0.053 C 
BRANCH  21  22
ATOM     22  C   UNL     1      -9.067  -7.039  -2.780  1.00  0.00     0.041 C 
ATOM     23  O   UNL     1      -9.161  -5.917  -3.343  1.00  0.00    -0.550 OA
ATOM     24  O   UNL     1      -9.688  -8.147  -3.342  1.00  0.00    -0.550 OA
ENDBRANCH  21  22
ENDBRANCH  20  21
ENDBRANCH  19  20
ENDBRANCH  18  19
ENDBRANCH  17  18
ENDBRANCH  16  17
ENDBRANCH  15  16
ENDBRANCH  14  15
ENDBRANCH  13  14
ENDBRANCH   1  13
TORSDOF 20
ENDMDL
MODEL 9
REMARK VINA RESULT:    -3.733      2.760      4.279
REMARK INTER + INTRA:         -10.490
REMARK INTER:                  -6.783
REMARK INTRA:                  -3.707
REMARK UNBOUND:                -2.394
REMARK SMILES CCCCCCCCCCCCCCCCCCCCCC(=O)[O-]
REMARK SMILES IDX 12 1 11 2 10 3 9 4 8 5 7 6 6 7 5 8 4 9 3 10 2 11 1 12 13 13
REMARK SMILES IDX 14 14 15 15 16 16 17 17 18 18 19 19 20 20 21 21 22 22 23 23
REMARK SMILES IDX 24 24
REMARK H PARENT
REMARK Flexibility Score: inf
ROOT
ATOM      1  C   UNL     1      -7.373  -7.335   6.107  1.00  0.00     0.000 C 
ENDROOT
BRANCH   1   2
ATOM      2  C   UNL     1      -7.194  -8.854   6.202  1.00  0.00     0.000 C 
BRANCH   2   3
ATOM      3  C   UNL     1      -5.748  -9.257   5.871  1.00  0.00     0.000 C 
BRANCH   3   4
ATOM      4  C   UNL     1      -5.605  -9.892   4.476  1.00  0.00    -0.000 C 
BRANCH   4   5
ATOM      5  C   UNL     1      -4.935  -8.997   3.418  1.00  0.00    -0.000 C 
BRANCH   5   6
ATOM      6  C   UNL     1      -5.873  -8.647   2.251  1.00  0.00    -0.000 C 
BRANCH   6   7
ATOM      7  C   UNL     1      -7.201  -9.418   2.310  1.00  0.00    -0.000 C 
BRANCH   7   8
ATOM      8  C   UNL     1      -8.431  -8.495   2.225  1.00  0.00    -0.000 C 
BRANCH   8   9
ATOM      9  C   UNL     1      -9.259  -8.744   0.946  1.00  0.00    -0.000 C 
BRANCH   9  10
ATOM     10  C   UNL     1      -8.417  -8.765  -0.341  1.00  0.00    -0.000 C 
BRANCH  10  11
ATOM     11  C   UNL     1      -8.376  -7.405  -1.054  1.00  0.00    -0.003 C 
ATOM     12  C   UNL     1      -7.064  -6.675  -0.776  1.00  0.00     0.004 C 
ENDBRANCH  10  11
ENDBRANCH   9  10
ENDBRANCH   8   9
ENDBRANCH   7   8
ENDBRANCH   6   7
ENDBRANCH   5   6
ENDBRANCH   4   5
ENDBRANCH   3   4
ENDBRANCH   2   3
ENDBRANCH   1   2
BRANCH   1  13
ATOM     13  C   UNL     1      -6.020  -6.616   6.010  1.00  0.00     0.000 C 
BRANCH  13  14
ATOM     14  C   UNL     1      -5.968  -5.580   4.872  1.00  0.00     0.000 C 
BRANCH  14  15
ATOM     15  C   UNL     1      -7.324  -5.370   4.167  1.00  0.00     0.000 C 
BRANCH  15  16
ATOM     16  C   UNL     1      -7.172  -5.282   2.638  1.00  0.00     0.000 C 
BRANCH  16  17
ATOM     17  C   UNL     1      -8.422  -4.674   1.981  1.00  0.00     0.000 C 
BRANCH  17  18
ATOM     18  C   UNL     1      -8.179  -3.228   1.500  1.00  0.00     0.000 C 
BRANCH  18  19
ATOM     19  C   UNL     1      -6.704  -2.918   1.185  1.00  0.00     0.000 C 
BRANCH  19  20
ATOM     20  C   UNL     1      -6.150  -1.735   1.998  1.00  0.00     0.006 C 
BRANCH  20  21
ATOM     21  C   UNL     1      -5.700  -2.154   3.403  1.00  0.00     0.053 C 
BRANCH  21  22
ATOM     22  C   UNL     1      -6.536  -1.511   4.468  1.00  0.00     0.041 C 
ATOM     23  O   UNL     1      -7.533  -0.810   4.153  1.00  0.00    -0.550 OA
ATOM     24  O   UNL     1      -6.231  -1.712   5.808  1.00  0.00    -0.550 OA
ENDBRANCH  21  22
ENDBRANCH  20  21
ENDBRANCH  19  20
ENDBRANCH  18  19
ENDBRANCH  17  18
ENDBRANCH  16  17
ENDBRANCH  15  16
ENDBRANCH  14  15
ENDBRANCH  13  14
ENDBRANCH   1  13
TORSDOF 20
ENDMDL
