MODEL 1
REMARK VINA RESULT:    -5.314      0.000      0.000
REMARK INTER + INTRA:          -6.380
REMARK INTER:                  -6.401
REMARK INTRA:                   0.021
REMARK UNBOUND:                 0.021
REMARK SMILES O=c1c(O)c(-c2ccc(O)c(O)c2)oc2cc(O)cc(O)c12
REMARK SMILES IDX 5 1 3 2 2 3 1 4 22 5 20 6 19 7 17 8 16 9 15 10 14 11 6 12
REMARK SMILES IDX 7 13 8 14 9 15 13 16 11 17 10 18 12 20 4 22 21 24 18 26
REMARK H PARENT 10 19 12 21 4 23 21 25 18 27
REMARK Flexibility Score: inf
ROOT
ATOM      1  C   UNL     1      19.602  25.697  42.350  1.00  0.00     0.180 A 
ATOM      2  C   UNL     1      20.997  25.846  42.431  1.00  0.00     0.208 A 
ATOM      3  C   UNL     1      21.754  24.844  43.058  1.00  0.00     0.238 A 
ATOM      4  O   UNL     1      22.993  25.020  43.192  1.00  0.00    -0.285 OA
ATOM      5  C   UNL     1      21.115  23.679  43.547  1.00  0.00     0.111 A 
ATOM      6  C   UNL     1      21.788  22.579  44.160  1.00  0.00     0.134 A 
ATOM      7  C   UNL     1      21.040  21.526  44.701  1.00  0.00     0.093 A 
ATOM      8  C   UNL     1      19.647  21.503  44.596  1.00  0.00     0.123 A 
ATOM      9  C   UNL     1      18.985  22.544  43.952  1.00  0.00     0.094 A 
ATOM     10  C   UNL     1      19.700  23.627  43.435  1.00  0.00     0.146 A 
ATOM     11  O   UNL     1      19.026  24.609  42.848  1.00  0.00    -0.452 OA
ENDROOT
BRANCH   1  12
ATOM     12  C   UNL     1      18.735  26.718  41.718  1.00  0.00     0.025 A 
ATOM     13  C   UNL     1      17.822  26.377  40.707  1.00  0.00     0.016 A 
ATOM     14  C   UNL     1      17.032  27.362  40.111  1.00  0.00     0.051 A 
ATOM     15  C   UNL     1      17.145  28.701  40.498  1.00  0.00     0.157 A 
ATOM     16  C   UNL     1      18.866  28.064  42.093  1.00  0.00     0.062 A 
ATOM     17  C   UNL     1      18.078  29.058  41.501  1.00  0.00     0.158 A 
BRANCH  15  18
ATOM     18  O   UNL     1      16.323  29.636  39.866  1.00  0.00    -0.504 OA
ATOM     19  H   UNL     1      15.422  29.417  39.465  1.00  0.00     0.293 HD
ENDBRANCH  15  18
BRANCH  17  20
ATOM     20  O   UNL     1      18.254  30.375  41.934  1.00  0.00    -0.504 OA
ATOM     21  H   UNL     1      17.500  31.037  42.045  1.00  0.00     0.293 HD
ENDBRANCH  17  20
ENDBRANCH   1  12
BRANCH   2  22
ATOM     22  O   UNL     1      21.618  26.968  41.873  1.00  0.00    -0.502 OA
ATOM     23  H   UNL     1      22.075  27.673  42.439  1.00  0.00     0.293 HD
ENDBRANCH   2  22
BRANCH   6  24
ATOM     24  O   UNL     1      23.179  22.458  44.239  1.00  0.00    -0.507 OA
ATOM     25  H   UNL     1      23.671  21.631  44.539  1.00  0.00     0.293 HD
ENDBRANCH   6  24
BRANCH   8  26
ATOM     26  O   UNL     1      18.912  20.444  45.124  1.00  0.00    -0.508 OA
ATOM     27  H   UNL     1      19.195  19.480  44.983  1.00  0.00     0.293 HD
ENDBRANCH   8  26
TORSDOF 6
ENDMDL
MODEL 2
REMARK VINA RESULT:    -5.253      1.793      6.574
REMARK INTER + INTRA:          -6.306
REMARK INTER:                  -5.989
REMARK INTRA:                  -0.318
REMARK UNBOUND:                 0.021
REMARK SMILES O=c1c(O)c(-c2ccc(O)c(O)c2)oc2cc(O)cc(O)c12
REMARK SMILES IDX 5 1 3 2 2 3 1 4 22 5 20 6 19 7 17 8 16 9 15 10 14 11 6 12
REMARK SMILES IDX 7 13 8 14 9 15 13 16 11 17 10 18 12 20 4 22 21 24 18 26
REMARK H PARENT 10 19 12 21 4 23 21 25 18 27
REMARK Flexibility Score: inf
ROOT
ATOM      1  C   UNL     1      19.563  25.188  42.135  1.00  0.00     0.180 A 
ATOM      2  C   UNL     1      20.814  25.259  41.499  1.00  0.00     0.208 A 
ATOM      3  C   UNL     1      21.201  26.462  40.887  1.00  0.00     0.238 A 
ATOM      4  O   UNL     1      22.289  26.494  40.255  1.00  0.00    -0.285 OA
ATOM      5  C   UNL     1      20.357  27.596  40.968  1.00  0.00     0.111 A 
ATOM      6  C   UNL     1      20.667  28.880  40.425  1.00  0.00     0.134 A 
ATOM      7  C   UNL     1      19.709  29.900  40.473  1.00  0.00     0.093 A 
ATOM      8  C   UNL     1      18.477  29.703  41.101  1.00  0.00     0.123 A 
ATOM      9  C   UNL     1      18.187  28.472  41.682  1.00  0.00     0.094 A 
ATOM     10  C   UNL     1      19.106  27.423  41.617  1.00  0.00     0.146 A 
ATOM     11  O   UNL     1      18.779  26.259  42.166  1.00  0.00    -0.452 OA
ENDROOT
BRANCH   1  12
ATOM     12  C   UNL     1      19.079  23.950  42.789  1.00  0.00     0.025 A 
ATOM     13  C   UNL     1      19.435  23.633  44.109  1.00  0.00     0.016 A 
ATOM     14  C   UNL     1      18.984  22.448  44.694  1.00  0.00     0.051 A 
ATOM     15  C   UNL     1      18.185  21.554  43.975  1.00  0.00     0.157 A 
ATOM     16  C   UNL     1      18.296  23.045  42.057  1.00  0.00     0.062 A 
ATOM     17  C   UNL     1      17.839  21.854  42.636  1.00  0.00     0.158 A 
BRANCH  15  18
ATOM     18  O   UNL     1      17.764  20.389  44.620  1.00  0.00    -0.504 OA
ATOM     19  H   UNL     1      17.705  19.486  44.174  1.00  0.00     0.293 HD
ENDBRANCH  15  18
BRANCH  17  20
ATOM     20  O   UNL     1      17.052  21.007  41.852  1.00  0.00    -0.504 OA
ATOM     21  H   UNL     1      16.103  20.748  42.079  1.00  0.00     0.293 HD
ENDBRANCH  17  20
ENDBRANCH   1  12
BRANCH   2  22
ATOM     22  O   UNL     1      21.665  24.150  41.496  1.00  0.00    -0.502 OA
ATOM     23  H   UNL     1      22.119  23.814  40.655  1.00  0.00     0.293 HD
ENDBRANCH   2  22
BRANCH   6  24
ATOM     24  O   UNL     1      21.900  29.211  39.854  1.00  0.00    -0.507 OA
ATOM     25  H   UNL     1      22.671  28.573  39.731  1.00  0.00     0.293 HD
ENDBRANCH   6  24
BRANCH   8  26
ATOM     26  O   UNL     1      17.537  30.729  41.158  1.00  0.00    -0.508 OA
ATOM     27  H   UNL     1      16.550  30.538  41.291  1.00  0.00     0.293 HD
ENDBRANCH   8  26
TORSDOF 6
ENDMDL
MODEL 3
REMARK VINA RESULT:    -5.212      1.789      6.882
REMARK INTER + INTRA:          -6.257
REMARK INTER:                  -5.925
REMARK INTRA:                  -0.332
REMARK UNBOUND:                 0.021
REMARK SMILES O=c1c(O)c(-c2ccc(O)c(O)c2)oc2cc(O)cc(O)c12
REMARK SMILES IDX 5 1 3 2 2 3 1 4 22 5 20 6 19 7 17 8 16 9 15 10 14 11 6 12
REMARK SMILES IDX 7 13 8 14 9 15 13 16 11 17 10 18 12 20 4 22 21 24 18 26
REMARK H PARENT 10 19 12 21 4 23 21 25 18 27
REMARK Flexibility Score: inf
ROOT
ATOM      1  C   UNL     1      19.348  26.116  41.560  1.00  0.00     0.180 A 
ATOM      2  C   UNL     1      20.327  27.123  41.538  1.00  0.00     0.208 A 
ATOM      3  C   UNL     1      19.976  28.406  41.086  1.00  0.00     0.238 A 
ATOM      4  O   UNL     1      20.875  29.281  40.999  1.00  0.00    -0.285 OA
ATOM      5  C   UNL     1      18.637  28.680  40.716  1.00  0.00     0.111 A 
ATOM      6  C   UNL     1      18.157  29.955  40.286  1.00  0.00     0.134 A 
ATOM      7  C   UNL     1      16.835  30.082  39.843  1.00  0.00     0.093 A 
ATOM      8  C   UNL     1      15.957  28.996  39.873  1.00  0.00     0.123 A 
ATOM      9  C   UNL     1      16.399  27.762  40.342  1.00  0.00     0.094 A 
ATOM     10  C   UNL     1      17.723  27.594  40.756  1.00  0.00     0.146 A 
ATOM     11  O   UNL     1      18.108  26.394  41.174  1.00  0.00    -0.452 OA
ENDROOT
BRANCH   1  12
ATOM     12  C   UNL     1      19.645  24.736  42.008  1.00  0.00     0.025 A 
ATOM     13  C   UNL     1      20.137  23.768  41.118  1.00  0.00     0.016 A 
ATOM     14  C   UNL     1      20.387  22.467  41.560  1.00  0.00     0.051 A 
ATOM     15  C   UNL     1      20.141  22.103  42.888  1.00  0.00     0.157 A 
ATOM     16  C   UNL     1      19.376  24.368  43.335  1.00  0.00     0.062 A 
ATOM     17  C   UNL     1      19.624  23.066  43.788  1.00  0.00     0.158 A 
BRANCH  15  18
ATOM     18  O   UNL     1      20.417  20.788  43.267  1.00  0.00    -0.504 OA
ATOM     19  H   UNL     1      20.357  19.996  42.644  1.00  0.00     0.293 HD
ENDBRANCH  15  18
BRANCH  17  20
ATOM     20  O   UNL     1      19.345  22.775  45.125  1.00  0.00    -0.504 OA
ATOM     21  H   UNL     1      18.945  21.904  45.441  1.00  0.00     0.293 HD
ENDBRANCH  17  20
ENDBRANCH   1  12
BRANCH   2  22
ATOM     22  O   UNL     1      21.625  26.852  41.981  1.00  0.00    -0.502 OA
ATOM     23  H   UNL     1      21.906  26.973  42.946  1.00  0.00     0.293 HD
ENDBRANCH   2  22
BRANCH   6  24
ATOM     24  O   UNL     1      18.924  31.124  40.299  1.00  0.00    -0.507 OA
ATOM     25  H   UNL     1      19.591  31.386  39.589  1.00  0.00     0.293 HD
ENDBRANCH   6  24
BRANCH   8  26
ATOM     26  O   UNL     1      14.639  29.136  39.446  1.00  0.00    -0.508 OA
ATOM     27  H   UNL     1      13.859  28.870  40.036  1.00  0.00     0.293 HD
ENDBRANCH   8  26
TORSDOF 6
ENDMDL
MODEL 4
REMARK VINA RESULT:    -5.131      1.330      2.946
REMARK INTER + INTRA:          -6.159
REMARK INTER:                  -6.474
REMARK INTRA:                   0.315
REMARK UNBOUND:                 0.021
REMARK SMILES O=c1c(O)c(-c2ccc(O)c(O)c2)oc2cc(O)cc(O)c12
REMARK SMILES IDX 5 1 3 2 2 3 1 4 22 5 20 6 19 7 17 8 16 9 15 10 14 11 6 12
REMARK SMILES IDX 7 13 8 14 9 15 13 16 11 17 10 18 12 20 4 22 21 24 18 26
REMARK H PARENT 10 19 12 21 4 23 21 25 18 27
REMARK Flexibility Score: inf
ROOT
ATOM      1  C   UNL     1      19.611  25.588  42.382  1.00  0.00     0.180 A 
ATOM      2  C   UNL     1      19.285  24.223  42.430  1.00  0.00     0.208 A 
ATOM      3  C   UNL     1      20.181  23.328  43.038  1.00  0.00     0.238 A 
ATOM      4  O   UNL     1      19.916  22.098  43.010  1.00  0.00    -0.285 OA
ATOM      5  C   UNL     1      21.365  23.818  43.639  1.00  0.00     0.111 A 
ATOM      6  C   UNL     1      22.325  23.009  44.322  1.00  0.00     0.134 A 
ATOM      7  C   UNL     1      23.512  23.589  44.785  1.00  0.00     0.093 A 
ATOM      8  C   UNL     1      23.748  24.959  44.646  1.00  0.00     0.123 A 
ATOM      9  C   UNL     1      22.795  25.765  44.031  1.00  0.00     0.094 A 
ATOM     10  C   UNL     1      21.617  25.211  43.524  1.00  0.00     0.146 A 
ATOM     11  O   UNL     1      20.746  26.014  42.925  1.00  0.00    -0.452 OA
ENDROOT
BRANCH   1  12
ATOM     12  C   UNL     1      18.724  26.590  41.746  1.00  0.00     0.025 A 
ATOM     13  C   UNL     1      17.808  26.225  40.747  1.00  0.00     0.016 A 
ATOM     14  C   UNL     1      17.000  27.193  40.146  1.00  0.00     0.051 A 
ATOM     15  C   UNL     1      17.098  28.537  40.517  1.00  0.00     0.157 A 
ATOM     16  C   UNL     1      18.841  27.941  42.104  1.00  0.00     0.062 A 
ATOM     17  C   UNL     1      18.034  28.918  41.507  1.00  0.00     0.158 A 
BRANCH  15  18
ATOM     18  O   UNL     1      16.258  29.453  39.881  1.00  0.00    -0.504 OA
ATOM     19  H   UNL     1      16.585  30.222  39.314  1.00  0.00     0.293 HD
ENDBRANCH  15  18
BRANCH  17  20
ATOM     20  O   UNL     1      18.196  30.242  41.923  1.00  0.00    -0.504 OA
ATOM     21  H   UNL     1      18.904  30.547  42.575  1.00  0.00     0.293 HD
ENDBRANCH  17  20
ENDBRANCH   1  12
BRANCH   2  22
ATOM     22  O   UNL     1      18.073  23.770  41.899  1.00  0.00    -0.502 OA
ATOM     23  H   UNL     1      17.953  23.570  40.913  1.00  0.00     0.293 HD
ENDBRANCH   2  22
BRANCH   6  24
ATOM     24  O   UNL     1      22.150  21.649  44.593  1.00  0.00    -0.507 OA
ATOM     25  H   UNL     1      21.432  21.265  45.188  1.00  0.00     0.293 HD
ENDBRANCH   6  24
BRANCH   8  26
ATOM     26  O   UNL     1      24.925  25.529  45.125  1.00  0.00    -0.508 OA
ATOM     27  H   UNL     1      25.461  26.185  44.568  1.00  0.00     0.293 HD
ENDBRANCH   8  26
TORSDOF 6
ENDMDL
MODEL 5
REMARK VINA RESULT:    -5.080      2.161      6.957
REMARK INTER + INTRA:          -6.097
REMARK INTER:                  -5.771
REMARK INTRA:                  -0.327
REMARK UNBOUND:                 0.021
REMARK SMILES O=c1c(O)c(-c2ccc(O)c(O)c2)oc2cc(O)cc(O)c12
REMARK SMILES IDX 5 1 3 2 2 3 1 4 22 5 20 6 19 7 17 8 16 9 15 10 14 11 6 12
REMARK SMILES IDX 7 13 8 14 9 15 13 16 11 17 10 18 12 20 4 22 21 24 18 26
REMARK H PARENT 10 19 12 21 4 23 21 25 18 27
REMARK Flexibility Score: inf
ROOT
ATOM      1  C   UNL     1      20.824  25.606  42.591  1.00  0.00     0.180 A 
ATOM      2  C   UNL     1      19.912  24.580  42.293  1.00  0.00     0.208 A 
ATOM      3  C   UNL     1      18.664  24.916  41.743  1.00  0.00     0.238 A 
ATOM      4  O   UNL     1      17.825  23.998  41.548  1.00  0.00    -0.285 OA
ATOM      5  C   UNL     1      18.366  26.267  41.446  1.00  0.00     0.111 A 
ATOM      6  C   UNL     1      17.151  26.719  40.845  1.00  0.00     0.134 A 
ATOM      7  C   UNL     1      16.924  28.092  40.696  1.00  0.00     0.093 A 
ATOM      8  C   UNL     1      17.892  29.028  41.066  1.00  0.00     0.123 A 
ATOM      9  C   UNL     1      19.103  28.596  41.601  1.00  0.00     0.094 A 
ATOM     10  C   UNL     1      19.345  27.234  41.798  1.00  0.00     0.146 A 
ATOM     11  O   UNL     1      20.504  26.868  42.332  1.00  0.00    -0.452 OA
ENDROOT
BRANCH   1  12
ATOM     12  C   UNL     1      22.153  25.332  43.186  1.00  0.00     0.025 A 
ATOM     13  C   UNL     1      22.318  25.189  44.573  1.00  0.00     0.016 A 
ATOM     14  C   UNL     1      23.585  24.955  45.111  1.00  0.00     0.051 A 
ATOM     15  C   UNL     1      24.709  24.873  44.284  1.00  0.00     0.157 A 
ATOM     16  C   UNL     1      23.282  25.272  42.355  1.00  0.00     0.062 A 
ATOM     17  C   UNL     1      24.557  25.037  42.886  1.00  0.00     0.158 A 
BRANCH  15  18
ATOM     18  O   UNL     1      25.946  24.632  44.885  1.00  0.00    -0.504 OA
ATOM     19  H   UNL     1      26.149  23.823  45.455  1.00  0.00     0.293 HD
ENDBRANCH  15  18
BRANCH  17  20
ATOM     20  O   UNL     1      25.633  24.977  41.998  1.00  0.00    -0.504 OA
ATOM     21  H   UNL     1      25.558  25.155  41.007  1.00  0.00     0.293 HD
ENDBRANCH  17  20
ENDBRANCH   1  12
BRANCH   2  22
ATOM     22  O   UNL     1      20.256  23.244  42.522  1.00  0.00    -0.502 OA
ATOM     23  H   UNL     1      21.057  22.977  43.082  1.00  0.00     0.293 HD
ENDBRANCH   2  22
BRANCH   6  24
ATOM     24  O   UNL     1      16.155  25.867  40.359  1.00  0.00    -0.507 OA
ATOM     25  H   UNL     1      15.243  25.747  40.774  1.00  0.00     0.293 HD
ENDBRANCH   6  24
BRANCH   8  26
ATOM     26  O   UNL     1      17.663  30.392  40.898  1.00  0.00    -0.508 OA
ATOM     27  H   UNL     1      18.083  31.080  41.514  1.00  0.00     0.293 HD
ENDBRANCH   8  26
TORSDOF 6
ENDMDL
MODEL 6
REMARK VINA RESULT:    -5.007      1.053      1.106
REMARK INTER + INTRA:          -6.010
REMARK INTER:                  -5.735
REMARK INTRA:                  -0.275
REMARK UNBOUND:                 0.021
REMARK SMILES O=c1c(O)c(-c2ccc(O)c(O)c2)oc2cc(O)cc(O)c12
REMARK SMILES IDX 5 1 3 2 2 3 1 4 22 5 20 6 19 7 17 8 16 9 15 10 14 11 6 12
REMARK SMILES IDX 7 13 8 14 9 15 13 16 11 17 10 18 12 20 4 22 21 24 18 26
REMARK H PARENT 10 19 12 21 4 23 21 25 18 27
REMARK Flexibility Score: inf
ROOT
ATOM      1  C   UNL     1      19.717  25.721  42.350  1.00  0.00     0.180 A 
ATOM      2  C   UNL     1      21.012  25.670  42.893  1.00  0.00     0.208 A 
ATOM      3  C   UNL     1      21.379  24.565  43.677  1.00  0.00     0.238 A 
ATOM      4  O   UNL     1      22.514  24.562  44.221  1.00  0.00    -0.285 OA
ATOM      5  C   UNL     1      20.467  23.498  43.862  1.00  0.00     0.111 A 
ATOM      6  C   UNL     1      20.748  22.307  44.599  1.00  0.00     0.134 A 
ATOM      7  C   UNL     1      19.731  21.366  44.804  1.00  0.00     0.093 A 
ATOM      8  C   UNL     1      18.463  21.542  44.246  1.00  0.00     0.123 A 
ATOM      9  C   UNL     1      18.195  22.672  43.479  1.00  0.00     0.094 A 
ATOM     10  C   UNL     1      19.177  23.648  43.288  1.00  0.00     0.146 A 
ATOM     11  O   UNL     1      18.871  24.721  42.569  1.00  0.00    -0.452 OA
ENDROOT
BRANCH   1  12
ATOM     12  C   UNL     1      19.251  26.861  41.527  1.00  0.00     0.025 A 
ATOM     13  C   UNL     1      19.203  26.779  40.126  1.00  0.00     0.016 A 
ATOM     14  C   UNL     1      18.782  27.876  39.371  1.00  0.00     0.051 A 
ATOM     15  C   UNL     1      18.416  29.074  39.992  1.00  0.00     0.157 A 
ATOM     16  C   UNL     1      18.905  28.068  42.152  1.00  0.00     0.062 A 
ATOM     17  C   UNL     1      18.481  29.173  41.403  1.00  0.00     0.158 A 
BRANCH  15  18
ATOM     18  O   UNL     1      17.999  30.130  39.180  1.00  0.00    -0.504 OA
ATOM     19  H   UNL     1      18.571  30.551  38.462  1.00  0.00     0.293 HD
ENDBRANCH  15  18
BRANCH  17  20
ATOM     20  O   UNL     1      18.140  30.338  42.093  1.00  0.00    -0.504 OA
ATOM     21  H   UNL     1      17.192  30.602  42.321  1.00  0.00     0.293 HD
ENDBRANCH  17  20
ENDBRANCH   1  12
BRANCH   2  22
ATOM     22  O   UNL     1      21.924  26.698  42.635  1.00  0.00    -0.502 OA
ATOM     23  H   UNL     1      22.926  26.561  42.688  1.00  0.00     0.293 HD
ENDBRANCH   2  22
BRANCH   6  24
ATOM     24  O   UNL     1      22.004  21.990  45.125  1.00  0.00    -0.507 OA
ATOM     25  H   UNL     1      22.165  21.377  45.910  1.00  0.00     0.293 HD
ENDBRANCH   6  24
BRANCH   8  26
ATOM     26  O   UNL     1      17.463  20.592  44.442  1.00  0.00    -0.508 OA
ATOM     27  H   UNL     1      16.793  20.676  45.198  1.00  0.00     0.293 HD
ENDBRANCH   8  26
TORSDOF 6
ENDMDL
MODEL 7
REMARK VINA RESULT:    -4.982      3.076      7.123
REMARK INTER + INTRA:          -5.980
REMARK INTER:                  -5.657
REMARK INTRA:                  -0.322
REMARK UNBOUND:                 0.021
REMARK SMILES O=c1c(O)c(-c2ccc(O)c(O)c2)oc2cc(O)cc(O)c12
REMARK SMILES IDX 5 1 3 2 2 3 1 4 22 5 20 6 19 7 17 8 16 9 15 10 14 11 6 12
REMARK SMILES IDX 7 13 8 14 9 15 13 16 11 17 10 18 12 20 4 22 21 24 18 26
REMARK H PARENT 10 19 12 21 4 23 21 25 18 27
REMARK Flexibility Score: inf
ROOT
ATOM      1  C   UNL     1      20.264  27.012  41.441  1.00  0.00     0.180 A 
ATOM      2  C   UNL     1      19.448  28.151  41.340  1.00  0.00     0.208 A 
ATOM      3  C   UNL     1      19.814  29.176  40.452  1.00  0.00     0.238 A 
ATOM      4  O   UNL     1      19.119  30.224  40.422  1.00  0.00    -0.285 OA
ATOM      5  C   UNL     1      20.961  29.024  39.637  1.00  0.00     0.111 A 
ATOM      6  C   UNL     1      21.402  29.978  38.669  1.00  0.00     0.134 A 
ATOM      7  C   UNL     1      22.612  29.769  37.995  1.00  0.00     0.093 A 
ATOM      8  C   UNL     1      23.364  28.611  38.206  1.00  0.00     0.123 A 
ATOM      9  C   UNL     1      22.915  27.649  39.106  1.00  0.00     0.094 A 
ATOM     10  C   UNL     1      21.732  27.846  39.823  1.00  0.00     0.146 A 
ATOM     11  O   UNL     1      21.353  26.913  40.687  1.00  0.00    -0.452 OA
ENDROOT
BRANCH   1  12
ATOM     12  C   UNL     1      19.952  25.897  42.365  1.00  0.00     0.025 A 
ATOM     13  C   UNL     1      20.521  25.828  43.646  1.00  0.00     0.016 A 
ATOM     14  C   UNL     1      20.229  24.754  44.489  1.00  0.00     0.051 A 
ATOM     15  C   UNL     1      19.379  23.725  44.069  1.00  0.00     0.157 A 
ATOM     16  C   UNL     1      19.117  24.856  41.932  1.00  0.00     0.062 A 
ATOM     17  C   UNL     1      18.818  23.775  42.771  1.00  0.00     0.158 A 
BRANCH  15  18
ATOM     18  O   UNL     1      19.124  22.683  44.962  1.00  0.00    -0.504 OA
ATOM     19  H   UNL     1      18.666  22.802  45.854  1.00  0.00     0.293 HD
ENDBRANCH  15  18
BRANCH  17  20
ATOM     20  O   UNL     1      17.969  22.781  42.278  1.00  0.00    -0.504 OA
ATOM     21  H   UNL     1      17.290  22.289  42.841  1.00  0.00     0.293 HD
ENDBRANCH  17  20
ENDBRANCH   1  12
BRANCH   2  22
ATOM     22  O   UNL     1      18.277  28.247  42.098  1.00  0.00    -0.502 OA
ATOM     23  H   UNL     1      18.121  28.994  42.765  1.00  0.00     0.293 HD
ENDBRANCH   2  22
BRANCH   6  24
ATOM     24  O   UNL     1      20.684  31.125  38.317  1.00  0.00    -0.507 OA
ATOM     25  H   UNL     1      20.455  31.880  38.946  1.00  0.00     0.293 HD
ENDBRANCH   6  24
BRANCH   8  26
ATOM     26  O   UNL     1      24.558  28.405  37.518  1.00  0.00    -0.508 OA
ATOM     27  H   UNL     1      25.411  28.886  37.780  1.00  0.00     0.293 HD
ENDBRANCH   8  26
TORSDOF 6
ENDMDL
MODEL 8
REMARK VINA RESULT:    -4.892      2.317      3.135
REMARK INTER + INTRA:          -5.872
REMARK INTER:                  -5.552
REMARK INTRA:                  -0.320
REMARK UNBOUND:                 0.021
REMARK SMILES O=c1c(O)c(-c2ccc(O)c(O)c2)oc2cc(O)cc(O)c12
REMARK SMILES IDX 5 1 3 2 2 3 1 4 22 5 20 6 19 7 17 8 16 9 15 10 14 11 6 12
REMARK SMILES IDX 7 13 8 14 9 15 13 16 11 17 10 18 12 20 4 22 21 24 18 26
REMARK H PARENT 10 19 12 21 4 23 21 25 18 27
REMARK Flexibility Score: inf
ROOT
ATOM      1  C   UNL     1      19.159  25.570  41.948  1.00  0.00     0.180 A 
ATOM      2  C   UNL     1      19.837  25.059  43.067  1.00  0.00     0.208 A 
ATOM      3  C   UNL     1      19.498  23.784  43.546  1.00  0.00     0.238 A 
ATOM      4  O   UNL     1      20.058  23.365  44.593  1.00  0.00    -0.285 OA
ATOM      5  C   UNL     1      18.525  23.012  42.868  1.00  0.00     0.111 A 
ATOM      6  C   UNL     1      18.134  21.689  43.238  1.00  0.00     0.134 A 
ATOM      7  C   UNL     1      17.083  21.063  42.557  1.00  0.00     0.093 A 
ATOM      8  C   UNL     1      16.451  21.686  41.478  1.00  0.00     0.123 A 
ATOM      9  C   UNL     1      16.862  22.953  41.074  1.00  0.00     0.094 A 
ATOM     10  C   UNL     1      17.881  23.620  41.758  1.00  0.00     0.146 A 
ATOM     11  O   UNL     1      18.226  24.836  41.352  1.00  0.00    -0.452 OA
ENDROOT
BRANCH   1  12
ATOM     12  C   UNL     1      19.449  26.912  41.393  1.00  0.00     0.025 A 
ATOM     13  C   UNL     1      20.479  27.110  40.459  1.00  0.00     0.016 A 
ATOM     14  C   UNL     1      20.748  28.390  39.969  1.00  0.00     0.051 A 
ATOM     15  C   UNL     1      20.010  29.493  40.407  1.00  0.00     0.157 A 
ATOM     16  C   UNL     1      18.721  28.021  41.851  1.00  0.00     0.062 A 
ATOM     17  C   UNL     1      18.984  29.307  41.365  1.00  0.00     0.158 A 
BRANCH  15  18
ATOM     18  O   UNL     1      20.326  30.744  39.874  1.00  0.00    -0.504 OA
ATOM     19  H   UNL     1      19.641  31.446  39.634  1.00  0.00     0.293 HD
ENDBRANCH  15  18
BRANCH  17  20
ATOM     20  O   UNL     1      18.211  30.362  41.856  1.00  0.00    -0.504 OA
ATOM     21  H   UNL     1      18.543  31.042  42.524  1.00  0.00     0.293 HD
ENDBRANCH  17  20
ENDBRANCH   1  12
BRANCH   2  22
ATOM     22  O   UNL     1      20.850  25.806  43.676  1.00  0.00    -0.502 OA
ATOM     23  H   UNL     1      21.291  25.519  44.542  1.00  0.00     0.293 HD
ENDBRANCH   2  22
BRANCH   6  24
ATOM     24  O   UNL     1      18.756  20.941  44.242  1.00  0.00    -0.507 OA
ATOM     25  H   UNL     1      18.462  20.910  45.207  1.00  0.00     0.293 HD
ENDBRANCH   6  24
BRANCH   8  26
ATOM     26  O   UNL     1      15.417  21.048  40.795  1.00  0.00    -0.508 OA
ATOM     27  H   UNL     1      14.739  20.472  41.279  1.00  0.00     0.293 HD
ENDBRANCH   8  26
TORSDOF 6
ENDMDL
MODEL 9
REMARK VINA RESULT:    -4.875      2.110      3.712
REMARK INTER + INTRA:          -5.851
REMARK INTER:                  -5.544
REMARK INTRA:                  -0.307
REMARK UNBOUND:                 0.021
REMARK SMILES O=c1c(O)c(-c2ccc(O)c(O)c2)oc2cc(O)cc(O)c12
REMARK SMILES IDX 5 1 3 2 2 3 1 4 22 5 20 6 19 7 17 8 16 9 15 10 14 11 6 12
REMARK SMILES IDX 7 13 8 14 9 15 13 16 11 17 10 18 12 20 4 22 21 24 18 26
REMARK H PARENT 10 19 12 21 4 23 21 25 18 27
REMARK Flexibility Score: inf
ROOT
ATOM      1  C   UNL     1      18.016  25.630  40.953  1.00  0.00     0.180 A 
ATOM      2  C   UNL     1      17.702  24.297  41.268  1.00  0.00     0.208 A 
ATOM      3  C   UNL     1      18.564  23.573  42.106  1.00  0.00     0.238 A 
ATOM      4  O   UNL     1      18.315  22.358  42.323  1.00  0.00    -0.285 OA
ATOM      5  C   UNL     1      19.700  24.206  42.665  1.00  0.00     0.111 A 
ATOM      6  C   UNL     1      20.619  23.583  43.564  1.00  0.00     0.134 A 
ATOM      7  C   UNL     1      21.766  24.276  43.969  1.00  0.00     0.093 A 
ATOM      8  C   UNL     1      21.996  25.591  43.559  1.00  0.00     0.123 A 
ATOM      9  C   UNL     1      21.079  26.227  42.728  1.00  0.00     0.094 A 
ATOM     10  C   UNL     1      19.944  25.550  42.275  1.00  0.00     0.146 A 
ATOM     11  O   UNL     1      19.107  26.187  41.466  1.00  0.00    -0.452 OA
ENDROOT
BRANCH   1  12
ATOM     12  C   UNL     1      17.164  26.453  40.064  1.00  0.00     0.025 A 
ATOM     13  C   UNL     1      17.491  26.648  38.713  1.00  0.00     0.016 A 
ATOM     14  C   UNL     1      16.684  27.447  37.902  1.00  0.00     0.051 A 
ATOM     15  C   UNL     1      15.549  28.077  38.421  1.00  0.00     0.157 A 
ATOM     16  C   UNL     1      16.038  27.101  40.594  1.00  0.00     0.062 A 
ATOM     17  C   UNL     1      15.222  27.905  39.788  1.00  0.00     0.158 A 
BRANCH  15  18
ATOM     18  O   UNL     1      14.782  28.859  37.555  1.00  0.00    -0.504 OA
ATOM     19  H   UNL     1      14.118  28.484  36.892  1.00  0.00     0.293 HD
ENDBRANCH  15  18
BRANCH  17  20
ATOM     20  O   UNL     1      14.110  28.508  40.379  1.00  0.00    -0.504 OA
ATOM     21  H   UNL     1      13.616  28.126  41.172  1.00  0.00     0.293 HD
ENDBRANCH  17  20
ENDBRANCH   1  12
BRANCH   2  22
ATOM     22  O   UNL     1      16.534  23.713  40.768  1.00  0.00    -0.502 OA
ATOM     23  H   UNL     1      15.750  23.469  41.362  1.00  0.00     0.293 HD
ENDBRANCH   2  22
BRANCH   6  24
ATOM     24  O   UNL     1      20.440  22.306  44.104  1.00  0.00    -0.507 OA
ATOM     25  H   UNL     1      19.823  22.083  44.870  1.00  0.00     0.293 HD
ENDBRANCH   6  24
BRANCH   8  26
ATOM     26  O   UNL     1      23.133  26.278  43.981  1.00  0.00    -0.508 OA
ATOM     27  H   UNL     1      23.801  25.858  44.617  1.00  0.00     0.293 HD
ENDBRANCH   8  26
TORSDOF 6
ENDMDL
