MODEL 1
REMARK VINA RESULT:    -4.914      0.000      0.000
REMARK INTER + INTRA:          -5.355
REMARK INTER:                  -5.345
REMARK INTRA:                  -0.010
REMARK UNBOUND:                -0.010
REMARK SMILES COc1cc2ccc(=O)oc2cc1O
REMARK SMILES IDX 3 1 13 2 12 3 11 4 5 5 4 6 6 7 7 8 8 9 9 10 10 11 2 12 1 13
REMARK SMILES IDX 14 14
REMARK H PARENT 14 15
REMARK Flexibility Score: inf
ROOT
ATOM      1  C   UNL     1      42.214  19.855  -1.830  1.00  0.00     0.161 A 
ATOM      2  C   UNL     1      42.435  18.473  -1.928  1.00  0.00     0.161 A 
ATOM      3  C   UNL     1      43.096  17.939  -3.044  1.00  0.00     0.098 A 
ATOM      4  C   UNL     1      43.542  18.779  -4.067  1.00  0.00     0.142 A 
ATOM      5  C   UNL     1      43.325  20.170  -3.976  1.00  0.00     0.022 A 
ATOM      6  C   UNL     1      42.663  20.704  -2.862  1.00  0.00     0.062 A 
ATOM      7  C   UNL     1      43.782  20.985  -5.016  1.00  0.00     0.019 A 
ATOM      8  C   UNL     1      44.434  20.406  -6.104  1.00  0.00     0.094 A 
ATOM      9  C   UNL     1      44.614  19.019  -6.126  1.00  0.00     0.336 A 
ATOM     10  O   UNL     1      45.199  18.476  -7.100  1.00  0.00    -0.246 OA
ATOM     11  O   UNL     1      44.168  18.266  -5.124  1.00  0.00    -0.423 OA
ENDROOT
BRANCH   1  12
ATOM     12  O   UNL     1      41.548  20.346  -0.695  1.00  0.00    -0.493 OA
ATOM     13  C   UNL     1      40.133  20.410  -0.555  1.00  0.00     0.278 C 
ENDBRANCH   1  12
BRANCH   2  14
ATOM     14  O   UNL     1      41.992  17.631  -0.909  1.00  0.00    -0.504 OA
ATOM     15  H   UNL     1      41.098  17.158  -0.962  1.00  0.00     0.293 HD
ENDBRANCH   2  14
TORSDOF 2
ENDMDL
MODEL 2
REMARK VINA RESULT:    -4.397      6.917      9.266
REMARK INTER + INTRA:          -4.792
REMARK INTER:                  -4.744
REMARK INTRA:                  -0.049
REMARK UNBOUND:                -0.010
REMARK SMILES COc1cc2ccc(=O)oc2cc1O
REMARK SMILES IDX 3 1 13 2 12 3 11 4 5 5 4 6 6 7 7 8 8 9 9 10 10 11 2 12 1 13
REMARK SMILES IDX 14 14
REMARK H PARENT 14 15
REMARK Flexibility Score: inf
ROOT
ATOM      1  C   UNL     1      49.940  15.329  -5.217  1.00  0.00     0.161 A 
ATOM      2  C   UNL     1      48.746  15.973  -4.860  1.00  0.00     0.161 A 
ATOM      3  C   UNL     1      47.789  15.309  -4.078  1.00  0.00     0.098 A 
ATOM      4  C   UNL     1      48.018  14.000  -3.648  1.00  0.00     0.142 A 
ATOM      5  C   UNL     1      49.216  13.345  -4.001  1.00  0.00     0.022 A 
ATOM      6  C   UNL     1      50.172  14.008  -4.783  1.00  0.00     0.062 A 
ATOM      7  C   UNL     1      49.417  12.035  -3.555  1.00  0.00     0.019 A 
ATOM      8  C   UNL     1      48.435  11.418  -2.780  1.00  0.00     0.094 A 
ATOM      9  C   UNL     1      47.271  12.130  -2.469  1.00  0.00     0.336 A 
ATOM     10  O   UNL     1      46.373  11.590  -1.770  1.00  0.00    -0.246 OA
ATOM     11  O   UNL     1      47.106  13.375  -2.906  1.00  0.00    -0.423 OA
ENDROOT
BRANCH   1  12
ATOM     12  O   UNL     1      50.870  16.032  -6.001  1.00  0.00    -0.493 OA
ATOM     13  C   UNL     1      52.283  15.888  -5.901  1.00  0.00     0.278 C 
ENDBRANCH   1  12
BRANCH   2  14
ATOM     14  O   UNL     1      48.515  17.280  -5.289  1.00  0.00    -0.504 OA
ATOM     15  H   UNL     1      47.643  17.547  -5.729  1.00  0.00     0.293 HD
ENDBRANCH   2  14
TORSDOF 2
ENDMDL
MODEL 3
REMARK VINA RESULT:    -4.382      8.064     10.744
REMARK INTER + INTRA:          -4.776
REMARK INTER:                  -4.727
REMARK INTRA:                  -0.050
REMARK UNBOUND:                -0.010
REMARK SMILES COc1cc2ccc(=O)oc2cc1O
REMARK SMILES IDX 3 1 13 2 12 3 11 4 5 5 4 6 6 7 7 8 8 9 9 10 10 11 2 12 1 13
REMARK SMILES IDX 14 14
REMARK H PARENT 14 15
REMARK Flexibility Score: inf
ROOT
ATOM      1  C   UNL     1      52.306  14.272  -6.362  1.00  0.00     0.161 A 
ATOM      2  C   UNL     1      51.879  15.572  -6.047  1.00  0.00     0.161 A 
ATOM      3  C   UNL     1      50.718  15.771  -5.287  1.00  0.00     0.098 A 
ATOM      4  C   UNL     1      49.976  14.677  -4.835  1.00  0.00     0.142 A 
ATOM      5  C   UNL     1      50.398  13.368  -5.145  1.00  0.00     0.022 A 
ATOM      6  C   UNL     1      51.559  13.167  -5.906  1.00  0.00     0.062 A 
ATOM      7  C   UNL     1      49.634  12.293  -4.678  1.00  0.00     0.019 A 
ATOM      8  C   UNL     1      48.488  12.544  -3.926  1.00  0.00     0.094 A 
ATOM      9  C   UNL     1      48.130  13.870  -3.657  1.00  0.00     0.336 A 
ATOM     10  O   UNL     1      47.098  14.117  -2.980  1.00  0.00    -0.246 OA
ATOM     11  O   UNL     1      48.874  14.873  -4.113  1.00  0.00    -0.423 OA
ENDROOT
BRANCH   1  12
ATOM     12  O   UNL     1      53.475  14.119  -7.125  1.00  0.00    -0.493 OA
ATOM     13  C   UNL     1      54.433  13.083  -6.935  1.00  0.00     0.278 C 
ENDBRANCH   1  12
BRANCH   2  14
ATOM     14  O   UNL     1      52.618  16.665  -6.498  1.00  0.00    -0.504 OA
ATOM     15  H   UNL     1      52.733  17.497  -5.932  1.00  0.00     0.293 HD
ENDBRANCH   2  14
TORSDOF 2
ENDMDL
MODEL 4
REMARK VINA RESULT:    -4.366      1.034      1.125
REMARK INTER + INTRA:          -4.759
REMARK INTER:                  -4.697
REMARK INTRA:                  -0.062
REMARK UNBOUND:                -0.010
REMARK SMILES COc1cc2ccc(=O)oc2cc1O
REMARK SMILES IDX 3 1 13 2 12 3 11 4 5 5 4 6 6 7 7 8 8 9 9 10 10 11 2 12 1 13
REMARK SMILES IDX 14 14
REMARK H PARENT 14 15
REMARK Flexibility Score: inf
ROOT
ATOM      1  C   UNL     1      41.973  19.207  -2.678  1.00  0.00     0.161 A 
ATOM      2  C   UNL     1      42.514  17.959  -2.334  1.00  0.00     0.161 A 
ATOM      3  C   UNL     1      43.518  17.380  -3.124  1.00  0.00     0.098 A 
ATOM      4  C   UNL     1      43.990  18.042  -4.260  1.00  0.00     0.142 A 
ATOM      5  C   UNL     1      43.452  19.298  -4.612  1.00  0.00     0.022 A 
ATOM      6  C   UNL     1      42.448  19.876  -3.824  1.00  0.00     0.062 A 
ATOM      7  C   UNL     1      43.944  19.936  -5.755  1.00  0.00     0.019 A 
ATOM      8  C   UNL     1      44.943  19.319  -6.507  1.00  0.00     0.094 A 
ATOM      9  C   UNL     1      45.429  18.073  -6.097  1.00  0.00     0.336 A 
ATOM     10  O   UNL     1      46.330  17.499  -6.762  1.00  0.00    -0.246 OA
ATOM     11  O   UNL     1      44.943  17.487  -5.005  1.00  0.00    -0.423 OA
ENDROOT
BRANCH   1  12
ATOM     12  O   UNL     1      40.970  19.749  -1.858  1.00  0.00    -0.493 OA
ATOM     13  C   UNL     1      41.195  20.720  -0.842  1.00  0.00     0.278 C 
ENDBRANCH   1  12
BRANCH   2  14
ATOM     14  O   UNL     1      42.045  17.295  -1.201  1.00  0.00    -0.504 OA
ATOM     15  H   UNL     1      42.629  16.647  -0.686  1.00  0.00     0.293 HD
ENDBRANCH   2  14
TORSDOF 2
ENDMDL
MODEL 5
REMARK VINA RESULT:    -4.262      7.250      8.777
REMARK INTER + INTRA:          -4.645
REMARK INTER:                  -4.587
REMARK INTRA:                  -0.058
REMARK UNBOUND:                -0.010
REMARK SMILES COc1cc2ccc(=O)oc2cc1O
REMARK SMILES IDX 3 1 13 2 12 3 11 4 5 5 4 6 6 7 7 8 8 9 9 10 10 11 2 12 1 13
REMARK SMILES IDX 14 14
REMARK H PARENT 14 15
REMARK Flexibility Score: inf
ROOT
ATOM      1  C   UNL     1      48.334  13.292  -3.610  1.00  0.00     0.161 A 
ATOM      2  C   UNL     1      47.958  14.639  -3.729  1.00  0.00     0.161 A 
ATOM      3  C   UNL     1      48.747  15.532  -4.468  1.00  0.00     0.098 A 
ATOM      4  C   UNL     1      49.915  15.089  -5.093  1.00  0.00     0.142 A 
ATOM      5  C   UNL     1      50.300  13.736  -4.980  1.00  0.00     0.022 A 
ATOM      6  C   UNL     1      49.512  12.843  -4.240  1.00  0.00     0.062 A 
ATOM      7  C   UNL     1      51.474  13.322  -5.617  1.00  0.00     0.019 A 
ATOM      8  C   UNL     1      52.224  14.248  -6.340  1.00  0.00     0.094 A 
ATOM      9  C   UNL     1      51.780  15.573  -6.409  1.00  0.00     0.336 A 
ATOM     10  O   UNL     1      52.443  16.425  -7.057  1.00  0.00    -0.246 OA
ATOM     11  O   UNL     1      50.660  15.941  -5.793  1.00  0.00    -0.423 OA
ENDROOT
BRANCH   1  12
ATOM     12  O   UNL     1      47.514  12.433  -2.860  1.00  0.00    -0.493 OA
ATOM     13  C   UNL     1      47.727  12.106  -1.491  1.00  0.00     0.278 C 
ENDBRANCH   1  12
BRANCH   2  14
ATOM     14  O   UNL     1      46.793  15.085  -3.106  1.00  0.00    -0.504 OA
ATOM     15  H   UNL     1      46.139  14.440  -2.679  1.00  0.00     0.293 HD
ENDBRANCH   2  14
TORSDOF 2
ENDMDL
MODEL 6
REMARK VINA RESULT:    -4.260      1.688      2.745
REMARK INTER + INTRA:          -4.644
REMARK INTER:                  -4.580
REMARK INTRA:                  -0.064
REMARK UNBOUND:                -0.010
REMARK SMILES COc1cc2ccc(=O)oc2cc1O
REMARK SMILES IDX 3 1 13 2 12 3 11 4 5 5 4 6 6 7 7 8 8 9 9 10 10 11 2 12 1 13
REMARK SMILES IDX 14 14
REMARK H PARENT 14 15
REMARK Flexibility Score: inf
ROOT
ATOM      1  C   UNL     1      42.568  17.548  -2.658  1.00  0.00     0.161 A 
ATOM      2  C   UNL     1      42.379  18.810  -2.076  1.00  0.00     0.161 A 
ATOM      3  C   UNL     1      42.786  19.971  -2.751  1.00  0.00     0.098 A 
ATOM      4  C   UNL     1      43.382  19.880  -4.011  1.00  0.00     0.142 A 
ATOM      5  C   UNL     1      43.575  18.615  -4.605  1.00  0.00     0.022 A 
ATOM      6  C   UNL     1      43.170  17.455  -3.930  1.00  0.00     0.062 A 
ATOM      7  C   UNL     1      44.175  18.556  -5.867  1.00  0.00     0.019 A 
ATOM      8  C   UNL     1      44.561  19.738  -6.497  1.00  0.00     0.094 A 
ATOM      9  C   UNL     1      44.338  20.957  -5.847  1.00  0.00     0.336 A 
ATOM     10  O   UNL     1      44.680  22.035  -6.399  1.00  0.00    -0.246 OA
ATOM     11  O   UNL     1      43.766  20.984  -4.646  1.00  0.00    -0.423 OA
ENDROOT
BRANCH   1  12
ATOM     12  O   UNL     1      42.146  16.414  -1.947  1.00  0.00    -0.493 OA
ATOM     13  C   UNL     1      41.051  15.586  -2.324  1.00  0.00     0.278 C 
ENDBRANCH   1  12
BRANCH   2  14
ATOM     14  O   UNL     1      41.784  18.905  -0.818  1.00  0.00    -0.504 OA
ATOM     15  H   UNL     1      42.293  18.681   0.028  1.00  0.00     0.293 HD
ENDBRANCH   2  14
TORSDOF 2
ENDMDL
MODEL 7
REMARK VINA RESULT:    -4.257      6.582      7.741
REMARK INTER + INTRA:          -4.641
REMARK INTER:                  -4.581
REMARK INTRA:                  -0.060
REMARK UNBOUND:                -0.010
REMARK SMILES COc1cc2ccc(=O)oc2cc1O
REMARK SMILES IDX 3 1 13 2 12 3 11 4 5 5 4 6 6 7 7 8 8 9 9 10 10 11 2 12 1 13
REMARK SMILES IDX 14 14
REMARK H PARENT 14 15
REMARK Flexibility Score: inf
ROOT
ATOM      1  C   UNL     1      47.727  13.346  -3.107  1.00  0.00     0.161 A 
ATOM      2  C   UNL     1      48.986  12.862  -3.494  1.00  0.00     0.161 A 
ATOM      3  C   UNL     1      49.778  13.587  -4.397  1.00  0.00     0.098 A 
ATOM      4  C   UNL     1      49.320  14.799  -4.918  1.00  0.00     0.142 A 
ATOM      5  C   UNL     1      48.055  15.294  -4.534  1.00  0.00     0.022 A 
ATOM      6  C   UNL     1      47.264  14.569  -3.632  1.00  0.00     0.062 A 
ATOM      7  C   UNL     1      47.624  16.510  -5.073  1.00  0.00     0.019 A 
ATOM      8  C   UNL     1      48.448  17.193  -5.967  1.00  0.00     0.094 A 
ATOM      9  C   UNL     1      49.689  16.641  -6.302  1.00  0.00     0.336 A 
ATOM     10  O   UNL     1      50.447  17.243  -7.107  1.00  0.00    -0.246 OA
ATOM     11  O   UNL     1      50.075  15.483  -5.775  1.00  0.00    -0.423 OA
ENDROOT
BRANCH   1  12
ATOM     12  O   UNL     1      46.969  12.587  -2.201  1.00  0.00    -0.493 OA
ATOM     13  C   UNL     1      45.943  11.674  -2.574  1.00  0.00     0.278 C 
ENDBRANCH   1  12
BRANCH   2  14
ATOM     14  O   UNL     1      49.446  11.652  -2.975  1.00  0.00    -0.504 OA
ATOM     15  H   UNL     1      50.038  11.033  -3.516  1.00  0.00     0.293 HD
ENDBRANCH   2  14
TORSDOF 2
ENDMDL
MODEL 8
REMARK VINA RESULT:    -4.248      1.939      4.838
REMARK INTER + INTRA:          -4.631
REMARK INTER:                  -4.566
REMARK INTRA:                  -0.064
REMARK UNBOUND:                -0.010
REMARK SMILES COc1cc2ccc(=O)oc2cc1O
REMARK SMILES IDX 3 1 13 2 12 3 11 4 5 5 4 6 6 7 7 8 8 9 9 10 10 11 2 12 1 13
REMARK SMILES IDX 14 14
REMARK H PARENT 14 15
REMARK Flexibility Score: inf
ROOT
ATOM      1  C   UNL     1      44.025  16.703  -3.836  1.00  0.00     0.161 A 
ATOM      2  C   UNL     1      43.172  16.034  -2.945  1.00  0.00     0.161 A 
ATOM      3  C   UNL     1      42.289  16.759  -2.131  1.00  0.00     0.098 A 
ATOM      4  C   UNL     1      42.249  18.153  -2.202  1.00  0.00     0.142 A 
ATOM      5  C   UNL     1      43.103  18.834  -3.096  1.00  0.00     0.022 A 
ATOM      6  C   UNL     1      43.987  18.110  -3.909  1.00  0.00     0.062 A 
ATOM      7  C   UNL     1      43.041  20.230  -3.144  1.00  0.00     0.019 A 
ATOM      8  C   UNL     1      42.145  20.904  -2.315  1.00  0.00     0.094 A 
ATOM      9  C   UNL     1      41.329  20.163  -1.454  1.00  0.00     0.336 A 
ATOM     10  O   UNL     1      40.514  20.753  -0.697  1.00  0.00    -0.246 OA
ATOM     11  O   UNL     1      41.409  18.835  -1.428  1.00  0.00    -0.423 OA
ENDROOT
BRANCH   1  12
ATOM     12  O   UNL     1      44.894  15.938  -4.631  1.00  0.00    -0.493 OA
ATOM     13  C   UNL     1      46.304  15.870  -4.451  1.00  0.00     0.278 C 
ENDBRANCH   1  12
BRANCH   2  14
ATOM     14  O   UNL     1      43.209  14.642  -2.872  1.00  0.00    -0.504 OA
ATOM     15  H   UNL     1      43.208  14.067  -3.705  1.00  0.00     0.293 HD
ENDBRANCH   2  14
TORSDOF 2
ENDMDL
MODEL 9
REMARK VINA RESULT:    -4.064      2.386      3.725
REMARK INTER + INTRA:          -4.430
REMARK INTER:                  -4.381
REMARK INTRA:                  -0.049
REMARK UNBOUND:                -0.010
REMARK SMILES COc1cc2ccc(=O)oc2cc1O
REMARK SMILES IDX 3 1 13 2 12 3 11 4 5 5 4 6 6 7 7 8 8 9 9 10 10 11 2 12 1 13
REMARK SMILES IDX 14 14
REMARK H PARENT 14 15
REMARK Flexibility Score: inf
ROOT
ATOM      1  C   UNL     1      43.567  16.714  -3.001  1.00  0.00     0.161 A 
ATOM      2  C   UNL     1      42.320  17.019  -2.436  1.00  0.00     0.161 A 
ATOM      3  C   UNL     1      41.647  18.196  -2.796  1.00  0.00     0.098 A 
ATOM      4  C   UNL     1      42.214  19.075  -3.722  1.00  0.00     0.142 A 
ATOM      5  C   UNL     1      43.467  18.776  -4.297  1.00  0.00     0.022 A 
ATOM      6  C   UNL     1      44.140  17.600  -3.936  1.00  0.00     0.062 A 
ATOM      7  C   UNL     1      44.008  19.675  -5.221  1.00  0.00     0.019 A 
ATOM      8  C   UNL     1      43.301  20.831  -5.546  1.00  0.00     0.094 A 
ATOM      9  C   UNL     1      42.063  21.062  -4.936  1.00  0.00     0.336 A 
ATOM     10  O   UNL     1      41.408  22.101  -5.216  1.00  0.00    -0.246 OA
ATOM     11  O   UNL     1      41.571  20.190  -4.060  1.00  0.00    -0.423 OA
ENDROOT
BRANCH   1  12
ATOM     12  O   UNL     1      44.204  15.525  -2.612  1.00  0.00    -0.493 OA
ATOM     13  C   UNL     1      44.982  14.705  -3.478  1.00  0.00     0.278 C 
ENDBRANCH   1  12
BRANCH   2  14
ATOM     14  O   UNL     1      41.752  16.144  -1.511  1.00  0.00    -0.504 OA
ATOM     15  H   UNL     1      42.042  15.176  -1.448  1.00  0.00     0.293 HD
ENDBRANCH   2  14
TORSDOF 2
ENDMDL
