MODEL 1
REMARK VINA RESULT:    -4.040      0.000      0.000
REMARK INTER + INTRA:          -8.597
REMARK INTER:                  -7.346
REMARK INTRA:                  -1.251
REMARK UNBOUND:                -1.251
REMARK SMILES CCCCCCCCCCCCCCCC(=O)[O-]
REMARK SMILES IDX 9 1 10 2 11 3 12 4 13 5 14 6 15 7 16 8 17 9 18 10 8 11 7 12
REMARK SMILES IDX 6 13 5 14 4 15 3 16 2 17 1 18
REMARK H PARENT
REMARK Flexibility Score: inf
ROOT
ATOM      1  C   UNL     1      -0.422  12.103  -4.213  1.00  0.00     0.000 C 
ENDROOT
BRANCH   1   2
ATOM      2  C   UNL     1       0.437  11.866  -2.957  1.00  0.00     0.000 C 
BRANCH   2   3
ATOM      3  C   UNL     1       1.453  10.726  -3.139  1.00  0.00     0.000 C 
BRANCH   3   4
ATOM      4  C   UNL     1       1.764   9.991  -1.827  1.00  0.00     0.000 C 
BRANCH   4   5
ATOM      5  C   UNL     1       0.538   9.870  -0.904  1.00  0.00     0.000 C 
BRANCH   5   6
ATOM      6  C   UNL     1       0.753   8.868   0.241  1.00  0.00     0.006 C 
BRANCH   6   7
ATOM      7  C   UNL     1       1.709   7.730  -0.139  1.00  0.00     0.053 C 
BRANCH   7   8
ATOM      8  C   UNL     1       2.795   7.597   0.883  1.00  0.00     0.041 C 
ATOM      9  O   UNL     1       3.663   8.503   1.004  1.00  0.00    -0.550 OA
ATOM     10  O   UNL     1       2.816   6.503   1.737  1.00  0.00    -0.550 OA
ENDBRANCH   7   8
ENDBRANCH   6   7
ENDBRANCH   5   6
ENDBRANCH   4   5
ENDBRANCH   3   4
ENDBRANCH   2   3
ENDBRANCH   1   2
BRANCH   1  11
ATOM     11  C   UNL     1      -1.754  11.325  -4.253  1.00  0.00     0.000 C 
BRANCH  11  12
ATOM     12  C   UNL     1      -2.956  12.113  -4.810  1.00  0.00    -0.000 C 
BRANCH  12  13
ATOM     13  C   UNL     1      -2.586  13.323  -5.692  1.00  0.00    -0.000 C 
BRANCH  13  14
ATOM     14  C   UNL     1      -3.027  14.694  -5.137  1.00  0.00    -0.000 C 
BRANCH  14  15
ATOM     15  C   UNL     1      -1.875  15.638  -4.750  1.00  0.00    -0.000 C 
BRANCH  15  16
ATOM     16  C   UNL     1      -1.783  15.875  -3.233  1.00  0.00    -0.000 C 
BRANCH  16  17
ATOM     17  C   UNL     1      -0.343  15.757  -2.708  1.00  0.00    -0.003 C 
ATOM     18  C   UNL     1      -0.269  15.832  -1.183  1.00  0.00     0.004 C 
ENDBRANCH  16  17
ENDBRANCH  15  16
ENDBRANCH  14  15
ENDBRANCH  13  14
ENDBRANCH  12  13
ENDBRANCH  11  12
ENDBRANCH   1  11
TORSDOF 14
ENDMDL
MODEL 2
REMARK VINA RESULT:    -3.985      1.032      1.748
REMARK INTER + INTRA:          -8.497
REMARK INTER:                  -7.261
REMARK INTRA:                  -1.236
REMARK UNBOUND:                -1.251
REMARK SMILES CCCCCCCCCCCCCCCC(=O)[O-]
REMARK SMILES IDX 9 1 10 2 11 3 12 4 13 5 14 6 15 7 16 8 17 9 18 10 8 11 7 12
REMARK SMILES IDX 6 13 5 14 4 15 3 16 2 17 1 18
REMARK H PARENT
REMARK Flexibility Score: inf
ROOT
ATOM      1  C   UNL     1      -1.764  11.757  -4.693  1.00  0.00     0.000 C 
ENDROOT
BRANCH   1   2
ATOM      2  C   UNL     1      -0.765  12.525  -3.809  1.00  0.00     0.000 C 
BRANCH   2   3
ATOM      3  C   UNL     1       0.664  11.963  -3.902  1.00  0.00     0.000 C 
BRANCH   3   4
ATOM      4  C   UNL     1       1.009  11.018  -2.742  1.00  0.00     0.000 C 
BRANCH   4   5
ATOM      5  C   UNL     1       2.305  10.224  -2.983  1.00  0.00     0.000 C 
BRANCH   5   6
ATOM      6  C   UNL     1       2.697   9.347  -1.783  1.00  0.00     0.006 C 
BRANCH   6   7
ATOM      7  C   UNL     1       1.584   9.250  -0.732  1.00  0.00     0.053 C 
BRANCH   7   8
ATOM      8  C   UNL     1       2.048   8.456   0.449  1.00  0.00     0.041 C 
ATOM      9  O   UNL     1       3.205   8.635   0.915  1.00  0.00    -0.550 OA
ATOM     10  O   UNL     1       1.185   7.562   1.068  1.00  0.00    -0.550 OA
ENDBRANCH   7   8
ENDBRANCH   6   7
ENDBRANCH   5   6
ENDBRANCH   4   5
ENDBRANCH   3   4
ENDBRANCH   2   3
ENDBRANCH   1   2
BRANCH   1  11
ATOM     11  C   UNL     1      -3.036  12.541  -5.079  1.00  0.00     0.000 C 
BRANCH  11  12
ATOM     12  C   UNL     1      -3.060  14.013  -4.619  1.00  0.00    -0.000 C 
BRANCH  12  13
ATOM     13  C   UNL     1      -2.698  15.039  -5.711  1.00  0.00    -0.000 C 
BRANCH  13  14
ATOM     14  C   UNL     1      -1.208  15.440  -5.761  1.00  0.00    -0.000 C 
BRANCH  14  15
ATOM     15  C   UNL     1      -0.833  16.653  -4.891  1.00  0.00    -0.000 C 
BRANCH  15  16
ATOM     16  C   UNL     1      -0.013  16.264  -3.649  1.00  0.00    -0.000 C 
BRANCH  16  17
ATOM     17  C   UNL     1      -0.900  15.987  -2.424  1.00  0.00    -0.003 C 
ATOM     18  C   UNL     1      -0.090  15.848  -1.135  1.00  0.00     0.004 C 
ENDBRANCH  16  17
ENDBRANCH  15  16
ENDBRANCH  14  15
ENDBRANCH  13  14
ENDBRANCH  12  13
ENDBRANCH  11  12
ENDBRANCH   1  11
TORSDOF 14
ENDMDL
MODEL 3
REMARK VINA RESULT:    -3.896      3.117      7.563
REMARK INTER + INTRA:          -8.336
REMARK INTER:                  -7.372
REMARK INTRA:                  -0.964
REMARK UNBOUND:                -1.251
REMARK SMILES CCCCCCCCCCCCCCCC(=O)[O-]
REMARK SMILES IDX 9 1 10 2 11 3 12 4 13 5 14 6 15 7 16 8 17 9 18 10 8 11 7 12
REMARK SMILES IDX 6 13 5 14 4 15 3 16 2 17 1 18
REMARK H PARENT
REMARK Flexibility Score: inf
ROOT
ATOM      1  C   UNL     1      -1.501  11.603  -4.551  1.00  0.00     0.000 C 
ENDROOT
BRANCH   1   2
ATOM      2  C   UNL     1      -2.827  12.384  -4.622  1.00  0.00     0.000 C 
BRANCH   2   3
ATOM      3  C   UNL     1      -2.962  13.208  -5.914  1.00  0.00     0.000 C 
BRANCH   3   4
ATOM      4  C   UNL     1      -3.091  14.715  -5.647  1.00  0.00     0.000 C 
BRANCH   4   5
ATOM      5  C   UNL     1      -1.776  15.350  -5.161  1.00  0.00     0.000 C 
BRANCH   5   6
ATOM      6  C   UNL     1      -1.846  15.812  -3.697  1.00  0.00     0.006 C 
BRANCH   6   7
ATOM      7  C   UNL     1      -0.471  15.833  -3.016  1.00  0.00     0.053 C 
BRANCH   7   8
ATOM      8  C   UNL     1      -0.625  15.868  -1.527  1.00  0.00     0.041 C 
ATOM      9  O   UNL     1       0.393  15.845  -0.786  1.00  0.00    -0.550 OA
ATOM     10  O   UNL     1      -1.888  15.983  -0.962  1.00  0.00    -0.550 OA
ENDBRANCH   7   8
ENDBRANCH   6   7
ENDBRANCH   5   6
ENDBRANCH   4   5
ENDBRANCH   3   4
ENDBRANCH   2   3
ENDBRANCH   1   2
BRANCH   1  11
ATOM     11  C   UNL     1      -0.402  12.255  -3.686  1.00  0.00     0.000 C 
BRANCH  11  12
ATOM     12  C   UNL     1       0.841  11.378  -3.438  1.00  0.00    -0.000 C 
BRANCH  12  13
ATOM     13  C   UNL     1       0.932  10.766  -2.026  1.00  0.00    -0.000 C 
BRANCH  13  14
ATOM     14  C   UNL     1       2.023   9.688  -1.851  1.00  0.00    -0.000 C 
BRANCH  14  15
ATOM     15  C   UNL     1       2.298   9.274  -0.395  1.00  0.00    -0.000 C 
BRANCH  15  16
ATOM     16  C   UNL     1       1.105   8.551   0.254  1.00  0.00    -0.000 C 
BRANCH  16  17
ATOM     17  C   UNL     1       1.533   7.295   1.030  1.00  0.00    -0.003 C 
ATOM     18  C   UNL     1       3.050   7.201   1.197  1.00  0.00     0.004 C 
ENDBRANCH  16  17
ENDBRANCH  15  16
ENDBRANCH  14  15
ENDBRANCH  13  14
ENDBRANCH  12  13
ENDBRANCH  11  12
ENDBRANCH   1  11
TORSDOF 14
ENDMDL
MODEL 4
REMARK VINA RESULT:    -3.794      3.096      7.152
REMARK INTER + INTRA:          -8.149
REMARK INTER:                  -7.022
REMARK INTRA:                  -1.127
REMARK UNBOUND:                -1.251
REMARK SMILES CCCCCCCCCCCCCCCC(=O)[O-]
REMARK SMILES IDX 9 1 10 2 11 3 12 4 13 5 14 6 15 7 16 8 17 9 18 10 8 11 7 12
REMARK SMILES IDX 6 13 5 14 4 15 3 16 2 17 1 18
REMARK H PARENT
REMARK Flexibility Score: inf
ROOT
ATOM      1  C   UNL     1      -2.951  12.126  -4.868  1.00  0.00     0.000 C 
ENDROOT
BRANCH   1   2
ATOM      2  C   UNL     1      -2.871  13.652  -4.668  1.00  0.00     0.000 C 
BRANCH   2   3
ATOM      3  C   UNL     1      -3.174  14.436  -5.956  1.00  0.00     0.000 C 
BRANCH   3   4
ATOM      4  C   UNL     1      -2.396  15.757  -6.045  1.00  0.00     0.000 C 
BRANCH   4   5
ATOM      5  C   UNL     1      -1.045  15.705  -5.310  1.00  0.00     0.000 C 
BRANCH   5   6
ATOM      6  C   UNL     1      -1.084  16.411  -3.945  1.00  0.00     0.006 C 
BRANCH   6   7
ATOM      7  C   UNL     1      -0.060  15.841  -2.954  1.00  0.00     0.053 C 
BRANCH   7   8
ATOM      8  C   UNL     1      -0.594  15.905  -1.557  1.00  0.00     0.041 C 
ATOM      9  O   UNL     1      -1.834  16.009  -1.358  1.00  0.00    -0.550 OA
ATOM     10  O   UNL     1       0.271  15.792  -0.477  1.00  0.00    -0.550 OA
ENDBRANCH   7   8
ENDBRANCH   6   7
ENDBRANCH   5   6
ENDBRANCH   4   5
ENDBRANCH   3   4
ENDBRANCH   2   3
ENDBRANCH   1   2
BRANCH   1  11
ATOM     11  C   UNL     1      -1.733  11.333  -4.351  1.00  0.00     0.000 C 
BRANCH  11  12
ATOM     12  C   UNL     1      -0.442  12.158  -4.176  1.00  0.00    -0.000 C 
BRANCH  12  13
ATOM     13  C   UNL     1       0.404  11.783  -2.943  1.00  0.00    -0.000 C 
BRANCH  13  14
ATOM     14  C   UNL     1       1.616  10.874  -3.235  1.00  0.00    -0.000 C 
BRANCH  14  15
ATOM     15  C   UNL     1       2.043   9.966  -2.068  1.00  0.00    -0.000 C 
BRANCH  15  16
ATOM     16  C   UNL     1       1.033   9.975  -0.907  1.00  0.00    -0.000 C 
BRANCH  16  17
ATOM     17  C   UNL     1       1.248   8.802   0.063  1.00  0.00    -0.003 C 
ATOM     18  C   UNL     1       2.241   7.772  -0.475  1.00  0.00     0.004 C 
ENDBRANCH  16  17
ENDBRANCH  15  16
ENDBRANCH  14  15
ENDBRANCH  13  14
ENDBRANCH  12  13
ENDBRANCH  11  12
ENDBRANCH   1  11
TORSDOF 14
ENDMDL
MODEL 5
REMARK VINA RESULT:    -3.750      3.122      7.506
REMARK INTER + INTRA:          -8.071
REMARK INTER:                  -7.018
REMARK INTRA:                  -1.053
REMARK UNBOUND:                -1.251
REMARK SMILES CCCCCCCCCCCCCCCC(=O)[O-]
REMARK SMILES IDX 9 1 10 2 11 3 12 4 13 5 14 6 15 7 16 8 17 9 18 10 8 11 7 12
REMARK SMILES IDX 6 13 5 14 4 15 3 16 2 17 1 18
REMARK H PARENT
REMARK Flexibility Score: inf
ROOT
ATOM      1  C   UNL     1      -0.009  12.246  -3.846  1.00  0.00     0.000 C 
ENDROOT
BRANCH   1   2
ATOM      2  C   UNL     1      -1.374  11.730  -4.338  1.00  0.00     0.000 C 
BRANCH   2   3
ATOM      3  C   UNL     1      -2.271  12.852  -4.887  1.00  0.00     0.000 C 
BRANCH   3   4
ATOM      4  C   UNL     1      -1.530  14.190  -5.030  1.00  0.00     0.000 C 
BRANCH   4   5
ATOM      5  C   UNL     1      -2.259  15.353  -4.335  1.00  0.00     0.000 C 
BRANCH   5   6
ATOM      6  C   UNL     1      -1.291  16.381  -3.726  1.00  0.00     0.006 C 
BRANCH   6   7
ATOM      7  C   UNL     1      -0.205  15.732  -2.859  1.00  0.00     0.053 C 
BRANCH   7   8
ATOM      8  C   UNL     1      -0.532  15.890  -1.406  1.00  0.00     0.041 C 
ATOM      9  O   UNL     1      -1.729  16.037  -1.041  1.00  0.00    -0.550 OA
ATOM     10  O   UNL     1       0.476  15.816  -0.455  1.00  0.00    -0.550 OA
ENDBRANCH   7   8
ENDBRANCH   6   7
ENDBRANCH   5   6
ENDBRANCH   4   5
ENDBRANCH   3   4
ENDBRANCH   2   3
ENDBRANCH   1   2
BRANCH   1  11
ATOM     11  C   UNL     1       0.783  11.263  -2.959  1.00  0.00     0.000 C 
BRANCH  11  12
ATOM     12  C   UNL     1       2.210  10.945  -3.448  1.00  0.00    -0.000 C 
BRANCH  12  13
ATOM     13  C   UNL     1       2.745   9.560  -3.034  1.00  0.00    -0.000 C 
BRANCH  13  14
ATOM     14  C   UNL     1       3.589   9.545  -1.742  1.00  0.00    -0.000 C 
BRANCH  14  15
ATOM     15  C   UNL     1       3.485   8.252  -0.914  1.00  0.00    -0.000 C 
BRANCH  15  16
ATOM     16  C   UNL     1       2.869   8.482   0.476  1.00  0.00    -0.000 C 
BRANCH  16  17
ATOM     17  C   UNL     1       1.381   8.098   0.528  1.00  0.00    -0.003 C 
ATOM     18  C   UNL     1       0.469   9.228   0.048  1.00  0.00     0.004 C 
ENDBRANCH  16  17
ENDBRANCH  15  16
ENDBRANCH  14  15
ENDBRANCH  13  14
ENDBRANCH  12  13
ENDBRANCH  11  12
ENDBRANCH   1  11
TORSDOF 14
ENDMDL
MODEL 6
REMARK VINA RESULT:    -3.687      1.339      1.761
REMARK INTER + INTRA:          -7.956
REMARK INTER:                  -6.784
REMARK INTRA:                  -1.173
REMARK UNBOUND:                -1.251
REMARK SMILES CCCCCCCCCCCCCCCC(=O)[O-]
REMARK SMILES IDX 9 1 10 2 11 3 12 4 13 5 14 6 15 7 16 8 17 9 18 10 8 11 7 12
REMARK SMILES IDX 6 13 5 14 4 15 3 16 2 17 1 18
REMARK H PARENT
REMARK Flexibility Score: inf
ROOT
ATOM      1  C   UNL     1       0.062  12.140  -3.874  1.00  0.00     0.000 C 
ENDROOT
BRANCH   1   2
ATOM      2  C   UNL     1       0.919  11.249  -2.957  1.00  0.00     0.000 C 
BRANCH   2   3
ATOM      3  C   UNL     1       2.281  10.893  -3.577  1.00  0.00     0.000 C 
BRANCH   3   4
ATOM      4  C   UNL     1       2.835   9.554  -3.070  1.00  0.00     0.000 C 
BRANCH   4   5
ATOM      5  C   UNL     1       4.004   9.725  -2.084  1.00  0.00     0.000 C 
BRANCH   5   6
ATOM      6  C   UNL     1       3.757   9.018  -0.741  1.00  0.00     0.006 C 
BRANCH   6   7
ATOM      7  C   UNL     1       2.612   8.000  -0.810  1.00  0.00     0.053 C 
BRANCH   7   8
ATOM      8  C   UNL     1       1.591   8.289   0.247  1.00  0.00     0.041 C 
ATOM      9  O   UNL     1       1.342   7.431   1.135  1.00  0.00    -0.550 OA
ATOM     10  O   UNL     1       0.960   9.525   0.283  1.00  0.00    -0.550 OA
ENDBRANCH   7   8
ENDBRANCH   6   7
ENDBRANCH   5   6
ENDBRANCH   4   5
ENDBRANCH   3   4
ENDBRANCH   2   3
ENDBRANCH   1   2
BRANCH   1  11
ATOM     11  C   UNL     1      -1.437  11.778  -3.926  1.00  0.00     0.000 C 
BRANCH  11  12
ATOM     12  C   UNL     1      -2.220  12.398  -5.100  1.00  0.00    -0.000 C 
BRANCH  12  13
ATOM     13  C   UNL     1      -3.182  13.537  -4.709  1.00  0.00    -0.000 C 
BRANCH  13  14
ATOM     14  C   UNL     1      -2.904  14.891  -5.397  1.00  0.00    -0.000 C 
BRANCH  14  15
ATOM     15  C   UNL     1      -1.701  15.668  -4.834  1.00  0.00    -0.000 C 
BRANCH  15  16
ATOM     16  C   UNL     1      -1.761  15.834  -3.306  1.00  0.00    -0.000 C 
BRANCH  16  17
ATOM     17  C   UNL     1      -0.364  15.922  -2.671  1.00  0.00    -0.003 C 
ATOM     18  C   UNL     1      -0.416  15.925  -1.143  1.00  0.00     0.004 C 
ENDBRANCH  16  17
ENDBRANCH  15  16
ENDBRANCH  14  15
ENDBRANCH  13  14
ENDBRANCH  12  13
ENDBRANCH  11  12
ENDBRANCH   1  11
TORSDOF 14
ENDMDL
MODEL 7
REMARK VINA RESULT:    -3.550      4.576      8.896
REMARK INTER + INTRA:          -7.707
REMARK INTER:                  -7.030
REMARK INTRA:                  -0.677
REMARK UNBOUND:                -1.251
REMARK SMILES CCCCCCCCCCCCCCCC(=O)[O-]
REMARK SMILES IDX 9 1 10 2 11 3 12 4 13 5 14 6 15 7 16 8 17 9 18 10 8 11 7 12
REMARK SMILES IDX 6 13 5 14 4 15 3 16 2 17 1 18
REMARK H PARENT
REMARK Flexibility Score: inf
ROOT
ATOM      1  C   UNL     1      -0.459  12.414  -4.173  1.00  0.00     0.000 C 
ENDROOT
BRANCH   1   2
ATOM      2  C   UNL     1      -1.713  11.541  -4.362  1.00  0.00     0.000 C 
BRANCH   2   3
ATOM      3  C   UNL     1      -2.979  12.372  -4.636  1.00  0.00     0.000 C 
BRANCH   3   4
ATOM      4  C   UNL     1      -2.987  13.001  -6.037  1.00  0.00     0.000 C 
BRANCH   4   5
ATOM      5  C   UNL     1      -3.142  14.532  -6.003  1.00  0.00     0.000 C 
BRANCH   5   6
ATOM      6  C   UNL     1      -1.806  15.259  -5.781  1.00  0.00     0.006 C 
BRANCH   6   7
ATOM      7  C   UNL     1      -1.901  16.361  -4.718  1.00  0.00     0.053 C 
BRANCH   7   8
ATOM      8  C   UNL     1      -1.563  17.693  -5.313  1.00  0.00     0.041 C 
ATOM      9  O   UNL     1      -2.480  18.509  -5.597  1.00  0.00    -0.550 OA
ATOM     10  O   UNL     1      -0.235  18.054  -5.499  1.00  0.00    -0.550 OA
ENDBRANCH   7   8
ENDBRANCH   6   7
ENDBRANCH   5   6
ENDBRANCH   4   5
ENDBRANCH   3   4
ENDBRANCH   2   3
ENDBRANCH   1   2
BRANCH   1  11
ATOM     11  C   UNL     1       0.739  11.704  -3.508  1.00  0.00     0.000 C 
BRANCH  11  12
ATOM     12  C   UNL     1       0.367  10.644  -2.453  1.00  0.00    -0.000 C 
BRANCH  12  13
ATOM     13  C   UNL     1       1.512  10.249  -1.498  1.00  0.00    -0.000 C 
BRANCH  13  14
ATOM     14  C   UNL     1       1.083   9.404  -0.280  1.00  0.00    -0.000 C 
BRANCH  14  15
ATOM     15  C   UNL     1       2.195   8.532   0.328  1.00  0.00    -0.000 C 
BRANCH  15  16
ATOM     16  C   UNL     1       1.666   7.203   0.896  1.00  0.00    -0.000 C 
BRANCH  16  17
ATOM     17  C   UNL     1       2.732   6.448   1.707  1.00  0.00    -0.003 C 
ATOM     18  C   UNL     1       4.125   7.058   1.552  1.00  0.00     0.004 C 
ENDBRANCH  16  17
ENDBRANCH  15  16
ENDBRANCH  14  15
ENDBRANCH  13  14
ENDBRANCH  12  13
ENDBRANCH  11  12
ENDBRANCH   1  11
TORSDOF 14
ENDMDL
MODEL 8
REMARK VINA RESULT:    -3.478      1.614      2.987
REMARK INTER + INTRA:          -7.576
REMARK INTER:                  -6.284
REMARK INTRA:                  -1.291
REMARK UNBOUND:                -1.251
REMARK SMILES CCCCCCCCCCCCCCCC(=O)[O-]
REMARK SMILES IDX 9 1 10 2 11 3 12 4 13 5 14 6 15 7 16 8 17 9 18 10 8 11 7 12
REMARK SMILES IDX 6 13 5 14 4 15 3 16 2 17 1 18
REMARK H PARENT
REMARK Flexibility Score: inf
ROOT
ATOM      1  C   UNL     1       0.317  11.607  -3.392  1.00  0.00     0.000 C 
ENDROOT
BRANCH   1   2
ATOM      2  C   UNL     1       1.342  10.933  -2.460  1.00  0.00     0.000 C 
BRANCH   2   3
ATOM      3  C   UNL     1       2.402  10.125  -3.228  1.00  0.00     0.000 C 
BRANCH   3   4
ATOM      4  C   UNL     1       3.647   9.823  -2.383  1.00  0.00     0.000 C 
BRANCH   4   5
ATOM      5  C   UNL     1       3.974   8.321  -2.315  1.00  0.00     0.000 C 
BRANCH   5   6
ATOM      6  C   UNL     1       4.118   7.809  -0.873  1.00  0.00     0.006 C 
BRANCH   6   7
ATOM      7  C   UNL     1       3.243   8.583   0.121  1.00  0.00     0.053 C 
BRANCH   7   8
ATOM      8  C   UNL     1       1.946   7.868   0.344  1.00  0.00     0.041 C 
ATOM      9  O   UNL     1       1.008   7.988  -0.488  1.00  0.00    -0.550 OA
ATOM     10  O   UNL     1       1.796   7.026   1.438  1.00  0.00    -0.550 OA
ENDBRANCH   7   8
ENDBRANCH   6   7
ENDBRANCH   5   6
ENDBRANCH   4   5
ENDBRANCH   3   4
ENDBRANCH   2   3
ENDBRANCH   1   2
BRANCH   1  11
ATOM     11  C   UNL     1       0.875  12.757  -4.256  1.00  0.00     0.000 C 
BRANCH  11  12
ATOM     12  C   UNL     1       0.202  14.126  -4.035  1.00  0.00    -0.000 C 
BRANCH  12  13
ATOM     13  C   UNL     1      -0.015  14.957  -5.316  1.00  0.00    -0.000 C 
BRANCH  13  14
ATOM     14  C   UNL     1      -1.490  15.143  -5.731  1.00  0.00    -0.000 C 
BRANCH  14  15
ATOM     15  C   UNL     1      -2.502  15.074  -4.574  1.00  0.00    -0.000 C 
BRANCH  15  16
ATOM     16  C   UNL     1      -3.481  13.895  -4.709  1.00  0.00    -0.000 C 
BRANCH  16  17
ATOM     17  C   UNL     1      -2.831  12.667  -5.369  1.00  0.00    -0.003 C 
ATOM     18  C   UNL     1      -3.019  11.394  -4.544  1.00  0.00     0.004 C 
ENDBRANCH  16  17
ENDBRANCH  15  16
ENDBRANCH  14  15
ENDBRANCH  13  14
ENDBRANCH  12  13
ENDBRANCH  11  12
ENDBRANCH   1  11
TORSDOF 14
ENDMDL
MODEL 9
REMARK VINA RESULT:    -3.315      3.836      7.991
REMARK INTER + INTRA:          -7.280
REMARK INTER:                  -6.096
REMARK INTRA:                  -1.184
REMARK UNBOUND:                -1.251
REMARK SMILES CCCCCCCCCCCCCCCC(=O)[O-]
REMARK SMILES IDX 9 1 10 2 11 3 12 4 13 5 14 6 15 7 16 8 17 9 18 10 8 11 7 12
REMARK SMILES IDX 6 13 5 14 4 15 3 16 2 17 1 18
REMARK H PARENT
REMARK Flexibility Score: inf
ROOT
ATOM      1  C   UNL     1      -0.294  12.042  -3.894  1.00  0.00     0.000 C 
ENDROOT
BRANCH   1   2
ATOM      2  C   UNL     1      -1.471  11.171  -4.372  1.00  0.00     0.000 C 
BRANCH   2   3
ATOM      3  C   UNL     1      -2.814  11.920  -4.342  1.00  0.00     0.000 C 
BRANCH   3   4
ATOM      4  C   UNL     1      -2.954  12.937  -5.484  1.00  0.00     0.000 C 
BRANCH   4   5
ATOM      5  C   UNL     1      -3.386  14.330  -4.993  1.00  0.00     0.000 C 
BRANCH   5   6
ATOM      6  C   UNL     1      -2.630  15.468  -5.698  1.00  0.00     0.006 C 
BRANCH   6   7
ATOM      7  C   UNL     1      -1.154  15.135  -5.947  1.00  0.00     0.053 C 
BRANCH   7   8
ATOM      8  C   UNL     1      -0.273  15.987  -5.088  1.00  0.00     0.041 C 
ATOM      9  O   UNL     1       0.948  15.703  -4.957  1.00  0.00    -0.550 OA
ATOM     10  O   UNL     1      -0.785  17.125  -4.480  1.00  0.00    -0.550 OA
ENDBRANCH   7   8
ENDBRANCH   6   7
ENDBRANCH   5   6
ENDBRANCH   4   5
ENDBRANCH   3   4
ENDBRANCH   2   3
ENDBRANCH   1   2
BRANCH   1  11
ATOM     11  C   UNL     1       0.675  11.352  -2.911  1.00  0.00     0.000 C 
BRANCH  11  12
ATOM     12  C   UNL     1       2.069  11.028  -3.486  1.00  0.00    -0.000 C 
BRANCH  12  13
ATOM     13  C   UNL     1       2.622   9.641  -3.103  1.00  0.00    -0.000 C 
BRANCH  13  14
ATOM     14  C   UNL     1       3.779   9.660  -2.081  1.00  0.00    -0.000 C 
BRANCH  14  15
ATOM     15  C   UNL     1       3.421   9.115  -0.687  1.00  0.00    -0.000 C 
BRANCH  15  16
ATOM     16  C   UNL     1       2.656   7.782  -0.748  1.00  0.00    -0.000 C 
BRANCH  16  17
ATOM     17  C   UNL     1       1.379   7.800   0.109  1.00  0.00    -0.003 C 
ATOM     18  C   UNL     1       0.674   9.156   0.078  1.00  0.00     0.004 C 
ENDBRANCH  16  17
ENDBRANCH  15  16
ENDBRANCH  14  15
ENDBRANCH  13  14
ENDBRANCH  12  13
ENDBRANCH  11  12
ENDBRANCH   1  11
TORSDOF 14
ENDMDL
