MODEL 1
REMARK VINA RESULT:    -4.826      0.000      0.000
REMARK INTER + INTRA:          -4.826
REMARK INTER:                  -4.826
REMARK INTRA:                   0.000
REMARK UNBOUND:                 0.000
REMARK SMILES CC1(C)O[C@]2(C)CC[C@H]1CC2
REMARK SMILES IDX 1 1 2 2 9 3 10 4 11 5 5 6 4 7 7 8 8 9 6 10 3 11
REMARK H PARENT
REMARK Flexibility Score: inf
ROOT
ATOM      1  C   UNL     1       4.165   6.272 -30.123  1.00  0.00     0.042 C 
ATOM      2  C   UNL     1       4.923   5.528 -31.245  1.00  0.00     0.066 C 
ATOM      3  C   UNL     1       4.945   3.975 -30.969  1.00  0.00     0.021 C 
ATOM      4  C   UNL     1       3.488   3.454 -30.993  1.00  0.00     0.009 C 
ATOM      5  C   UNL     1       2.802   3.922 -32.298  1.00  0.00     0.035 C 
ATOM      6  C   UNL     1       3.827   4.680 -33.190  1.00  0.00     0.066 C 
ATOM      7  O   UNL     1       4.289   5.839 -32.494  1.00  0.00    -0.369 OA
ATOM      8  C   UNL     1       5.035   3.743 -33.478  1.00  0.00     0.035 C 
ATOM      9  C   UNL     1       5.669   3.278 -32.144  1.00  0.00     0.009 C 
ATOM     10  C   UNL     1       3.170   5.121 -34.501  1.00  0.00     0.042 C 
ATOM     11  C   UNL     1       6.359   6.096 -31.282  1.00  0.00     0.042 C 
ENDROOT
TORSDOF 0
ENDMDL
MODEL 2
REMARK VINA RESULT:    -4.797      1.188      1.473
REMARK INTER + INTRA:          -4.797
REMARK INTER:                  -4.797
REMARK INTRA:                   0.000
REMARK UNBOUND:                 0.000
REMARK SMILES CC1(C)O[C@]2(C)CC[C@H]1CC2
REMARK SMILES IDX 1 1 2 2 9 3 10 4 11 5 5 6 4 7 7 8 8 9 6 10 3 11
REMARK H PARENT
REMARK Flexibility Score: inf
ROOT
ATOM      1  C   UNL     1       2.018   5.109 -30.409  1.00  0.00     0.042 C 
ATOM      2  C   UNL     1       3.508   5.135 -30.815  1.00  0.00     0.066 C 
ATOM      3  C   UNL     1       4.099   3.673 -30.864  1.00  0.00     0.021 C 
ATOM      4  C   UNL     1       3.350   2.879 -31.961  1.00  0.00     0.009 C 
ATOM      5  C   UNL     1       3.376   3.688 -33.280  1.00  0.00     0.035 C 
ATOM      6  C   UNL     1       4.220   4.981 -33.090  1.00  0.00     0.066 C 
ATOM      7  O   UNL     1       3.612   5.794 -32.085  1.00  0.00    -0.369 OA
ATOM      8  C   UNL     1       5.652   4.586 -32.629  1.00  0.00     0.035 C 
ATOM      9  C   UNL     1       5.573   3.756 -31.324  1.00  0.00     0.009 C 
ATOM     10  C   UNL     1       4.281   5.775 -34.398  1.00  0.00     0.042 C 
ATOM     11  C   UNL     1       4.254   5.991 -29.768  1.00  0.00     0.042 C 
ENDROOT
TORSDOF 0
ENDMDL
MODEL 3
REMARK VINA RESULT:    -4.769      1.448      3.314
REMARK INTER + INTRA:          -4.769
REMARK INTER:                  -4.769
REMARK INTRA:                   0.000
REMARK UNBOUND:                 0.000
REMARK SMILES CC1(C)O[C@]2(C)CC[C@H]1CC2
REMARK SMILES IDX 1 1 2 2 9 3 10 4 11 5 5 6 4 7 7 8 8 9 6 10 3 11
REMARK H PARENT
REMARK Flexibility Score: inf
ROOT
ATOM      1  C   UNL     1       3.361   5.879 -34.089  1.00  0.00     0.042 C 
ATOM      2  C   UNL     1       3.191   4.714 -33.089  1.00  0.00     0.066 C 
ATOM      3  C   UNL     1       4.565   4.367 -32.397  1.00  0.00     0.021 C 
ATOM      4  C   UNL     1       5.025   5.597 -31.577  1.00  0.00     0.009 C 
ATOM      5  C   UNL     1       3.871   6.050 -30.651  1.00  0.00     0.035 C 
ATOM      6  C   UNL     1       2.671   5.068 -30.785  1.00  0.00     0.066 C 
ATOM      7  O   UNL     1       2.193   5.093 -32.130  1.00  0.00    -0.369 OA
ATOM      8  C   UNL     1       3.155   3.630 -30.440  1.00  0.00     0.035 C 
ATOM      9  C   UNL     1       4.326   3.233 -31.372  1.00  0.00     0.009 C 
ATOM     10  C   UNL     1       1.534   5.486 -29.848  1.00  0.00     0.042 C 
ATOM     11  C   UNL     1       2.658   3.501 -33.883  1.00  0.00     0.042 C 
ENDROOT
TORSDOF 0
ENDMDL
MODEL 4
REMARK VINA RESULT:    -4.699      1.064      3.241
REMARK INTER + INTRA:          -4.699
REMARK INTER:                  -4.699
REMARK INTRA:                   0.000
REMARK UNBOUND:                 0.000
REMARK SMILES CC1(C)O[C@]2(C)CC[C@H]1CC2
REMARK SMILES IDX 1 1 2 2 9 3 10 4 11 5 5 6 4 7 7 8 8 9 6 10 3 11
REMARK H PARENT
REMARK Flexibility Score: inf
ROOT
ATOM      1  C   UNL     1       4.057   3.539 -33.918  1.00  0.00     0.042 C 
ATOM      2  C   UNL     1       3.924   4.505 -32.720  1.00  0.00     0.066 C 
ATOM      3  C   UNL     1       4.228   3.758 -31.364  1.00  0.00     0.021 C 
ATOM      4  C   UNL     1       5.699   3.277 -31.390  1.00  0.00     0.009 C 
ATOM      5  C   UNL     1       6.617   4.468 -31.752  1.00  0.00     0.035 C 
ATOM      6  C   UNL     1       5.770   5.767 -31.880  1.00  0.00     0.066 C 
ATOM      7  O   UNL     1       4.820   5.606 -32.934  1.00  0.00    -0.369 OA
ATOM      8  C   UNL     1       5.013   6.010 -30.543  1.00  0.00     0.035 C 
ATOM      9  C   UNL     1       4.131   4.782 -30.209  1.00  0.00     0.009 C 
ATOM     10  C   UNL     1       6.672   6.962 -32.206  1.00  0.00     0.042 C 
ATOM     11  C   UNL     1       2.481   5.053 -32.730  1.00  0.00     0.042 C 
ENDROOT
TORSDOF 0
ENDMDL
MODEL 5
REMARK VINA RESULT:    -4.511      1.030      3.088
REMARK INTER + INTRA:          -4.511
REMARK INTER:                  -4.511
REMARK INTRA:                   0.000
REMARK UNBOUND:                 0.000
REMARK SMILES CC1(C)O[C@]2(C)CC[C@H]1CC2
REMARK SMILES IDX 1 1 2 2 9 3 10 4 11 5 5 6 4 7 7 8 8 9 6 10 3 11
REMARK H PARENT
REMARK Flexibility Score: inf
ROOT
ATOM      1  C   UNL     1       5.754   5.750 -33.738  1.00  0.00     0.042 C 
ATOM      2  C   UNL     1       4.435   5.168 -33.184  1.00  0.00     0.066 C 
ATOM      3  C   UNL     1       4.509   3.594 -33.104  1.00  0.00     0.021 C 
ATOM      4  C   UNL     1       5.623   3.207 -32.101  1.00  0.00     0.009 C 
ATOM      5  C   UNL     1       5.395   3.965 -30.771  1.00  0.00     0.035 C 
ATOM      6  C   UNL     1       4.078   4.789 -30.853  1.00  0.00     0.066 C 
ATOM      7  O   UNL     1       4.193   5.756 -31.898  1.00  0.00    -0.369 OA
ATOM      8  C   UNL     1       2.899   3.826 -31.176  1.00  0.00     0.035 C 
ATOM      9  C   UNL     1       3.186   3.071 -32.497  1.00  0.00     0.009 C 
ATOM     10  C   UNL     1       3.823   5.519 -29.531  1.00  0.00     0.042 C 
ATOM     11  C   UNL     1       3.303   5.613 -34.136  1.00  0.00     0.042 C 
ENDROOT
TORSDOF 0
ENDMDL
MODEL 6
REMARK VINA RESULT:    -4.328      1.372      2.795
REMARK INTER + INTRA:          -4.328
REMARK INTER:                  -4.328
REMARK INTRA:                   0.000
REMARK UNBOUND:                 0.000
REMARK SMILES CC1(C)O[C@]2(C)CC[C@H]1CC2
REMARK SMILES IDX 1 1 2 2 9 3 10 4 11 5 5 6 4 7 7 8 8 9 6 10 3 11
REMARK H PARENT
REMARK Flexibility Score: inf
ROOT
ATOM      1  C   UNL     1       2.532   5.123 -32.328  1.00  0.00     0.042 C 
ATOM      2  C   UNL     1       3.866   4.671 -31.694  1.00  0.00     0.066 C 
ATOM      3  C   UNL     1       4.523   3.514 -32.542  1.00  0.00     0.021 C 
ATOM      4  C   UNL     1       4.862   4.069 -33.947  1.00  0.00     0.009 C 
ATOM      5  C   UNL     1       5.678   5.375 -33.794  1.00  0.00     0.035 C 
ATOM      6  C   UNL     1       5.964   5.645 -32.289  1.00  0.00     0.066 C 
ATOM      7  O   UNL     1       4.725   5.816 -31.599  1.00  0.00    -0.369 OA
ATOM      8  C   UNL     1       6.717   4.422 -31.691  1.00  0.00     0.035 C 
ATOM      9  C   UNL     1       5.876   3.138 -31.892  1.00  0.00     0.009 C 
ATOM     10  C   UNL     1       6.800   6.918 -32.125  1.00  0.00     0.042 C 
ATOM     11  C   UNL     1       3.552   4.186 -30.262  1.00  0.00     0.042 C 
ENDROOT
TORSDOF 0
ENDMDL
MODEL 7
REMARK VINA RESULT:    -4.003      9.366     10.797
REMARK INTER + INTRA:          -4.003
REMARK INTER:                  -4.003
REMARK INTRA:                   0.000
REMARK UNBOUND:                 0.000
REMARK SMILES CC1(C)O[C@]2(C)CC[C@H]1CC2
REMARK SMILES IDX 1 1 2 2 9 3 10 4 11 5 5 6 4 7 7 8 8 9 6 10 3 11
REMARK H PARENT
REMARK Flexibility Score: inf
ROOT
ATOM      1  C   UNL     1      15.670   1.599 -32.024  1.00  0.00     0.042 C 
ATOM      2  C   UNL     1      14.563   2.624 -31.693  1.00  0.00     0.066 C 
ATOM      3  C   UNL     1      14.780   3.235 -30.255  1.00  0.00     0.021 C 
ATOM      4  C   UNL     1      16.121   4.009 -30.250  1.00  0.00     0.009 C 
ATOM      5  C   UNL     1      16.142   4.997 -31.440  1.00  0.00     0.035 C 
ATOM      6  C   UNL     1      14.779   4.950 -32.189  1.00  0.00     0.066 C 
ATOM      7  O   UNL     1      14.574   3.636 -32.709  1.00  0.00    -0.369 OA
ATOM      8  C   UNL     1      13.639   5.284 -31.183  1.00  0.00     0.035 C 
ATOM      9  C   UNL     1      13.677   4.288 -29.998  1.00  0.00     0.009 C 
ATOM     10  C   UNL     1      14.773   5.949 -33.350  1.00  0.00     0.042 C 
ATOM     11  C   UNL     1      13.211   1.881 -31.771  1.00  0.00     0.042 C 
ENDROOT
TORSDOF 0
ENDMDL
MODEL 8
REMARK VINA RESULT:    -3.821      2.018      3.917
REMARK INTER + INTRA:          -3.821
REMARK INTER:                  -3.821
REMARK INTRA:                   0.000
REMARK UNBOUND:                 0.000
REMARK SMILES CC1(C)O[C@]2(C)CC[C@H]1CC2
REMARK SMILES IDX 1 1 2 2 9 3 10 4 11 5 5 6 4 7 7 8 8 9 6 10 3 11
REMARK H PARENT
REMARK Flexibility Score: inf
ROOT
ATOM      1  C   UNL     1       5.929   3.238 -31.376  1.00  0.00     0.042 C 
ATOM      2  C   UNL     1       6.317   4.095 -32.602  1.00  0.00     0.066 C 
ATOM      3  C   UNL     1       5.226   5.201 -32.877  1.00  0.00     0.021 C 
ATOM      4  C   UNL     1       5.179   6.156 -31.661  1.00  0.00     0.009 C 
ATOM      5  C   UNL     1       6.612   6.651 -31.347  1.00  0.00     0.035 C 
ATOM      6  C   UNL     1       7.605   6.098 -32.410  1.00  0.00     0.066 C 
ATOM      7  O   UNL     1       7.608   4.671 -32.352  1.00  0.00    -0.369 OA
ATOM      8  C   UNL     1       7.136   6.551 -33.823  1.00  0.00     0.035 C 
ATOM      9  C   UNL     1       5.690   6.058 -34.079  1.00  0.00     0.009 C 
ATOM     10  C   UNL     1       9.022   6.607 -32.131  1.00  0.00     0.042 C 
ATOM     11  C   UNL     1       6.443   3.140 -33.808  1.00  0.00     0.042 C 
ENDROOT
TORSDOF 0
ENDMDL
MODEL 9
REMARK VINA RESULT:    -3.808      8.880     10.713
REMARK INTER + INTRA:          -3.808
REMARK INTER:                  -3.808
REMARK INTRA:                   0.000
REMARK UNBOUND:                 0.000
REMARK SMILES CC1(C)O[C@]2(C)CC[C@H]1CC2
REMARK SMILES IDX 1 1 2 2 9 3 10 4 11 5 5 6 4 7 7 8 8 9 6 10 3 11
REMARK H PARENT
REMARK Flexibility Score: inf
ROOT
ATOM      1  C   UNL     1      12.739   3.240 -33.238  1.00  0.00     0.042 C 
ATOM      2  C   UNL     1      14.129   3.876 -33.014  1.00  0.00     0.066 C 
ATOM      3  C   UNL     1      13.988   5.377 -32.551  1.00  0.00     0.021 C 
ATOM      4  C   UNL     1      13.260   5.402 -31.186  1.00  0.00     0.009 C 
ATOM      5  C   UNL     1      13.975   4.434 -30.212  1.00  0.00     0.035 C 
ATOM      6  C   UNL     1      15.234   3.831 -30.897  1.00  0.00     0.066 C 
ATOM      7  O   UNL     1      14.831   3.083 -32.046  1.00  0.00    -0.369 OA
ATOM      8  C   UNL     1      16.169   4.991 -31.345  1.00  0.00     0.035 C 
ATOM      9  C   UNL     1      15.404   5.946 -32.294  1.00  0.00     0.009 C 
ATOM     10  C   UNL     1      15.970   2.896 -29.932  1.00  0.00     0.042 C 
ATOM     11  C   UNL     1      14.895   3.787 -34.352  1.00  0.00     0.042 C 
ENDROOT
TORSDOF 0
ENDMDL
