MODEL 1
REMARK VINA RESULT:    -5.670      0.000      0.000
REMARK INTER + INTRA:          -7.017
REMARK INTER:                  -6.830
REMARK INTRA:                  -0.186
REMARK UNBOUND:                -0.186
REMARK SMILES O=c1c(O)c(-c2ccc(O)c(O)c2)oc2cc(O)cc(O)c12
REMARK SMILES IDX 5 1 3 2 2 3 1 4 22 5 20 6 19 7 17 8 16 9 15 10 14 11 6 12
REMARK SMILES IDX 7 13 8 14 9 15 13 16 11 17 10 18 12 20 4 22 21 24 18 26
REMARK H PARENT 10 19 12 21 4 23 21 25 18 27
REMARK Flexibility Score: inf
ROOT
ATOM      1  C   UNL     1     166.007 161.657 158.018  1.00  0.00     0.180 A 
ATOM      2  C   UNL     1     167.300 161.764 158.566  1.00  0.00     0.208 A 
ATOM      3  C   UNL     1     167.894 163.032 158.659  1.00  0.00     0.238 A 
ATOM      4  O   UNL     1     169.057 163.139 159.138  1.00  0.00    -0.285 OA
ATOM      5  C   UNL     1     167.183 164.169 158.225  1.00  0.00     0.111 A 
ATOM      6  C   UNL     1     167.709 165.483 158.288  1.00  0.00     0.134 A 
ATOM      7  C   UNL     1     166.935 166.564 157.844  1.00  0.00     0.093 A 
ATOM      8  C   UNL     1     165.645 166.358 157.339  1.00  0.00     0.123 A 
ATOM      9  C   UNL     1     165.124 165.064 157.275  1.00  0.00     0.094 A 
ATOM     10  C   UNL     1     165.880 163.974 157.710  1.00  0.00     0.146 A 
ATOM     11  O   UNL     1     165.361 162.754 157.632  1.00  0.00    -0.452 OA
ENDROOT
BRANCH   1  12
ATOM     12  C   UNL     1     165.321 160.354 157.869  1.00  0.00     0.025 A 
ATOM     13  C   UNL     1     165.825 159.354 157.018  1.00  0.00     0.016 A 
ATOM     14  C   UNL     1     165.148 158.141 156.876  1.00  0.00     0.051 A 
ATOM     15  C   UNL     1     163.950 157.913 157.568  1.00  0.00     0.157 A 
ATOM     16  C   UNL     1     164.110 160.129 158.544  1.00  0.00     0.062 A 
ATOM     17  C   UNL     1     163.428 158.915 158.403  1.00  0.00     0.158 A 
BRANCH  15  18
ATOM     18  O   UNL     1     163.277 156.701 157.424  1.00  0.00    -0.504 OA
ATOM     19  H   UNL     1     163.050 156.122 158.224  1.00  0.00     0.293 HD
ENDBRANCH  15  18
BRANCH  17  20
ATOM     20  O   UNL     1     162.236 158.723 159.100  1.00  0.00    -0.504 OA
ATOM     21  H   UNL     1     161.973 157.821 159.477  1.00  0.00     0.293 HD
ENDBRANCH  17  20
ENDBRANCH   1  12
BRANCH   2  22
ATOM     22  O   UNL     1     167.965 160.628 159.034  1.00  0.00    -0.502 OA
ATOM     23  H   UNL     1     168.963 160.500 158.927  1.00  0.00     0.293 HD
ENDBRANCH   2  22
BRANCH   6  24
ATOM     24  O   UNL     1     168.991 165.720 158.787  1.00  0.00    -0.507 OA
ATOM     25  H   UNL     1     169.317 166.656 158.994  1.00  0.00     0.293 HD
ENDBRANCH   6  24
BRANCH   8  26
ATOM     26  O   UNL     1     164.876 167.432 156.898  1.00  0.00    -0.508 OA
ATOM     27  H   UNL     1     165.087 168.384 157.173  1.00  0.00     0.293 HD
ENDBRANCH   8  26
TORSDOF 6
ENDMDL
MODEL 2
REMARK VINA RESULT:    -5.588     11.350     13.948
REMARK INTER + INTRA:          -6.918
REMARK INTER:                  -6.821
REMARK INTRA:                  -0.097
REMARK UNBOUND:                -0.186
REMARK SMILES O=c1c(O)c(-c2ccc(O)c(O)c2)oc2cc(O)cc(O)c12
REMARK SMILES IDX 5 1 3 2 2 3 1 4 22 5 20 6 19 7 17 8 16 9 15 10 14 11 6 12
REMARK SMILES IDX 7 13 8 14 9 15 13 16 11 17 10 18 12 20 4 22 21 24 18 26
REMARK H PARENT 10 19 12 21 4 23 21 25 18 27
REMARK Flexibility Score: inf
ROOT
ATOM      1  C   UNL     1     153.782 163.841 157.998  1.00  0.00     0.180 A 
ATOM      2  C   UNL     1     153.173 165.025 158.458  1.00  0.00     0.208 A 
ATOM      3  C   UNL     1     151.775 165.068 158.570  1.00  0.00     0.238 A 
ATOM      4  O   UNL     1     151.217 166.127 158.971  1.00  0.00    -0.285 OA
ATOM      5  C   UNL     1     151.013 163.928 158.242  1.00  0.00     0.111 A 
ATOM      6  C   UNL     1     149.600 163.888 158.331  1.00  0.00     0.134 A 
ATOM      7  C   UNL     1     148.915 162.712 157.994  1.00  0.00     0.093 A 
ATOM      8  C   UNL     1     149.614 161.576 157.572  1.00  0.00     0.123 A 
ATOM      9  C   UNL     1     151.007 161.611 157.482  1.00  0.00     0.094 A 
ATOM     10  C   UNL     1     151.708 162.774 157.811  1.00  0.00     0.146 A 
ATOM     11  O   UNL     1     153.032 162.781 157.711  1.00  0.00    -0.452 OA
ENDROOT
BRANCH   1  12
ATOM     12  C   UNL     1     155.249 163.723 157.835  1.00  0.00     0.025 A 
ATOM     13  C   UNL     1     155.972 164.625 157.033  1.00  0.00     0.016 A 
ATOM     14  C   UNL     1     157.352 164.480 156.875  1.00  0.00     0.051 A 
ATOM     15  C   UNL     1     158.029 163.425 157.503  1.00  0.00     0.157 A 
ATOM     16  C   UNL     1     155.929 162.657 158.445  1.00  0.00     0.062 A 
ATOM     17  C   UNL     1     157.311 162.508 158.289  1.00  0.00     0.158 A 
BRANCH  15  18
ATOM     18  O   UNL     1     159.407 163.284 157.344  1.00  0.00    -0.504 OA
ATOM     19  H   UNL     1     159.838 163.283 156.428  1.00  0.00     0.293 HD
ENDBRANCH  15  18
BRANCH  17  20
ATOM     20  O   UNL     1     157.954 161.444 158.921  1.00  0.00    -0.504 OA
ATOM     21  H   UNL     1     158.963 161.364 158.947  1.00  0.00     0.293 HD
ENDBRANCH  17  20
ENDBRANCH   1  12
BRANCH   2  22
ATOM     22  O   UNL     1     153.953 166.125 158.824  1.00  0.00    -0.502 OA
ATOM     23  H   UNL     1     154.966 166.104 158.803  1.00  0.00     0.293 HD
ENDBRANCH   2  22
BRANCH   6  24
ATOM     24  O   UNL     1     148.875 165.005 158.750  1.00  0.00    -0.507 OA
ATOM     25  H   UNL     1     147.864 164.993 158.809  1.00  0.00     0.293 HD
ENDBRANCH   6  24
BRANCH   8  26
ATOM     26  O   UNL     1     148.934 160.407 157.238  1.00  0.00    -0.508 OA
ATOM     27  H   UNL     1     147.996 160.430 156.856  1.00  0.00     0.293 HD
ENDBRANCH   8  26
TORSDOF 6
ENDMDL
MODEL 3
REMARK VINA RESULT:    -5.514      8.331     11.470
REMARK INTER + INTRA:          -6.828
REMARK INTER:                  -6.696
REMARK INTRA:                  -0.132
REMARK UNBOUND:                -0.186
REMARK SMILES O=c1c(O)c(-c2ccc(O)c(O)c2)oc2cc(O)cc(O)c12
REMARK SMILES IDX 5 1 3 2 2 3 1 4 22 5 20 6 19 7 17 8 16 9 15 10 14 11 6 12
REMARK SMILES IDX 7 13 8 14 9 15 13 16 11 17 10 18 12 20 4 22 21 24 18 26
REMARK H PARENT 10 19 12 21 4 23 21 25 18 27
REMARK Flexibility Score: inf
ROOT
ATOM      1  C   UNL     1     155.952 161.886 158.519  1.00  0.00     0.180 A 
ATOM      2  C   UNL     1     157.238 162.291 158.925  1.00  0.00     0.208 A 
ATOM      3  C   UNL     1     158.236 161.317 159.086  1.00  0.00     0.238 A 
ATOM      4  O   UNL     1     159.390 161.667 159.460  1.00  0.00    -0.285 OA
ATOM      5  C   UNL     1     157.940 159.964 158.821  1.00  0.00     0.111 A 
ATOM      6  C   UNL     1     158.890 158.922 158.955  1.00  0.00     0.134 A 
ATOM      7  C   UNL     1     158.519 157.602 158.664  1.00  0.00     0.093 A 
ATOM      8  C   UNL     1     157.219 157.303 158.240  1.00  0.00     0.123 A 
ATOM      9  C   UNL     1     156.280 158.327 158.107  1.00  0.00     0.094 A 
ATOM     10  C   UNL     1     156.629 159.649 158.394  1.00  0.00     0.146 A 
ATOM     11  O   UNL     1     155.713 160.603 158.264  1.00  0.00    -0.452 OA
ENDROOT
BRANCH   1  12
ATOM     12  C   UNL     1     154.841 162.850 158.345  1.00  0.00     0.025 A 
ATOM     13  C   UNL     1     154.918 163.893 157.405  1.00  0.00     0.016 A 
ATOM     14  C   UNL     1     153.867 164.804 157.276  1.00  0.00     0.051 A 
ATOM     15  C   UNL     1     152.732 164.697 158.092  1.00  0.00     0.157 A 
ATOM     16  C   UNL     1     153.711 162.759 159.174  1.00  0.00     0.062 A 
ATOM     17  C   UNL     1     152.657 163.670 159.048  1.00  0.00     0.158 A 
BRANCH  15  18
ATOM     18  O   UNL     1     151.685 165.608 157.959  1.00  0.00    -0.504 OA
ATOM     19  H   UNL     1     151.244 166.031 158.766  1.00  0.00     0.293 HD
ENDBRANCH  15  18
BRANCH  17  20
ATOM     20  O   UNL     1     151.546 163.540 159.879  1.00  0.00    -0.504 OA
ATOM     21  H   UNL     1     150.626 163.316 159.517  1.00  0.00     0.293 HD
ENDBRANCH  17  20
ENDBRANCH   1  12
BRANCH   2  22
ATOM     22  O   UNL     1     157.520 163.643 159.133  1.00  0.00    -0.502 OA
ATOM     23  H   UNL     1     157.469 164.329 158.390  1.00  0.00     0.293 HD
ENDBRANCH   2  22
BRANCH   6  24
ATOM     24  O   UNL     1     160.194 159.190 159.375  1.00  0.00    -0.507 OA
ATOM     25  H   UNL     1     160.587 160.122 159.331  1.00  0.00     0.293 HD
ENDBRANCH   6  24
BRANCH   8  26
ATOM     26  O   UNL     1     156.852 155.992 157.950  1.00  0.00    -0.508 OA
ATOM     27  H   UNL     1     156.302 155.438 158.597  1.00  0.00     0.293 HD
ENDBRANCH   8  26
TORSDOF 6
ENDMDL
MODEL 4
REMARK VINA RESULT:    -5.511      1.581      6.688
REMARK INTER + INTRA:          -6.825
REMARK INTER:                  -6.560
REMARK INTRA:                  -0.265
REMARK UNBOUND:                -0.186
REMARK SMILES O=c1c(O)c(-c2ccc(O)c(O)c2)oc2cc(O)cc(O)c12
REMARK SMILES IDX 5 1 3 2 2 3 1 4 22 5 20 6 19 7 17 8 16 9 15 10 14 11 6 12
REMARK SMILES IDX 7 13 8 14 9 15 13 16 11 17 10 18 12 20 4 22 21 24 18 26
REMARK H PARENT 10 19 12 21 4 23 21 25 18 27
REMARK Flexibility Score: inf
ROOT
ATOM      1  C   UNL     1     165.621 161.881 157.954  1.00  0.00     0.180 A 
ATOM      2  C   UNL     1     166.146 160.625 157.593  1.00  0.00     0.208 A 
ATOM      3  C   UNL     1     165.307 159.501 157.642  1.00  0.00     0.238 A 
ATOM      4  O   UNL     1     165.769 158.368 157.331  1.00  0.00    -0.285 OA
ATOM      5  C   UNL     1     163.960 159.652 158.030  1.00  0.00     0.111 A 
ATOM      6  C   UNL     1     163.049 158.570 158.103  1.00  0.00     0.134 A 
ATOM      7  C   UNL     1     161.721 158.804 158.489  1.00  0.00     0.093 A 
ATOM      8  C   UNL     1     161.288 160.098 158.804  1.00  0.00     0.123 A 
ATOM      9  C   UNL     1     162.183 161.166 158.734  1.00  0.00     0.094 A 
ATOM     10  C   UNL     1     163.510 160.953 158.353  1.00  0.00     0.146 A 
ATOM     11  O   UNL     1     164.342 161.988 158.301  1.00  0.00    -0.452 OA
ENDROOT
BRANCH   1  12
ATOM     12  C   UNL     1     166.447 163.110 157.946  1.00  0.00     0.025 A 
ATOM     13  C   UNL     1     166.344 164.055 156.909  1.00  0.00     0.016 A 
ATOM     14  C   UNL     1     167.150 165.196 156.911  1.00  0.00     0.051 A 
ATOM     15  C   UNL     1     168.081 165.403 157.939  1.00  0.00     0.157 A 
ATOM     16  C   UNL     1     167.394 163.313 158.962  1.00  0.00     0.062 A 
ATOM     17  C   UNL     1     168.204 164.454 158.968  1.00  0.00     0.158 A 
BRANCH  15  18
ATOM     18  O   UNL     1     168.882 166.544 157.939  1.00  0.00    -0.504 OA
ATOM     19  H   UNL     1     168.729 167.299 157.282  1.00  0.00     0.293 HD
ENDBRANCH  15  18
BRANCH  17  20
ATOM     20  O   UNL     1     169.124 164.628 160.001  1.00  0.00    -0.504 OA
ATOM     21  H   UNL     1     168.834 164.787 160.958  1.00  0.00     0.293 HD
ENDBRANCH  17  20
ENDBRANCH   1  12
BRANCH   2  22
ATOM     22  O   UNL     1     167.471 160.509 157.164  1.00  0.00    -0.502 OA
ATOM     23  H   UNL     1     167.897 161.176 156.533  1.00  0.00     0.293 HD
ENDBRANCH   2  22
BRANCH   6  24
ATOM     24  O   UNL     1     163.451 157.270 157.794  1.00  0.00    -0.507 OA
ATOM     25  H   UNL     1     162.815 156.484 157.864  1.00  0.00     0.293 HD
ENDBRANCH   6  24
BRANCH   8  26
ATOM     26  O   UNL     1     159.969 160.330 159.187  1.00  0.00    -0.508 OA
ATOM     27  H   UNL     1     159.205 160.270 158.524  1.00  0.00     0.293 HD
ENDBRANCH   8  26
TORSDOF 6
ENDMDL
MODEL 5
REMARK VINA RESULT:    -5.470      6.287     10.165
REMARK INTER + INTRA:          -6.775
REMARK INTER:                  -6.565
REMARK INTRA:                  -0.210
REMARK UNBOUND:                -0.186
REMARK SMILES O=c1c(O)c(-c2ccc(O)c(O)c2)oc2cc(O)cc(O)c12
REMARK SMILES IDX 5 1 3 2 2 3 1 4 22 5 20 6 19 7 17 8 16 9 15 10 14 11 6 12
REMARK SMILES IDX 7 13 8 14 9 15 13 16 11 17 10 18 12 20 4 22 21 24 18 26
REMARK H PARENT 10 19 12 21 4 23 21 25 18 27
REMARK Flexibility Score: inf
ROOT
ATOM      1  C   UNL     1     158.643 154.918 158.495  1.00  0.00     0.180 A 
ATOM      2  C   UNL     1     157.625 155.772 158.962  1.00  0.00     0.208 A 
ATOM      3  C   UNL     1     157.911 157.134 159.137  1.00  0.00     0.238 A 
ATOM      4  O   UNL     1     157.009 157.907 159.565  1.00  0.00    -0.285 OA
ATOM      5  C   UNL     1     159.196 157.624 158.826  1.00  0.00     0.111 A 
ATOM      6  C   UNL     1     159.564 158.983 158.972  1.00  0.00     0.134 A 
ATOM      7  C   UNL     1     160.861 159.393 158.633  1.00  0.00     0.093 A 
ATOM      8  C   UNL     1     161.797 158.470 158.150  1.00  0.00     0.123 A 
ATOM      9  C   UNL     1     161.438 157.129 158.006  1.00  0.00     0.094 A 
ATOM     10  C   UNL     1     160.151 156.700 158.341  1.00  0.00     0.146 A 
ATOM     11  O   UNL     1     159.839 155.417 158.198  1.00  0.00    -0.452 OA
ENDROOT
BRANCH   1  12
ATOM     12  C   UNL     1     158.425 153.466 158.302  1.00  0.00     0.025 A 
ATOM     13  C   UNL     1     157.579 152.980 157.288  1.00  0.00     0.016 A 
ATOM     14  C   UNL     1     157.371 151.607 157.141  1.00  0.00     0.051 A 
ATOM     15  C   UNL     1     157.992 150.699 158.010  1.00  0.00     0.157 A 
ATOM     16  C   UNL     1     159.029 152.554 159.182  1.00  0.00     0.062 A 
ATOM     17  C   UNL     1     158.822 151.178 159.038  1.00  0.00     0.158 A 
BRANCH  15  18
ATOM     18  O   UNL     1     157.783 149.329 157.858  1.00  0.00    -0.504 OA
ATOM     19  H   UNL     1     158.462 148.650 158.180  1.00  0.00     0.293 HD
ENDBRANCH  15  18
BRANCH  17  20
ATOM     20  O   UNL     1     159.449 150.302 159.923  1.00  0.00    -0.504 OA
ATOM     21  H   UNL     1     159.506 149.306 159.745  1.00  0.00     0.293 HD
ENDBRANCH  17  20
ENDBRANCH   1  12
BRANCH   2  22
ATOM     22  O   UNL     1     156.345 155.272 159.215  1.00  0.00    -0.502 OA
ATOM     23  H   UNL     1     155.584 155.367 158.554  1.00  0.00     0.293 HD
ENDBRANCH   2  22
BRANCH   6  24
ATOM     24  O   UNL     1     158.652 159.927 159.450  1.00  0.00    -0.507 OA
ATOM     25  H   UNL     1     157.803 159.652 159.928  1.00  0.00     0.293 HD
ENDBRANCH   6  24
BRANCH   8  26
ATOM     26  O   UNL     1     163.085 158.877 157.813  1.00  0.00    -0.508 OA
ATOM     27  H   UNL     1     163.364 159.009 156.847  1.00  0.00     0.293 HD
ENDBRANCH   8  26
TORSDOF 6
ENDMDL
MODEL 6
REMARK VINA RESULT:    -5.457     10.718     13.126
REMARK INTER + INTRA:          -6.760
REMARK INTER:                  -6.526
REMARK INTRA:                  -0.234
REMARK UNBOUND:                -0.186
REMARK SMILES O=c1c(O)c(-c2ccc(O)c(O)c2)oc2cc(O)cc(O)c12
REMARK SMILES IDX 5 1 3 2 2 3 1 4 22 5 20 6 19 7 17 8 16 9 15 10 14 11 6 12
REMARK SMILES IDX 7 13 8 14 9 15 13 16 11 17 10 18 12 20 4 22 21 24 18 26
REMARK H PARENT 10 19 12 21 4 23 21 25 18 27
REMARK Flexibility Score: inf
ROOT
ATOM      1  C   UNL     1     154.374 163.043 157.951  1.00  0.00     0.180 A 
ATOM      2  C   UNL     1     153.562 161.981 157.508  1.00  0.00     0.208 A 
ATOM      3  C   UNL     1     152.169 162.101 157.620  1.00  0.00     0.238 A 
ATOM      4  O   UNL     1     151.431 161.152 157.235  1.00  0.00    -0.285 OA
ATOM      5  C   UNL     1     151.610 163.282 158.151  1.00  0.00     0.111 A 
ATOM      6  C   UNL     1     150.216 163.483 158.295  1.00  0.00     0.134 A 
ATOM      7  C   UNL     1     149.739 164.691 158.825  1.00  0.00     0.093 A 
ATOM      8  C   UNL     1     150.628 165.699 159.213  1.00  0.00     0.123 A 
ATOM      9  C   UNL     1     152.003 165.504 159.074  1.00  0.00     0.094 A 
ATOM     10  C   UNL     1     152.498 164.308 158.550  1.00  0.00     0.146 A 
ATOM     11  O   UNL     1     153.812 164.147 158.434  1.00  0.00    -0.452 OA
ENDROOT
BRANCH   1  12
ATOM     12  C   UNL     1     155.852 162.984 157.884  1.00  0.00     0.025 A 
ATOM     13  C   UNL     1     156.573 163.731 156.935  1.00  0.00     0.016 A 
ATOM     14  C   UNL     1     157.965 163.641 156.876  1.00  0.00     0.051 A 
ATOM     15  C   UNL     1     158.658 162.795 157.753  1.00  0.00     0.157 A 
ATOM     16  C   UNL     1     156.549 162.123 158.747  1.00  0.00     0.062 A 
ATOM     17  C   UNL     1     157.944 162.030 158.691  1.00  0.00     0.158 A 
BRANCH  15  18
ATOM     18  O   UNL     1     160.048 162.709 157.692  1.00  0.00    -0.504 OA
ATOM     19  H   UNL     1     160.534 162.583 156.813  1.00  0.00     0.293 HD
ENDBRANCH  15  18
BRANCH  17  20
ATOM     20  O   UNL     1     158.603 161.175 159.573  1.00  0.00    -0.504 OA
ATOM     21  H   UNL     1     159.609 161.056 159.558  1.00  0.00     0.293 HD
ENDBRANCH  17  20
ENDBRANCH   1  12
BRANCH   2  22
ATOM     22  O   UNL     1     154.138 160.842 156.939  1.00  0.00    -0.502 OA
ATOM     23  H   UNL     1     153.799 160.436 156.075  1.00  0.00     0.293 HD
ENDBRANCH   2  22
BRANCH   6  24
ATOM     24  O   UNL     1     149.305 162.496 157.915  1.00  0.00    -0.507 OA
ATOM     25  H   UNL     1     149.485 161.876 157.135  1.00  0.00     0.293 HD
ENDBRANCH   6  24
BRANCH   8  26
ATOM     26  O   UNL     1     150.154 166.899 159.739  1.00  0.00    -0.508 OA
ATOM     27  H   UNL     1     149.241 166.964 160.174  1.00  0.00     0.293 HD
ENDBRANCH   8  26
TORSDOF 6
ENDMDL
MODEL 7
REMARK VINA RESULT:    -5.288      2.963      7.025
REMARK INTER + INTRA:          -6.556
REMARK INTER:                  -6.232
REMARK INTRA:                  -0.324
REMARK UNBOUND:                -0.186
REMARK SMILES O=c1c(O)c(-c2ccc(O)c(O)c2)oc2cc(O)cc(O)c12
REMARK SMILES IDX 5 1 3 2 2 3 1 4 22 5 20 6 19 7 17 8 16 9 15 10 14 11 6 12
REMARK SMILES IDX 7 13 8 14 9 15 13 16 11 17 10 18 12 20 4 22 21 24 18 26
REMARK H PARENT 10 19 12 21 4 23 21 25 18 27
REMARK Flexibility Score: inf
ROOT
ATOM      1  C   UNL     1     163.349 161.229 158.479  1.00  0.00     0.180 A 
ATOM      2  C   UNL     1     163.383 159.821 158.531  1.00  0.00     0.208 A 
ATOM      3  C   UNL     1     162.182 159.121 158.722  1.00  0.00     0.238 A 
ATOM      4  O   UNL     1     162.201 157.861 158.781  1.00  0.00    -0.285 OA
ATOM      5  C   UNL     1     160.970 159.833 158.837  1.00  0.00     0.111 A 
ATOM      6  C   UNL     1     159.716 159.203 159.028  1.00  0.00     0.134 A 
ATOM      7  C   UNL     1     158.554 159.981 159.124  1.00  0.00     0.093 A 
ATOM      8  C   UNL     1     158.621 161.376 159.033  1.00  0.00     0.123 A 
ATOM      9  C   UNL     1     159.855 162.001 158.845  1.00  0.00     0.094 A 
ATOM     10  C   UNL     1     161.025 161.243 158.749  1.00  0.00     0.146 A 
ATOM     11  O   UNL     1     162.186 161.865 158.577  1.00  0.00    -0.452 OA
ENDROOT
BRANCH   1  12
ATOM     12  C   UNL     1     164.575 162.039 158.299  1.00  0.00     0.025 A 
ATOM     13  C   UNL     1     165.025 162.413 157.020  1.00  0.00     0.016 A 
ATOM     14  C   UNL     1     166.197 163.158 156.875  1.00  0.00     0.051 A 
ATOM     15  C   UNL     1     166.946 163.528 158.001  1.00  0.00     0.157 A 
ATOM     16  C   UNL     1     165.339 162.395 159.423  1.00  0.00     0.062 A 
ATOM     17  C   UNL     1     166.514 163.141 159.281  1.00  0.00     0.158 A 
BRANCH  15  18
ATOM     18  O   UNL     1     168.115 164.273 157.852  1.00  0.00    -0.504 OA
ATOM     19  H   UNL     1     168.183 165.226 158.188  1.00  0.00     0.293 HD
ENDBRANCH  15  18
BRANCH  17  20
ATOM     20  O   UNL     1     167.239 163.487 160.420  1.00  0.00    -0.504 OA
ATOM     21  H   UNL     1     168.099 164.020 160.370  1.00  0.00     0.293 HD
ENDBRANCH  17  20
ENDBRANCH   1  12
BRANCH   2  22
ATOM     22  O   UNL     1     164.590 159.137 158.365  1.00  0.00    -0.502 OA
ATOM     23  H   UNL     1     164.692 158.154 158.587  1.00  0.00     0.293 HD
ENDBRANCH   2  22
BRANCH   6  24
ATOM     24  O   UNL     1     159.618 157.813 159.121  1.00  0.00    -0.507 OA
ATOM     25  H   UNL     1     159.532 157.229 158.299  1.00  0.00     0.293 HD
ENDBRANCH   6  24
BRANCH   8  26
ATOM     26  O   UNL     1     157.466 162.149 159.127  1.00  0.00    -0.508 OA
ATOM     27  H   UNL     1     157.262 162.883 158.458  1.00  0.00     0.293 HD
ENDBRANCH   8  26
TORSDOF 6
ENDMDL
MODEL 8
REMARK VINA RESULT:    -5.207     10.359     12.805
REMARK INTER + INTRA:          -6.458
REMARK INTER:                  -6.133
REMARK INTRA:                  -0.325
REMARK UNBOUND:                -0.186
REMARK SMILES O=c1c(O)c(-c2ccc(O)c(O)c2)oc2cc(O)cc(O)c12
REMARK SMILES IDX 5 1 3 2 2 3 1 4 22 5 20 6 19 7 17 8 16 9 15 10 14 11 6 12
REMARK SMILES IDX 7 13 8 14 9 15 13 16 11 17 10 18 12 20 4 22 21 24 18 26
REMARK H PARENT 10 19 12 21 4 23 21 25 18 27
REMARK Flexibility Score: inf
ROOT
ATOM      1  C   UNL     1     154.063 163.395 158.106  1.00  0.00     0.180 A 
ATOM      2  C   UNL     1     155.224 164.181 157.968  1.00  0.00     0.208 A 
ATOM      3  C   UNL     1     156.476 163.549 157.976  1.00  0.00     0.238 A 
ATOM      4  O   UNL     1     157.524 164.245 157.865  1.00  0.00    -0.285 OA
ATOM      5  C   UNL     1     156.549 162.147 158.101  1.00  0.00     0.111 A 
ATOM      6  C   UNL     1     157.772 161.432 158.116  1.00  0.00     0.134 A 
ATOM      7  C   UNL     1     157.760 160.035 158.235  1.00  0.00     0.093 A 
ATOM      8  C   UNL     1     156.550 159.339 158.340  1.00  0.00     0.123 A 
ATOM      9  C   UNL     1     155.342 160.040 158.327  1.00  0.00     0.094 A 
ATOM     10  C   UNL     1     155.334 161.432 158.211  1.00  0.00     0.146 A 
ATOM     11  O   UNL     1     154.170 162.073 158.207  1.00  0.00    -0.452 OA
ENDROOT
BRANCH   1  12
ATOM     12  C   UNL     1     152.707 163.989 158.125  1.00  0.00     0.025 A 
ATOM     13  C   UNL     1     151.973 164.176 156.940  1.00  0.00     0.016 A 
ATOM     14  C   UNL     1     150.705 164.760 156.982  1.00  0.00     0.051 A 
ATOM     15  C   UNL     1     150.157 165.180 158.202  1.00  0.00     0.157 A 
ATOM     16  C   UNL     1     152.163 164.429 159.343  1.00  0.00     0.062 A 
ATOM     17  C   UNL     1     150.894 165.015 159.387  1.00  0.00     0.158 A 
BRANCH  15  18
ATOM     18  O   UNL     1     148.891 165.761 158.239  1.00  0.00    -0.504 OA
ATOM     19  H   UNL     1     148.146 165.449 157.627  1.00  0.00     0.293 HD
ENDBRANCH  15  18
BRANCH  17  20
ATOM     20  O   UNL     1     150.380 165.427 160.616  1.00  0.00    -0.504 OA
ATOM     21  H   UNL     1     150.793 165.140 161.496  1.00  0.00     0.293 HD
ENDBRANCH  17  20
ENDBRANCH   1  12
BRANCH   2  22
ATOM     22  O   UNL     1     155.123 165.564 157.796  1.00  0.00    -0.502 OA
ATOM     23  H   UNL     1     154.236 166.052 157.828  1.00  0.00     0.293 HD
ENDBRANCH   2  22
BRANCH   6  24
ATOM     24  O   UNL     1     158.994 162.098 158.012  1.00  0.00    -0.507 OA
ATOM     25  H   UNL     1     159.812 161.795 158.528  1.00  0.00     0.293 HD
ENDBRANCH   6  24
BRANCH   8  26
ATOM     26  O   UNL     1     156.537 157.951 158.457  1.00  0.00    -0.508 OA
ATOM     27  H   UNL     1     157.189 157.369 157.944  1.00  0.00     0.293 HD
ENDBRANCH   8  26
TORSDOF 6
ENDMDL
