MODEL 1
REMARK VINA RESULT:    -5.663      0.000      0.000
REMARK INTER + INTRA:         -13.766
REMARK INTER:                 -12.283
REMARK INTRA:                  -1.483
REMARK UNBOUND:                -1.483
REMARK SMILES CCCCCCCCCCCCCCCCCCCCCC(=O)[O-]
REMARK SMILES IDX 12 1 11 2 10 3 9 4 8 5 7 6 6 7 5 8 4 9 3 10 2 11 1 12 13 13
REMARK SMILES IDX 14 14 15 15 16 16 17 17 18 18 19 19 20 20 21 21 22 22 23 23
REMARK SMILES IDX 24 24
REMARK H PARENT
REMARK Flexibility Score: inf
ROOT
ATOM      1  C   UNL     1      29.487  -0.725  31.482  1.00  0.00     0.000 C 
ENDROOT
BRANCH   1   2
ATOM      2  C   UNL     1      29.844  -1.765  30.403  1.00  0.00     0.000 C 
BRANCH   2   3
ATOM      3  C   UNL     1      28.643  -2.493  29.768  1.00  0.00     0.000 C 
BRANCH   3   4
ATOM      4  C   UNL     1      27.499  -2.742  30.761  1.00  0.00    -0.000 C 
BRANCH   4   5
ATOM      5  C   UNL     1      27.402  -4.231  31.127  1.00  0.00    -0.000 C 
BRANCH   5   6
ATOM      6  C   UNL     1      26.876  -5.091  29.968  1.00  0.00    -0.000 C 
BRANCH   6   7
ATOM      7  C   UNL     1      27.606  -6.442  29.852  1.00  0.00    -0.000 C 
BRANCH   7   8
ATOM      8  C   UNL     1      28.840  -6.527  30.763  1.00  0.00    -0.000 C 
BRANCH   8   9
ATOM      9  C   UNL     1      29.102  -7.955  31.274  1.00  0.00    -0.000 C 
BRANCH   9  10
ATOM     10  C   UNL     1      28.454  -9.024  30.369  1.00  0.00    -0.000 C 
BRANCH  10  11
ATOM     11  C   UNL     1      29.450  -9.706  29.416  1.00  0.00    -0.003 C 
ATOM     12  C   UNL     1      29.430  -9.115  28.008  1.00  0.00     0.004 C 
ENDBRANCH  10  11
ENDBRANCH   9  10
ENDBRANCH   8   9
ENDBRANCH   7   8
ENDBRANCH   6   7
ENDBRANCH   5   6
ENDBRANCH   4   5
ENDBRANCH   3   4
ENDBRANCH   2   3
ENDBRANCH   1   2
BRANCH   1  13
ATOM     13  C   UNL     1      29.568   0.724  30.968  1.00  0.00     0.000 C 
BRANCH  13  14
ATOM     14  C   UNL     1      28.196   1.421  30.919  1.00  0.00     0.000 C 
BRANCH  14  15
ATOM     15  C   UNL     1      27.696   1.782  29.508  1.00  0.00     0.000 C 
BRANCH  15  16
ATOM     16  C   UNL     1      27.681   3.297  29.245  1.00  0.00     0.000 C 
BRANCH  16  17
ATOM     17  C   UNL     1      27.681   4.121  30.542  1.00  0.00     0.000 C 
BRANCH  17  18
ATOM     18  C   UNL     1      27.350   5.604  30.299  1.00  0.00     0.000 C 
BRANCH  18  19
ATOM     19  C   UNL     1      28.577   6.422  29.870  1.00  0.00     0.000 C 
BRANCH  19  20
ATOM     20  C   UNL     1      28.364   7.937  30.031  1.00  0.00     0.006 C 
BRANCH  20  21
ATOM     21  C   UNL     1      27.030   8.265  30.714  1.00  0.00     0.053 C 
BRANCH  21  22
ATOM     22  C   UNL     1      26.356   9.444  30.081  1.00  0.00     0.041 C 
ATOM     23  O   UNL     1      25.259   9.865  30.532  1.00  0.00    -0.550 OA
ATOM     24  O   UNL     1      26.960  10.102  29.016  1.00  0.00    -0.550 OA
ENDBRANCH  21  22
ENDBRANCH  20  21
ENDBRANCH  19  20
ENDBRANCH  18  19
ENDBRANCH  17  18
ENDBRANCH  16  17
ENDBRANCH  15  16
ENDBRANCH  14  15
ENDBRANCH  13  14
ENDBRANCH   1  13
TORSDOF 20
ENDMDL
MODEL 2
REMARK VINA RESULT:    -5.636      1.367      2.238
REMARK INTER + INTRA:         -13.709
REMARK INTER:                 -12.174
REMARK INTRA:                  -1.536
REMARK UNBOUND:                -1.483
REMARK SMILES CCCCCCCCCCCCCCCCCCCCCC(=O)[O-]
REMARK SMILES IDX 12 1 11 2 10 3 9 4 8 5 7 6 6 7 5 8 4 9 3 10 2 11 1 12 13 13
REMARK SMILES IDX 14 14 15 15 16 16 17 17 18 18 19 19 20 20 21 21 22 22 23 23
REMARK SMILES IDX 24 24
REMARK H PARENT
REMARK Flexibility Score: inf
ROOT
ATOM      1  C   UNL     1      27.513  -1.282  29.329  1.00  0.00     0.000 C 
ENDROOT
BRANCH   1   2
ATOM      2  C   UNL     1      28.732  -2.180  29.044  1.00  0.00     0.000 C 
BRANCH   2   3
ATOM      3  C   UNL     1      29.105  -3.160  30.173  1.00  0.00     0.000 C 
BRANCH   3   4
ATOM      4  C   UNL     1      30.075  -4.260  29.717  1.00  0.00    -0.000 C 
BRANCH   4   5
ATOM      5  C   UNL     1      29.974  -5.495  30.625  1.00  0.00    -0.000 C 
BRANCH   5   6
ATOM      6  C   UNL     1      28.520  -5.902  30.908  1.00  0.00    -0.000 C 
BRANCH   6   7
ATOM      7  C   UNL     1      27.911  -6.753  29.778  1.00  0.00    -0.000 C 
BRANCH   7   8
ATOM      8  C   UNL     1      28.979  -7.387  28.875  1.00  0.00    -0.000 C 
BRANCH   8   9
ATOM      9  C   UNL     1      29.252  -8.861  29.226  1.00  0.00    -0.000 C 
BRANCH   9  10
ATOM     10  C   UNL     1      28.061  -9.514  29.958  1.00  0.00    -0.000 C 
BRANCH  10  11
ATOM     11  C   UNL     1      28.308  -9.729  31.461  1.00  0.00    -0.003 C 
ATOM     12  C   UNL     1      29.779  -9.964  31.796  1.00  0.00     0.004 C 
ENDBRANCH  10  11
ENDBRANCH   9  10
ENDBRANCH   8   9
ENDBRANCH   7   8
ENDBRANCH   6   7
ENDBRANCH   5   6
ENDBRANCH   4   5
ENDBRANCH   3   4
ENDBRANCH   2   3
ENDBRANCH   1   2
BRANCH   1  13
ATOM     13  C   UNL     1      27.067  -1.326  30.801  1.00  0.00     0.000 C 
BRANCH  13  14
ATOM     14  C   UNL     1      27.183   0.039  31.504  1.00  0.00     0.000 C 
BRANCH  14  15
ATOM     15  C   UNL     1      28.594   0.654  31.510  1.00  0.00     0.000 C 
BRANCH  15  16
ATOM     16  C   UNL     1      28.607   2.133  31.088  1.00  0.00     0.000 C 
BRANCH  16  17
ATOM     17  C   UNL     1      27.859   2.377  29.769  1.00  0.00     0.000 C 
BRANCH  17  18
ATOM     18  C   UNL     1      27.614   3.872  29.496  1.00  0.00     0.000 C 
BRANCH  18  19
ATOM     19  C   UNL     1      27.975   4.759  30.698  1.00  0.00     0.000 C 
BRANCH  19  20
ATOM     20  C   UNL     1      28.417   6.171  30.278  1.00  0.00     0.006 C 
BRANCH  20  21
ATOM     21  C   UNL     1      27.263   7.181  30.337  1.00  0.00     0.053 C 
BRANCH  21  22
ATOM     22  C   UNL     1      27.762   8.591  30.433  1.00  0.00     0.041 C 
ATOM     23  O   UNL     1      27.302   9.368  31.310  1.00  0.00    -0.550 OA
ATOM     24  O   UNL     1      28.764   9.034  29.578  1.00  0.00    -0.550 OA
ENDBRANCH  21  22
ENDBRANCH  20  21
ENDBRANCH  19  20
ENDBRANCH  18  19
ENDBRANCH  17  18
ENDBRANCH  16  17
ENDBRANCH  15  16
ENDBRANCH  14  15
ENDBRANCH  13  14
ENDBRANCH   1  13
TORSDOF 20
ENDMDL
MODEL 3
REMARK VINA RESULT:    -5.622      1.267      1.827
REMARK INTER + INTRA:         -13.678
REMARK INTER:                 -12.392
REMARK INTRA:                  -1.286
REMARK UNBOUND:                -1.483
REMARK SMILES CCCCCCCCCCCCCCCCCCCCCC(=O)[O-]
REMARK SMILES IDX 12 1 11 2 10 3 9 4 8 5 7 6 6 7 5 8 4 9 3 10 2 11 1 12 13 13
REMARK SMILES IDX 14 14 15 15 16 16 17 17 18 18 19 19 20 20 21 21 22 22 23 23
REMARK SMILES IDX 24 24
REMARK H PARENT
REMARK Flexibility Score: inf
ROOT
ATOM      1  C   UNL     1      26.469  -0.251  30.903  1.00  0.00     0.000 C 
ENDROOT
BRANCH   1   2
ATOM      2  C   UNL     1      26.760  -1.592  30.204  1.00  0.00     0.000 C 
BRANCH   2   3
ATOM      3  C   UNL     1      27.734  -1.515  29.012  1.00  0.00     0.000 C 
BRANCH   3   4
ATOM      4  C   UNL     1      29.124  -2.082  29.334  1.00  0.00    -0.000 C 
BRANCH   4   5
ATOM      5  C   UNL     1      29.014  -3.442  30.041  1.00  0.00    -0.000 C 
BRANCH   5   6
ATOM      6  C   UNL     1      30.351  -4.196  30.080  1.00  0.00    -0.000 C 
BRANCH   6   7
ATOM      7  C   UNL     1      30.214  -5.621  30.648  1.00  0.00    -0.000 C 
BRANCH   7   8
ATOM      8  C   UNL     1      28.751  -6.015  30.907  1.00  0.00    -0.000 C 
BRANCH   8   9
ATOM      9  C   UNL     1      28.621  -7.383  31.600  1.00  0.00    -0.000 C 
BRANCH   9  10
ATOM     10  C   UNL     1      29.207  -8.526  30.745  1.00  0.00    -0.000 C 
BRANCH  10  11
ATOM     11  C   UNL     1      28.384  -8.831  29.482  1.00  0.00    -0.003 C 
ATOM     12  C   UNL     1      29.214  -8.774  28.201  1.00  0.00     0.004 C 
ENDBRANCH  10  11
ENDBRANCH   9  10
ENDBRANCH   8   9
ENDBRANCH   7   8
ENDBRANCH   6   7
ENDBRANCH   5   6
ENDBRANCH   4   5
ENDBRANCH   3   4
ENDBRANCH   2   3
ENDBRANCH   1   2
BRANCH   1  13
ATOM     13  C   UNL     1      27.726   0.392  31.515  1.00  0.00     0.000 C 
BRANCH  13  14
ATOM     14  C   UNL     1      27.904   1.866  31.108  1.00  0.00     0.000 C 
BRANCH  14  15
ATOM     15  C   UNL     1      27.997   2.120  29.593  1.00  0.00     0.000 C 
BRANCH  15  16
ATOM     16  C   UNL     1      27.366   3.458  29.168  1.00  0.00     0.000 C 
BRANCH  16  17
ATOM     17  C   UNL     1      28.143   4.671  29.700  1.00  0.00     0.000 C 
BRANCH  17  18
ATOM     18  C   UNL     1      27.383   5.418  30.811  1.00  0.00     0.000 C 
BRANCH  18  19
ATOM     19  C   UNL     1      27.103   6.885  30.452  1.00  0.00     0.000 C 
BRANCH  19  20
ATOM     20  C   UNL     1      28.371   7.640  30.019  1.00  0.00     0.006 C 
BRANCH  20  21
ATOM     21  C   UNL     1      28.446   9.046  30.628  1.00  0.00     0.053 C 
BRANCH  21  22
ATOM     22  C   UNL     1      27.088   9.664  30.771  1.00  0.00     0.041 C 
ATOM     23  O   UNL     1      26.478  10.093  29.757  1.00  0.00    -0.550 OA
ATOM     24  O   UNL     1      26.482   9.731  32.020  1.00  0.00    -0.550 OA
ENDBRANCH  21  22
ENDBRANCH  20  21
ENDBRANCH  19  20
ENDBRANCH  18  19
ENDBRANCH  17  18
ENDBRANCH  16  17
ENDBRANCH  15  16
ENDBRANCH  14  15
ENDBRANCH  13  14
ENDBRANCH   1  13
TORSDOF 20
ENDMDL
MODEL 4
REMARK VINA RESULT:    -5.588      5.767     12.280
REMARK INTER + INTRA:         -13.606
REMARK INTER:                 -12.102
REMARK INTRA:                  -1.504
REMARK UNBOUND:                -1.483
REMARK SMILES CCCCCCCCCCCCCCCCCCCCCC(=O)[O-]
REMARK SMILES IDX 12 1 11 2 10 3 9 4 8 5 7 6 6 7 5 8 4 9 3 10 2 11 1 12 13 13
REMARK SMILES IDX 14 14 15 15 16 16 17 17 18 18 19 19 20 20 21 21 22 22 23 23
REMARK SMILES IDX 24 24
REMARK H PARENT
REMARK Flexibility Score: inf
ROOT
ATOM      1  C   UNL     1      27.725  -1.204  28.650  1.00  0.00     0.000 C 
ENDROOT
BRANCH   1   2
ATOM      2  C   UNL     1      26.627  -0.208  29.066  1.00  0.00     0.000 C 
BRANCH   2   3
ATOM      3  C   UNL     1      26.181  -0.296  30.538  1.00  0.00     0.000 C 
BRANCH   3   4
ATOM      4  C   UNL     1      27.203   0.307  31.513  1.00  0.00    -0.000 C 
BRANCH   4   5
ATOM      5  C   UNL     1      27.639   1.708  31.057  1.00  0.00    -0.000 C 
BRANCH   5   6
ATOM      6  C   UNL     1      28.872   2.219  31.818  1.00  0.00    -0.000 C 
BRANCH   6   7
ATOM      7  C   UNL     1      29.051   3.743  31.703  1.00  0.00    -0.000 C 
BRANCH   7   8
ATOM      8  C   UNL     1      28.015   4.392  30.773  1.00  0.00    -0.000 C 
BRANCH   8   9
ATOM      9  C   UNL     1      28.378   5.840  30.400  1.00  0.00    -0.000 C 
BRANCH   9  10
ATOM     10  C   UNL     1      27.177   6.798  30.548  1.00  0.00    -0.000 C 
BRANCH  10  11
ATOM     11  C   UNL     1      27.557   8.282  30.419  1.00  0.00    -0.003 C 
ATOM     12  C   UNL     1      26.369   9.174  30.065  1.00  0.00     0.004 C 
ENDBRANCH  10  11
ENDBRANCH   9  10
ENDBRANCH   8   9
ENDBRANCH   7   8
ENDBRANCH   6   7
ENDBRANCH   5   6
ENDBRANCH   4   5
ENDBRANCH   3   4
ENDBRANCH   2   3
ENDBRANCH   1   2
BRANCH   1  13
ATOM     13  C   UNL     1      29.146  -0.644  28.839  1.00  0.00     0.000 C 
BRANCH  13  14
ATOM     14  C   UNL     1      29.926  -1.352  29.962  1.00  0.00     0.000 C 
BRANCH  14  15
ATOM     15  C   UNL     1      29.415  -2.757  30.328  1.00  0.00     0.000 C 
BRANCH  15  16
ATOM     16  C   UNL     1      30.442  -3.865  30.035  1.00  0.00     0.000 C 
BRANCH  16  17
ATOM     17  C   UNL     1      29.886  -5.271  30.306  1.00  0.00     0.000 C 
BRANCH  17  18
ATOM     18  C   UNL     1      28.362  -5.272  30.523  1.00  0.00     0.000 C 
BRANCH  18  19
ATOM     19  C   UNL     1      27.663  -6.430  29.796  1.00  0.00     0.000 C 
BRANCH  19  20
ATOM     20  C   UNL     1      28.643  -7.534  29.362  1.00  0.00     0.006 C 
BRANCH  20  21
ATOM     21  C   UNL     1      28.316  -8.887  30.008  1.00  0.00     0.053 C 
BRANCH  21  22
ATOM     22  C   UNL     1      28.944  -9.024  31.362  1.00  0.00     0.041 C 
ATOM     23  O   UNL     1      29.874  -9.852  31.548  1.00  0.00    -0.550 OA
ATOM     24  O   UNL     1      28.528  -8.208  32.407  1.00  0.00    -0.550 OA
ENDBRANCH  21  22
ENDBRANCH  20  21
ENDBRANCH  19  20
ENDBRANCH  18  19
ENDBRANCH  17  18
ENDBRANCH  16  17
ENDBRANCH  15  16
ENDBRANCH  14  15
ENDBRANCH  13  14
ENDBRANCH   1  13
TORSDOF 20
ENDMDL
MODEL 5
REMARK VINA RESULT:    -5.523      1.181      2.058
REMARK INTER + INTRA:         -13.463
REMARK INTER:                 -12.242
REMARK INTRA:                  -1.221
REMARK UNBOUND:                -1.483
REMARK SMILES CCCCCCCCCCCCCCCCCCCCCC(=O)[O-]
REMARK SMILES IDX 12 1 11 2 10 3 9 4 8 5 7 6 6 7 5 8 4 9 3 10 2 11 1 12 13 13
REMARK SMILES IDX 14 14 15 15 16 16 17 17 18 18 19 19 20 20 21 21 22 22 23 23
REMARK SMILES IDX 24 24
REMARK H PARENT
REMARK Flexibility Score: inf
ROOT
ATOM      1  C   UNL     1      27.165  -0.744  29.156  1.00  0.00     0.000 C 
ENDROOT
BRANCH   1   2
ATOM      2  C   UNL     1      28.634  -1.207  29.189  1.00  0.00     0.000 C 
BRANCH   2   3
ATOM      3  C   UNL     1      29.048  -1.994  30.447  1.00  0.00     0.000 C 
BRANCH   3   4
ATOM      4  C   UNL     1      30.134  -3.043  30.168  1.00  0.00    -0.000 C 
BRANCH   4   5
ATOM      5  C   UNL     1      29.527  -4.316  29.559  1.00  0.00    -0.000 C 
BRANCH   5   6
ATOM      6  C   UNL     1      28.384  -4.891  30.409  1.00  0.00    -0.000 C 
BRANCH   6   7
ATOM      7  C   UNL     1      27.921  -6.276  29.924  1.00  0.00    -0.000 C 
BRANCH   7   8
ATOM      8  C   UNL     1      28.808  -6.836  28.801  1.00  0.00    -0.000 C 
BRANCH   8   9
ATOM      9  C   UNL     1      29.118  -8.333  28.983  1.00  0.00    -0.000 C 
BRANCH   9  10
ATOM     10  C   UNL     1      28.068  -9.042  29.864  1.00  0.00    -0.000 C 
BRANCH  10  11
ATOM     11  C   UNL     1      28.681  -9.840  31.027  1.00  0.00    -0.003 C 
ATOM     12  C   UNL     1      28.684  -9.070  32.345  1.00  0.00     0.004 C 
ENDBRANCH  10  11
ENDBRANCH   9  10
ENDBRANCH   8   9
ENDBRANCH   7   8
ENDBRANCH   6   7
ENDBRANCH   5   6
ENDBRANCH   4   5
ENDBRANCH   3   4
ENDBRANCH   2   3
ENDBRANCH   1   2
BRANCH   1  13
ATOM     13  C   UNL     1      27.018   0.787  29.151  1.00  0.00     0.000 C 
BRANCH  13  14
ATOM     14  C   UNL     1      28.290   1.514  29.626  1.00  0.00     0.000 C 
BRANCH  14  15
ATOM     15  C   UNL     1      28.310   1.887  31.119  1.00  0.00     0.000 C 
BRANCH  15  16
ATOM     16  C   UNL     1      28.087   3.390  31.366  1.00  0.00     0.000 C 
BRANCH  16  17
ATOM     17  C   UNL     1      28.066   4.204  30.064  1.00  0.00     0.000 C 
BRANCH  17  18
ATOM     18  C   UNL     1      26.880   5.182  29.998  1.00  0.00     0.000 C 
BRANCH  18  19
ATOM     19  C   UNL     1      27.183   6.526  30.677  1.00  0.00     0.000 C 
BRANCH  19  20
ATOM     20  C   UNL     1      28.410   7.230  30.073  1.00  0.00     0.006 C 
BRANCH  20  21
ATOM     21  C   UNL     1      28.431   8.732  30.388  1.00  0.00     0.053 C 
BRANCH  21  22
ATOM     22  C   UNL     1      27.241   9.438  29.811  1.00  0.00     0.041 C 
ATOM     23  O   UNL     1      27.335  10.042  28.710  1.00  0.00    -0.550 OA
ATOM     24  O   UNL     1      26.019   9.395  30.471  1.00  0.00    -0.550 OA
ENDBRANCH  21  22
ENDBRANCH  20  21
ENDBRANCH  19  20
ENDBRANCH  18  19
ENDBRANCH  17  18
ENDBRANCH  16  17
ENDBRANCH  15  16
ENDBRANCH  14  15
ENDBRANCH  13  14
ENDBRANCH   1  13
TORSDOF 20
ENDMDL
MODEL 6
REMARK VINA RESULT:    -5.519      5.859     13.116
REMARK INTER + INTRA:         -13.455
REMARK INTER:                 -12.063
REMARK INTRA:                  -1.391
REMARK UNBOUND:                -1.483
REMARK SMILES CCCCCCCCCCCCCCCCCCCCCC(=O)[O-]
REMARK SMILES IDX 12 1 11 2 10 3 9 4 8 5 7 6 6 7 5 8 4 9 3 10 2 11 1 12 13 13
REMARK SMILES IDX 14 14 15 15 16 16 17 17 18 18 19 19 20 20 21 21 22 22 23 23
REMARK SMILES IDX 24 24
REMARK H PARENT
REMARK Flexibility Score: inf
ROOT
ATOM      1  C   UNL     1      27.224   0.464  31.332  1.00  0.00     0.000 C 
ENDROOT
BRANCH   1   2
ATOM      2  C   UNL     1      28.135   1.636  30.919  1.00  0.00     0.000 C 
BRANCH   2   3
ATOM      3  C   UNL     1      28.002   2.087  29.452  1.00  0.00     0.000 C 
BRANCH   3   4
ATOM      4  C   UNL     1      27.812   3.603  29.304  1.00  0.00    -0.000 C 
BRANCH   4   5
ATOM      5  C   UNL     1      27.746   4.287  30.678  1.00  0.00    -0.000 C 
BRANCH   5   6
ATOM      6  C   UNL     1      27.302   5.755  30.586  1.00  0.00    -0.000 C 
BRANCH   6   7
ATOM      7  C   UNL     1      28.378   6.663  29.963  1.00  0.00    -0.000 C 
BRANCH   7   8
ATOM      8  C   UNL     1      28.255   8.124  30.422  1.00  0.00    -0.000 C 
BRANCH   8   9
ATOM      9  C   UNL     1      27.165   8.895  29.657  1.00  0.00    -0.000 C 
BRANCH   9  10
ATOM     10  C   UNL     1      26.123   9.525  30.605  1.00  0.00    -0.000 C 
BRANCH  10  11
ATOM     11  C   UNL     1      26.237   9.029  32.057  1.00  0.00    -0.003 C 
ATOM     12  C   UNL     1      26.700  10.115  33.025  1.00  0.00     0.004 C 
ENDBRANCH  10  11
ENDBRANCH   9  10
ENDBRANCH   8   9
ENDBRANCH   7   8
ENDBRANCH   6   7
ENDBRANCH   5   6
ENDBRANCH   4   5
ENDBRANCH   3   4
ENDBRANCH   2   3
ENDBRANCH   1   2
BRANCH   1  13
ATOM     13  C   UNL     1      28.013  -0.764  31.819  1.00  0.00     0.000 C 
BRANCH  13  14
ATOM     14  C   UNL     1      29.248  -1.068  30.952  1.00  0.00     0.000 C 
BRANCH  14  15
ATOM     15  C   UNL     1      28.952  -1.774  29.616  1.00  0.00     0.000 C 
BRANCH  15  16
ATOM     16  C   UNL     1      28.872  -3.304  29.751  1.00  0.00     0.000 C 
BRANCH  16  17
ATOM     17  C   UNL     1      30.244  -3.947  29.997  1.00  0.00     0.000 C 
BRANCH  17  18
ATOM     18  C   UNL     1      30.137  -5.333  30.658  1.00  0.00     0.000 C 
BRANCH  18  19
ATOM     19  C   UNL     1      28.683  -5.754  30.916  1.00  0.00     0.000 C 
BRANCH  19  20
ATOM     20  C   UNL     1      28.427  -7.234  30.581  1.00  0.00     0.006 C 
BRANCH  20  21
ATOM     21  C   UNL     1      28.709  -7.551  29.106  1.00  0.00     0.053 C 
BRANCH  21  22
ATOM     22  C   UNL     1      29.176  -8.962  28.919  1.00  0.00     0.041 C 
ATOM     23  O   UNL     1      29.688  -9.321  27.827  1.00  0.00    -0.550 OA
ATOM     24  O   UNL     1      29.081  -9.871  29.967  1.00  0.00    -0.550 OA
ENDBRANCH  21  22
ENDBRANCH  20  21
ENDBRANCH  19  20
ENDBRANCH  18  19
ENDBRANCH  17  18
ENDBRANCH  16  17
ENDBRANCH  15  16
ENDBRANCH  14  15
ENDBRANCH  13  14
ENDBRANCH   1  13
TORSDOF 20
ENDMDL
MODEL 7
REMARK VINA RESULT:    -5.511      5.810     12.855
REMARK INTER + INTRA:         -13.437
REMARK INTER:                 -11.957
REMARK INTRA:                  -1.480
REMARK UNBOUND:                -1.483
REMARK SMILES CCCCCCCCCCCCCCCCCCCCCC(=O)[O-]
REMARK SMILES IDX 12 1 11 2 10 3 9 4 8 5 7 6 6 7 5 8 4 9 3 10 2 11 1 12 13 13
REMARK SMILES IDX 14 14 15 15 16 16 17 17 18 18 19 19 20 20 21 21 22 22 23 23
REMARK SMILES IDX 24 24
REMARK H PARENT
REMARK Flexibility Score: inf
ROOT
ATOM      1  C   UNL     1      29.495  -0.638  31.664  1.00  0.00     0.000 C 
ENDROOT
BRANCH   1   2
ATOM      2  C   UNL     1      29.643   0.799  31.129  1.00  0.00     0.000 C 
BRANCH   2   3
ATOM      3  C   UNL     1      28.776   1.137  29.901  1.00  0.00     0.000 C 
BRANCH   3   4
ATOM      4  C   UNL     1      27.836   2.328  30.139  1.00  0.00    -0.000 C 
BRANCH   4   5
ATOM      5  C   UNL     1      28.279   3.144  31.363  1.00  0.00    -0.000 C 
BRANCH   5   6
ATOM      6  C   UNL     1      27.632   4.537  31.408  1.00  0.00    -0.000 C 
BRANCH   6   7
ATOM      7  C   UNL     1      27.437   5.147  30.009  1.00  0.00    -0.000 C 
BRANCH   7   8
ATOM      8  C   UNL     1      28.527   6.170  29.653  1.00  0.00    -0.000 C 
BRANCH   8   9
ATOM      9  C   UNL     1      28.475   7.424  30.543  1.00  0.00    -0.000 C 
BRANCH   9  10
ATOM     10  C   UNL     1      28.419   8.724  29.714  1.00  0.00    -0.000 C 
BRANCH  10  11
ATOM     11  C   UNL     1      27.056   9.433  29.776  1.00  0.00    -0.003 C 
ATOM     12  C   UNL     1      26.151   8.892  30.881  1.00  0.00     0.004 C 
ENDBRANCH  10  11
ENDBRANCH   9  10
ENDBRANCH   8   9
ENDBRANCH   7   8
ENDBRANCH   6   7
ENDBRANCH   5   6
ENDBRANCH   4   5
ENDBRANCH   3   4
ENDBRANCH   2   3
ENDBRANCH   1   2
BRANCH   1  13
ATOM     13  C   UNL     1      28.032  -1.115  31.704  1.00  0.00     0.000 C 
BRANCH  13  14
ATOM     14  C   UNL     1      27.786  -2.370  30.847  1.00  0.00     0.000 C 
BRANCH  14  15
ATOM     15  C   UNL     1      28.772  -2.569  29.681  1.00  0.00     0.000 C 
BRANCH  15  16
ATOM     16  C   UNL     1      29.891  -3.573  30.004  1.00  0.00     0.000 C 
BRANCH  16  17
ATOM     17  C   UNL     1      29.517  -5.015  29.630  1.00  0.00     0.000 C 
BRANCH  17  18
ATOM     18  C   UNL     1      29.842  -6.020  30.749  1.00  0.00     0.000 C 
BRANCH  18  19
ATOM     19  C   UNL     1      28.583  -6.651  31.362  1.00  0.00     0.000 C 
BRANCH  19  20
ATOM     20  C   UNL     1      28.758  -8.150  31.661  1.00  0.00     0.006 C 
BRANCH  20  21
ATOM     21  C   UNL     1      29.681  -8.839  30.647  1.00  0.00     0.053 C 
BRANCH  21  22
ATOM     22  C   UNL     1      28.913  -9.407  29.492  1.00  0.00     0.041 C 
ATOM     23  O   UNL     1      27.691  -9.682  29.617  1.00  0.00    -0.550 OA
ATOM     24  O   UNL     1      29.540  -9.597  28.266  1.00  0.00    -0.550 OA
ENDBRANCH  21  22
ENDBRANCH  20  21
ENDBRANCH  19  20
ENDBRANCH  18  19
ENDBRANCH  17  18
ENDBRANCH  16  17
ENDBRANCH  15  16
ENDBRANCH  14  15
ENDBRANCH  13  14
ENDBRANCH   1  13
TORSDOF 20
ENDMDL
MODEL 8
REMARK VINA RESULT:    -5.497      5.794     12.738
REMARK INTER + INTRA:         -13.408
REMARK INTER:                 -11.934
REMARK INTRA:                  -1.474
REMARK UNBOUND:                -1.483
REMARK SMILES CCCCCCCCCCCCCCCCCCCCCC(=O)[O-]
REMARK SMILES IDX 12 1 11 2 10 3 9 4 8 5 7 6 6 7 5 8 4 9 3 10 2 11 1 12 13 13
REMARK SMILES IDX 14 14 15 15 16 16 17 17 18 18 19 19 20 20 21 21 22 22 23 23
REMARK SMILES IDX 24 24
REMARK H PARENT
REMARK Flexibility Score: inf
ROOT
ATOM      1  C   UNL     1      29.182   0.295  29.113  1.00  0.00     0.000 C 
ENDROOT
BRANCH   1   2
ATOM      2  C   UNL     1      29.914   0.271  30.468  1.00  0.00     0.000 C 
BRANCH   2   3
ATOM      3  C   UNL     1      29.187   0.989  31.621  1.00  0.00     0.000 C 
BRANCH   3   4
ATOM      4  C   UNL     1      28.418   2.237  31.163  1.00  0.00    -0.000 C 
BRANCH   4   5
ATOM      5  C   UNL     1      28.898   3.486  31.917  1.00  0.00    -0.000 C 
BRANCH   5   6
ATOM      6  C   UNL     1      28.736   4.772  31.091  1.00  0.00    -0.000 C 
BRANCH   6   7
ATOM      7  C   UNL     1      27.263   5.114  30.806  1.00  0.00    -0.000 C 
BRANCH   7   8
ATOM      8  C   UNL     1      27.093   6.487  30.139  1.00  0.00    -0.000 C 
BRANCH   8   9
ATOM      9  C   UNL     1      28.253   7.448  30.459  1.00  0.00    -0.000 C 
BRANCH   9  10
ATOM     10  C   UNL     1      27.935   8.901  30.046  1.00  0.00    -0.000 C 
BRANCH  10  11
ATOM     11  C   UNL     1      26.560   9.390  30.533  1.00  0.00    -0.003 C 
ATOM     12  C   UNL     1      26.538   9.722  32.024  1.00  0.00     0.004 C 
ENDBRANCH  10  11
ENDBRANCH   9  10
ENDBRANCH   8   9
ENDBRANCH   7   8
ENDBRANCH   6   7
ENDBRANCH   5   6
ENDBRANCH   4   5
ENDBRANCH   3   4
ENDBRANCH   2   3
ENDBRANCH   1   2
BRANCH   1  13
ATOM     13  C   UNL     1      28.523  -1.050  28.764  1.00  0.00     0.000 C 
BRANCH  13  14
ATOM     14  C   UNL     1      27.050  -1.130  29.207  1.00  0.00     0.000 C 
BRANCH  14  15
ATOM     15  C   UNL     1      26.765  -2.111  30.359  1.00  0.00     0.000 C 
BRANCH  15  16
ATOM     16  C   UNL     1      27.767  -3.277  30.416  1.00  0.00     0.000 C 
BRANCH  16  17
ATOM     17  C   UNL     1      27.151  -4.556  31.003  1.00  0.00     0.000 C 
BRANCH  17  18
ATOM     18  C   UNL     1      27.233  -5.749  30.034  1.00  0.00     0.000 C 
BRANCH  18  19
ATOM     19  C   UNL     1      28.658  -5.994  29.517  1.00  0.00     0.000 C 
BRANCH  19  20
ATOM     20  C   UNL     1      29.495  -6.856  30.477  1.00  0.00     0.006 C 
BRANCH  20  21
ATOM     21  C   UNL     1      28.748  -8.120  30.922  1.00  0.00     0.053 C 
BRANCH  21  22
ATOM     22  C   UNL     1      28.623  -9.114  29.807  1.00  0.00     0.041 C 
ATOM     23  O   UNL     1      27.614  -9.864  29.737  1.00  0.00    -0.550 OA
ATOM     24  O   UNL     1      29.603  -9.184  28.824  1.00  0.00    -0.550 OA
ENDBRANCH  21  22
ENDBRANCH  20  21
ENDBRANCH  19  20
ENDBRANCH  18  19
ENDBRANCH  17  18
ENDBRANCH  16  17
ENDBRANCH  15  16
ENDBRANCH  14  15
ENDBRANCH  13  14
ENDBRANCH   1  13
TORSDOF 20
ENDMDL
MODEL 9
REMARK VINA RESULT:    -5.393      1.272      2.094
REMARK INTER + INTRA:         -13.182
REMARK INTER:                 -11.811
REMARK INTRA:                  -1.371
REMARK UNBOUND:                -1.483
REMARK SMILES CCCCCCCCCCCCCCCCCCCCCC(=O)[O-]
REMARK SMILES IDX 12 1 11 2 10 3 9 4 8 5 7 6 6 7 5 8 4 9 3 10 2 11 1 12 13 13
REMARK SMILES IDX 14 14 15 15 16 16 17 17 18 18 19 19 20 20 21 21 22 22 23 23
REMARK SMILES IDX 24 24
REMARK H PARENT
REMARK Flexibility Score: inf
ROOT
ATOM      1  C   UNL     1      28.438  -1.650  29.997  1.00  0.00     0.000 C 
ENDROOT
BRANCH   1   2
ATOM      2  C   UNL     1      28.647  -3.141  30.323  1.00  0.00     0.000 C 
BRANCH   2   3
ATOM      3  C   UNL     1      27.378  -3.907  30.741  1.00  0.00     0.000 C 
BRANCH   3   4
ATOM      4  C   UNL     1      27.327  -5.336  30.181  1.00  0.00    -0.000 C 
BRANCH   4   5
ATOM      5  C   UNL     1      28.690  -5.753  29.610  1.00  0.00    -0.000 C 
BRANCH   5   6
ATOM      6  C   UNL     1      29.584  -6.437  30.657  1.00  0.00    -0.000 C 
BRANCH   6   7
ATOM      7  C   UNL     1      28.774  -7.189  31.729  1.00  0.00    -0.000 C 
BRANCH   7   8
ATOM      8  C   UNL     1      28.457  -8.637  31.323  1.00  0.00    -0.000 C 
BRANCH   8   9
ATOM      9  C   UNL     1      29.685  -9.561  31.421  1.00  0.00    -0.000 C 
BRANCH   9  10
ATOM     10  C   UNL     1      30.196  -9.998  30.032  1.00  0.00    -0.000 C 
BRANCH  10  11
ATOM     11  C   UNL     1      29.138  -9.875  28.923  1.00  0.00    -0.003 C 
ATOM     12  C   UNL     1      29.560  -8.933  27.797  1.00  0.00     0.004 C 
ENDBRANCH  10  11
ENDBRANCH   9  10
ENDBRANCH   8   9
ENDBRANCH   7   8
ENDBRANCH   6   7
ENDBRANCH   5   6
ENDBRANCH   4   5
ENDBRANCH   3   4
ENDBRANCH   2   3
ENDBRANCH   1   2
BRANCH   1  13
ATOM     13  C   UNL     1      26.962  -1.292  29.745  1.00  0.00     0.000 C 
BRANCH  13  14
ATOM     14  C   UNL     1      26.740   0.214  29.518  1.00  0.00     0.000 C 
BRANCH  14  15
ATOM     15  C   UNL     1      28.024   1.060  29.438  1.00  0.00     0.000 C 
BRANCH  15  16
ATOM     16  C   UNL     1      27.933   2.369  30.242  1.00  0.00     0.000 C 
BRANCH  16  17
ATOM     17  C   UNL     1      27.882   3.612  29.341  1.00  0.00     0.000 C 
BRANCH  17  18
ATOM     18  C   UNL     1      27.075   4.762  29.967  1.00  0.00     0.000 C 
BRANCH  18  19
ATOM     19  C   UNL     1      27.902   6.047  30.126  1.00  0.00     0.000 C 
BRANCH  19  20
ATOM     20  C   UNL     1      27.092   7.198  30.747  1.00  0.00     0.006 C 
BRANCH  20  21
ATOM     21  C   UNL     1      27.329   8.530  30.023  1.00  0.00     0.053 C 
BRANCH  21  22
ATOM     22  C   UNL     1      27.801   9.598  30.963  1.00  0.00     0.041 C 
ATOM     23  O   UNL     1      28.961  10.073  30.852  1.00  0.00    -0.550 OA
ATOM     24  O   UNL     1      26.943  10.097  31.937  1.00  0.00    -0.550 OA
ENDBRANCH  21  22
ENDBRANCH  20  21
ENDBRANCH  19  20
ENDBRANCH  18  19
ENDBRANCH  17  18
ENDBRANCH  16  17
ENDBRANCH  15  16
ENDBRANCH  14  15
ENDBRANCH  13  14
ENDBRANCH   1  13
TORSDOF 20
ENDMDL
