MODEL 1
REMARK VINA RESULT:    -6.404      0.000      0.000
REMARK INTER + INTRA:          -7.875
REMARK INTER:                  -7.714
REMARK INTRA:                  -0.160
REMARK UNBOUND:                -0.160
REMARK SMILES O=c1c(O)c(-c2ccc(O)c(O)c2)oc2cc(O)cc(O)c12
REMARK SMILES IDX 5 1 3 2 2 3 1 4 22 5 20 6 19 7 17 8 16 9 15 10 14 11 6 12
REMARK SMILES IDX 7 13 8 14 9 15 13 16 11 17 10 18 12 20 4 22 21 24 18 26
REMARK H PARENT 10 19 12 21 4 23 21 25 18 27
REMARK Flexibility Score: inf
ROOT
ATOM      1  C   UNL     1      26.678 -19.607   0.573  1.00  0.00     0.180 A 
ATOM      2  C   UNL     1      25.817 -18.750  -0.135  1.00  0.00     0.208 A 
ATOM      3  C   UNL     1      24.512 -19.181  -0.422  1.00  0.00     0.238 A 
ATOM      4  O   UNL     1      23.765 -18.432  -1.104  1.00  0.00    -0.285 OA
ATOM      5  C   UNL     1      24.078 -20.456   0.015  1.00  0.00     0.111 A 
ATOM      6  C   UNL     1      22.765 -20.978  -0.186  1.00  0.00     0.134 A 
ATOM      7  C   UNL     1      22.486 -22.303   0.174  1.00  0.00     0.093 A 
ATOM      8  C   UNL     1      23.455 -23.101   0.788  1.00  0.00     0.123 A 
ATOM      9  C   UNL     1      24.721 -22.581   1.042  1.00  0.00     0.094 A 
ATOM     10  C   UNL     1      25.040 -21.276   0.661  1.00  0.00     0.146 A 
ATOM     11  O   UNL     1      26.263 -20.823   0.913  1.00  0.00    -0.452 OA
ENDROOT
BRANCH   1  12
ATOM     12  C   UNL     1      28.058 -19.214   0.935  1.00  0.00     0.025 A 
ATOM     13  C   UNL     1      28.262 -18.135   1.807  1.00  0.00     0.016 A 
ATOM     14  C   UNL     1      29.556 -17.735   2.146  1.00  0.00     0.051 A 
ATOM     15  C   UNL     1      30.670 -18.391   1.611  1.00  0.00     0.157 A 
ATOM     16  C   UNL     1      29.174 -19.861   0.379  1.00  0.00     0.062 A 
ATOM     17  C   UNL     1      30.477 -19.465   0.710  1.00  0.00     0.158 A 
BRANCH  15  18
ATOM     18  O   UNL     1      31.936 -17.947   1.995  1.00  0.00    -0.504 OA
ATOM     19  H   UNL     1      32.119 -17.429   2.843  1.00  0.00     0.293 HD
ENDBRANCH  15  18
BRANCH  17  20
ATOM     20  O   UNL     1      31.538 -20.155   0.121  1.00  0.00    -0.504 OA
ATOM     21  H   UNL     1      32.296 -19.709  -0.374  1.00  0.00     0.293 HD
ENDBRANCH  17  20
ENDBRANCH   1  12
BRANCH   2  22
ATOM     22  O   UNL     1      26.273 -17.505  -0.577  1.00  0.00    -0.502 OA
ATOM     23  H   UNL     1      25.811 -16.638  -0.328  1.00  0.00     0.293 HD
ENDBRANCH   2  22
BRANCH   6  24
ATOM     24  O   UNL     1      21.702 -20.235  -0.706  1.00  0.00    -0.507 OA
ATOM     25  H   UNL     1      21.635 -19.229  -0.677  1.00  0.00     0.293 HD
ENDBRANCH   6  24
BRANCH   8  26
ATOM     26  O   UNL     1      23.163 -24.413   1.158  1.00  0.00    -0.508 OA
ATOM     27  H   UNL     1      23.898 -25.080   1.368  1.00  0.00     0.293 HD
ENDBRANCH   8  26
TORSDOF 6
ENDMDL
MODEL 2
REMARK VINA RESULT:    -6.326      0.569      1.432
REMARK INTER + INTRA:          -7.781
REMARK INTER:                  -7.617
REMARK INTRA:                  -0.163
REMARK UNBOUND:                -0.160
REMARK SMILES O=c1c(O)c(-c2ccc(O)c(O)c2)oc2cc(O)cc(O)c12
REMARK SMILES IDX 5 1 3 2 2 3 1 4 22 5 20 6 19 7 17 8 16 9 15 10 14 11 6 12
REMARK SMILES IDX 7 13 8 14 9 15 13 16 11 17 10 18 12 20 4 22 21 24 18 26
REMARK H PARENT 10 19 12 21 4 23 21 25 18 27
REMARK Flexibility Score: inf
ROOT
ATOM      1  C   UNL     1      26.669 -19.737   0.457  1.00  0.00     0.180 A 
ATOM      2  C   UNL     1      25.802 -18.859  -0.215  1.00  0.00     0.208 A 
ATOM      3  C   UNL     1      24.480 -19.262  -0.460  1.00  0.00     0.238 A 
ATOM      4  O   UNL     1      23.724 -18.493  -1.110  1.00  0.00    -0.285 OA
ATOM      5  C   UNL     1      24.037 -20.532  -0.018  1.00  0.00     0.111 A 
ATOM      6  C   UNL     1      22.707 -21.027  -0.177  1.00  0.00     0.134 A 
ATOM      7  C   UNL     1      22.415 -22.349   0.183  1.00  0.00     0.093 A 
ATOM      8  C   UNL     1      23.389 -23.171   0.757  1.00  0.00     0.123 A 
ATOM      9  C   UNL     1      24.673 -22.677   0.971  1.00  0.00     0.094 A 
ATOM     10  C   UNL     1      25.004 -21.375   0.589  1.00  0.00     0.146 A 
ATOM     11  O   UNL     1      26.243 -20.947   0.802  1.00  0.00    -0.452 OA
ENDROOT
BRANCH   1  12
ATOM     12  C   UNL     1      28.069 -19.373   0.774  1.00  0.00     0.025 A 
ATOM     13  C   UNL     1      29.117 -20.158   0.274  1.00  0.00     0.016 A 
ATOM     14  C   UNL     1      30.443 -19.845   0.577  1.00  0.00     0.051 A 
ATOM     15  C   UNL     1      30.749 -18.752   1.397  1.00  0.00     0.157 A 
ATOM     16  C   UNL     1      28.371 -18.289   1.616  1.00  0.00     0.062 A 
ATOM     17  C   UNL     1      29.698 -17.967   1.928  1.00  0.00     0.158 A 
BRANCH  15  18
ATOM     18  O   UNL     1      32.094 -18.488   1.656  1.00  0.00    -0.504 OA
ATOM     19  H   UNL     1      32.574 -17.651   1.354  1.00  0.00     0.293 HD
ENDBRANCH  15  18
BRANCH  17  20
ATOM     20  O   UNL     1      29.924 -16.875   2.769  1.00  0.00    -0.504 OA
ATOM     21  H   UNL     1      29.849 -15.912   2.475  1.00  0.00     0.293 HD
ENDBRANCH  17  20
ENDBRANCH   1  12
BRANCH   2  22
ATOM     22  O   UNL     1      26.266 -17.618  -0.663  1.00  0.00    -0.502 OA
ATOM     23  H   UNL     1      26.360 -17.397  -1.647  1.00  0.00     0.293 HD
ENDBRANCH   2  22
BRANCH   6  24
ATOM     24  O   UNL     1      21.641 -20.260  -0.654  1.00  0.00    -0.507 OA
ATOM     25  H   UNL     1      21.320 -19.400  -0.237  1.00  0.00     0.293 HD
ENDBRANCH   6  24
BRANCH   8  26
ATOM     26  O   UNL     1      23.086 -24.479   1.127  1.00  0.00    -0.508 OA
ATOM     27  H   UNL     1      23.554 -25.272   0.703  1.00  0.00     0.293 HD
ENDBRANCH   8  26
TORSDOF 6
ENDMDL
MODEL 3
REMARK VINA RESULT:    -5.650      4.961      7.189
REMARK INTER + INTRA:          -6.966
REMARK INTER:                  -6.795
REMARK INTRA:                  -0.171
REMARK UNBOUND:                -0.160
REMARK SMILES O=c1c(O)c(-c2ccc(O)c(O)c2)oc2cc(O)cc(O)c12
REMARK SMILES IDX 5 1 3 2 2 3 1 4 22 5 20 6 19 7 17 8 16 9 15 10 14 11 6 12
REMARK SMILES IDX 7 13 8 14 9 15 13 16 11 17 10 18 12 20 4 22 21 24 18 26
REMARK H PARENT 10 19 12 21 4 23 21 25 18 27
REMARK Flexibility Score: inf
ROOT
ATOM      1  C   UNL     1      29.581 -24.049   0.487  1.00  0.00     0.180 A 
ATOM      2  C   UNL     1      28.214 -23.943   0.177  1.00  0.00     0.208 A 
ATOM      3  C   UNL     1      27.661 -22.671  -0.038  1.00  0.00     0.238 A 
ATOM      4  O   UNL     1      26.426 -22.578  -0.261  1.00  0.00    -0.285 OA
ATOM      5  C   UNL     1      28.485 -21.521   0.044  1.00  0.00     0.111 A 
ATOM      6  C   UNL     1      28.039 -20.186  -0.195  1.00  0.00     0.134 A 
ATOM      7  C   UNL     1      28.910 -19.115   0.042  1.00  0.00     0.093 A 
ATOM      8  C   UNL     1      30.230 -19.336   0.446  1.00  0.00     0.123 A 
ATOM      9  C   UNL     1      30.691 -20.637   0.623  1.00  0.00     0.094 A 
ATOM     10  C   UNL     1      29.836 -21.725   0.430  1.00  0.00     0.146 A 
ATOM     11  O   UNL     1      30.313 -22.949   0.620  1.00  0.00    -0.452 OA
ENDROOT
BRANCH   1  12
ATOM     12  C   UNL     1      30.241 -25.357   0.701  1.00  0.00     0.025 A 
ATOM     13  C   UNL     1      30.333 -26.266  -0.362  1.00  0.00     0.016 A 
ATOM     14  C   UNL     1      30.933 -27.513  -0.176  1.00  0.00     0.051 A 
ATOM     15  C   UNL     1      31.438 -27.883   1.076  1.00  0.00     0.157 A 
ATOM     16  C   UNL     1      30.726 -25.735   1.965  1.00  0.00     0.062 A 
ATOM     17  C   UNL     1      31.327 -26.984   2.162  1.00  0.00     0.158 A 
BRANCH  15  18
ATOM     18  O   UNL     1      32.032 -29.141   1.194  1.00  0.00    -0.504 OA
ATOM     19  H   UNL     1      32.750 -29.487   0.572  1.00  0.00     0.293 HD
ENDBRANCH  15  18
BRANCH  17  20
ATOM     20  O   UNL     1      31.789 -27.290   3.444  1.00  0.00    -0.504 OA
ATOM     21  H   UNL     1      31.406 -28.025   4.021  1.00  0.00     0.293 HD
ENDBRANCH  17  20
ENDBRANCH   1  12
BRANCH   2  22
ATOM     22  O   UNL     1      27.415 -25.089   0.123  1.00  0.00    -0.502 OA
ATOM     23  H   UNL     1      27.798 -26.012  -0.040  1.00  0.00     0.293 HD
ENDBRANCH   2  22
BRANCH   6  24
ATOM     24  O   UNL     1      26.771 -19.864  -0.686  1.00  0.00    -0.507 OA
ATOM     25  H   UNL     1      26.265 -20.404  -1.371  1.00  0.00     0.293 HD
ENDBRANCH   6  24
BRANCH   8  26
ATOM     26  O   UNL     1      31.094 -18.265   0.664  1.00  0.00    -0.508 OA
ATOM     27  H   UNL     1      32.068 -18.305   0.386  1.00  0.00     0.293 HD
ENDBRANCH   8  26
TORSDOF 6
ENDMDL
MODEL 4
REMARK VINA RESULT:    -5.623      4.866      6.325
REMARK INTER + INTRA:          -6.934
REMARK INTER:                  -6.726
REMARK INTRA:                  -0.208
REMARK UNBOUND:                -0.160
REMARK SMILES O=c1c(O)c(-c2ccc(O)c(O)c2)oc2cc(O)cc(O)c12
REMARK SMILES IDX 5 1 3 2 2 3 1 4 22 5 20 6 19 7 17 8 16 9 15 10 14 11 6 12
REMARK SMILES IDX 7 13 8 14 9 15 13 16 11 17 10 18 12 20 4 22 21 24 18 26
REMARK H PARENT 10 19 12 21 4 23 21 25 18 27
REMARK Flexibility Score: inf
ROOT
ATOM      1  C   UNL     1      29.287 -24.045   0.386  1.00  0.00     0.180 A 
ATOM      2  C   UNL     1      29.922 -22.791   0.422  1.00  0.00     0.208 A 
ATOM      3  C   UNL     1      29.154 -21.633   0.227  1.00  0.00     0.238 A 
ATOM      4  O   UNL     1      29.737 -20.517   0.205  1.00  0.00    -0.285 OA
ATOM      5  C   UNL     1      27.758 -21.740   0.014  1.00  0.00     0.111 A 
ATOM      6  C   UNL     1      26.876 -20.630  -0.156  1.00  0.00     0.134 A 
ATOM      7  C   UNL     1      25.535 -20.859  -0.490  1.00  0.00     0.093 A 
ATOM      8  C   UNL     1      25.031 -22.158  -0.596  1.00  0.00     0.123 A 
ATOM      9  C   UNL     1      25.870 -23.246  -0.374  1.00  0.00     0.094 A 
ATOM     10  C   UNL     1      27.220 -23.051  -0.075  1.00  0.00     0.146 A 
ATOM     11  O   UNL     1      27.988 -24.117   0.120  1.00  0.00    -0.452 OA
ENDROOT
BRANCH   1  12
ATOM     12  C   UNL     1      30.025 -25.308   0.609  1.00  0.00     0.025 A 
ATOM     13  C   UNL     1      30.102 -26.254  -0.423  1.00  0.00     0.016 A 
ATOM     14  C   UNL     1      30.776 -27.461  -0.228  1.00  0.00     0.051 A 
ATOM     15  C   UNL     1      31.373 -27.755   1.003  1.00  0.00     0.157 A 
ATOM     16  C   UNL     1      30.605 -25.609   1.853  1.00  0.00     0.062 A 
ATOM     17  C   UNL     1      31.281 -26.819   2.060  1.00  0.00     0.158 A 
BRANCH  15  18
ATOM     18  O   UNL     1      32.038 -28.975   1.131  1.00  0.00    -0.504 OA
ATOM     19  H   UNL     1      32.985 -29.069   1.471  1.00  0.00     0.293 HD
ENDBRANCH  15  18
BRANCH  17  20
ATOM     20  O   UNL     1      31.834 -27.049   3.321  1.00  0.00    -0.504 OA
ATOM     21  H   UNL     1      32.314 -26.346   3.864  1.00  0.00     0.293 HD
ENDBRANCH  17  20
ENDBRANCH   1  12
BRANCH   2  22
ATOM     22  O   UNL     1      31.305 -22.709   0.611  1.00  0.00    -0.502 OA
ATOM     23  H   UNL     1      31.841 -23.459   1.031  1.00  0.00     0.293 HD
ENDBRANCH   2  22
BRANCH   6  24
ATOM     24  O   UNL     1      27.258 -19.297   0.018  1.00  0.00    -0.507 OA
ATOM     25  H   UNL     1      28.212 -18.972   0.046  1.00  0.00     0.293 HD
ENDBRANCH   6  24
BRANCH   8  26
ATOM     26  O   UNL     1      23.692 -22.376  -0.913  1.00  0.00    -0.508 OA
ATOM     27  H   UNL     1      23.189 -21.761  -1.544  1.00  0.00     0.293 HD
ENDBRANCH   8  26
TORSDOF 6
ENDMDL
MODEL 5
REMARK VINA RESULT:    -5.421      2.318      7.370
REMARK INTER + INTRA:          -6.690
REMARK INTER:                  -6.482
REMARK INTRA:                  -0.208
REMARK UNBOUND:                -0.160
REMARK SMILES O=c1c(O)c(-c2ccc(O)c(O)c2)oc2cc(O)cc(O)c12
REMARK SMILES IDX 5 1 3 2 2 3 1 4 22 5 20 6 19 7 17 8 16 9 15 10 14 11 6 12
REMARK SMILES IDX 7 13 8 14 9 15 13 16 11 17 10 18 12 20 4 22 21 24 18 26
REMARK H PARENT 10 19 12 21 4 23 21 25 18 27
REMARK Flexibility Score: inf
ROOT
ATOM      1  C   UNL     1      27.024 -21.937   0.144  1.00  0.00     0.180 A 
ATOM      2  C   UNL     1      27.541 -23.235  -0.007  1.00  0.00     0.208 A 
ATOM      3  C   UNL     1      28.923 -23.439   0.144  1.00  0.00     0.238 A 
ATOM      4  O   UNL     1      29.388 -24.593  -0.047  1.00  0.00    -0.285 OA
ATOM      5  C   UNL     1      29.766 -22.346   0.459  1.00  0.00     0.111 A 
ATOM      6  C   UNL     1      31.174 -22.445   0.674  1.00  0.00     0.134 A 
ATOM      7  C   UNL     1      31.929 -21.278   0.850  1.00  0.00     0.093 A 
ATOM      8  C   UNL     1      31.316 -20.023   0.886  1.00  0.00     0.123 A 
ATOM      9  C   UNL     1      29.936 -19.922   0.737  1.00  0.00     0.094 A 
ATOM     10  C   UNL     1      29.160 -21.064   0.522  1.00  0.00     0.146 A 
ATOM     11  O   UNL     1      27.848 -20.922   0.375  1.00  0.00    -0.452 OA
ENDROOT
BRANCH   1  12
ATOM     12  C   UNL     1      25.577 -21.648   0.026  1.00  0.00     0.025 A 
ATOM     13  C   UNL     1      25.123 -20.807  -1.000  1.00  0.00     0.016 A 
ATOM     14  C   UNL     1      23.764 -20.505  -1.118  1.00  0.00     0.051 A 
ATOM     15  C   UNL     1      22.836 -21.023  -0.208  1.00  0.00     0.157 A 
ATOM     16  C   UNL     1      24.650 -22.151   0.955  1.00  0.00     0.062 A 
ATOM     17  C   UNL     1      23.286 -21.852   0.847  1.00  0.00     0.158 A 
BRANCH  15  18
ATOM     18  O   UNL     1      21.493 -20.689  -0.385  1.00  0.00    -0.504 OA
ATOM     19  H   UNL     1      20.974 -20.084   0.237  1.00  0.00     0.293 HD
ENDBRANCH  15  18
BRANCH  17  20
ATOM     20  O   UNL     1      22.423 -22.390   1.804  1.00  0.00    -0.504 OA
ATOM     21  H   UNL     1      22.702 -23.066   2.499  1.00  0.00     0.293 HD
ENDBRANCH  17  20
ENDBRANCH   1  12
BRANCH   2  22
ATOM     22  O   UNL     1      26.694 -24.296  -0.340  1.00  0.00    -0.502 OA
ATOM     23  H   UNL     1      26.969 -25.030  -0.980  1.00  0.00     0.293 HD
ENDBRANCH   2  22
BRANCH   6  24
ATOM     24  O   UNL     1      31.869 -23.655   0.748  1.00  0.00    -0.507 OA
ATOM     25  H   UNL     1      32.307 -24.016   1.581  1.00  0.00     0.293 HD
ENDBRANCH   6  24
BRANCH   8  26
ATOM     26  O   UNL     1      32.072 -18.869   1.079  1.00  0.00    -0.508 OA
ATOM     27  H   UNL     1      32.728 -18.541   0.378  1.00  0.00     0.293 HD
ENDBRANCH   8  26
TORSDOF 6
ENDMDL
MODEL 6
REMARK VINA RESULT:    -5.384      3.578      4.594
REMARK INTER + INTRA:          -6.646
REMARK INTER:                  -6.632
REMARK INTRA:                  -0.014
REMARK UNBOUND:                -0.160
REMARK SMILES O=c1c(O)c(-c2ccc(O)c(O)c2)oc2cc(O)cc(O)c12
REMARK SMILES IDX 5 1 3 2 2 3 1 4 22 5 20 6 19 7 17 8 16 9 15 10 14 11 6 12
REMARK SMILES IDX 7 13 8 14 9 15 13 16 11 17 10 18 12 20 4 22 21 24 18 26
REMARK H PARENT 10 19 12 21 4 23 21 25 18 27
REMARK Flexibility Score: inf
ROOT
ATOM      1  C   UNL     1      27.778 -22.546   0.162  1.00  0.00     0.180 A 
ATOM      2  C   UNL     1      28.069 -21.249  -0.296  1.00  0.00     0.208 A 
ATOM      3  C   UNL     1      27.063 -20.271  -0.257  1.00  0.00     0.238 A 
ATOM      4  O   UNL     1      27.313 -19.127  -0.719  1.00  0.00    -0.285 OA
ATOM      5  C   UNL     1      25.783 -20.596   0.254  1.00  0.00     0.111 A 
ATOM      6  C   UNL     1      24.701 -19.673   0.378  1.00  0.00     0.134 A 
ATOM      7  C   UNL     1      23.440 -20.137   0.775  1.00  0.00     0.093 A 
ATOM      8  C   UNL     1      23.240 -21.477   1.116  1.00  0.00     0.123 A 
ATOM      9  C   UNL     1      24.304 -22.373   1.055  1.00  0.00     0.094 A 
ATOM     10  C   UNL     1      25.565 -21.948   0.628  1.00  0.00     0.146 A 
ATOM     11  O   UNL     1      26.550 -22.838   0.575  1.00  0.00    -0.452 OA
ENDROOT
BRANCH   1  12
ATOM     12  C   UNL     1      28.793 -23.623   0.176  1.00  0.00     0.025 A 
ATOM     13  C   UNL     1      30.034 -23.393   0.787  1.00  0.00     0.016 A 
ATOM     14  C   UNL     1      31.014 -24.388   0.794  1.00  0.00     0.051 A 
ATOM     15  C   UNL     1      30.781 -25.624   0.179  1.00  0.00     0.157 A 
ATOM     16  C   UNL     1      28.565 -24.854  -0.462  1.00  0.00     0.062 A 
ATOM     17  C   UNL     1      29.542 -25.857  -0.463  1.00  0.00     0.158 A 
BRANCH  15  18
ATOM     18  O   UNL     1      31.798 -26.578   0.227  1.00  0.00    -0.504 OA
ATOM     19  H   UNL     1      32.456 -26.742  -0.523  1.00  0.00     0.293 HD
ENDBRANCH  15  18
BRANCH  17  20
ATOM     20  O   UNL     1      29.244 -27.056  -1.114  1.00  0.00    -0.504 OA
ATOM     21  H   UNL     1      29.244 -27.168  -2.118  1.00  0.00     0.293 HD
ENDBRANCH  17  20
ENDBRANCH   1  12
BRANCH   2  22
ATOM     22  O   UNL     1      29.332 -20.955  -0.817  1.00  0.00    -0.502 OA
ATOM     23  H   UNL     1      30.112 -21.598  -0.748  1.00  0.00     0.293 HD
ENDBRANCH   2  22
BRANCH   6  24
ATOM     24  O   UNL     1      24.818 -18.300   0.151  1.00  0.00    -0.507 OA
ATOM     25  H   UNL     1      24.495 -17.583   0.783  1.00  0.00     0.293 HD
ENDBRANCH   6  24
BRANCH   8  26
ATOM     26  O   UNL     1      21.986 -21.927   1.525  1.00  0.00    -0.508 OA
ATOM     27  H   UNL     1      21.775 -22.916   1.597  1.00  0.00     0.293 HD
ENDBRANCH   8  26
TORSDOF 6
ENDMDL
MODEL 7
REMARK VINA RESULT:    -5.335      1.531      6.935
REMARK INTER + INTRA:          -6.587
REMARK INTER:                  -6.594
REMARK INTRA:                   0.007
REMARK UNBOUND:                -0.160
REMARK SMILES O=c1c(O)c(-c2ccc(O)c(O)c2)oc2cc(O)cc(O)c12
REMARK SMILES IDX 5 1 3 2 2 3 1 4 22 5 20 6 19 7 17 8 16 9 15 10 14 11 6 12
REMARK SMILES IDX 7 13 8 14 9 15 13 16 11 17 10 18 12 20 4 22 21 24 18 26
REMARK H PARENT 10 19 12 21 4 23 21 25 18 27
REMARK Flexibility Score: inf
ROOT
ATOM      1  C   UNL     1      26.461 -20.858   0.606  1.00  0.00     0.180 A 
ATOM      2  C   UNL     1      26.648 -19.673   1.338  1.00  0.00     0.208 A 
ATOM      3  C   UNL     1      27.932 -19.109   1.404  1.00  0.00     0.238 A 
ATOM      4  O   UNL     1      28.104 -18.078   2.107  1.00  0.00    -0.285 OA
ATOM      5  C   UNL     1      29.010 -19.727   0.725  1.00  0.00     0.111 A 
ATOM      6  C   UNL     1      30.344 -19.220   0.690  1.00  0.00     0.134 A 
ATOM      7  C   UNL     1      31.357 -19.984   0.097  1.00  0.00     0.093 A 
ATOM      8  C   UNL     1      31.071 -21.204  -0.522  1.00  0.00     0.123 A 
ATOM      9  C   UNL     1      29.762 -21.678  -0.545  1.00  0.00     0.094 A 
ATOM     10  C   UNL     1      28.736 -20.957   0.071  1.00  0.00     0.146 A 
ATOM     11  O   UNL     1      27.503 -21.450   0.034  1.00  0.00    -0.452 OA
ENDROOT
BRANCH   1  12
ATOM     12  C   UNL     1      25.133 -21.498   0.469  1.00  0.00     0.025 A 
ATOM     13  C   UNL     1      25.015 -22.885   0.634  1.00  0.00     0.016 A 
ATOM     14  C   UNL     1      23.776 -23.512   0.490  1.00  0.00     0.051 A 
ATOM     15  C   UNL     1      22.634 -22.770   0.163  1.00  0.00     0.157 A 
ATOM     16  C   UNL     1      23.993 -20.754   0.119  1.00  0.00     0.062 A 
ATOM     17  C   UNL     1      22.746 -21.374  -0.030  1.00  0.00     0.158 A 
BRANCH  15  18
ATOM     18  O   UNL     1      21.425 -23.455   0.041  1.00  0.00    -0.504 OA
ATOM     19  H   UNL     1      20.927 -23.571  -0.831  1.00  0.00     0.293 HD
ENDBRANCH  15  18
BRANCH  17  20
ATOM     20  O   UNL     1      21.657 -20.571  -0.377  1.00  0.00    -0.504 OA
ATOM     21  H   UNL     1      21.679 -19.874  -1.106  1.00  0.00     0.293 HD
ENDBRANCH  17  20
ENDBRANCH   1  12
BRANCH   2  22
ATOM     22  O   UNL     1      25.575 -19.091   2.020  1.00  0.00    -0.502 OA
ATOM     23  H   UNL     1      25.584 -18.942   3.021  1.00  0.00     0.293 HD
ENDBRANCH   2  22
BRANCH   6  24
ATOM     24  O   UNL     1      30.717 -17.973   1.197  1.00  0.00    -0.507 OA
ATOM     25  H   UNL     1      31.523 -17.447   0.894  1.00  0.00     0.293 HD
ENDBRANCH   6  24
BRANCH   8  26
ATOM     26  O   UNL     1      32.082 -21.949  -1.124  1.00  0.00    -0.508 OA
ATOM     27  H   UNL     1      31.986 -22.307  -2.068  1.00  0.00     0.293 HD
ENDBRANCH   8  26
TORSDOF 6
ENDMDL
MODEL 8
REMARK VINA RESULT:    -5.272      3.027      6.835
REMARK INTER + INTRA:          -6.511
REMARK INTER:                  -6.425
REMARK INTRA:                  -0.087
REMARK UNBOUND:                -0.160
REMARK SMILES O=c1c(O)c(-c2ccc(O)c(O)c2)oc2cc(O)cc(O)c12
REMARK SMILES IDX 5 1 3 2 2 3 1 4 22 5 20 6 19 7 17 8 16 9 15 10 14 11 6 12
REMARK SMILES IDX 7 13 8 14 9 15 13 16 11 17 10 18 12 20 4 22 21 24 18 26
REMARK H PARENT 10 19 12 21 4 23 21 25 18 27
REMARK Flexibility Score: inf
ROOT
ATOM      1  C   UNL     1      26.960 -21.964   0.199  1.00  0.00     0.180 A 
ATOM      2  C   UNL     1      27.917 -20.944   0.333  1.00  0.00     0.208 A 
ATOM      3  C   UNL     1      29.274 -21.291   0.430  1.00  0.00     0.238 A 
ATOM      4  O   UNL     1      30.122 -20.376   0.605  1.00  0.00    -0.285 OA
ATOM      5  C   UNL     1      29.659 -22.653   0.376  1.00  0.00     0.111 A 
ATOM      6  C   UNL     1      31.009 -23.116   0.423  1.00  0.00     0.134 A 
ATOM      7  C   UNL     1      31.264 -24.491   0.494  1.00  0.00     0.093 A 
ATOM      8  C   UNL     1      30.221 -25.421   0.451  1.00  0.00     0.123 A 
ATOM      9  C   UNL     1      28.905 -24.979   0.344  1.00  0.00     0.094 A 
ATOM     10  C   UNL     1      28.616 -23.613   0.309  1.00  0.00     0.146 A 
ATOM     11  O   UNL     1      27.347 -23.235   0.217  1.00  0.00    -0.452 OA
ENDROOT
BRANCH   1  12
ATOM     12  C   UNL     1      25.515 -21.676   0.066  1.00  0.00     0.025 A 
ATOM     13  C   UNL     1      25.068 -20.858  -0.981  1.00  0.00     0.016 A 
ATOM     14  C   UNL     1      23.711 -20.557  -1.113  1.00  0.00     0.051 A 
ATOM     15  C   UNL     1      22.777 -21.051  -0.196  1.00  0.00     0.157 A 
ATOM     16  C   UNL     1      24.582 -22.156   1.002  1.00  0.00     0.062 A 
ATOM     17  C   UNL     1      23.219 -21.857   0.879  1.00  0.00     0.158 A 
BRANCH  15  18
ATOM     18  O   UNL     1      21.435 -20.719  -0.389  1.00  0.00    -0.504 OA
ATOM     19  H   UNL     1      20.700 -20.931   0.272  1.00  0.00     0.293 HD
ENDBRANCH  15  18
BRANCH  17  20
ATOM     20  O   UNL     1      22.350 -22.370   1.845  1.00  0.00    -0.504 OA
ATOM     21  H   UNL     1      22.384 -22.122   2.823  1.00  0.00     0.293 HD
ENDBRANCH  17  20
ENDBRANCH   1  12
BRANCH   2  22
ATOM     22  O   UNL     1      27.514 -19.607   0.407  1.00  0.00    -0.502 OA
ATOM     23  H   UNL     1      28.103 -18.844   0.095  1.00  0.00     0.293 HD
ENDBRANCH   2  22
BRANCH   6  24
ATOM     24  O   UNL     1      32.124 -22.275   0.378  1.00  0.00    -0.507 OA
ATOM     25  H   UNL     1      32.197 -21.447  -0.192  1.00  0.00     0.293 HD
ENDBRANCH   6  24
BRANCH   8  26
ATOM     26  O   UNL     1      30.485 -26.787   0.505  1.00  0.00    -0.508 OA
ATOM     27  H   UNL     1      31.097 -27.182   1.211  1.00  0.00     0.293 HD
ENDBRANCH   8  26
TORSDOF 6
ENDMDL
MODEL 9
REMARK VINA RESULT:    -5.200      2.085      6.700
REMARK INTER + INTRA:          -6.425
REMARK INTER:                  -6.276
REMARK INTRA:                  -0.149
REMARK UNBOUND:                -0.160
REMARK SMILES O=c1c(O)c(-c2ccc(O)c(O)c2)oc2cc(O)cc(O)c12
REMARK SMILES IDX 5 1 3 2 2 3 1 4 22 5 20 6 19 7 17 8 16 9 15 10 14 11 6 12
REMARK SMILES IDX 7 13 8 14 9 15 13 16 11 17 10 18 12 20 4 22 21 24 18 26
REMARK H PARENT 10 19 12 21 4 23 21 25 18 27
REMARK Flexibility Score: inf
ROOT
ATOM      1  C   UNL     1      26.896 -20.789   0.330  1.00  0.00     0.180 A 
ATOM      2  C   UNL     1      27.599 -19.609   0.627  1.00  0.00     0.208 A 
ATOM      3  C   UNL     1      28.996 -19.665   0.765  1.00  0.00     0.238 A 
ATOM      4  O   UNL     1      29.614 -18.616   1.085  1.00  0.00    -0.285 OA
ATOM      5  C   UNL     1      29.673 -20.896   0.589  1.00  0.00     0.111 A 
ATOM      6  C   UNL     1      31.089 -21.061   0.666  1.00  0.00     0.134 A 
ATOM      7  C   UNL     1      31.638 -22.348   0.605  1.00  0.00     0.093 A 
ATOM      8  C   UNL     1      30.828 -23.468   0.403  1.00  0.00     0.123 A 
ATOM      9  C   UNL     1      29.451 -23.311   0.267  1.00  0.00     0.094 A 
ATOM     10  C   UNL     1      28.870 -22.044   0.361  1.00  0.00     0.146 A 
ATOM     11  O   UNL     1      27.552 -21.941   0.235  1.00  0.00    -0.452 OA
ENDROOT
BRANCH   1  12
ATOM     12  C   UNL     1      25.427 -20.805   0.145  1.00  0.00     0.025 A 
ATOM     13  C   UNL     1      24.856 -20.074  -0.906  1.00  0.00     0.016 A 
ATOM     14  C   UNL     1      23.472 -20.059  -1.087  1.00  0.00     0.051 A 
ATOM     15  C   UNL     1      22.630 -20.758  -0.215  1.00  0.00     0.157 A 
ATOM     16  C   UNL     1      24.583 -21.490   1.036  1.00  0.00     0.062 A 
ATOM     17  C   UNL     1      23.193 -21.479   0.864  1.00  0.00     0.158 A 
BRANCH  15  18
ATOM     18  O   UNL     1      21.256 -20.709  -0.455  1.00  0.00    -0.504 OA
ATOM     19  H   UNL     1      20.761 -19.874  -0.736  1.00  0.00     0.293 HD
ENDBRANCH  15  18
BRANCH  17  20
ATOM     20  O   UNL     1      22.417 -22.184   1.787  1.00  0.00    -0.504 OA
ATOM     21  H   UNL     1      21.533 -22.618   1.565  1.00  0.00     0.293 HD
ENDBRANCH  17  20
ENDBRANCH   1  12
BRANCH   2  22
ATOM     22  O   UNL     1      26.909 -18.409   0.818  1.00  0.00    -0.502 OA
ATOM     23  H   UNL     1      27.322 -17.506   0.616  1.00  0.00     0.293 HD
ENDBRANCH   2  22
BRANCH   6  24
ATOM     24  O   UNL     1      31.992 -20.001   0.775  1.00  0.00    -0.507 OA
ATOM     25  H   UNL     1      32.902 -19.973   0.340  1.00  0.00     0.293 HD
ENDBRANCH   6  24
BRANCH   8  26
ATOM     26  O   UNL     1      31.385 -24.743   0.327  1.00  0.00    -0.508 OA
ATOM     27  H   UNL     1      30.971 -25.469  -0.247  1.00  0.00     0.293 HD
ENDBRANCH   8  26
TORSDOF 6
ENDMDL
