MODEL 1
REMARK VINA RESULT:    -5.907      0.000      0.000
REMARK INTER + INTRA:         -12.717
REMARK INTER:                 -10.741
REMARK INTRA:                  -1.976
REMARK UNBOUND:                -1.976
REMARK SMILES CCCCCCCCCCCCCCCC(=O)[O-]
REMARK SMILES IDX 9 1 10 2 11 3 12 4 13 5 14 6 15 7 16 8 17 9 18 10 8 11 7 12
REMARK SMILES IDX 6 13 5 14 4 15 3 16 2 17 1 18
REMARK H PARENT
REMARK Flexibility Score: inf
ROOT
ATOM      1  C   UNL     1      15.439   1.782  12.655  1.00  0.00     0.000 C 
ENDROOT
BRANCH   1   2
ATOM      2  C   UNL     1      15.175   1.648  14.165  1.00  0.00     0.000 C 
BRANCH   2   3
ATOM      3  C   UNL     1      13.805   1.018  14.481  1.00  0.00     0.000 C 
BRANCH   3   4
ATOM      4  C   UNL     1      13.068   1.635  15.683  1.00  0.00     0.000 C 
BRANCH   4   5
ATOM      5  C   UNL     1      13.984   1.845  16.901  1.00  0.00     0.000 C 
BRANCH   5   6
ATOM      6  C   UNL     1      13.304   1.488  18.236  1.00  0.00     0.006 C 
BRANCH   6   7
ATOM      7  C   UNL     1      13.649   0.080  18.754  1.00  0.00     0.053 C 
BRANCH   7   8
ATOM      8  C   UNL     1      14.652   0.102  19.865  1.00  0.00     0.041 C 
ATOM      9  O   UNL     1      15.745  -0.512  19.747  1.00  0.00    -0.550 OA
ATOM     10  O   UNL     1      14.371   0.785  21.042  1.00  0.00    -0.550 OA
ENDBRANCH   7   8
ENDBRANCH   6   7
ENDBRANCH   5   6
ENDBRANCH   4   5
ENDBRANCH   3   4
ENDBRANCH   2   3
ENDBRANCH   1   2
BRANCH   1  11
ATOM     11  C   UNL     1      15.236   0.456  11.903  1.00  0.00     0.000 C 
BRANCH  11  12
ATOM     12  C   UNL     1      16.461   0.065  11.057  1.00  0.00    -0.000 C 
BRANCH  12  13
ATOM     13  C   UNL     1      17.693  -0.264  11.917  1.00  0.00    -0.000 C 
BRANCH  13  14
ATOM     14  C   UNL     1      17.643  -1.687  12.500  1.00  0.00    -0.000 C 
BRANCH  14  15
ATOM     15  C   UNL     1      17.661  -1.694  14.038  1.00  0.00    -0.000 C 
BRANCH  15  16
ATOM     16  C   UNL     1      16.248  -1.730  14.648  1.00  0.00    -0.000 C 
BRANCH  16  17
ATOM     17  C   UNL     1      16.258  -1.504  16.167  1.00  0.00    -0.003 C 
ATOM     18  C   UNL     1      17.075  -0.279  16.576  1.00  0.00     0.004 C 
ENDBRANCH  16  17
ENDBRANCH  15  16
ENDBRANCH  14  15
ENDBRANCH  13  14
ENDBRANCH  12  13
ENDBRANCH  11  12
ENDBRANCH   1  11
TORSDOF 14
ENDMDL
MODEL 2
REMARK VINA RESULT:    -5.902      3.209      6.529
REMARK INTER + INTRA:         -12.707
REMARK INTER:                 -10.821
REMARK INTRA:                  -1.887
REMARK UNBOUND:                -1.976
REMARK SMILES CCCCCCCCCCCCCCCC(=O)[O-]
REMARK SMILES IDX 9 1 10 2 11 3 12 4 13 5 14 6 15 7 16 8 17 9 18 10 8 11 7 12
REMARK SMILES IDX 6 13 5 14 4 15 3 16 2 17 1 18
REMARK H PARENT
REMARK Flexibility Score: inf
ROOT
ATOM      1  C   UNL     1      17.454  -1.255  16.296  1.00  0.00     0.000 C 
ENDROOT
BRANCH   1   2
ATOM      2  C   UNL     1      16.385  -0.888  15.252  1.00  0.00     0.000 C 
BRANCH   2   3
ATOM      3  C   UNL     1      15.681   0.447  15.559  1.00  0.00     0.000 C 
BRANCH   3   4
ATOM      4  C   UNL     1      14.604   0.862  14.541  1.00  0.00     0.000 C 
BRANCH   4   5
ATOM      5  C   UNL     1      15.183   1.618  13.333  1.00  0.00     0.000 C 
BRANCH   5   6
ATOM      6  C   UNL     1      15.321   0.734  12.079  1.00  0.00     0.006 C 
BRANCH   6   7
ATOM      7  C   UNL     1      16.661   0.905  11.341  1.00  0.00     0.053 C 
BRANCH   7   8
ATOM      8  C   UNL     1      17.416  -0.382  11.207  1.00  0.00     0.041 C 
ATOM      9  O   UNL     1      17.988  -0.890  12.207  1.00  0.00    -0.550 OA
ATOM     10  O   UNL     1      17.507  -1.010   9.970  1.00  0.00    -0.550 OA
ENDBRANCH   7   8
ENDBRANCH   6   7
ENDBRANCH   5   6
ENDBRANCH   4   5
ENDBRANCH   3   4
ENDBRANCH   2   3
ENDBRANCH   1   2
BRANCH   1  11
ATOM     11  C   UNL     1      17.510  -0.250  17.459  1.00  0.00     0.000 C 
BRANCH  11  12
ATOM     12  C   UNL     1      17.230  -0.910  18.821  1.00  0.00    -0.000 C 
BRANCH  12  13
ATOM     13  C   UNL     1      15.827  -0.582  19.360  1.00  0.00    -0.000 C 
BRANCH  13  14
ATOM     14  C   UNL     1      14.741  -1.507  18.784  1.00  0.00    -0.000 C 
BRANCH  14  15
ATOM     15  C   UNL     1      13.450  -0.750  18.429  1.00  0.00    -0.000 C 
BRANCH  15  16
ATOM     16  C   UNL     1      13.488   0.726  18.868  1.00  0.00    -0.000 C 
BRANCH  16  17
ATOM     17  C   UNL     1      13.019   1.680  17.759  1.00  0.00    -0.003 C 
ATOM     18  C   UNL     1      13.820   2.980  17.722  1.00  0.00     0.004 C 
ENDBRANCH  16  17
ENDBRANCH  15  16
ENDBRANCH  14  15
ENDBRANCH  13  14
ENDBRANCH  12  13
ENDBRANCH  11  12
ENDBRANCH   1  11
TORSDOF 14
ENDMDL
MODEL 3
REMARK VINA RESULT:    -5.792      1.717      4.348
REMARK INTER + INTRA:         -12.508
REMARK INTER:                 -10.891
REMARK INTRA:                  -1.617
REMARK UNBOUND:                -1.976
REMARK SMILES CCCCCCCCCCCCCCCC(=O)[O-]
REMARK SMILES IDX 9 1 10 2 11 3 12 4 13 5 14 6 15 7 16 8 17 9 18 10 8 11 7 12
REMARK SMILES IDX 6 13 5 14 4 15 3 16 2 17 1 18
REMARK H PARENT
REMARK Flexibility Score: inf
ROOT
ATOM      1  C   UNL     1      13.963   2.356  16.990  1.00  0.00     0.000 C 
ENDROOT
BRANCH   1   2
ATOM      2  C   UNL     1      13.312   2.338  18.384  1.00  0.00     0.000 C 
BRANCH   2   3
ATOM      3  C   UNL     1      13.982   1.338  19.345  1.00  0.00     0.000 C 
BRANCH   3   4
ATOM      4  C   UNL     1      14.284  -0.043  18.738  1.00  0.00     0.000 C 
BRANCH   4   5
ATOM      5  C   UNL     1      15.787  -0.376  18.728  1.00  0.00     0.000 C 
BRANCH   5   6
ATOM      6  C   UNL     1      16.366  -0.501  17.307  1.00  0.00     0.006 C 
BRANCH   6   7
ATOM      7  C   UNL     1      15.788  -1.677  16.499  1.00  0.00     0.053 C 
BRANCH   7   8
ATOM      8  C   UNL     1      15.746  -2.952  17.283  1.00  0.00     0.041 C 
ATOM      9  O   UNL     1      14.657  -3.374  17.755  1.00  0.00    -0.550 OA
ATOM     10  O   UNL     1      16.916  -3.666  17.512  1.00  0.00    -0.550 OA
ENDBRANCH   7   8
ENDBRANCH   6   7
ENDBRANCH   5   6
ENDBRANCH   4   5
ENDBRANCH   3   4
ENDBRANCH   2   3
ENDBRANCH   1   2
BRANCH   1  11
ATOM     11  C   UNL     1      12.981   1.954  15.876  1.00  0.00     0.000 C 
BRANCH  11  12
ATOM     12  C   UNL     1      13.618   1.009  14.842  1.00  0.00    -0.000 C 
BRANCH  12  13
ATOM     13  C   UNL     1      15.034   1.448  14.431  1.00  0.00    -0.000 C 
BRANCH  13  14
ATOM     14  C   UNL     1      15.128   1.823  12.942  1.00  0.00    -0.000 C 
BRANCH  14  15
ATOM     15  C   UNL     1      15.331   0.596  12.038  1.00  0.00    -0.000 C 
BRANCH  15  16
ATOM     16  C   UNL     1      16.717   0.575  11.368  1.00  0.00    -0.000 C 
BRANCH  16  17
ATOM     17  C   UNL     1      17.374  -0.812  11.421  1.00  0.00    -0.003 C 
ATOM     18  C   UNL     1      17.541  -1.332  12.848  1.00  0.00     0.004 C 
ENDBRANCH  16  17
ENDBRANCH  15  16
ENDBRANCH  14  15
ENDBRANCH  13  14
ENDBRANCH  12  13
ENDBRANCH  11  12
ENDBRANCH   1  11
TORSDOF 14
ENDMDL
MODEL 4
REMARK VINA RESULT:    -5.787      1.560      4.304
REMARK INTER + INTRA:         -12.498
REMARK INTER:                 -10.657
REMARK INTRA:                  -1.842
REMARK UNBOUND:                -1.976
REMARK SMILES CCCCCCCCCCCCCCCC(=O)[O-]
REMARK SMILES IDX 9 1 10 2 11 3 12 4 13 5 14 6 15 7 16 8 17 9 18 10 8 11 7 12
REMARK SMILES IDX 6 13 5 14 4 15 3 16 2 17 1 18
REMARK H PARENT
REMARK Flexibility Score: inf
ROOT
ATOM      1  C   UNL     1      17.021  -1.873  15.274  1.00  0.00     0.000 C 
ENDROOT
BRANCH   1   2
ATOM      2  C   UNL     1      17.493  -2.159  16.710  1.00  0.00     0.000 C 
BRANCH   2   3
ATOM      3  C   UNL     1      16.713  -3.306  17.380  1.00  0.00     0.000 C 
BRANCH   3   4
ATOM      4  C   UNL     1      15.753  -2.871  18.501  1.00  0.00     0.000 C 
BRANCH   4   5
ATOM      5  C   UNL     1      14.276  -2.907  18.069  1.00  0.00     0.000 C 
BRANCH   5   6
ATOM      6  C   UNL     1      13.384  -1.959  18.893  1.00  0.00     0.006 C 
BRANCH   6   7
ATOM      7  C   UNL     1      13.254  -0.547  18.293  1.00  0.00     0.053 C 
BRANCH   7   8
ATOM      8  C   UNL     1      13.890   0.505  19.147  1.00  0.00     0.041 C 
ATOM      9  O   UNL     1      13.912   1.705  18.766  1.00  0.00    -0.550 OA
ATOM     10  O   UNL     1      14.480   0.157  20.357  1.00  0.00    -0.550 OA
ENDBRANCH   7   8
ENDBRANCH   6   7
ENDBRANCH   5   6
ENDBRANCH   4   5
ENDBRANCH   3   4
ENDBRANCH   2   3
ENDBRANCH   1   2
BRANCH   1  11
ATOM     11  C   UNL     1      15.735  -1.030  15.234  1.00  0.00     0.000 C 
BRANCH  11  12
ATOM     12  C   UNL     1      15.878   0.299  15.997  1.00  0.00    -0.000 C 
BRANCH  12  13
ATOM     13  C   UNL     1      15.166   1.466  15.291  1.00  0.00    -0.000 C 
BRANCH  13  14
ATOM     14  C   UNL     1      14.479   1.035  13.984  1.00  0.00    -0.000 C 
BRANCH  14  15
ATOM     15  C   UNL     1      15.152   1.636  12.738  1.00  0.00    -0.000 C 
BRANCH  15  16
ATOM     16  C   UNL     1      15.445   0.582  11.655  1.00  0.00    -0.000 C 
BRANCH  16  17
ATOM     17  C   UNL     1      16.917   0.586  11.215  1.00  0.00    -0.003 C 
ATOM     18  C   UNL     1      17.726  -0.542  11.853  1.00  0.00     0.004 C 
ENDBRANCH  16  17
ENDBRANCH  15  16
ENDBRANCH  14  15
ENDBRANCH  13  14
ENDBRANCH  12  13
ENDBRANCH  11  12
ENDBRANCH   1  11
TORSDOF 14
ENDMDL
MODEL 5
REMARK VINA RESULT:    -5.780      3.184      6.249
REMARK INTER + INTRA:         -12.486
REMARK INTER:                 -10.584
REMARK INTRA:                  -1.902
REMARK UNBOUND:                -1.976
REMARK SMILES CCCCCCCCCCCCCCCC(=O)[O-]
REMARK SMILES IDX 9 1 10 2 11 3 12 4 13 5 14 6 15 7 16 8 17 9 18 10 8 11 7 12
REMARK SMILES IDX 6 13 5 14 4 15 3 16 2 17 1 18
REMARK H PARENT
REMARK Flexibility Score: inf
ROOT
ATOM      1  C   UNL     1      13.126   1.799  17.765  1.00  0.00     0.000 C 
ENDROOT
BRANCH   1   2
ATOM      2  C   UNL     1      14.451   2.404  17.272  1.00  0.00     0.000 C 
BRANCH   2   3
ATOM      3  C   UNL     1      15.129   1.554  16.180  1.00  0.00     0.000 C 
BRANCH   3   4
ATOM      4  C   UNL     1      14.317   1.398  14.882  1.00  0.00     0.000 C 
BRANCH   4   5
ATOM      5  C   UNL     1      15.166   1.613  13.617  1.00  0.00     0.000 C 
BRANCH   5   6
ATOM      6  C   UNL     1      15.323   0.336  12.772  1.00  0.00     0.006 C 
BRANCH   6   7
ATOM      7  C   UNL     1      15.983   0.572  11.401  1.00  0.00     0.053 C 
BRANCH   7   8
ATOM      8  C   UNL     1      17.195  -0.281  11.188  1.00  0.00     0.041 C 
ATOM      9  O   UNL     1      17.950  -0.565  12.155  1.00  0.00    -0.550 OA
ATOM     10  O   UNL     1      17.504  -0.745   9.915  1.00  0.00    -0.550 OA
ENDBRANCH   7   8
ENDBRANCH   6   7
ENDBRANCH   5   6
ENDBRANCH   4   5
ENDBRANCH   3   4
ENDBRANCH   2   3
ENDBRANCH   1   2
BRANCH   1  11
ATOM     11  C   UNL     1      13.329   0.485  18.537  1.00  0.00     0.000 C 
BRANCH  11  12
ATOM     12  C   UNL     1      14.367   0.620  19.665  1.00  0.00    -0.000 C 
BRANCH  12  13
ATOM     13  C   UNL     1      15.210  -0.654  19.849  1.00  0.00    -0.000 C 
BRANCH  13  14
ATOM     14  C   UNL     1      16.451  -0.678  18.939  1.00  0.00    -0.000 C 
BRANCH  14  15
ATOM     15  C   UNL     1      16.541  -1.963  18.099  1.00  0.00    -0.000 C 
BRANCH  15  16
ATOM     16  C   UNL     1      15.558  -1.967  16.914  1.00  0.00    -0.000 C 
BRANCH  16  17
ATOM     17  C   UNL     1      16.275  -2.017  15.557  1.00  0.00    -0.003 C 
ATOM     18  C   UNL     1      17.535  -1.154  15.523  1.00  0.00     0.004 C 
ENDBRANCH  16  17
ENDBRANCH  15  16
ENDBRANCH  14  15
ENDBRANCH  13  14
ENDBRANCH  12  13
ENDBRANCH  11  12
ENDBRANCH   1  11
TORSDOF 14
ENDMDL
MODEL 6
REMARK VINA RESULT:    -5.700      2.184      5.996
REMARK INTER + INTRA:         -12.341
REMARK INTER:                 -10.703
REMARK INTRA:                  -1.639
REMARK UNBOUND:                -1.976
REMARK SMILES CCCCCCCCCCCCCCCC(=O)[O-]
REMARK SMILES IDX 9 1 10 2 11 3 12 4 13 5 14 6 15 7 16 8 17 9 18 10 8 11 7 12
REMARK SMILES IDX 6 13 5 14 4 15 3 16 2 17 1 18
REMARK H PARENT
REMARK Flexibility Score: inf
ROOT
ATOM      1  C   UNL     1      14.554   0.412  19.981  1.00  0.00     0.000 C 
ENDROOT
BRANCH   1   2
ATOM      2  C   UNL     1      15.159  -0.989  20.174  1.00  0.00     0.000 C 
BRANCH   2   3
ATOM      3  C   UNL     1      16.210  -1.341  19.103  1.00  0.00     0.000 C 
BRANCH   3   4
ATOM      4  C   UNL     1      16.212  -2.812  18.653  1.00  0.00     0.000 C 
BRANCH   4   5
ATOM      5  C   UNL     1      15.703  -2.998  17.213  1.00  0.00     0.000 C 
BRANCH   5   6
ATOM      6  C   UNL     1      15.677  -1.685  16.410  1.00  0.00     0.006 C 
BRANCH   6   7
ATOM      7  C   UNL     1      16.291  -1.802  15.003  1.00  0.00     0.053 C 
BRANCH   7   8
ATOM      8  C   UNL     1      17.723  -1.367  14.958  1.00  0.00     0.041 C 
ATOM      9  O   UNL     1      18.377  -1.441  13.884  1.00  0.00    -0.550 OA
ATOM     10  O   UNL     1      18.344  -0.899  16.110  1.00  0.00    -0.550 OA
ENDBRANCH   7   8
ENDBRANCH   6   7
ENDBRANCH   5   6
ENDBRANCH   4   5
ENDBRANCH   3   4
ENDBRANCH   2   3
ENDBRANCH   1   2
BRANCH   1  11
ATOM     11  C   UNL     1      13.696   0.513  18.709  1.00  0.00     0.000 C 
BRANCH  11  12
ATOM     12  C   UNL     1      13.258   1.957  18.407  1.00  0.00    -0.000 C 
BRANCH  12  13
ATOM     13  C   UNL     1      13.186   2.251  16.899  1.00  0.00    -0.000 C 
BRANCH  13  14
ATOM     14  C   UNL     1      14.258   1.493  16.097  1.00  0.00    -0.000 C 
BRANCH  14  15
ATOM     15  C   UNL     1      13.855   1.280  14.629  1.00  0.00    -0.000 C 
BRANCH  15  16
ATOM     16  C   UNL     1      14.991   1.616  13.646  1.00  0.00    -0.000 C 
BRANCH  16  17
ATOM     17  C   UNL     1      15.069   0.623  12.477  1.00  0.00    -0.003 C 
ATOM     18  C   UNL     1      16.336   0.795  11.640  1.00  0.00     0.004 C 
ENDBRANCH  16  17
ENDBRANCH  15  16
ENDBRANCH  14  15
ENDBRANCH  13  14
ENDBRANCH  12  13
ENDBRANCH  11  12
ENDBRANCH   1  11
TORSDOF 14
ENDMDL
MODEL 7
REMARK VINA RESULT:    -5.670      1.764      3.610
REMARK INTER + INTRA:         -12.287
REMARK INTER:                 -10.601
REMARK INTRA:                  -1.685
REMARK UNBOUND:                -1.976
REMARK SMILES CCCCCCCCCCCCCCCC(=O)[O-]
REMARK SMILES IDX 9 1 10 2 11 3 12 4 13 5 14 6 15 7 16 8 17 9 18 10 8 11 7 12
REMARK SMILES IDX 6 13 5 14 4 15 3 16 2 17 1 18
REMARK H PARENT
REMARK Flexibility Score: inf
ROOT
ATOM      1  C   UNL     1      15.238   1.679  16.610  1.00  0.00     0.000 C 
ENDROOT
BRANCH   1   2
ATOM      2  C   UNL     1      13.741   1.921  16.874  1.00  0.00     0.000 C 
BRANCH   2   3
ATOM      3  C   UNL     1      13.223   1.170  18.115  1.00  0.00     0.000 C 
BRANCH   3   4
ATOM      4  C   UNL     1      13.559  -0.331  18.154  1.00  0.00     0.000 C 
BRANCH   4   5
ATOM      5  C   UNL     1      13.961  -0.816  19.558  1.00  0.00     0.000 C 
BRANCH   5   6
ATOM      6  C   UNL     1      15.312  -1.554  19.576  1.00  0.00     0.006 C 
BRANCH   6   7
ATOM      7  C   UNL     1      16.520  -0.651  19.270  1.00  0.00     0.053 C 
BRANCH   7   8
ATOM      8  C   UNL     1      17.301  -1.112  18.079  1.00  0.00     0.041 C 
ATOM      9  O   UNL     1      17.206  -2.302  17.678  1.00  0.00    -0.550 OA
ATOM     10  O   UNL     1      18.152  -0.231  17.421  1.00  0.00    -0.550 OA
ENDBRANCH   7   8
ENDBRANCH   6   7
ENDBRANCH   5   6
ENDBRANCH   4   5
ENDBRANCH   3   4
ENDBRANCH   2   3
ENDBRANCH   1   2
BRANCH   1  11
ATOM     11  C   UNL     1      15.488   0.914  15.300  1.00  0.00     0.000 C 
BRANCH  11  12
ATOM     12  C   UNL     1      14.481   1.287  14.198  1.00  0.00    -0.000 C 
BRANCH  12  13
ATOM     13  C   UNL     1      15.164   1.639  12.865  1.00  0.00    -0.000 C 
BRANCH  13  14
ATOM     14  C   UNL     1      15.230   0.442  11.900  1.00  0.00    -0.000 C 
BRANCH  14  15
ATOM     15  C   UNL     1      16.568   0.367  11.145  1.00  0.00    -0.000 C 
BRANCH  15  16
ATOM     16  C   UNL     1      17.721  -0.139  12.030  1.00  0.00    -0.000 C 
BRANCH  16  17
ATOM     17  C   UNL     1      17.414  -1.501  12.672  1.00  0.00    -0.003 C 
ATOM     18  C   UNL     1      18.158  -1.713  13.990  1.00  0.00     0.004 C 
ENDBRANCH  16  17
ENDBRANCH  15  16
ENDBRANCH  14  15
ENDBRANCH  13  14
ENDBRANCH  12  13
ENDBRANCH  11  12
ENDBRANCH   1  11
TORSDOF 14
ENDMDL
MODEL 8
REMARK VINA RESULT:    -5.663      1.680      3.660
REMARK INTER + INTRA:         -12.274
REMARK INTER:                 -10.432
REMARK INTRA:                  -1.842
REMARK UNBOUND:                -1.976
REMARK SMILES CCCCCCCCCCCCCCCC(=O)[O-]
REMARK SMILES IDX 9 1 10 2 11 3 12 4 13 5 14 6 15 7 16 8 17 9 18 10 8 11 7 12
REMARK SMILES IDX 6 13 5 14 4 15 3 16 2 17 1 18
REMARK H PARENT
REMARK Flexibility Score: inf
ROOT
ATOM      1  C   UNL     1      13.686   1.165  15.061  1.00  0.00     0.000 C 
ENDROOT
BRANCH   1   2
ATOM      2  C   UNL     1      12.986   1.930  16.197  1.00  0.00     0.000 C 
BRANCH   2   3
ATOM      3  C   UNL     1      13.686   1.757  17.558  1.00  0.00     0.000 C 
BRANCH   3   4
ATOM      4  C   UNL     1      13.237   0.529  18.368  1.00  0.00     0.000 C 
BRANCH   4   5
ATOM      5  C   UNL     1      14.229   0.154  19.483  1.00  0.00     0.000 C 
BRANCH   5   6
ATOM      6  C   UNL     1      15.537  -0.456  18.946  1.00  0.00     0.006 C 
BRANCH   6   7
ATOM      7  C   UNL     1      15.757  -1.922  19.361  1.00  0.00     0.053 C 
BRANCH   7   8
ATOM      8  C   UNL     1      15.515  -2.884  18.240  1.00  0.00     0.041 C 
ATOM      9  O   UNL     1      14.346  -3.083  17.815  1.00  0.00    -0.550 OA
ATOM     10  O   UNL     1      16.579  -3.579  17.677  1.00  0.00    -0.550 OA
ENDBRANCH   7   8
ENDBRANCH   6   7
ENDBRANCH   5   6
ENDBRANCH   4   5
ENDBRANCH   3   4
ENDBRANCH   2   3
ENDBRANCH   1   2
BRANCH   1  11
ATOM     11  C   UNL     1      15.176   0.917  15.349  1.00  0.00     0.000 C 
BRANCH  11  12
ATOM     12  C   UNL     1      15.577  -0.557  15.160  1.00  0.00    -0.000 C 
BRANCH  12  13
ATOM     13  C   UNL     1      17.041  -0.826  15.544  1.00  0.00    -0.000 C 
BRANCH  13  14
ATOM     14  C   UNL     1      17.862  -1.402  14.377  1.00  0.00    -0.000 C 
BRANCH  14  15
ATOM     15  C   UNL     1      17.076  -1.420  13.056  1.00  0.00    -0.000 C 
BRANCH  15  16
ATOM     16  C   UNL     1      17.763  -0.605  11.945  1.00  0.00    -0.000 C 
BRANCH  16  17
ATOM     17  C   UNL     1      16.757   0.021  10.967  1.00  0.00    -0.003 C 
ATOM     18  C   UNL     1      15.721   0.899  11.669  1.00  0.00     0.004 C 
ENDBRANCH  16  17
ENDBRANCH  15  16
ENDBRANCH  14  15
ENDBRANCH  13  14
ENDBRANCH  12  13
ENDBRANCH  11  12
ENDBRANCH   1  11
TORSDOF 14
ENDMDL
MODEL 9
REMARK VINA RESULT:    -5.634      1.755      4.866
REMARK INTER + INTRA:         -12.221
REMARK INTER:                 -10.506
REMARK INTRA:                  -1.715
REMARK UNBOUND:                -1.976
REMARK SMILES CCCCCCCCCCCCCCCC(=O)[O-]
REMARK SMILES IDX 9 1 10 2 11 3 12 4 13 5 14 6 15 7 16 8 17 9 18 10 8 11 7 12
REMARK SMILES IDX 6 13 5 14 4 15 3 16 2 17 1 18
REMARK H PARENT
REMARK Flexibility Score: inf
ROOT
ATOM      1  C   UNL     1      15.612   1.109  12.059  1.00  0.00     0.000 C 
ENDROOT
BRANCH   1   2
ATOM      2  C   UNL     1      16.438   0.051  11.307  1.00  0.00     0.000 C 
BRANCH   2   3
ATOM      3  C   UNL     1      17.683  -0.406  12.091  1.00  0.00     0.000 C 
BRANCH   3   4
ATOM      4  C   UNL     1      17.544  -1.768  12.794  1.00  0.00     0.000 C 
BRANCH   4   5
ATOM      5  C   UNL     1      18.255  -1.810  14.159  1.00  0.00     0.000 C 
BRANCH   5   6
ATOM      6  C   UNL     1      17.383  -1.272  15.309  1.00  0.00     0.006 C 
BRANCH   6   7
ATOM      7  C   UNL     1      16.071  -2.050  15.513  1.00  0.00     0.053 C 
BRANCH   7   8
ATOM      8  C   UNL     1      16.128  -2.982  16.683  1.00  0.00     0.041 C 
ATOM      9  O   UNL     1      15.093  -3.214  17.362  1.00  0.00    -0.550 OA
ATOM     10  O   UNL     1      17.331  -3.580  17.039  1.00  0.00    -0.550 OA
ENDBRANCH   7   8
ENDBRANCH   6   7
ENDBRANCH   5   6
ENDBRANCH   4   5
ENDBRANCH   3   4
ENDBRANCH   2   3
ENDBRANCH   1   2
BRANCH   1  11
ATOM     11  C   UNL     1      14.745   0.498  13.172  1.00  0.00     0.000 C 
BRANCH  11  12
ATOM     12  C   UNL     1      14.618   1.422  14.396  1.00  0.00    -0.000 C 
BRANCH  12  13
ATOM     13  C   UNL     1      13.285   1.239  15.141  1.00  0.00    -0.000 C 
BRANCH  13  14
ATOM     14  C   UNL     1      13.381   1.624  16.627  1.00  0.00    -0.000 C 
BRANCH  14  15
ATOM     15  C   UNL     1      14.194   0.608  17.448  1.00  0.00    -0.000 C 
BRANCH  15  16
ATOM     16  C   UNL     1      13.326  -0.180  18.445  1.00  0.00    -0.000 C 
BRANCH  16  17
ATOM     17  C   UNL     1      14.138  -0.721  19.631  1.00  0.00    -0.003 C 
ATOM     18  C   UNL     1      15.640  -0.491  19.471  1.00  0.00     0.004 C 
ENDBRANCH  16  17
ENDBRANCH  15  16
ENDBRANCH  14  15
ENDBRANCH  13  14
ENDBRANCH  12  13
ENDBRANCH  11  12
ENDBRANCH   1  11
TORSDOF 14
ENDMDL
