MODEL 1
REMARK VINA RESULT:    -0.563      0.000      0.000
REMARK INTER + INTRA:          -1.526
REMARK INTER:                  -1.090
REMARK INTRA:                  -0.436
REMARK UNBOUND:                -0.436
REMARK SMILES CCCCCCCCCCCCCCCCCC(=O)[O-]
REMARK SMILES IDX 10 1 11 2 12 3 13 4 14 5 15 6 16 7 17 8 18 9 19 10 20 11
REMARK SMILES IDX 9 12 8 13 7 14 6 15 5 16 4 17 3 18 2 19 1 20
REMARK H PARENT
REMARK Flexibility Score: inf
ROOT
ATOM      1  C   UNL     1      53.387 148.088  -1.012  1.00  0.00     0.000 C 
ENDROOT
BRANCH   1   2
ATOM      2  C   UNL     1      52.470 147.213  -0.141  1.00  0.00     0.000 C 
BRANCH   2   3
ATOM      3  C   UNL     1      53.115 146.833   1.204  1.00  0.00     0.000 C 
BRANCH   3   4
ATOM      4  C   UNL     1      52.261 147.269   2.407  1.00  0.00     0.000 C 
BRANCH   4   5
ATOM      5  C   UNL     1      51.052 148.125   1.988  1.00  0.00     0.000 C 
BRANCH   5   6
ATOM      6  C   UNL     1      49.891 147.282   1.438  1.00  0.00     0.000 C 
BRANCH   6   7
ATOM      7  C   UNL     1      48.891 148.111   0.616  1.00  0.00     0.006 C 
BRANCH   7   8
ATOM      8  C   UNL     1      49.277 148.120  -0.867  1.00  0.00     0.053 C 
BRANCH   8   9
ATOM      9  C   UNL     1      48.093 147.787  -1.719  1.00  0.00     0.041 C 
ATOM     10  O   UNL     1      48.144 147.947  -2.968  1.00  0.00    -0.550 OA
ATOM     11  O   UNL     1      46.915 147.347  -1.129  1.00  0.00    -0.550 OA
ENDBRANCH   8   9
ENDBRANCH   7   8
ENDBRANCH   6   7
ENDBRANCH   5   6
ENDBRANCH   4   5
ENDBRANCH   3   4
ENDBRANCH   2   3
ENDBRANCH   1   2
BRANCH   1  12
ATOM     12  C   UNL     1      54.599 147.317  -1.560  1.00  0.00     0.000 C 
BRANCH  12  13
ATOM     13  C   UNL     1      55.323 148.069  -2.692  1.00  0.00    -0.000 C 
BRANCH  13  14
ATOM     14  C   UNL     1      54.925 147.650  -4.122  1.00  0.00    -0.000 C 
BRANCH  14  15
ATOM     15  C   UNL     1      53.456 147.915  -4.496  1.00  0.00    -0.000 C 
BRANCH  15  16
ATOM     16  C   UNL     1      53.200 147.825  -6.008  1.00  0.00    -0.000 C 
BRANCH  16  17
ATOM     17  C   UNL     1      51.729 148.125  -6.334  1.00  0.00    -0.000 C 
BRANCH  17  18
ATOM     18  C   UNL     1      51.299 147.596  -7.715  1.00  0.00    -0.000 C 
BRANCH  18  19
ATOM     19  C   UNL     1      49.877 147.008  -7.767  1.00  0.00    -0.003 C 
ATOM     20  C   UNL     1      48.822 147.943  -7.178  1.00  0.00     0.004 C 
ENDBRANCH  18  19
ENDBRANCH  17  18
ENDBRANCH  16  17
ENDBRANCH  15  16
ENDBRANCH  14  15
ENDBRANCH  13  14
ENDBRANCH  12  13
ENDBRANCH   1  12
TORSDOF 16
ENDMDL
MODEL 2
REMARK VINA RESULT:     1.972      1.029      2.464
REMARK INTER + INTRA:           3.380
REMARK INTER:                   4.210
REMARK INTRA:                  -0.830
REMARK UNBOUND:                -0.436
REMARK SMILES CCCCCCCCCCCCCCCCCC(=O)[O-]
REMARK SMILES IDX 10 1 11 2 12 3 13 4 14 5 15 6 16 7 17 8 18 9 19 10 20 11
REMARK SMILES IDX 9 12 8 13 7 14 6 15 5 16 4 17 3 18 2 19 1 20
REMARK H PARENT
REMARK Flexibility Score: inf
ROOT
ATOM      1  C   UNL     1      54.484 146.829  -3.349  1.00  0.00     0.000 C 
ENDROOT
BRANCH   1   2
ATOM      2  C   UNL     1      55.171 147.696  -2.281  1.00  0.00     0.000 C 
BRANCH   2   3
ATOM      3  C   UNL     1      54.896 147.203  -0.849  1.00  0.00     0.000 C 
BRANCH   3   4
ATOM      4  C   UNL     1      53.395 147.013  -0.573  1.00  0.00     0.000 C 
BRANCH   4   5
ATOM      5  C   UNL     1      52.823 148.110   0.344  1.00  0.00     0.000 C 
BRANCH   5   6
ATOM      6  C   UNL     1      51.356 147.859   0.724  1.00  0.00     0.000 C 
BRANCH   6   7
ATOM      7  C   UNL     1      50.436 147.739  -0.501  1.00  0.00     0.006 C 
BRANCH   7   8
ATOM      8  C   UNL     1      48.996 148.125  -0.144  1.00  0.00     0.053 C 
BRANCH   8   9
ATOM      9  C   UNL     1      48.072 147.809  -1.279  1.00  0.00     0.041 C 
ATOM     10  O   UNL     1      46.881 147.468  -1.051  1.00  0.00    -0.550 OA
ATOM     11  O   UNL     1      48.542 147.841  -2.585  1.00  0.00    -0.550 OA
ENDBRANCH   8   9
ENDBRANCH   7   8
ENDBRANCH   6   7
ENDBRANCH   5   6
ENDBRANCH   4   5
ENDBRANCH   3   4
ENDBRANCH   2   3
ENDBRANCH   1   2
BRANCH   1  12
ATOM     12  C   UNL     1      55.019 147.096  -4.766  1.00  0.00     0.000 C 
BRANCH  12  13
ATOM     13  C   UNL     1      54.013 147.855  -5.651  1.00  0.00    -0.000 C 
BRANCH  13  14
ATOM     14  C   UNL     1      54.248 147.733  -7.170  1.00  0.00    -0.000 C 
BRANCH  14  15
ATOM     15  C   UNL     1      53.020 148.034  -8.047  1.00  0.00    -0.000 C 
BRANCH  15  16
ATOM     16  C   UNL     1      51.717 148.124  -7.239  1.00  0.00    -0.000 C 
BRANCH  16  17
ATOM     17  C   UNL     1      51.002 146.765  -7.198  1.00  0.00    -0.000 C 
BRANCH  17  18
ATOM     18  C   UNL     1      49.600 146.804  -7.835  1.00  0.00    -0.000 C 
BRANCH  18  19
ATOM     19  C   UNL     1      48.638 147.835  -7.215  1.00  0.00    -0.003 C 
ATOM     20  C   UNL     1      47.334 147.982  -7.999  1.00  0.00     0.004 C 
ENDBRANCH  18  19
ENDBRANCH  17  18
ENDBRANCH  16  17
ENDBRANCH  15  16
ENDBRANCH  14  15
ENDBRANCH  13  14
ENDBRANCH  12  13
ENDBRANCH   1  12
TORSDOF 16
ENDMDL
