MODEL 1
REMARK VINA RESULT:    -3.312      0.000      0.000
REMARK INTER + INTRA:          -6.438
REMARK INTER:                  -5.248
REMARK INTRA:                  -1.190
REMARK UNBOUND:                -1.190
REMARK SMILES CCCCCCCCCCCC(=O)[O-]
REMARK SMILES IDX 7 1 8 2 9 3 10 4 11 5 12 6 13 7 14 8 6 9 5 10 4 11 3 12 2 13
REMARK SMILES IDX 1 14
REMARK H PARENT
REMARK Flexibility Score: inf
ROOT
ATOM      1  C   UNL     1      57.587  27.196  52.171  1.00  0.00     0.000 C 
ENDROOT
BRANCH   1   2
ATOM      2  C   UNL     1      57.589  28.249  51.050  1.00  0.00     0.000 C 
BRANCH   2   3
ATOM      3  C   UNL     1      59.004  28.733  50.697  1.00  0.00     0.000 C 
BRANCH   3   4
ATOM      4  C   UNL     1      59.522  28.138  49.375  1.00  0.00     0.006 C 
BRANCH   4   5
ATOM      5  C   UNL     1      60.132  26.743  49.568  1.00  0.00     0.053 C 
BRANCH   5   6
ATOM      6  C   UNL     1      61.483  26.814  50.212  1.00  0.00     0.041 C 
ATOM      7  O   UNL     1      62.490  27.159  49.539  1.00  0.00    -0.550 OA
ATOM      8  O   UNL     1      61.624  26.532  51.565  1.00  0.00    -0.550 OA
ENDBRANCH   5   6
ENDBRANCH   4   5
ENDBRANCH   3   4
ENDBRANCH   2   3
ENDBRANCH   1   2
BRANCH   1   9
ATOM      9  C   UNL     1      56.746  25.954  51.825  1.00  0.00     0.000 C 
BRANCH   9  10
ATOM     10  C   UNL     1      56.629  25.637  50.320  1.00  0.00    -0.000 C 
BRANCH  10  11
ATOM     11  C   UNL     1      55.192  25.441  49.805  1.00  0.00    -0.000 C 
BRANCH  11  12
ATOM     12  C   UNL     1      54.150  26.190  50.653  1.00  0.00    -0.000 C 
BRANCH  12  13
ATOM     13  C   UNL     1      53.639  27.465  49.965  1.00  0.00    -0.003 C 
ATOM     14  C   UNL     1      53.991  28.734  50.740  1.00  0.00     0.004 C 
ENDBRANCH  12  13
ENDBRANCH  11  12
ENDBRANCH  10  11
ENDBRANCH   9  10
ENDBRANCH   1   9
TORSDOF 10
ENDMDL
MODEL 2
REMARK VINA RESULT:    -3.295     11.652     13.332
REMARK INTER + INTRA:          -6.412
REMARK INTER:                  -5.031
REMARK INTRA:                  -1.381
REMARK UNBOUND:                -1.190
REMARK SMILES CCCCCCCCCCCC(=O)[O-]
REMARK SMILES IDX 7 1 8 2 9 3 10 4 11 5 12 6 13 7 14 8 6 9 5 10 4 11 3 12 2 13
REMARK SMILES IDX 1 14
REMARK H PARENT
REMARK Flexibility Score: inf
ROOT
ATOM      1  C   UNL     1      60.895  30.715  60.064  1.00  0.00     0.000 C 
ENDROOT
BRANCH   1   2
ATOM      2  C   UNL     1      61.378  32.055  59.482  1.00  0.00     0.000 C 
BRANCH   2   3
ATOM      3  C   UNL     1      62.136  32.906  60.513  1.00  0.00     0.000 C 
BRANCH   3   4
ATOM      4  C   UNL     1      63.579  33.221  60.077  1.00  0.00     0.006 C 
BRANCH   4   5
ATOM      5  C   UNL     1      64.512  33.431  61.277  1.00  0.00     0.053 C 
BRANCH   5   6
ATOM      6  C   UNL     1      64.775  34.885  61.526  1.00  0.00     0.041 C 
ATOM      7  O   UNL     1      65.955  35.325  61.526  1.00  0.00    -0.550 OA
ATOM      8  O   UNL     1      63.714  35.759  61.723  1.00  0.00    -0.550 OA
ENDBRANCH   5   6
ENDBRANCH   4   5
ENDBRANCH   3   4
ENDBRANCH   2   3
ENDBRANCH   1   2
BRANCH   1   9
ATOM      9  C   UNL     1      61.287  30.529  61.541  1.00  0.00     0.000 C 
BRANCH   9  10
ATOM     10  C   UNL     1      62.266  29.370  61.821  1.00  0.00    -0.000 C 
BRANCH  10  11
ATOM     11  C   UNL     1      63.756  29.739  61.725  1.00  0.00    -0.000 C 
BRANCH  11  12
ATOM     12  C   UNL     1      64.471  29.024  60.566  1.00  0.00    -0.000 C 
BRANCH  12  13
ATOM     13  C   UNL     1      65.618  29.860  59.977  1.00  0.00    -0.003 C 
ATOM     14  C   UNL     1      65.354  30.290  58.534  1.00  0.00     0.004 C 
ENDBRANCH  12  13
ENDBRANCH  11  12
ENDBRANCH  10  11
ENDBRANCH   9  10
ENDBRANCH   1   9
TORSDOF 10
ENDMDL
MODEL 3
REMARK VINA RESULT:    -3.226      3.431      5.690
REMARK INTER + INTRA:          -6.303
REMARK INTER:                  -4.743
REMARK INTRA:                  -1.559
REMARK UNBOUND:                -1.190
REMARK SMILES CCCCCCCCCCCC(=O)[O-]
REMARK SMILES IDX 7 1 8 2 9 3 10 4 11 5 12 6 13 7 14 8 6 9 5 10 4 11 3 12 2 13
REMARK SMILES IDX 1 14
REMARK H PARENT
REMARK Flexibility Score: inf
ROOT
ATOM      1  C   UNL     1      58.401  28.692  50.865  1.00  0.00     0.000 C 
ENDROOT
BRANCH   1   2
ATOM      2  C   UNL     1      57.040  27.976  50.905  1.00  0.00     0.000 C 
BRANCH   2   3
ATOM      3  C   UNL     1      56.969  26.903  52.003  1.00  0.00     0.000 C 
BRANCH   3   4
ATOM      4  C   UNL     1      56.617  25.511  51.450  1.00  0.00     0.006 C 
BRANCH   4   5
ATOM      5  C   UNL     1      55.960  25.588  50.066  1.00  0.00     0.053 C 
BRANCH   5   6
ATOM      6  C   UNL     1      54.608  24.941  50.058  1.00  0.00     0.041 C 
ATOM      7  O   UNL     1      53.919  24.923  49.005  1.00  0.00    -0.550 OA
ATOM      8  O   UNL     1      54.124  24.330  51.208  1.00  0.00    -0.550 OA
ENDBRANCH   5   6
ENDBRANCH   4   5
ENDBRANCH   3   4
ENDBRANCH   2   3
ENDBRANCH   1   2
BRANCH   1   9
ATOM      9  C   UNL     1      59.177  28.430  49.561  1.00  0.00     0.000 C 
BRANCH   9  10
ATOM     10  C   UNL     1      60.334  27.415  49.676  1.00  0.00    -0.000 C 
BRANCH  10  11
ATOM     11  C   UNL     1      59.903  25.939  49.716  1.00  0.00    -0.000 C 
BRANCH  11  12
ATOM     12  C   UNL     1      60.233  25.259  51.056  1.00  0.00    -0.000 C 
BRANCH  12  13
ATOM     13  C   UNL     1      60.908  26.215  52.050  1.00  0.00    -0.003 C 
ATOM     14  C   UNL     1      60.400  26.034  53.480  1.00  0.00     0.004 C 
ENDBRANCH  12  13
ENDBRANCH  11  12
ENDBRANCH  10  11
ENDBRANCH   9  10
ENDBRANCH   1   9
TORSDOF 10
ENDMDL
MODEL 4
REMARK VINA RESULT:    -3.226      1.464      2.399
REMARK INTER + INTRA:          -6.302
REMARK INTER:                  -5.251
REMARK INTRA:                  -1.051
REMARK UNBOUND:                -1.190
REMARK SMILES CCCCCCCCCCCC(=O)[O-]
REMARK SMILES IDX 7 1 8 2 9 3 10 4 11 5 12 6 13 7 14 8 6 9 5 10 4 11 3 12 2 13
REMARK SMILES IDX 1 14
REMARK H PARENT
REMARK Flexibility Score: inf
ROOT
ATOM      1  C   UNL     1      58.047  29.035  52.214  1.00  0.00     0.000 C 
ENDROOT
BRANCH   1   2
ATOM      2  C   UNL     1      59.313  28.907  51.348  1.00  0.00     0.000 C 
BRANCH   2   3
ATOM      3  C   UNL     1      59.008  28.391  49.933  1.00  0.00     0.000 C 
BRANCH   3   4
ATOM      4  C   UNL     1      59.927  27.229  49.514  1.00  0.00     0.006 C 
BRANCH   4   5
ATOM      5  C   UNL     1      59.346  25.864  49.904  1.00  0.00     0.053 C 
BRANCH   5   6
ATOM      6  C   UNL     1      60.399  24.952  50.456  1.00  0.00     0.041 C 
ATOM      7  O   UNL     1      60.167  23.721  50.589  1.00  0.00    -0.550 OA
ATOM      8  O   UNL     1      61.649  25.457  50.792  1.00  0.00    -0.550 OA
ENDBRANCH   5   6
ENDBRANCH   4   5
ENDBRANCH   3   4
ENDBRANCH   2   3
ENDBRANCH   1   2
BRANCH   1   9
ATOM      9  C   UNL     1      57.461  27.670  52.623  1.00  0.00     0.000 C 
BRANCH   9  10
ATOM     10  C   UNL     1      55.937  27.525  52.434  1.00  0.00    -0.000 C 
BRANCH  10  11
ATOM     11  C   UNL     1      55.351  28.306  51.245  1.00  0.00    -0.000 C 
BRANCH  11  12
ATOM     12  C   UNL     1      54.614  27.401  50.244  1.00  0.00    -0.000 C 
BRANCH  12  13
ATOM     13  C   UNL     1      55.333  26.062  50.021  1.00  0.00    -0.003 C 
ATOM     14  C   UNL     1      54.426  25.001  49.400  1.00  0.00     0.004 C 
ENDBRANCH  12  13
ENDBRANCH  11  12
ENDBRANCH  10  11
ENDBRANCH   9  10
ENDBRANCH   1   9
TORSDOF 10
ENDMDL
MODEL 5
REMARK VINA RESULT:    -3.225      1.702      2.629
REMARK INTER + INTRA:          -6.301
REMARK INTER:                  -4.833
REMARK INTRA:                  -1.468
REMARK UNBOUND:                -1.190
REMARK SMILES CCCCCCCCCCCC(=O)[O-]
REMARK SMILES IDX 7 1 8 2 9 3 10 4 11 5 12 6 13 7 14 8 6 9 5 10 4 11 3 12 2 13
REMARK SMILES IDX 1 14
REMARK H PARENT
REMARK Flexibility Score: inf
ROOT
ATOM      1  C   UNL     1      57.986  26.343  53.124  1.00  0.00     0.000 C 
ENDROOT
BRANCH   1   2
ATOM      2  C   UNL     1      57.887  25.045  52.304  1.00  0.00     0.000 C 
BRANCH   2   3
ATOM      3  C   UNL     1      59.074  24.862  51.345  1.00  0.00     0.000 C 
BRANCH   3   4
ATOM      4  C   UNL     1      58.914  25.665  50.042  1.00  0.00     0.006 C 
BRANCH   4   5
ATOM      5  C   UNL     1      60.133  26.551  49.755  1.00  0.00     0.053 C 
BRANCH   5   6
ATOM      6  C   UNL     1      59.875  27.982  50.119  1.00  0.00     0.041 C 
ATOM      7  O   UNL     1      59.328  28.758  49.292  1.00  0.00    -0.550 OA
ATOM      8  O   UNL     1      60.210  28.448  51.384  1.00  0.00    -0.550 OA
ENDBRANCH   5   6
ENDBRANCH   4   5
ENDBRANCH   3   4
ENDBRANCH   2   3
ENDBRANCH   1   2
BRANCH   1   9
ATOM      9  C   UNL     1      56.704  27.193  53.057  1.00  0.00     0.000 C 
BRANCH   9  10
ATOM     10  C   UNL     1      56.733  28.348  52.034  1.00  0.00    -0.000 C 
BRANCH  10  11
ATOM     11  C   UNL     1      56.159  28.006  50.649  1.00  0.00    -0.000 C 
BRANCH  11  12
ATOM     12  C   UNL     1      54.631  27.829  50.666  1.00  0.00    -0.000 C 
BRANCH  12  13
ATOM     13  C   UNL     1      54.171  26.606  49.858  1.00  0.00    -0.003 C 
ATOM     14  C   UNL     1      55.223  25.500  49.813  1.00  0.00     0.004 C 
ENDBRANCH  12  13
ENDBRANCH  11  12
ENDBRANCH  10  11
ENDBRANCH   9  10
ENDBRANCH   1   9
TORSDOF 10
ENDMDL
MODEL 6
REMARK VINA RESULT:    -3.216     11.508     13.452
REMARK INTER + INTRA:          -6.287
REMARK INTER:                  -5.351
REMARK INTRA:                  -0.936
REMARK UNBOUND:                -1.190
REMARK SMILES CCCCCCCCCCCC(=O)[O-]
REMARK SMILES IDX 7 1 8 2 9 3 10 4 11 5 12 6 13 7 14 8 6 9 5 10 4 11 3 12 2 13
REMARK SMILES IDX 1 14
REMARK H PARENT
REMARK Flexibility Score: inf
ROOT
ATOM      1  C   UNL     1      61.758  32.611  59.400  1.00  0.00     0.000 C 
ENDROOT
BRANCH   1   2
ATOM      2  C   UNL     1      61.997  32.075  60.823  1.00  0.00     0.000 C 
BRANCH   2   3
ATOM      3  C   UNL     1      61.127  30.849  61.145  1.00  0.00     0.000 C 
BRANCH   3   4
ATOM      4  C   UNL     1      61.884  29.780  61.954  1.00  0.00     0.006 C 
BRANCH   4   5
ATOM      5  C   UNL     1      63.377  29.743  61.607  1.00  0.00     0.053 C 
BRANCH   5   6
ATOM      6  C   UNL     1      63.751  28.472  60.907  1.00  0.00     0.041 C 
ATOM      7  O   UNL     1      64.948  28.081  60.895  1.00  0.00    -0.550 OA
ATOM      8  O   UNL     1      62.770  27.701  60.296  1.00  0.00    -0.550 OA
ENDBRANCH   5   6
ENDBRANCH   4   5
ENDBRANCH   3   4
ENDBRANCH   2   3
ENDBRANCH   1   2
BRANCH   1   9
ATOM      9  C   UNL     1      61.855  34.145  59.315  1.00  0.00     0.000 C 
BRANCH   9  10
ATOM     10  C   UNL     1      61.206  34.912  60.486  1.00  0.00    -0.000 C 
BRANCH  10  11
ATOM     11  C   UNL     1      62.065  36.042  61.080  1.00  0.00    -0.000 C 
BRANCH  11  12
ATOM     12  C   UNL     1      63.493  36.067  60.509  1.00  0.00    -0.000 C 
BRANCH  12  13
ATOM     13  C   UNL     1      64.556  35.746  61.570  1.00  0.00    -0.003 C 
ATOM     14  C   UNL     1      64.848  34.250  61.679  1.00  0.00     0.004 C 
ENDBRANCH  12  13
ENDBRANCH  11  12
ENDBRANCH  10  11
ENDBRANCH   9  10
ENDBRANCH   1   9
TORSDOF 10
ENDMDL
MODEL 7
REMARK VINA RESULT:    -3.210      3.554      5.797
REMARK INTER + INTRA:          -6.276
REMARK INTER:                  -5.217
REMARK INTRA:                  -1.059
REMARK UNBOUND:                -1.190
REMARK SMILES CCCCCCCCCCCC(=O)[O-]
REMARK SMILES IDX 7 1 8 2 9 3 10 4 11 5 12 6 13 7 14 8 6 9 5 10 4 11 3 12 2 13
REMARK SMILES IDX 1 14
REMARK H PARENT
REMARK Flexibility Score: inf
ROOT
ATOM      1  C   UNL     1      57.510  28.260  52.913  1.00  0.00     0.000 C 
ENDROOT
BRANCH   1   2
ATOM      2  C   UNL     1      56.080  28.048  52.388  1.00  0.00     0.000 C 
BRANCH   2   3
ATOM      3  C   UNL     1      56.009  28.046  50.853  1.00  0.00     0.000 C 
BRANCH   3   4
ATOM      4  C   UNL     1      54.821  27.229  50.314  1.00  0.00     0.006 C 
BRANCH   4   5
ATOM      5  C   UNL     1      55.222  25.791  49.958  1.00  0.00     0.053 C 
BRANCH   5   6
ATOM      6  C   UNL     1      54.029  24.957  49.600  1.00  0.00     0.041 C 
ATOM      7  O   UNL     1      53.910  23.790  50.057  1.00  0.00    -0.550 OA
ATOM      8  O   UNL     1      53.033  25.483  48.786  1.00  0.00    -0.550 OA
ENDBRANCH   5   6
ENDBRANCH   4   5
ENDBRANCH   3   4
ENDBRANCH   2   3
ENDBRANCH   1   2
BRANCH   1   9
ATOM      9  C   UNL     1      58.325  29.240  52.049  1.00  0.00     0.000 C 
BRANCH   9  10
ATOM     10  C   UNL     1      59.649  28.679  51.488  1.00  0.00    -0.000 C 
BRANCH  10  11
ATOM     11  C   UNL     1      59.682  28.492  49.961  1.00  0.00    -0.000 C 
BRANCH  11  12
ATOM     12  C   UNL     1      60.003  27.046  49.547  1.00  0.00    -0.000 C 
BRANCH  12  13
ATOM     13  C   UNL     1      59.038  26.027  50.171  1.00  0.00    -0.003 C 
ATOM     14  C   UNL     1      59.748  24.762  50.653  1.00  0.00     0.004 C 
ENDBRANCH  12  13
ENDBRANCH  11  12
ENDBRANCH  10  11
ENDBRANCH   9  10
ENDBRANCH   1   9
TORSDOF 10
ENDMDL
MODEL 8
REMARK VINA RESULT:    -3.204      3.483      5.557
REMARK INTER + INTRA:          -6.268
REMARK INTER:                  -4.961
REMARK INTRA:                  -1.306
REMARK UNBOUND:                -1.190
REMARK SMILES CCCCCCCCCCCC(=O)[O-]
REMARK SMILES IDX 7 1 8 2 9 3 10 4 11 5 12 6 13 7 14 8 6 9 5 10 4 11 3 12 2 13
REMARK SMILES IDX 1 14
REMARK H PARENT
REMARK Flexibility Score: inf
ROOT
ATOM      1  C   UNL     1      59.871  24.701  50.639  1.00  0.00     0.000 C 
ENDROOT
BRANCH   1   2
ATOM      2  C   UNL     1      58.576  25.163  51.327  1.00  0.00     0.000 C 
BRANCH   2   3
ATOM      3  C   UNL     1      57.402  25.299  50.344  1.00  0.00     0.000 C 
BRANCH   3   4
ATOM      4  C   UNL     1      56.068  25.604  51.051  1.00  0.00     0.006 C 
BRANCH   4   5
ATOM      5  C   UNL     1      55.095  26.366  50.143  1.00  0.00     0.053 C 
BRANCH   5   6
ATOM      6  C   UNL     1      53.958  25.497  49.697  1.00  0.00     0.041 C 
ATOM      7  O   UNL     1      52.947  26.007  49.147  1.00  0.00    -0.550 OA
ATOM      8  O   UNL     1      54.031  24.119  49.861  1.00  0.00    -0.550 OA
ENDBRANCH   5   6
ENDBRANCH   4   5
ENDBRANCH   3   4
ENDBRANCH   2   3
ENDBRANCH   1   2
BRANCH   1   9
ATOM      9  C   UNL     1      60.584  25.836  49.881  1.00  0.00     0.000 C 
BRANCH   9  10
ATOM     10  C   UNL     1      60.410  27.243  50.488  1.00  0.00    -0.000 C 
BRANCH  10  11
ATOM     11  C   UNL     1      59.653  28.246  49.601  1.00  0.00    -0.000 C 
BRANCH  11  12
ATOM     12  C   UNL     1      58.357  28.757  50.254  1.00  0.00    -0.000 C 
BRANCH  12  13
ATOM     13  C   UNL     1      58.465  28.846  51.784  1.00  0.00    -0.003 C 
ATOM     14  C   UNL     1      57.100  28.909  52.468  1.00  0.00     0.004 C 
ENDBRANCH  12  13
ENDBRANCH  11  12
ENDBRANCH  10  11
ENDBRANCH   9  10
ENDBRANCH   1   9
TORSDOF 10
ENDMDL
MODEL 9
REMARK VINA RESULT:    -3.148     11.388     13.278
REMARK INTER + INTRA:          -6.178
REMARK INTER:                  -4.997
REMARK INTRA:                  -1.181
REMARK UNBOUND:                -1.190
REMARK SMILES CCCCCCCCCCCC(=O)[O-]
REMARK SMILES IDX 7 1 8 2 9 3 10 4 11 5 12 6 13 7 14 8 6 9 5 10 4 11 3 12 2 13
REMARK SMILES IDX 1 14
REMARK H PARENT
REMARK Flexibility Score: inf
ROOT
ATOM      1  C   UNL     1      63.475  32.206  58.850  1.00  0.00     0.000 C 
ENDROOT
BRANCH   1   2
ATOM      2  C   UNL     1      62.015  32.151  59.332  1.00  0.00     0.000 C 
BRANCH   2   3
ATOM      3  C   UNL     1      61.903  32.008  60.858  1.00  0.00     0.000 C 
BRANCH   3   4
ATOM      4  C   UNL     1      61.201  30.705  61.282  1.00  0.00     0.006 C 
BRANCH   4   5
ATOM      5  C   UNL     1      62.169  29.716  61.944  1.00  0.00     0.053 C 
BRANCH   5   6
ATOM      6  C   UNL     1      62.247  28.426  61.186  1.00  0.00     0.041 C 
ATOM      7  O   UNL     1      63.314  27.758  61.176  1.00  0.00    -0.550 OA
ATOM      8  O   UNL     1      61.128  27.945  60.516  1.00  0.00    -0.550 OA
ENDBRANCH   5   6
ENDBRANCH   4   5
ENDBRANCH   3   4
ENDBRANCH   2   3
ENDBRANCH   1   2
BRANCH   1   9
ATOM      9  C   UNL     1      64.469  32.510  59.987  1.00  0.00     0.000 C 
BRANCH   9  10
ATOM     10  C   UNL     1      64.867  33.993  60.133  1.00  0.00    -0.000 C 
BRANCH  10  11
ATOM     11  C   UNL     1      64.692  34.578  61.545  1.00  0.00    -0.000 C 
BRANCH  11  12
ATOM     12  C   UNL     1      63.692  35.746  61.585  1.00  0.00    -0.000 C 
BRANCH  12  13
ATOM     13  C   UNL     1      62.786  35.786  60.345  1.00  0.00    -0.003 C 
ATOM     14  C   UNL     1      61.302  35.693  60.696  1.00  0.00     0.004 C 
ENDBRANCH  12  13
ENDBRANCH  11  12
ENDBRANCH  10  11
ENDBRANCH   9  10
ENDBRANCH   1   9
TORSDOF 10
ENDMDL
