MODEL 1
REMARK VINA RESULT:    -4.206      0.000      0.000
REMARK INTER + INTRA:          -9.657
REMARK INTER:                  -7.893
REMARK INTRA:                  -1.764
REMARK UNBOUND:                -1.764
REMARK SMILES CCCCCCCCC=CCCCCCCCC(=O)[O-]
REMARK SMILES IDX 10 1 9 2 11 3 12 4 13 5 14 6 15 7 16 8 17 9 18 10 19 11
REMARK SMILES IDX 20 12 8 13 7 14 6 15 5 16 4 17 3 18 2 19 1 20
REMARK H PARENT
REMARK Flexibility Score: inf
ROOT
ATOM      1  C   UNL     1       8.740  -0.386  -6.873  1.00  0.00    -0.031 C 
ATOM      2  C   UNL     1       8.866   0.894  -6.493  1.00  0.00    -0.031 C 
ENDROOT
BRANCH   1   3
ATOM      3  C   UNL     1       7.558  -0.856  -7.678  1.00  0.00     0.027 C 
BRANCH   3   4
ATOM      4  C   UNL     1       6.543   0.268  -7.935  1.00  0.00     0.004 C 
BRANCH   4   5
ATOM      5  C   UNL     1       5.667  -0.015  -9.168  1.00  0.00     0.000 C 
BRANCH   5   6
ATOM      6  C   UNL     1       4.167  -0.049  -8.832  1.00  0.00     0.000 C 
BRANCH   6   7
ATOM      7  C   UNL     1       3.436   1.234  -9.261  1.00  0.00     0.000 C 
BRANCH   7   8
ATOM      8  C   UNL     1       1.946   1.220  -8.880  1.00  0.00     0.006 C 
BRANCH   8   9
ATOM      9  C   UNL     1       1.607   0.114  -7.873  1.00  0.00     0.053 C 
BRANCH   9  10
ATOM     10  C   UNL     1       0.342   0.441  -7.145  1.00  0.00     0.041 C 
ATOM     11  O   UNL     1      -0.455  -0.476  -6.815  1.00  0.00    -0.550 OA
ATOM     12  O   UNL     1       0.066   1.754  -6.788  1.00  0.00    -0.550 OA
ENDBRANCH   9  10
ENDBRANCH   8   9
ENDBRANCH   7   8
ENDBRANCH   6   7
ENDBRANCH   5   6
ENDBRANCH   4   5
ENDBRANCH   3   4
ENDBRANCH   1   3
BRANCH   2  13
ATOM     13  C   UNL     1      10.072   1.378  -5.733  1.00  0.00     0.027 C 
BRANCH  13  14
ATOM     14  C   UNL     1      10.654   2.652  -6.357  1.00  0.00     0.004 C 
BRANCH  14  15
ATOM     15  C   UNL     1      10.170   2.864  -7.802  1.00  0.00     0.000 C 
BRANCH  15  16
ATOM     16  C   UNL     1      11.184   2.365  -8.843  1.00  0.00     0.000 C 
BRANCH  16  17
ATOM     17  C   UNL     1      10.510   1.655 -10.030  1.00  0.00    -0.000 C 
BRANCH  17  18
ATOM     18  C   UNL     1       8.985   1.841 -10.040  1.00  0.00    -0.000 C 
BRANCH  18  19
ATOM     19  C   UNL     1       8.448   2.235 -11.424  1.00  0.00    -0.003 C 
ATOM     20  C   UNL     1       6.983   2.652 -11.346  1.00  0.00     0.004 C 
ENDBRANCH  18  19
ENDBRANCH  17  18
ENDBRANCH  16  17
ENDBRANCH  15  16
ENDBRANCH  14  15
ENDBRANCH  13  14
ENDBRANCH   2  13
TORSDOF 15
ENDMDL
MODEL 2
REMARK VINA RESULT:    -4.193      1.432      2.098
REMARK INTER + INTRA:          -9.633
REMARK INTER:                  -7.741
REMARK INTRA:                  -1.892
REMARK UNBOUND:                -1.764
REMARK SMILES CCCCCCCCC=CCCCCCCCC(=O)[O-]
REMARK SMILES IDX 10 1 9 2 11 3 12 4 13 5 14 6 15 7 16 8 17 9 18 10 19 11
REMARK SMILES IDX 20 12 8 13 7 14 6 15 5 16 4 17 3 18 2 19 1 20
REMARK H PARENT
REMARK Flexibility Score: inf
ROOT
ATOM      1  C   UNL     1       8.635   0.859  -7.029  1.00  0.00    -0.031 C 
ATOM      2  C   UNL     1       9.178   1.744  -7.876  1.00  0.00    -0.031 C 
ENDROOT
BRANCH   1   3
ATOM      3  C   UNL     1       7.660  -0.188  -7.500  1.00  0.00     0.027 C 
BRANCH   3   4
ATOM      4  C   UNL     1       6.387   0.428  -8.099  1.00  0.00     0.004 C 
BRANCH   4   5
ATOM      5  C   UNL     1       5.570  -0.598  -8.902  1.00  0.00     0.000 C 
BRANCH   5   6
ATOM      6  C   UNL     1       4.620  -1.420  -8.016  1.00  0.00     0.000 C 
BRANCH   6   7
ATOM      7  C   UNL     1       3.258  -1.673  -8.684  1.00  0.00     0.000 C 
BRANCH   7   8
ATOM      8  C   UNL     1       2.096  -1.009  -7.927  1.00  0.00     0.006 C 
BRANCH   8   9
ATOM      9  C   UNL     1       1.364   0.039  -8.775  1.00  0.00     0.053 C 
BRANCH   9  10
ATOM     10  C   UNL     1       1.933   1.399  -8.529  1.00  0.00     0.041 C 
ATOM     11  O   UNL     1       2.953   1.782  -9.160  1.00  0.00    -0.550 OA
ATOM     12  O   UNL     1       1.311   2.263  -7.637  1.00  0.00    -0.550 OA
ENDBRANCH   9  10
ENDBRANCH   8   9
ENDBRANCH   7   8
ENDBRANCH   6   7
ENDBRANCH   5   6
ENDBRANCH   4   5
ENDBRANCH   3   4
ENDBRANCH   1   3
BRANCH   2  13
ATOM     13  C   UNL     1      10.192   2.758  -7.419  1.00  0.00     0.027 C 
BRANCH  13  14
ATOM     14  C   UNL     1      11.308   2.944  -8.454  1.00  0.00     0.004 C 
BRANCH  14  15
ATOM     15  C   UNL     1      11.252   1.881  -9.564  1.00  0.00     0.000 C 
BRANCH  15  16
ATOM     16  C   UNL     1      11.375   2.488 -10.970  1.00  0.00     0.000 C 
BRANCH  16  17
ATOM     17  C   UNL     1      10.362   1.891 -11.962  1.00  0.00    -0.000 C 
BRANCH  17  18
ATOM     18  C   UNL     1       9.049   2.688 -12.016  1.00  0.00    -0.000 C 
BRANCH  18  19
ATOM     19  C   UNL     1       7.896   1.975 -11.294  1.00  0.00    -0.003 C 
ATOM     20  C   UNL     1       8.061   0.460 -11.362  1.00  0.00     0.004 C 
ENDBRANCH  18  19
ENDBRANCH  17  18
ENDBRANCH  16  17
ENDBRANCH  15  16
ENDBRANCH  14  15
ENDBRANCH  13  14
ENDBRANCH   2  13
TORSDOF 15
ENDMDL
MODEL 3
REMARK VINA RESULT:    -4.159      4.247      5.665
REMARK INTER + INTRA:          -9.569
REMARK INTER:                  -7.202
REMARK INTRA:                  -2.367
REMARK UNBOUND:                -1.764
REMARK SMILES CCCCCCCCC=CCCCCCCCC(=O)[O-]
REMARK SMILES IDX 10 1 9 2 11 3 12 4 13 5 14 6 15 7 16 8 17 9 18 10 19 11
REMARK SMILES IDX 20 12 8 13 7 14 6 15 5 16 4 17 3 18 2 19 1 20
REMARK H PARENT
REMARK Flexibility Score: inf
ROOT
ATOM      1  C   UNL     1       7.545  -0.282  -7.448  1.00  0.00    -0.031 C 
ATOM      2  C   UNL     1       8.232   0.735  -6.908  1.00  0.00    -0.031 C 
ENDROOT
BRANCH   1   3
ATOM      3  C   UNL     1       6.241  -0.058  -8.167  1.00  0.00     0.027 C 
BRANCH   3   4
ATOM      4  C   UNL     1       5.417  -1.348  -8.296  1.00  0.00     0.004 C 
BRANCH   4   5
ATOM      5  C   UNL     1       6.301  -2.605  -8.258  1.00  0.00     0.000 C 
BRANCH   5   6
ATOM      6  C   UNL     1       5.868  -3.600  -7.169  1.00  0.00     0.000 C 
BRANCH   6   7
ATOM      7  C   UNL     1       6.988  -4.582  -6.785  1.00  0.00     0.000 C 
BRANCH   7   8
ATOM      8  C   UNL     1       7.798  -4.106  -5.568  1.00  0.00     0.006 C 
BRANCH   8   9
ATOM      9  C   UNL     1       9.085  -3.372  -5.967  1.00  0.00     0.053 C 
BRANCH   9  10
ATOM     10  C   UNL     1      10.116  -3.505  -4.892  1.00  0.00     0.041 C 
ATOM     11  O   UNL     1      10.525  -4.644  -4.545  1.00  0.00    -0.550 OA
ATOM     12  O   UNL     1      10.661  -2.370  -4.307  1.00  0.00    -0.550 OA
ENDBRANCH   9  10
ENDBRANCH   8   9
ENDBRANCH   7   8
ENDBRANCH   6   7
ENDBRANCH   5   6
ENDBRANCH   4   5
ENDBRANCH   3   4
ENDBRANCH   1   3
BRANCH   2  13
ATOM     13  C   UNL     1       9.561   0.522  -6.235  1.00  0.00     0.027 C 
BRANCH  13  14
ATOM     14  C   UNL     1      10.336   1.837  -6.093  1.00  0.00     0.004 C 
BRANCH  14  15
ATOM     15  C   UNL     1      10.139   2.760  -7.308  1.00  0.00     0.000 C 
BRANCH  15  16
ATOM     16  C   UNL     1      11.356   2.768  -8.246  1.00  0.00     0.000 C 
BRANCH  16  17
ATOM     17  C   UNL     1      10.998   2.340  -9.680  1.00  0.00    -0.000 C 
BRANCH  17  18
ATOM     18  C   UNL     1      10.551   0.871  -9.763  1.00  0.00    -0.000 C 
BRANCH  18  19
ATOM     19  C   UNL     1       9.292   0.686 -10.622  1.00  0.00    -0.003 C 
ATOM     20  C   UNL     1       8.383   1.908 -10.534  1.00  0.00     0.004 C 
ENDBRANCH  18  19
ENDBRANCH  17  18
ENDBRANCH  16  17
ENDBRANCH  15  16
ENDBRANCH  14  15
ENDBRANCH  13  14
ENDBRANCH   2  13
TORSDOF 15
ENDMDL
MODEL 4
REMARK VINA RESULT:    -4.135      3.482      4.355
REMARK INTER + INTRA:          -9.525
REMARK INTER:                  -7.468
REMARK INTRA:                  -2.057
REMARK UNBOUND:                -1.764
REMARK SMILES CCCCCCCCC=CCCCCCCCC(=O)[O-]
REMARK SMILES IDX 10 1 9 2 11 3 12 4 13 5 14 6 15 7 16 8 17 9 18 10 19 11
REMARK SMILES IDX 20 12 8 13 7 14 6 15 5 16 4 17 3 18 2 19 1 20
REMARK H PARENT
REMARK Flexibility Score: inf
ROOT
ATOM      1  C   UNL     1       8.799  -0.444  -6.856  1.00  0.00    -0.031 C 
ATOM      2  C   UNL     1       8.950   0.837  -6.492  1.00  0.00    -0.031 C 
ENDROOT
BRANCH   1   3
ATOM      3  C   UNL     1       7.654  -0.887  -7.728  1.00  0.00     0.027 C 
BRANCH   3   4
ATOM      4  C   UNL     1       6.648   0.244  -7.988  1.00  0.00     0.004 C 
BRANCH   4   5
ATOM      5  C   UNL     1       5.264  -0.294  -8.390  1.00  0.00     0.000 C 
BRANCH   5   6
ATOM      6  C   UNL     1       5.310  -1.761  -8.846  1.00  0.00     0.000 C 
BRANCH   6   7
ATOM      7  C   UNL     1       4.578  -2.705  -7.877  1.00  0.00     0.000 C 
BRANCH   7   8
ATOM      8  C   UNL     1       4.961  -4.179  -8.087  1.00  0.00     0.006 C 
BRANCH   8   9
ATOM      9  C   UNL     1       6.368  -4.344  -8.675  1.00  0.00     0.053 C 
BRANCH   9  10
ATOM     10  C   UNL     1       7.337  -4.741  -7.607  1.00  0.00     0.041 C 
ATOM     11  O   UNL     1       8.537  -4.364  -7.669  1.00  0.00    -0.550 OA
ATOM     12  O   UNL     1       6.904  -5.487  -6.519  1.00  0.00    -0.550 OA
ENDBRANCH   9  10
ENDBRANCH   8   9
ENDBRANCH   7   8
ENDBRANCH   6   7
ENDBRANCH   5   6
ENDBRANCH   4   5
ENDBRANCH   3   4
ENDBRANCH   1   3
BRANCH   2  13
ATOM     13  C   UNL     1      10.121   1.292  -5.665  1.00  0.00     0.027 C 
BRANCH  13  14
ATOM     14  C   UNL     1      10.708   2.606  -6.196  1.00  0.00     0.004 C 
BRANCH  14  15
ATOM     15  C   UNL     1      10.221   2.924  -7.620  1.00  0.00     0.000 C 
BRANCH  15  16
ATOM     16  C   UNL     1      11.344   2.825  -8.664  1.00  0.00     0.000 C 
BRANCH  16  17
ATOM     17  C   UNL     1      10.931   2.004  -9.898  1.00  0.00    -0.000 C 
BRANCH  17  18
ATOM     18  C   UNL     1       9.430   1.676  -9.914  1.00  0.00    -0.000 C 
BRANCH  18  19
ATOM     19  C   UNL     1       8.739   2.144 -11.203  1.00  0.00    -0.003 C 
ATOM     20  C   UNL     1       7.231   2.264 -11.005  1.00  0.00     0.004 C 
ENDBRANCH  18  19
ENDBRANCH  17  18
ENDBRANCH  16  17
ENDBRANCH  15  16
ENDBRANCH  14  15
ENDBRANCH  13  14
ENDBRANCH   2  13
TORSDOF 15
ENDMDL
MODEL 5
REMARK VINA RESULT:    -4.083      4.320      7.065
REMARK INTER + INTRA:          -9.428
REMARK INTER:                  -6.714
REMARK INTRA:                  -2.714
REMARK UNBOUND:                -1.764
REMARK SMILES CCCCCCCCC=CCCCCCCCC(=O)[O-]
REMARK SMILES IDX 10 1 9 2 11 3 12 4 13 5 14 6 15 7 16 8 17 9 18 10 19 11
REMARK SMILES IDX 20 12 8 13 7 14 6 15 5 16 4 17 3 18 2 19 1 20
REMARK H PARENT
REMARK Flexibility Score: inf
ROOT
ATOM      1  C   UNL     1       8.700   1.335 -10.666  1.00  0.00    -0.031 C 
ATOM      2  C   UNL     1       7.810   1.592  -9.696  1.00  0.00    -0.031 C 
ENDROOT
BRANCH   1   3
ATOM      3  C   UNL     1       9.959   2.147 -10.816  1.00  0.00     0.027 C 
BRANCH   3   4
ATOM      4  C   UNL     1      11.073   1.675  -9.870  1.00  0.00     0.004 C 
BRANCH   4   5
ATOM      5  C   UNL     1      11.475   2.765  -8.860  1.00  0.00     0.000 C 
BRANCH   5   6
ATOM      6  C   UNL     1      10.486   2.877  -7.689  1.00  0.00     0.000 C 
BRANCH   6   7
ATOM      7  C   UNL     1      10.986   3.821  -6.581  1.00  0.00     0.000 C 
BRANCH   7   8
ATOM      8  C   UNL     1      11.352   3.072  -5.289  1.00  0.00     0.006 C 
BRANCH   8   9
ATOM      9  C   UNL     1      10.591   1.748  -5.140  1.00  0.00     0.053 C 
BRANCH   9  10
ATOM     10  C   UNL     1      10.603   1.297  -3.714  1.00  0.00     0.041 C 
ATOM     11  O   UNL     1      10.256   2.088  -2.797  1.00  0.00    -0.550 OA
ATOM     12  O   UNL     1      10.952  -0.010  -3.402  1.00  0.00    -0.550 OA
ENDBRANCH   9  10
ENDBRANCH   8   9
ENDBRANCH   7   8
ENDBRANCH   6   7
ENDBRANCH   5   6
ENDBRANCH   4   5
ENDBRANCH   3   4
ENDBRANCH   1   3
BRANCH   2  13
ATOM     13  C   UNL     1       6.577   0.750  -9.510  1.00  0.00     0.027 C 
BRANCH  13  14
ATOM     14  C   UNL     1       6.490   0.188  -8.086  1.00  0.00     0.004 C 
BRANCH  14  15
ATOM     15  C   UNL     1       7.764   0.470  -7.272  1.00  0.00     0.000 C 
BRANCH  15  16
ATOM     16  C   UNL     1       8.534  -0.812  -6.919  1.00  0.00     0.000 C 
BRANCH  16  17
ATOM     17  C   UNL     1       9.793  -1.000  -7.783  1.00  0.00    -0.000 C 
BRANCH  17  18
ATOM     18  C   UNL     1       9.523  -1.830  -9.048  1.00  0.00    -0.000 C 
BRANCH  18  19
ATOM     19  C   UNL     1      10.794  -2.075  -9.875  1.00  0.00    -0.003 C 
ATOM     20  C   UNL     1      10.560  -1.755 -11.348  1.00  0.00     0.004 C 
ENDBRANCH  18  19
ENDBRANCH  17  18
ENDBRANCH  16  17
ENDBRANCH  15  16
ENDBRANCH  14  15
ENDBRANCH  13  14
ENDBRANCH   2  13
TORSDOF 15
ENDMDL
MODEL 6
REMARK VINA RESULT:    -4.034      4.706      6.913
REMARK INTER + INTRA:          -9.335
REMARK INTER:                  -6.591
REMARK INTRA:                  -2.745
REMARK UNBOUND:                -1.764
REMARK SMILES CCCCCCCCC=CCCCCCCCC(=O)[O-]
REMARK SMILES IDX 10 1 9 2 11 3 12 4 13 5 14 6 15 7 16 8 17 9 18 10 19 11
REMARK SMILES IDX 20 12 8 13 7 14 6 15 5 16 4 17 3 18 2 19 1 20
REMARK H PARENT
REMARK Flexibility Score: inf
ROOT
ATOM      1  C   UNL     1       7.632   0.631  -9.399  1.00  0.00    -0.031 C 
ATOM      2  C   UNL     1       7.851   1.862  -9.881  1.00  0.00    -0.031 C 
ENDROOT
BRANCH   1   3
ATOM      3  C   UNL     1       6.977   0.412  -8.061  1.00  0.00     0.027 C 
BRANCH   3   4
ATOM      4  C   UNL     1       7.636  -0.727  -7.268  1.00  0.00     0.004 C 
BRANCH   4   5
ATOM      5  C   UNL     1       9.081  -0.390  -6.863  1.00  0.00     0.000 C 
BRANCH   5   6
ATOM      6  C   UNL     1       9.227   1.044  -6.329  1.00  0.00     0.000 C 
BRANCH   6   7
ATOM      7  C   UNL     1      10.499   1.740  -6.842  1.00  0.00     0.000 C 
BRANCH   7   8
ATOM      8  C   UNL     1      10.235   3.180  -7.312  1.00  0.00     0.006 C 
BRANCH   8   9
ATOM      9  C   UNL     1      11.468   4.081  -7.168  1.00  0.00     0.053 C 
BRANCH   9  10
ATOM     10  C   UNL     1      11.397   4.861  -5.894  1.00  0.00     0.041 C 
ATOM     11  O   UNL     1      11.350   6.119  -5.923  1.00  0.00    -0.550 OA
ATOM     12  O   UNL     1      11.336   4.198  -4.676  1.00  0.00    -0.550 OA
ENDBRANCH   9  10
ENDBRANCH   8   9
ENDBRANCH   7   8
ENDBRANCH   6   7
ENDBRANCH   5   6
ENDBRANCH   4   5
ENDBRANCH   3   4
ENDBRANCH   1   3
BRANCH   2  13
ATOM     13  C   UNL     1       8.457   2.084 -11.241  1.00  0.00     0.027 C 
BRANCH  13  14
ATOM     14  C   UNL     1       9.964   2.352 -11.147  1.00  0.00     0.004 C 
BRANCH  14  15
ATOM     15  C   UNL     1      10.798   1.128 -11.563  1.00  0.00     0.000 C 
BRANCH  15  16
ATOM     16  C   UNL     1      11.737   0.647 -10.446  1.00  0.00     0.000 C 
BRANCH  16  17
ATOM     17  C   UNL     1      11.198  -0.596  -9.717  1.00  0.00    -0.000 C 
BRANCH  17  18
ATOM     18  C   UNL     1      10.899  -1.759 -10.676  1.00  0.00    -0.000 C 
BRANCH  18  19
ATOM     19  C   UNL     1       9.470  -2.301 -10.519  1.00  0.00    -0.003 C 
ATOM     20  C   UNL     1       9.370  -3.246  -9.326  1.00  0.00     0.004 C 
ENDBRANCH  18  19
ENDBRANCH  17  18
ENDBRANCH  16  17
ENDBRANCH  15  16
ENDBRANCH  14  15
ENDBRANCH  13  14
ENDBRANCH   2  13
TORSDOF 15
ENDMDL
MODEL 7
REMARK VINA RESULT:    -4.002      1.440      2.066
REMARK INTER + INTRA:          -9.276
REMARK INTER:                  -6.980
REMARK INTRA:                  -2.296
REMARK UNBOUND:                -1.764
REMARK SMILES CCCCCCCCC=CCCCCCCCC(=O)[O-]
REMARK SMILES IDX 10 1 9 2 11 3 12 4 13 5 14 6 15 7 16 8 17 9 18 10 19 11
REMARK SMILES IDX 20 12 8 13 7 14 6 15 5 16 4 17 3 18 2 19 1 20
REMARK H PARENT
REMARK Flexibility Score: inf
ROOT
ATOM      1  C   UNL     1       7.501   0.620  -7.593  1.00  0.00    -0.031 C 
ATOM      2  C   UNL     1       8.360  -0.214  -6.991  1.00  0.00    -0.031 C 
ENDROOT
BRANCH   1   3
ATOM      3  C   UNL     1       6.133   0.165  -8.028  1.00  0.00     0.027 C 
BRANCH   3   4
ATOM      4  C   UNL     1       5.896   0.382  -9.530  1.00  0.00     0.004 C 
BRANCH   4   5
ATOM      5  C   UNL     1       5.363  -0.884 -10.221  1.00  0.00     0.000 C 
BRANCH   5   6
ATOM      6  C   UNL     1       4.699  -1.859  -9.237  1.00  0.00     0.000 C 
BRANCH   6   7
ATOM      7  C   UNL     1       3.164  -1.758  -9.249  1.00  0.00     0.000 C 
BRANCH   7   8
ATOM      8  C   UNL     1       2.616  -0.950  -8.061  1.00  0.00     0.006 C 
BRANCH   8   9
ATOM      9  C   UNL     1       1.448  -0.038  -8.457  1.00  0.00     0.053 C 
BRANCH   9  10
ATOM     10  C   UNL     1       1.879   1.394  -8.453  1.00  0.00     0.041 C 
ATOM     11  O   UNL     1       2.787   1.784  -9.234  1.00  0.00    -0.550 OA
ATOM     12  O   UNL     1       1.247   2.308  -7.621  1.00  0.00    -0.550 OA
ENDBRANCH   9  10
ENDBRANCH   8   9
ENDBRANCH   7   8
ENDBRANCH   6   7
ENDBRANCH   5   6
ENDBRANCH   4   5
ENDBRANCH   3   4
ENDBRANCH   1   3
BRANCH   2  13
ATOM     13  C   UNL     1       9.707   0.250  -6.507  1.00  0.00     0.027 C 
BRANCH  13  14
ATOM     14  C   UNL     1       9.692   1.741  -6.150  1.00  0.00     0.004 C 
BRANCH  14  15
ATOM     15  C   UNL     1      10.329   2.608  -7.251  1.00  0.00     0.000 C 
BRANCH  15  16
ATOM     16  C   UNL     1      11.463   1.882  -7.990  1.00  0.00     0.000 C 
BRANCH  16  17
ATOM     17  C   UNL     1      11.239   1.833  -9.511  1.00  0.00    -0.000 C 
BRANCH  17  18
ATOM     18  C   UNL     1       9.772   2.074  -9.900  1.00  0.00    -0.000 C 
BRANCH  18  19
ATOM     19  C   UNL     1       9.288   1.115 -10.997  1.00  0.00    -0.003 C 
ATOM     20  C   UNL     1       9.467  -0.339 -10.573  1.00  0.00     0.004 C 
ENDBRANCH  18  19
ENDBRANCH  17  18
ENDBRANCH  16  17
ENDBRANCH  15  16
ENDBRANCH  14  15
ENDBRANCH  13  14
ENDBRANCH   2  13
TORSDOF 15
ENDMDL
MODEL 8
REMARK VINA RESULT:    -3.999      3.458      7.168
REMARK INTER + INTRA:          -9.271
REMARK INTER:                  -6.673
REMARK INTRA:                  -2.597
REMARK UNBOUND:                -1.764
REMARK SMILES CCCCCCCCC=CCCCCCCCC(=O)[O-]
REMARK SMILES IDX 10 1 9 2 11 3 12 4 13 5 14 6 15 7 16 8 17 9 18 10 19 11
REMARK SMILES IDX 20 12 8 13 7 14 6 15 5 16 4 17 3 18 2 19 1 20
REMARK H PARENT
REMARK Flexibility Score: inf
ROOT
ATOM      1  C   UNL     1       7.572   0.041  -7.301  1.00  0.00    -0.031 C 
ATOM      2  C   UNL     1       6.588  -0.547  -7.996  1.00  0.00    -0.031 C 
ENDROOT
BRANCH   1   3
ATOM      3  C   UNL     1       8.770  -0.735  -6.819  1.00  0.00     0.027 C 
BRANCH   3   4
ATOM      4  C   UNL     1       9.924   0.183  -6.387  1.00  0.00     0.004 C 
BRANCH   4   5
ATOM      5  C   UNL     1       9.468   1.641  -6.208  1.00  0.00     0.000 C 
BRANCH   5   6
ATOM      6  C   UNL     1      10.203   2.610  -7.148  1.00  0.00     0.000 C 
BRANCH   6   7
ATOM      7  C   UNL     1      11.066   1.880  -8.191  1.00  0.00     0.000 C 
BRANCH   7   8
ATOM      8  C   UNL     1      10.552   2.078  -9.627  1.00  0.00     0.006 C 
BRANCH   8   9
ATOM      9  C   UNL     1       9.916   0.808 -10.205  1.00  0.00     0.053 C 
BRANCH   9  10
ATOM     10  C   UNL     1       8.511   1.080 -10.641  1.00  0.00     0.041 C 
ATOM     11  O   UNL     1       7.917   2.119 -10.251  1.00  0.00    -0.550 OA
ATOM     12  O   UNL     1       7.875   0.212 -11.518  1.00  0.00    -0.550 OA
ENDBRANCH   9  10
ENDBRANCH   8   9
ENDBRANCH   7   8
ENDBRANCH   6   7
ENDBRANCH   5   6
ENDBRANCH   4   5
ENDBRANCH   3   4
ENDBRANCH   1   3
BRANCH   2  13
ATOM     13  C   UNL     1       5.416   0.235  -8.524  1.00  0.00     0.027 C 
BRANCH  13  14
ATOM     14  C   UNL     1       4.185  -0.659  -8.716  1.00  0.00     0.004 C 
BRANCH  14  15
ATOM     15  C   UNL     1       4.272  -1.952  -7.886  1.00  0.00     0.000 C 
BRANCH  15  16
ATOM     16  C   UNL     1       4.026  -3.211  -8.730  1.00  0.00     0.000 C 
BRANCH  16  17
ATOM     17  C   UNL     1       5.026  -4.337  -8.415  1.00  0.00    -0.000 C 
BRANCH  17  18
ATOM     18  C   UNL     1       6.417  -4.076  -9.015  1.00  0.00    -0.000 C 
BRANCH  18  19
ATOM     19  C   UNL     1       7.548  -4.295  -7.999  1.00  0.00    -0.003 C 
ATOM     20  C   UNL     1       7.052  -4.084  -6.571  1.00  0.00     0.004 C 
ENDBRANCH  18  19
ENDBRANCH  17  18
ENDBRANCH  16  17
ENDBRANCH  15  16
ENDBRANCH  14  15
ENDBRANCH  13  14
ENDBRANCH   2  13
TORSDOF 15
ENDMDL
MODEL 9
REMARK VINA RESULT:    -3.975      4.061      5.505
REMARK INTER + INTRA:          -9.225
REMARK INTER:                  -6.078
REMARK INTRA:                  -3.148
REMARK UNBOUND:                -1.764
REMARK SMILES CCCCCCCCC=CCCCCCCCC(=O)[O-]
REMARK SMILES IDX 10 1 9 2 11 3 12 4 13 5 14 6 15 7 16 8 17 9 18 10 19 11
REMARK SMILES IDX 20 12 8 13 7 14 6 15 5 16 4 17 3 18 2 19 1 20
REMARK H PARENT
REMARK Flexibility Score: inf
ROOT
ATOM      1  C   UNL     1       6.930  -0.142  -7.613  1.00  0.00    -0.031 C 
ATOM      2  C   UNL     1       8.009   0.582  -7.287  1.00  0.00    -0.031 C 
ENDROOT
BRANCH   1   3
ATOM      3  C   UNL     1       5.796   0.446  -8.410  1.00  0.00     0.027 C 
BRANCH   3   4
ATOM      4  C   UNL     1       5.179  -0.569  -9.384  1.00  0.00     0.004 C 
BRANCH   4   5
ATOM      5  C   UNL     1       4.605  -1.796  -8.654  1.00  0.00     0.000 C 
BRANCH   5   6
ATOM      6  C   UNL     1       5.225  -3.116  -9.140  1.00  0.00     0.000 C 
BRANCH   6   7
ATOM      7  C   UNL     1       5.286  -4.183  -8.034  1.00  0.00     0.000 C 
BRANCH   7   8
ATOM      8  C   UNL     1       6.323  -3.850  -6.949  1.00  0.00     0.006 C 
BRANCH   8   9
ATOM      9  C   UNL     1       7.498  -4.836  -6.934  1.00  0.00     0.053 C 
BRANCH   9  10
ATOM     10  C   UNL     1       7.831  -5.228  -5.529  1.00  0.00     0.041 C 
ATOM     11  O   UNL     1       8.323  -4.384  -4.736  1.00  0.00    -0.550 OA
ATOM     12  O   UNL     1       7.552  -6.513  -5.082  1.00  0.00    -0.550 OA
ENDBRANCH   9  10
ENDBRANCH   8   9
ENDBRANCH   7   8
ENDBRANCH   6   7
ENDBRANCH   5   6
ENDBRANCH   4   5
ENDBRANCH   3   4
ENDBRANCH   1   3
BRANCH   2  13
ATOM     13  C   UNL     1       9.168  -0.017  -6.536  1.00  0.00     0.027 C 
BRANCH  13  14
ATOM     14  C   UNL     1       9.267  -1.529  -6.769  1.00  0.00     0.004 C 
BRANCH  14  15
ATOM     15  C   UNL     1      10.585  -1.925  -7.457  1.00  0.00     0.000 C 
BRANCH  15  16
ATOM     16  C   UNL     1      10.413  -2.172  -8.964  1.00  0.00     0.000 C 
BRANCH  16  17
ATOM     17  C   UNL     1       8.962  -2.520  -9.342  1.00  0.00    -0.000 C 
BRANCH  17  18
ATOM     18  C   UNL     1       8.498  -1.806 -10.621  1.00  0.00    -0.000 C 
BRANCH  18  19
ATOM     19  C   UNL     1       9.405  -0.625 -10.999  1.00  0.00    -0.003 C 
ATOM     20  C   UNL     1       8.667   0.702 -10.853  1.00  0.00     0.004 C 
ENDBRANCH  18  19
ENDBRANCH  17  18
ENDBRANCH  16  17
ENDBRANCH  15  16
ENDBRANCH  14  15
ENDBRANCH  13  14
ENDBRANCH   2  13
TORSDOF 15
ENDMDL
