MODEL 1
REMARK VINA RESULT:    -4.382      0.000      0.000
REMARK INTER + INTRA:         -16.489
REMARK INTER:                 -11.044
REMARK INTRA:                  -5.446
REMARK UNBOUND:                -5.446
REMARK SMILES CCCCCCCCCCCCCCCCCCCCCCCCCCCC(=O)[O-]
REMARK SMILES IDX 15 1 16 2 17 3 18 4 19 5 20 6 21 7 22 8 23 9 24 10 25 11
REMARK SMILES IDX 26 12 27 13 28 14 29 15 30 16 14 17 13 18 12 19 11 20 10 21
REMARK SMILES IDX 9 22 8 23 7 24 6 25 5 26 4 27 3 28 2 29 1 30
REMARK H PARENT
REMARK Flexibility Score: inf
ROOT
ATOM      1  C   UNL     1      22.439  -6.248  50.980  1.00  0.00     0.000 C 
ENDROOT
BRANCH   1   2
ATOM      2  C   UNL     1      23.899  -6.490  50.573  1.00  0.00     0.000 C 
BRANCH   2   3
ATOM      3  C   UNL     1      24.449  -5.403  49.633  1.00  0.00     0.000 C 
BRANCH   3   4
ATOM      4  C   UNL     1      24.955  -5.955  48.283  1.00  0.00     0.000 C 
BRANCH   4   5
ATOM      5  C   UNL     1      25.459  -4.842  47.352  1.00  0.00     0.000 C 
BRANCH   5   6
ATOM      6  C   UNL     1      25.464  -5.309  45.892  1.00  0.00     0.000 C 
BRANCH   6   7
ATOM      7  C   UNL     1      24.363  -4.606  45.082  1.00  0.00     0.000 C 
BRANCH   7   8
ATOM      8  C   UNL     1      24.837  -3.255  44.505  1.00  0.00     0.000 C 
BRANCH   8   9
ATOM      9  C   UNL     1      23.721  -2.202  44.392  1.00  0.00     0.000 C 
BRANCH   9  10
ATOM     10  C   UNL     1      23.325  -1.597  45.745  1.00  0.00     0.000 C 
BRANCH  10  11
ATOM     11  C   UNL     1      24.563  -1.157  46.541  1.00  0.00     0.000 C 
BRANCH  11  12
ATOM     12  C   UNL     1      24.394  -1.343  48.056  1.00  0.00     0.006 C 
BRANCH  12  13
ATOM     13  C   UNL     1      23.170  -2.193  48.420  1.00  0.00     0.053 C 
BRANCH  13  14
ATOM     14  C   UNL     1      22.589  -1.747  49.725  1.00  0.00     0.041 C 
ATOM     15  O   UNL     1      22.809  -2.405  50.776  1.00  0.00    -0.550 OA
ATOM     16  O   UNL     1      21.826  -0.588  49.786  1.00  0.00    -0.550 OA
ENDBRANCH  13  14
ENDBRANCH  12  13
ENDBRANCH  11  12
ENDBRANCH  10  11
ENDBRANCH   9  10
ENDBRANCH   8   9
ENDBRANCH   7   8
ENDBRANCH   6   7
ENDBRANCH   5   6
ENDBRANCH   4   5
ENDBRANCH   3   4
ENDBRANCH   2   3
ENDBRANCH   1   2
BRANCH   1  17
ATOM     17  C   UNL     1      21.579  -7.490  50.711  1.00  0.00     0.000 C 
BRANCH  17  18
ATOM     18  C   UNL     1      20.164  -7.138  50.217  1.00  0.00     0.000 C 
BRANCH  18  19
ATOM     19  C   UNL     1      19.996  -7.097  48.683  1.00  0.00     0.000 C 
BRANCH  19  20
ATOM     20  C   UNL     1      21.204  -7.602  47.873  1.00  0.00     0.000 C 
BRANCH  20  21
ATOM     21  C   UNL     1      21.779  -6.534  46.928  1.00  0.00     0.000 C 
BRANCH  21  22
ATOM     22  C   UNL     1      21.304  -5.110  47.275  1.00  0.00    -0.000 C 
BRANCH  22  23
ATOM     23  C   UNL     1      20.880  -4.252  46.069  1.00  0.00    -0.000 C 
BRANCH  23  24
ATOM     24  C   UNL     1      20.089  -5.048  45.015  1.00  0.00    -0.000 C 
BRANCH  24  25
ATOM     25  C   UNL     1      20.836  -5.160  43.677  1.00  0.00    -0.000 C 
BRANCH  25  26
ATOM     26  C   UNL     1      20.761  -6.576  43.077  1.00  0.00    -0.000 C 
BRANCH  26  27
ATOM     27  C   UNL     1      19.817  -7.501  43.875  1.00  0.00    -0.000 C 
BRANCH  27  28
ATOM     28  C   UNL     1      20.205  -8.991  43.808  1.00  0.00    -0.000 C 
BRANCH  28  29
ATOM     29  C   UNL     1      21.714  -9.258  43.684  1.00  0.00    -0.003 C 
ATOM     30  C   UNL     1      22.344  -9.726  44.997  1.00  0.00     0.004 C 
ENDBRANCH  28  29
ENDBRANCH  27  28
ENDBRANCH  26  27
ENDBRANCH  25  26
ENDBRANCH  24  25
ENDBRANCH  23  24
ENDBRANCH  22  23
ENDBRANCH  21  22
ENDBRANCH  20  21
ENDBRANCH  19  20
ENDBRANCH  18  19
ENDBRANCH  17  18
ENDBRANCH   1  17
TORSDOF 26
ENDMDL
MODEL 2
REMARK VINA RESULT:    -4.375      2.845      4.245
REMARK INTER + INTRA:         -16.471
REMARK INTER:                 -11.131
REMARK INTRA:                  -5.340
REMARK UNBOUND:                -5.446
REMARK SMILES CCCCCCCCCCCCCCCCCCCCCCCCCCCC(=O)[O-]
REMARK SMILES IDX 15 1 16 2 17 3 18 4 19 5 20 6 21 7 22 8 23 9 24 10 25 11
REMARK SMILES IDX 26 12 27 13 28 14 29 15 30 16 14 17 13 18 12 19 11 20 10 21
REMARK SMILES IDX 9 22 8 23 7 24 6 25 5 26 4 27 3 28 2 29 1 30
REMARK H PARENT
REMARK Flexibility Score: inf
ROOT
ATOM      1  C   UNL     1      23.468  -3.793  49.186  1.00  0.00     0.000 C 
ENDROOT
BRANCH   1   2
ATOM      2  C   UNL     1      24.806  -4.151  48.523  1.00  0.00     0.000 C 
BRANCH   2   3
ATOM      3  C   UNL     1      24.726  -5.420  47.656  1.00  0.00     0.000 C 
BRANCH   3   4
ATOM      4  C   UNL     1      23.369  -5.591  46.939  1.00  0.00     0.000 C 
BRANCH   4   5
ATOM      5  C   UNL     1      23.530  -5.741  45.419  1.00  0.00     0.000 C 
BRANCH   5   6
ATOM      6  C   UNL     1      22.561  -4.819  44.671  1.00  0.00     0.000 C 
BRANCH   6   7
ATOM      7  C   UNL     1      21.899  -3.817  45.631  1.00  0.00     0.000 C 
BRANCH   7   8
ATOM      8  C   UNL     1      21.887  -2.384  45.057  1.00  0.00     0.000 C 
BRANCH   8   9
ATOM      9  C   UNL     1      22.309  -1.306  46.070  1.00  0.00     0.000 C 
BRANCH   9  10
ATOM     10  C   UNL     1      23.781  -1.417  46.488  1.00  0.00     0.000 C 
BRANCH  10  11
ATOM     11  C   UNL     1      24.712  -1.371  45.267  1.00  0.00     0.000 C 
BRANCH  11  12
ATOM     12  C   UNL     1      25.553  -2.646  45.112  1.00  0.00     0.006 C 
BRANCH  12  13
ATOM     13  C   UNL     1      25.580  -3.171  43.670  1.00  0.00     0.053 C 
BRANCH  13  14
ATOM     14  C   UNL     1      26.977  -3.172  43.136  1.00  0.00     0.041 C 
ATOM     15  O   UNL     1      27.918  -2.686  43.819  1.00  0.00    -0.550 OA
ATOM     16  O   UNL     1      27.247  -3.734  41.895  1.00  0.00    -0.550 OA
ENDBRANCH  13  14
ENDBRANCH  12  13
ENDBRANCH  11  12
ENDBRANCH  10  11
ENDBRANCH   9  10
ENDBRANCH   8   9
ENDBRANCH   7   8
ENDBRANCH   6   7
ENDBRANCH   5   6
ENDBRANCH   4   5
ENDBRANCH   3   4
ENDBRANCH   2   3
ENDBRANCH   1   2
BRANCH   1  17
ATOM     17  C   UNL     1      23.599  -3.776  50.716  1.00  0.00     0.000 C 
BRANCH  17  18
ATOM     18  C   UNL     1      22.746  -4.860  51.398  1.00  0.00     0.000 C 
BRANCH  18  19
ATOM     19  C   UNL     1      23.183  -6.313  51.114  1.00  0.00     0.000 C 
BRANCH  19  20
ATOM     20  C   UNL     1      22.037  -7.310  50.865  1.00  0.00     0.000 C 
BRANCH  20  21
ATOM     21  C   UNL     1      21.710  -7.485  49.373  1.00  0.00     0.000 C 
BRANCH  21  22
ATOM     22  C   UNL     1      20.243  -7.152  49.040  1.00  0.00    -0.000 C 
BRANCH  22  23
ATOM     23  C   UNL     1      20.047  -6.156  47.882  1.00  0.00    -0.000 C 
BRANCH  23  24
ATOM     24  C   UNL     1      19.353  -6.786  46.661  1.00  0.00    -0.000 C 
BRANCH  24  25
ATOM     25  C   UNL     1      20.333  -7.535  45.746  1.00  0.00    -0.000 C 
BRANCH  25  26
ATOM     26  C   UNL     1      19.967  -7.404  44.257  1.00  0.00    -0.000 C 
BRANCH  26  27
ATOM     27  C   UNL     1      18.441  -7.328  44.033  1.00  0.00    -0.000 C 
BRANCH  27  28
ATOM     28  C   UNL     1      17.964  -5.982  43.455  1.00  0.00    -0.000 C 
BRANCH  28  29
ATOM     29  C   UNL     1      19.012  -4.857  43.493  1.00  0.00    -0.003 C 
ATOM     30  C   UNL     1      19.532  -4.485  42.104  1.00  0.00     0.004 C 
ENDBRANCH  28  29
ENDBRANCH  27  28
ENDBRANCH  26  27
ENDBRANCH  25  26
ENDBRANCH  24  25
ENDBRANCH  23  24
ENDBRANCH  22  23
ENDBRANCH  21  22
ENDBRANCH  20  21
ENDBRANCH  19  20
ENDBRANCH  18  19
ENDBRANCH  17  18
ENDBRANCH   1  17
TORSDOF 26
ENDMDL
MODEL 3
REMARK VINA RESULT:    -4.369      1.385      4.225
REMARK INTER + INTRA:         -16.455
REMARK INTER:                 -10.585
REMARK INTRA:                  -5.870
REMARK UNBOUND:                -5.446
REMARK SMILES CCCCCCCCCCCCCCCCCCCCCCCCCCCC(=O)[O-]
REMARK SMILES IDX 15 1 16 2 17 3 18 4 19 5 20 6 21 7 22 8 23 9 24 10 25 11
REMARK SMILES IDX 26 12 27 13 28 14 29 15 30 16 14 17 13 18 12 19 11 20 10 21
REMARK SMILES IDX 9 22 8 23 7 24 6 25 5 26 4 27 3 28 2 29 1 30
REMARK H PARENT
REMARK Flexibility Score: inf
ROOT
ATOM      1  C   UNL     1      20.040  -6.751  48.846  1.00  0.00     0.000 C 
ENDROOT
BRANCH   1   2
ATOM      2  C   UNL     1      21.024  -7.497  49.759  1.00  0.00     0.000 C 
BRANCH   2   3
ATOM      3  C   UNL     1      21.714  -6.574  50.779  1.00  0.00     0.000 C 
BRANCH   3   4
ATOM      4  C   UNL     1      22.969  -7.199  51.424  1.00  0.00     0.000 C 
BRANCH   4   5
ATOM      5  C   UNL     1      23.325  -8.559  50.805  1.00  0.00     0.000 C 
BRANCH   5   6
ATOM      6  C   UNL     1      24.782  -8.581  50.332  1.00  0.00     0.000 C 
BRANCH   6   7
ATOM      7  C   UNL     1      24.869  -8.481  48.800  1.00  0.00     0.000 C 
BRANCH   7   8
ATOM      8  C   UNL     1      25.324  -7.082  48.334  1.00  0.00     0.000 C 
BRANCH   8   9
ATOM      9  C   UNL     1      25.947  -6.227  49.450  1.00  0.00     0.000 C 
BRANCH   9  10
ATOM     10  C   UNL     1      25.327  -4.827  49.554  1.00  0.00     0.000 C 
BRANCH  10  11
ATOM     11  C   UNL     1      24.291  -4.595  48.444  1.00  0.00     0.000 C 
BRANCH  11  12
ATOM     12  C   UNL     1      23.031  -3.875  48.946  1.00  0.00     0.006 C 
BRANCH  12  13
ATOM     13  C   UNL     1      23.246  -3.160  50.287  1.00  0.00     0.053 C 
BRANCH  13  14
ATOM     14  C   UNL     1      23.128  -1.678  50.117  1.00  0.00     0.041 C 
ATOM     15  O   UNL     1      23.856  -1.074  49.284  1.00  0.00    -0.550 OA
ATOM     16  O   UNL     1      22.195  -0.966  50.859  1.00  0.00    -0.550 OA
ENDBRANCH  13  14
ENDBRANCH  12  13
ENDBRANCH  11  12
ENDBRANCH  10  11
ENDBRANCH   9  10
ENDBRANCH   8   9
ENDBRANCH   7   8
ENDBRANCH   6   7
ENDBRANCH   5   6
ENDBRANCH   4   5
ENDBRANCH   3   4
ENDBRANCH   2   3
ENDBRANCH   1   2
BRANCH   1  17
ATOM     17  C   UNL     1      20.359  -7.008  47.367  1.00  0.00     0.000 C 
BRANCH  17  18
ATOM     18  C   UNL     1      21.870  -7.127  47.096  1.00  0.00     0.000 C 
BRANCH  18  19
ATOM     19  C   UNL     1      22.248  -7.530  45.655  1.00  0.00     0.000 C 
BRANCH  19  20
ATOM     20  C   UNL     1      21.320  -8.566  44.994  1.00  0.00     0.000 C 
BRANCH  20  21
ATOM     21  C   UNL     1      20.907  -8.175  43.566  1.00  0.00     0.000 C 
BRANCH  21  22
ATOM     22  C   UNL     1      21.271  -6.719  43.215  1.00  0.00    -0.000 C 
BRANCH  22  23
ATOM     23  C   UNL     1      20.071  -5.799  42.924  1.00  0.00    -0.000 C 
BRANCH  23  24
ATOM     24  C   UNL     1      19.399  -5.268  44.203  1.00  0.00    -0.000 C 
BRANCH  24  25
ATOM     25  C   UNL     1      19.834  -3.836  44.547  1.00  0.00    -0.000 C 
BRANCH  25  26
ATOM     26  C   UNL     1      20.947  -3.797  45.610  1.00  0.00    -0.000 C 
BRANCH  26  27
ATOM     27  C   UNL     1      21.853  -2.555  45.464  1.00  0.00    -0.000 C 
BRANCH  27  28
ATOM     28  C   UNL     1      23.347  -2.892  45.299  1.00  0.00    -0.000 C 
BRANCH  28  29
ATOM     29  C   UNL     1      23.635  -4.326  44.826  1.00  0.00    -0.003 C 
ATOM     30  C   UNL     1      25.128  -4.659  44.817  1.00  0.00     0.004 C 
ENDBRANCH  28  29
ENDBRANCH  27  28
ENDBRANCH  26  27
ENDBRANCH  25  26
ENDBRANCH  24  25
ENDBRANCH  23  24
ENDBRANCH  22  23
ENDBRANCH  21  22
ENDBRANCH  20  21
ENDBRANCH  19  20
ENDBRANCH  18  19
ENDBRANCH  17  18
ENDBRANCH   1  17
TORSDOF 26
ENDMDL
MODEL 4
REMARK VINA RESULT:    -4.333      2.216      4.559
REMARK INTER + INTRA:         -16.364
REMARK INTER:                 -11.735
REMARK INTRA:                  -4.629
REMARK UNBOUND:                -5.446
REMARK SMILES CCCCCCCCCCCCCCCCCCCCCCCCCCCC(=O)[O-]
REMARK SMILES IDX 15 1 16 2 17 3 18 4 19 5 20 6 21 7 22 8 23 9 24 10 25 11
REMARK SMILES IDX 26 12 27 13 28 14 29 15 30 16 14 17 13 18 12 19 11 20 10 21
REMARK SMILES IDX 9 22 8 23 7 24 6 25 5 26 4 27 3 28 2 29 1 30
REMARK H PARENT
REMARK Flexibility Score: inf
ROOT
ATOM      1  C   UNL     1      21.230  -5.592  47.857  1.00  0.00     0.000 C 
ENDROOT
BRANCH   1   2
ATOM      2  C   UNL     1      19.974  -6.423  48.156  1.00  0.00     0.000 C 
BRANCH   2   3
ATOM      3  C   UNL     1      20.211  -7.505  49.224  1.00  0.00     0.000 C 
BRANCH   3   4
ATOM      4  C   UNL     1      20.916  -6.976  50.491  1.00  0.00     0.000 C 
BRANCH   4   5
ATOM      5  C   UNL     1      22.261  -7.676  50.743  1.00  0.00     0.000 C 
BRANCH   5   6
ATOM      6  C   UNL     1      23.398  -6.654  50.853  1.00  0.00     0.000 C 
BRANCH   6   7
ATOM      7  C   UNL     1      22.858  -5.263  51.223  1.00  0.00     0.000 C 
BRANCH   7   8
ATOM      8  C   UNL     1      23.592  -4.134  50.468  1.00  0.00     0.000 C 
BRANCH   8   9
ATOM      9  C   UNL     1      22.938  -2.751  50.629  1.00  0.00     0.000 C 
BRANCH   9  10
ATOM     10  C   UNL     1      23.415  -1.735  49.583  1.00  0.00     0.000 C 
BRANCH  10  11
ATOM     11  C   UNL     1      24.138  -2.431  48.421  1.00  0.00     0.000 C 
BRANCH  11  12
ATOM     12  C   UNL     1      24.246  -1.546  47.171  1.00  0.00     0.006 C 
BRANCH  12  13
ATOM     13  C   UNL     1      22.942  -1.491  46.364  1.00  0.00     0.053 C 
BRANCH  13  14
ATOM     14  C   UNL     1      23.233  -1.400  44.899  1.00  0.00     0.041 C 
ATOM     15  O   UNL     1      22.704  -0.494  44.202  1.00  0.00    -0.550 OA
ATOM     16  O   UNL     1      24.109  -2.301  44.307  1.00  0.00    -0.550 OA
ENDBRANCH  13  14
ENDBRANCH  12  13
ENDBRANCH  11  12
ENDBRANCH  10  11
ENDBRANCH   9  10
ENDBRANCH   8   9
ENDBRANCH   7   8
ENDBRANCH   6   7
ENDBRANCH   5   6
ENDBRANCH   4   5
ENDBRANCH   3   4
ENDBRANCH   2   3
ENDBRANCH   1   2
BRANCH   1  17
ATOM     17  C   UNL     1      21.040  -4.743  46.592  1.00  0.00     0.000 C 
BRANCH  17  18
ATOM     18  C   UNL     1      21.994  -5.149  45.454  1.00  0.00     0.000 C 
BRANCH  18  19
ATOM     19  C   UNL     1      21.546  -4.724  44.040  1.00  0.00     0.000 C 
BRANCH  19  20
ATOM     20  C   UNL     1      20.456  -3.638  43.992  1.00  0.00     0.000 C 
BRANCH  20  21
ATOM     21  C   UNL     1      19.450  -3.850  42.848  1.00  0.00     0.000 C 
BRANCH  21  22
ATOM     22  C   UNL     1      18.179  -4.595  43.300  1.00  0.00    -0.000 C 
BRANCH  22  23
ATOM     23  C   UNL     1      18.228  -6.125  43.138  1.00  0.00    -0.000 C 
BRANCH  23  24
ATOM     24  C   UNL     1      17.970  -6.876  44.457  1.00  0.00    -0.000 C 
BRANCH  24  25
ATOM     25  C   UNL     1      19.232  -7.564  45.000  1.00  0.00    -0.000 C 
BRANCH  25  26
ATOM     26  C   UNL     1      19.723  -8.701  44.085  1.00  0.00    -0.000 C 
BRANCH  26  27
ATOM     27  C   UNL     1      21.133  -8.427  43.517  1.00  0.00    -0.000 C 
BRANCH  27  28
ATOM     28  C   UNL     1      22.265  -8.623  44.544  1.00  0.00    -0.000 C 
BRANCH  28  29
ATOM     29  C   UNL     1      21.797  -9.048  45.945  1.00  0.00    -0.003 C 
ATOM     30  C   UNL     1      22.879  -8.869  47.011  1.00  0.00     0.004 C 
ENDBRANCH  28  29
ENDBRANCH  27  28
ENDBRANCH  26  27
ENDBRANCH  25  26
ENDBRANCH  24  25
ENDBRANCH  23  24
ENDBRANCH  22  23
ENDBRANCH  21  22
ENDBRANCH  20  21
ENDBRANCH  19  20
ENDBRANCH  18  19
ENDBRANCH  17  18
ENDBRANCH   1  17
TORSDOF 26
ENDMDL
MODEL 5
REMARK VINA RESULT:    -4.311      1.875      3.785
REMARK INTER + INTRA:         -16.309
REMARK INTER:                 -10.078
REMARK INTRA:                  -6.230
REMARK UNBOUND:                -5.446
REMARK SMILES CCCCCCCCCCCCCCCCCCCCCCCCCCCC(=O)[O-]
REMARK SMILES IDX 15 1 16 2 17 3 18 4 19 5 20 6 21 7 22 8 23 9 24 10 25 11
REMARK SMILES IDX 26 12 27 13 28 14 29 15 30 16 14 17 13 18 12 19 11 20 10 21
REMARK SMILES IDX 9 22 8 23 7 24 6 25 5 26 4 27 3 28 2 29 1 30
REMARK H PARENT
REMARK Flexibility Score: inf
ROOT
ATOM      1  C   UNL     1      20.037  -6.901  48.308  1.00  0.00     0.000 C 
ENDROOT
BRANCH   1   2
ATOM      2  C   UNL     1      21.157  -5.999  47.769  1.00  0.00     0.000 C 
BRANCH   2   3
ATOM      3  C   UNL     1      20.655  -4.966  46.745  1.00  0.00     0.000 C 
BRANCH   3   4
ATOM      4  C   UNL     1      21.652  -4.704  45.596  1.00  0.00     0.000 C 
BRANCH   4   5
ATOM      5  C   UNL     1      22.974  -5.463  45.788  1.00  0.00     0.000 C 
BRANCH   5   6
ATOM      6  C   UNL     1      24.075  -4.880  44.896  1.00  0.00     0.000 C 
BRANCH   6   7
ATOM      7  C   UNL     1      25.218  -4.293  45.740  1.00  0.00     0.000 C 
BRANCH   7   8
ATOM      8  C   UNL     1      25.241  -4.871  47.170  1.00  0.00     0.000 C 
BRANCH   8   9
ATOM      9  C   UNL     1      25.128  -3.804  48.273  1.00  0.00     0.000 C 
BRANCH   9  10
ATOM     10  C   UNL     1      23.852  -3.942  49.115  1.00  0.00     0.000 C 
BRANCH  10  11
ATOM     11  C   UNL     1      22.860  -2.810  48.810  1.00  0.00     0.000 C 
BRANCH  11  12
ATOM     12  C   UNL     1      23.416  -1.783  47.812  1.00  0.00     0.006 C 
BRANCH  12  13
ATOM     13  C   UNL     1      22.476  -1.535  46.626  1.00  0.00     0.053 C 
BRANCH  13  14
ATOM     14  C   UNL     1      23.258  -1.197  45.396  1.00  0.00     0.041 C 
ATOM     15  O   UNL     1      24.453  -0.807  45.491  1.00  0.00    -0.550 OA
ATOM     16  O   UNL     1      22.678  -1.339  44.142  1.00  0.00    -0.550 OA
ENDBRANCH  13  14
ENDBRANCH  12  13
ENDBRANCH  11  12
ENDBRANCH  10  11
ENDBRANCH   9  10
ENDBRANCH   8   9
ENDBRANCH   7   8
ENDBRANCH   6   7
ENDBRANCH   5   6
ENDBRANCH   4   5
ENDBRANCH   3   4
ENDBRANCH   2   3
ENDBRANCH   1   2
BRANCH   1  17
ATOM     17  C   UNL     1      20.236  -7.193  49.802  1.00  0.00     0.000 C 
BRANCH  17  18
ATOM     18  C   UNL     1      21.588  -6.682  50.333  1.00  0.00     0.000 C 
BRANCH  18  19
ATOM     19  C   UNL     1      22.629  -7.779  50.636  1.00  0.00     0.000 C 
BRANCH  19  20
ATOM     20  C   UNL     1      24.084  -7.426  50.278  1.00  0.00     0.000 C 
BRANCH  20  21
ATOM     21  C   UNL     1      24.484  -7.896  48.869  1.00  0.00     0.000 C 
BRANCH  21  22
ATOM     22  C   UNL     1      23.429  -8.814  48.223  1.00  0.00    -0.000 C 
BRANCH  22  23
ATOM     23  C   UNL     1      23.397  -8.788  46.684  1.00  0.00    -0.000 C 
BRANCH  23  24
ATOM     24  C   UNL     1      22.084  -9.343  46.103  1.00  0.00    -0.000 C 
BRANCH  24  25
ATOM     25  C   UNL     1      22.054  -9.299  44.567  1.00  0.00    -0.000 C 
BRANCH  25  26
ATOM     26  C   UNL     1      21.236  -8.111  44.028  1.00  0.00    -0.000 C 
BRANCH  26  27
ATOM     27  C   UNL     1      19.859  -7.988  44.716  1.00  0.00    -0.000 C 
BRANCH  27  28
ATOM     28  C   UNL     1      18.757  -7.418  43.802  1.00  0.00    -0.000 C 
BRANCH  28  29
ATOM     29  C   UNL     1      18.682  -5.883  43.763  1.00  0.00    -0.003 C 
ATOM     30  C   UNL     1      19.454  -5.281  42.588  1.00  0.00     0.004 C 
ENDBRANCH  28  29
ENDBRANCH  27  28
ENDBRANCH  26  27
ENDBRANCH  25  26
ENDBRANCH  24  25
ENDBRANCH  23  24
ENDBRANCH  22  23
ENDBRANCH  21  22
ENDBRANCH  20  21
ENDBRANCH  19  20
ENDBRANCH  18  19
ENDBRANCH  17  18
ENDBRANCH   1  17
TORSDOF 26
ENDMDL
MODEL 6
REMARK VINA RESULT:    -4.288      1.430      3.603
REMARK INTER + INTRA:         -16.252
REMARK INTER:                 -10.727
REMARK INTRA:                  -5.525
REMARK UNBOUND:                -5.446
REMARK SMILES CCCCCCCCCCCCCCCCCCCCCCCCCCCC(=O)[O-]
REMARK SMILES IDX 15 1 16 2 17 3 18 4 19 5 20 6 21 7 22 8 23 9 24 10 25 11
REMARK SMILES IDX 26 12 27 13 28 14 29 15 30 16 14 17 13 18 12 19 11 20 10 21
REMARK SMILES IDX 9 22 8 23 7 24 6 25 5 26 4 27 3 28 2 29 1 30
REMARK H PARENT
REMARK Flexibility Score: inf
ROOT
ATOM      1  C   UNL     1      19.915  -6.995  49.108  1.00  0.00     0.000 C 
ENDROOT
BRANCH   1   2
ATOM      2  C   UNL     1      20.707  -7.437  50.347  1.00  0.00     0.000 C 
BRANCH   2   3
ATOM      3  C   UNL     1      21.668  -6.351  50.863  1.00  0.00     0.000 C 
BRANCH   3   4
ATOM      4  C   UNL     1      23.065  -6.891  51.236  1.00  0.00     0.000 C 
BRANCH   4   5
ATOM      5  C   UNL     1      23.324  -8.287  50.650  1.00  0.00     0.000 C 
BRANCH   5   6
ATOM      6  C   UNL     1      24.826  -8.551  50.505  1.00  0.00     0.000 C 
BRANCH   6   7
ATOM      7  C   UNL     1      25.311  -8.229  49.082  1.00  0.00     0.000 C 
BRANCH   7   8
ATOM      8  C   UNL     1      26.432  -7.169  49.075  1.00  0.00     0.000 C 
BRANCH   8   9
ATOM      9  C   UNL     1      25.917  -5.719  49.084  1.00  0.00     0.000 C 
BRANCH   9  10
ATOM     10  C   UNL     1      26.100  -5.024  50.439  1.00  0.00     0.000 C 
BRANCH  10  11
ATOM     11  C   UNL     1      25.633  -3.562  50.381  1.00  0.00     0.000 C 
BRANCH  11  12
ATOM     12  C   UNL     1      24.266  -3.400  49.701  1.00  0.00     0.006 C 
BRANCH  12  13
ATOM     13  C   UNL     1      23.171  -2.928  50.667  1.00  0.00     0.053 C 
BRANCH  13  14
ATOM     14  C   UNL     1      22.487  -1.710  50.132  1.00  0.00     0.041 C 
ATOM     15  O   UNL     1      22.039  -0.835  50.921  1.00  0.00    -0.550 OA
ATOM     16  O   UNL     1      22.367  -1.525  48.761  1.00  0.00    -0.550 OA
ENDBRANCH  13  14
ENDBRANCH  12  13
ENDBRANCH  11  12
ENDBRANCH  10  11
ENDBRANCH   9  10
ENDBRANCH   8   9
ENDBRANCH   7   8
ENDBRANCH   6   7
ENDBRANCH   5   6
ENDBRANCH   4   5
ENDBRANCH   3   4
ENDBRANCH   2   3
ENDBRANCH   1   2
BRANCH   1  17
ATOM     17  C   UNL     1      20.853  -6.478  48.010  1.00  0.00     0.000 C 
BRANCH  17  18
ATOM     18  C   UNL     1      21.650  -7.605  47.328  1.00  0.00     0.000 C 
BRANCH  18  19
ATOM     19  C   UNL     1      22.938  -7.154  46.608  1.00  0.00     0.000 C 
BRANCH  19  20
ATOM     20  C   UNL     1      23.236  -5.645  46.670  1.00  0.00     0.000 C 
BRANCH  20  21
ATOM     21  C   UNL     1      24.272  -5.196  45.626  1.00  0.00     0.000 C 
BRANCH  21  22
ATOM     22  C   UNL     1      23.803  -3.983  44.801  1.00  0.00    -0.000 C 
BRANCH  22  23
ATOM     23  C   UNL     1      22.565  -3.255  45.358  1.00  0.00    -0.000 C 
BRANCH  23  24
ATOM     24  C   UNL     1      21.324  -3.413  44.461  1.00  0.00    -0.000 C 
BRANCH  24  25
ATOM     25  C   UNL     1      20.180  -4.160  45.163  1.00  0.00    -0.000 C 
BRANCH  25  26
ATOM     26  C   UNL     1      19.935  -5.558  44.566  1.00  0.00    -0.000 C 
BRANCH  26  27
ATOM     27  C   UNL     1      20.684  -5.764  43.232  1.00  0.00    -0.000 C 
BRANCH  27  28
ATOM     28  C   UNL     1      21.675  -6.944  43.252  1.00  0.00    -0.000 C 
BRANCH  28  29
ATOM     29  C   UNL     1      21.019  -8.335  43.271  1.00  0.00    -0.003 C 
ATOM     30  C   UNL     1      21.985  -9.440  43.701  1.00  0.00     0.004 C 
ENDBRANCH  28  29
ENDBRANCH  27  28
ENDBRANCH  26  27
ENDBRANCH  25  26
ENDBRANCH  24  25
ENDBRANCH  23  24
ENDBRANCH  22  23
ENDBRANCH  21  22
ENDBRANCH  20  21
ENDBRANCH  19  20
ENDBRANCH  18  19
ENDBRANCH  17  18
ENDBRANCH   1  17
TORSDOF 26
ENDMDL
MODEL 7
REMARK VINA RESULT:    -4.222      2.357      6.274
REMARK INTER + INTRA:         -16.084
REMARK INTER:                 -10.760
REMARK INTRA:                  -5.324
REMARK UNBOUND:                -5.446
REMARK SMILES CCCCCCCCCCCCCCCCCCCCCCCCCCCC(=O)[O-]
REMARK SMILES IDX 15 1 16 2 17 3 18 4 19 5 20 6 21 7 22 8 23 9 24 10 25 11
REMARK SMILES IDX 26 12 27 13 28 14 29 15 30 16 14 17 13 18 12 19 11 20 10 21
REMARK SMILES IDX 9 22 8 23 7 24 6 25 5 26 4 27 3 28 2 29 1 30
REMARK H PARENT
REMARK Flexibility Score: inf
ROOT
ATOM      1  C   UNL     1      24.773  -3.693  50.415  1.00  0.00     0.000 C 
ENDROOT
BRANCH   1   2
ATOM      2  C   UNL     1      24.362  -5.153  50.658  1.00  0.00     0.000 C 
BRANCH   2   3
ATOM      3  C   UNL     1      22.878  -5.303  51.040  1.00  0.00     0.000 C 
BRANCH   3   4
ATOM      4  C   UNL     1      22.362  -6.754  50.946  1.00  0.00     0.000 C 
BRANCH   4   5
ATOM      5  C   UNL     1      21.017  -6.847  50.209  1.00  0.00     0.000 C 
BRANCH   5   6
ATOM      6  C   UNL     1      21.206  -6.662  48.699  1.00  0.00     0.000 C 
BRANCH   6   7
ATOM      7  C   UNL     1      22.334  -7.562  48.168  1.00  0.00     0.000 C 
BRANCH   7   8
ATOM      8  C   UNL     1      22.159  -7.891  46.670  1.00  0.00     0.000 C 
BRANCH   8   9
ATOM      9  C   UNL     1      20.843  -7.370  46.069  1.00  0.00     0.000 C 
BRANCH   9  10
ATOM     10  C   UNL     1      20.441  -8.097  44.779  1.00  0.00     0.000 C 
BRANCH  10  11
ATOM     11  C   UNL     1      21.120  -7.471  43.553  1.00  0.00     0.000 C 
BRANCH  11  12
ATOM     12  C   UNL     1      21.204  -5.940  43.634  1.00  0.00     0.006 C 
BRANCH  12  13
ATOM     13  C   UNL     1      20.185  -5.238  42.728  1.00  0.00     0.053 C 
BRANCH  13  14
ATOM     14  C   UNL     1      19.257  -4.389  43.539  1.00  0.00     0.041 C 
ATOM     15  O   UNL     1      19.439  -4.254  44.778  1.00  0.00    -0.550 OA
ATOM     16  O   UNL     1      18.205  -3.724  42.921  1.00  0.00    -0.550 OA
ENDBRANCH  13  14
ENDBRANCH  12  13
ENDBRANCH  11  12
ENDBRANCH  10  11
ENDBRANCH   9  10
ENDBRANCH   8   9
ENDBRANCH   7   8
ENDBRANCH   6   7
ENDBRANCH   5   6
ENDBRANCH   4   5
ENDBRANCH   3   4
ENDBRANCH   2   3
ENDBRANCH   1   2
BRANCH   1  17
ATOM     17  C   UNL     1      23.546  -2.816  50.132  1.00  0.00     0.000 C 
BRANCH  17  18
ATOM     18  C   UNL     1      23.835  -1.699  49.113  1.00  0.00     0.000 C 
BRANCH  18  19
ATOM     19  C   UNL     1      25.244  -1.734  48.484  1.00  0.00     0.000 C 
BRANCH  19  20
ATOM     20  C   UNL     1      25.359  -1.100  47.086  1.00  0.00     0.000 C 
BRANCH  20  21
ATOM     21  C   UNL     1      26.448  -1.755  46.220  1.00  0.00     0.000 C 
BRANCH  21  22
ATOM     22  C   UNL     1      26.130  -1.695  44.714  1.00  0.00    -0.000 C 
BRANCH  22  23
ATOM     23  C   UNL     1      25.692  -3.031  44.086  1.00  0.00    -0.000 C 
BRANCH  23  24
ATOM     24  C   UNL     1      25.799  -4.215  45.063  1.00  0.00    -0.000 C 
BRANCH  24  25
ATOM     25  C   UNL     1      24.449  -4.910  45.297  1.00  0.00    -0.000 C 
BRANCH  25  26
ATOM     26  C   UNL     1      23.813  -4.524  46.645  1.00  0.00    -0.000 C 
BRANCH  26  27
ATOM     27  C   UNL     1      22.485  -3.756  46.466  1.00  0.00    -0.000 C 
BRANCH  27  28
ATOM     28  C   UNL     1      22.466  -2.825  45.239  1.00  0.00    -0.000 C 
BRANCH  28  29
ATOM     29  C   UNL     1      22.142  -1.354  45.551  1.00  0.00    -0.003 C 
ATOM     30  C   UNL     1      22.516  -0.409  44.408  1.00  0.00     0.004 C 
ENDBRANCH  28  29
ENDBRANCH  27  28
ENDBRANCH  26  27
ENDBRANCH  25  26
ENDBRANCH  24  25
ENDBRANCH  23  24
ENDBRANCH  22  23
ENDBRANCH  21  22
ENDBRANCH  20  21
ENDBRANCH  19  20
ENDBRANCH  18  19
ENDBRANCH  17  18
ENDBRANCH   1  17
TORSDOF 26
ENDMDL
MODEL 8
REMARK VINA RESULT:    -4.200      1.995      6.819
REMARK INTER + INTRA:         -16.029
REMARK INTER:                 -10.473
REMARK INTRA:                  -5.555
REMARK UNBOUND:                -5.446
REMARK SMILES CCCCCCCCCCCCCCCCCCCCCCCCCCCC(=O)[O-]
REMARK SMILES IDX 15 1 16 2 17 3 18 4 19 5 20 6 21 7 22 8 23 9 24 10 25 11
REMARK SMILES IDX 26 12 27 13 28 14 29 15 30 16 14 17 13 18 12 19 11 20 10 21
REMARK SMILES IDX 9 22 8 23 7 24 6 25 5 26 4 27 3 28 2 29 1 30
REMARK H PARENT
REMARK Flexibility Score: inf
ROOT
ATOM      1  C   UNL     1      20.242  -3.839  45.115  1.00  0.00     0.000 C 
ENDROOT
BRANCH   1   2
ATOM      2  C   UNL     1      20.586  -3.387  43.689  1.00  0.00     0.000 C 
BRANCH   2   3
ATOM      3  C   UNL     1      19.513  -3.781  42.659  1.00  0.00     0.000 C 
BRANCH   3   4
ATOM      4  C   UNL     1      18.357  -4.608  43.260  1.00  0.00     0.000 C 
BRANCH   4   5
ATOM      5  C   UNL     1      18.586  -6.120  43.115  1.00  0.00     0.000 C 
BRANCH   5   6
ATOM      6  C   UNL     1      18.089  -6.872  44.354  1.00  0.00     0.000 C 
BRANCH   6   7
ATOM      7  C   UNL     1      19.157  -7.844  44.879  1.00  0.00     0.000 C 
BRANCH   7   8
ATOM      8  C   UNL     1      20.354  -7.970  43.913  1.00  0.00     0.000 C 
BRANCH   8   9
ATOM      9  C   UNL     1      21.629  -8.524  44.571  1.00  0.00     0.000 C 
BRANCH   9  10
ATOM     10  C   UNL     1      21.518  -8.638  46.097  1.00  0.00     0.000 C 
BRANCH  10  11
ATOM     11  C   UNL     1      22.903  -8.777  46.746  1.00  0.00     0.000 C 
BRANCH  11  12
ATOM     12  C   UNL     1      23.018  -8.013  48.074  1.00  0.00     0.006 C 
BRANCH  12  13
ATOM     13  C   UNL     1      21.779  -7.161  48.381  1.00  0.00     0.053 C 
BRANCH  13  14
ATOM     14  C   UNL     1      21.415  -7.265  49.828  1.00  0.00     0.041 C 
ATOM     15  O   UNL     1      22.299  -7.522  50.689  1.00  0.00    -0.550 OA
ATOM     16  O   UNL     1      20.103  -7.051  50.232  1.00  0.00    -0.550 OA
ENDBRANCH  13  14
ENDBRANCH  12  13
ENDBRANCH  11  12
ENDBRANCH  10  11
ENDBRANCH   9  10
ENDBRANCH   8   9
ENDBRANCH   7   8
ENDBRANCH   6   7
ENDBRANCH   5   6
ENDBRANCH   4   5
ENDBRANCH   3   4
ENDBRANCH   2   3
ENDBRANCH   1   2
BRANCH   1  17
ATOM     17  C   UNL     1      21.301  -4.810  45.656  1.00  0.00     0.000 C 
BRANCH  17  18
ATOM     18  C   UNL     1      22.511  -4.955  44.715  1.00  0.00     0.000 C 
BRANCH  18  19
ATOM     19  C   UNL     1      23.785  -5.527  45.370  1.00  0.00     0.000 C 
BRANCH  19  20
ATOM     20  C   UNL     1      24.730  -4.486  45.996  1.00  0.00     0.000 C 
BRANCH  20  21
ATOM     21  C   UNL     1      24.835  -3.196  45.165  1.00  0.00     0.000 C 
BRANCH  21  22
ATOM     22  C   UNL     1      24.512  -1.931  45.983  1.00  0.00    -0.000 C 
BRANCH  22  23
ATOM     23  C   UNL     1      23.168  -1.261  45.645  1.00  0.00    -0.000 C 
BRANCH  23  24
ATOM     24  C   UNL     1      22.158  -1.327  46.805  1.00  0.00    -0.000 C 
BRANCH  24  25
ATOM     25  C   UNL     1      22.616  -2.264  47.933  1.00  0.00    -0.000 C 
BRANCH  25  26
ATOM     26  C   UNL     1      22.491  -1.617  49.325  1.00  0.00    -0.000 C 
BRANCH  26  27
ATOM     27  C   UNL     1      23.425  -2.276  50.363  1.00  0.00    -0.000 C 
BRANCH  27  28
ATOM     28  C   UNL     1      23.206  -3.793  50.520  1.00  0.00    -0.000 C 
BRANCH  28  29
ATOM     29  C   UNL     1      24.481  -4.601  50.812  1.00  0.00    -0.003 C 
ATOM     30  C   UNL     1      24.993  -5.364  49.588  1.00  0.00     0.004 C 
ENDBRANCH  28  29
ENDBRANCH  27  28
ENDBRANCH  26  27
ENDBRANCH  25  26
ENDBRANCH  24  25
ENDBRANCH  23  24
ENDBRANCH  22  23
ENDBRANCH  21  22
ENDBRANCH  20  21
ENDBRANCH  19  20
ENDBRANCH  18  19
ENDBRANCH  17  18
ENDBRANCH   1  17
TORSDOF 26
ENDMDL
MODEL 9
REMARK VINA RESULT:    -4.164      2.182      6.045
REMARK INTER + INTRA:         -15.938
REMARK INTER:                 -10.096
REMARK INTRA:                  -5.842
REMARK UNBOUND:                -5.446
REMARK SMILES CCCCCCCCCCCCCCCCCCCCCCCCCCCC(=O)[O-]
REMARK SMILES IDX 15 1 16 2 17 3 18 4 19 5 20 6 21 7 22 8 23 9 24 10 25 11
REMARK SMILES IDX 26 12 27 13 28 14 29 15 30 16 14 17 13 18 12 19 11 20 10 21
REMARK SMILES IDX 9 22 8 23 7 24 6 25 5 26 4 27 3 28 2 29 1 30
REMARK H PARENT
REMARK Flexibility Score: inf
ROOT
ATOM      1  C   UNL     1      23.335  -6.223  47.377  1.00  0.00     0.000 C 
ENDROOT
BRANCH   1   2
ATOM      2  C   UNL     1      22.783  -7.504  46.735  1.00  0.00     0.000 C 
BRANCH   2   3
ATOM      3  C   UNL     1      21.353  -7.838  47.196  1.00  0.00     0.000 C 
BRANCH   3   4
ATOM      4  C   UNL     1      20.448  -6.597  47.344  1.00  0.00     0.000 C 
BRANCH   4   5
ATOM      5  C   UNL     1      19.128  -6.743  46.571  1.00  0.00     0.000 C 
BRANCH   5   6
ATOM      6  C   UNL     1      19.352  -7.462  45.236  1.00  0.00     0.000 C 
BRANCH   6   7
ATOM      7  C   UNL     1      18.877  -6.599  44.056  1.00  0.00     0.000 C 
BRANCH   7   8
ATOM      8  C   UNL     1      19.766  -5.354  43.851  1.00  0.00     0.000 C 
BRANCH   8   9
ATOM      9  C   UNL     1      21.269  -5.669  43.768  1.00  0.00     0.000 C 
BRANCH   9  10
ATOM     10  C   UNL     1      22.147  -4.592  44.417  1.00  0.00     0.000 C 
BRANCH  10  11
ATOM     11  C   UNL     1      21.306  -3.624  45.262  1.00  0.00     0.000 C 
BRANCH  11  12
ATOM     12  C   UNL     1      22.151  -2.806  46.249  1.00  0.00     0.006 C 
BRANCH  12  13
ATOM     13  C   UNL     1      23.651  -2.847  45.928  1.00  0.00     0.053 C 
BRANCH  13  14
ATOM     14  C   UNL     1      24.073  -1.593  45.229  1.00  0.00     0.041 C 
ATOM     15  O   UNL     1      25.251  -1.473  44.798  1.00  0.00    -0.550 OA
ATOM     16  O   UNL     1      23.159  -0.566  45.030  1.00  0.00    -0.550 OA
ENDBRANCH  13  14
ENDBRANCH  12  13
ENDBRANCH  11  12
ENDBRANCH  10  11
ENDBRANCH   9  10
ENDBRANCH   8   9
ENDBRANCH   7   8
ENDBRANCH   6   7
ENDBRANCH   5   6
ENDBRANCH   4   5
ENDBRANCH   3   4
ENDBRANCH   2   3
ENDBRANCH   1   2
BRANCH   1  17
ATOM     17  C   UNL     1      24.869  -6.246  47.421  1.00  0.00     0.000 C 
BRANCH  17  18
ATOM     18  C   UNL     1      25.431  -7.612  47.854  1.00  0.00     0.000 C 
BRANCH  18  19
ATOM     19  C   UNL     1      25.402  -7.882  49.373  1.00  0.00     0.000 C 
BRANCH  19  20
ATOM     20  C   UNL     1      24.272  -8.809  49.856  1.00  0.00     0.000 C 
BRANCH  20  21
ATOM     21  C   UNL     1      23.596  -8.308  51.143  1.00  0.00     0.000 C 
BRANCH  21  22
ATOM     22  C   UNL     1      22.132  -7.881  50.922  1.00  0.00    -0.000 C 
BRANCH  22  23
ATOM     23  C   UNL     1      21.905  -6.362  50.815  1.00  0.00    -0.000 C 
BRANCH  23  24
ATOM     24  C   UNL     1      23.144  -5.541  51.217  1.00  0.00    -0.000 C 
BRANCH  24  25
ATOM     25  C   UNL     1      22.909  -4.027  51.106  1.00  0.00    -0.000 C 
BRANCH  25  26
ATOM     26  C   UNL     1      23.448  -3.441  49.789  1.00  0.00    -0.000 C 
BRANCH  26  27
ATOM     27  C   UNL     1      24.248  -2.139  50.011  1.00  0.00    -0.000 C 
BRANCH  27  28
ATOM     28  C   UNL     1      25.760  -2.363  50.203  1.00  0.00    -0.000 C 
BRANCH  28  29
ATOM     29  C   UNL     1      26.292  -3.688  49.632  1.00  0.00    -0.003 C 
ATOM     30  C   UNL     1      26.822  -4.630  50.714  1.00  0.00     0.004 C 
ENDBRANCH  28  29
ENDBRANCH  27  28
ENDBRANCH  26  27
ENDBRANCH  25  26
ENDBRANCH  24  25
ENDBRANCH  23  24
ENDBRANCH  22  23
ENDBRANCH  21  22
ENDBRANCH  20  21
ENDBRANCH  19  20
ENDBRANCH  18  19
ENDBRANCH  17  18
ENDBRANCH   1  17
TORSDOF 26
ENDMDL
