MODEL 1
REMARK VINA RESULT:    -5.199      0.000      0.000
REMARK INTER + INTRA:         -10.565
REMARK INTER:                  -8.846
REMARK INTRA:                  -1.719
REMARK UNBOUND:                -1.719
REMARK SMILES CCCCCCCCCCCCCC(=O)[O-]
REMARK SMILES IDX 8 1 9 2 10 3 11 4 12 5 13 6 14 7 15 8 16 9 7 10 6 11 5 12
REMARK SMILES IDX 4 13 3 14 2 15 1 16
REMARK H PARENT
REMARK Flexibility Score: inf
ROOT
ATOM      1  C   UNL     1      17.776  -3.399  14.360  1.00  0.00     0.000 C 
ENDROOT
BRANCH   1   2
ATOM      2  C   UNL     1      17.714  -3.699  12.851  1.00  0.00     0.000 C 
BRANCH   2   3
ATOM      3  C   UNL     1      18.578  -4.907  12.451  1.00  0.00     0.000 C 
BRANCH   3   4
ATOM      4  C   UNL     1      17.794  -5.949  11.636  1.00  0.00     0.000 C 
BRANCH   4   5
ATOM      5  C   UNL     1      16.313  -5.573  11.466  1.00  0.00     0.006 C 
BRANCH   5   6
ATOM      6  C   UNL     1      15.919  -5.371   9.997  1.00  0.00     0.053 C 
BRANCH   6   7
ATOM      7  C   UNL     1      14.429  -5.386   9.851  1.00  0.00     0.041 C 
ATOM      8  O   UNL     1      13.886  -6.099   8.968  1.00  0.00    -0.550 OA
ATOM      9  O   UNL     1      13.644  -4.571  10.658  1.00  0.00    -0.550 OA
ENDBRANCH   6   7
ENDBRANCH   5   6
ENDBRANCH   4   5
ENDBRANCH   3   4
ENDBRANCH   2   3
ENDBRANCH   1   2
BRANCH   1  10
ATOM     10  C   UNL     1      18.410  -4.545  15.165  1.00  0.00     0.000 C 
BRANCH  10  11
ATOM     11  C   UNL     1      17.431  -5.167  16.177  1.00  0.00    -0.000 C 
BRANCH  11  12
ATOM     12  C   UNL     1      16.451  -6.153  15.521  1.00  0.00    -0.000 C 
BRANCH  12  13
ATOM     13  C   UNL     1      14.980  -5.749  15.731  1.00  0.00    -0.000 C 
BRANCH  13  14
ATOM     14  C   UNL     1      14.490  -4.739  14.680  1.00  0.00    -0.000 C 
BRANCH  14  15
ATOM     15  C   UNL     1      14.038  -3.408  15.300  1.00  0.00    -0.003 C 
ATOM     16  C   UNL     1      14.261  -3.402  16.808  1.00  0.00     0.004 C 
ENDBRANCH  14  15
ENDBRANCH  13  14
ENDBRANCH  12  13
ENDBRANCH  11  12
ENDBRANCH  10  11
ENDBRANCH   1  10
TORSDOF 12
ENDMDL
MODEL 2
REMARK VINA RESULT:    -5.085      2.699      3.971
REMARK INTER + INTRA:         -10.371
REMARK INTER:                  -8.789
REMARK INTRA:                  -1.582
REMARK UNBOUND:                -1.719
REMARK SMILES CCCCCCCCCCCCCC(=O)[O-]
REMARK SMILES IDX 8 1 9 2 10 3 11 4 12 5 13 6 14 7 15 8 16 9 7 10 6 11 5 12
REMARK SMILES IDX 4 13 3 14 2 15 1 16
REMARK H PARENT
REMARK Flexibility Score: inf
ROOT
ATOM      1  C   UNL     1      13.656  -5.647  12.688  1.00  0.00     0.000 C 
ENDROOT
BRANCH   1   2
ATOM      2  C   UNL     1      14.057  -5.510  11.207  1.00  0.00     0.000 C 
BRANCH   2   3
ATOM      3  C   UNL     1      15.417  -4.815  11.025  1.00  0.00     0.000 C 
BRANCH   3   4
ATOM      4  C   UNL     1      16.508  -5.775  10.521  1.00  0.00     0.000 C 
BRANCH   4   5
ATOM      5  C   UNL     1      17.722  -5.834  11.461  1.00  0.00     0.006 C 
BRANCH   5   6
ATOM      6  C   UNL     1      17.749  -4.675  12.466  1.00  0.00     0.053 C 
BRANCH   6   7
ATOM      7  C   UNL     1      19.155  -4.219  12.699  1.00  0.00     0.041 C 
ATOM      8  O   UNL     1      20.104  -5.045  12.656  1.00  0.00    -0.550 OA
ATOM      9  O   UNL     1      19.412  -2.890  13.013  1.00  0.00    -0.550 OA
ENDBRANCH   6   7
ENDBRANCH   5   6
ENDBRANCH   4   5
ENDBRANCH   3   4
ENDBRANCH   2   3
ENDBRANCH   1   2
BRANCH   1  10
ATOM     10  C   UNL     1      13.982  -7.035  13.263  1.00  0.00     0.000 C 
BRANCH  10  11
ATOM     11  C   UNL     1      15.370  -7.089  13.924  1.00  0.00    -0.000 C 
BRANCH  11  12
ATOM     12  C   UNL     1      15.347  -6.610  15.385  1.00  0.00    -0.000 C 
BRANCH  12  13
ATOM     13  C   UNL     1      16.664  -5.929  15.802  1.00  0.00    -0.000 C 
BRANCH  13  14
ATOM     14  C   UNL     1      16.480  -4.436  16.121  1.00  0.00    -0.000 C 
BRANCH  14  15
ATOM     15  C   UNL     1      15.133  -3.885  15.628  1.00  0.00    -0.003 C 
ATOM     16  C   UNL     1      14.257  -3.450  16.797  1.00  0.00     0.004 C 
ENDBRANCH  14  15
ENDBRANCH  13  14
ENDBRANCH  12  13
ENDBRANCH  11  12
ENDBRANCH  10  11
ENDBRANCH   1  10
TORSDOF 12
ENDMDL
MODEL 3
REMARK VINA RESULT:    -5.022      1.922      4.773
REMARK INTER + INTRA:         -10.264
REMARK INTER:                  -8.214
REMARK INTRA:                  -2.050
REMARK UNBOUND:                -1.719
REMARK SMILES CCCCCCCCCCCCCC(=O)[O-]
REMARK SMILES IDX 8 1 9 2 10 3 11 4 12 5 13 6 14 7 15 8 16 9 7 10 6 11 5 12
REMARK SMILES IDX 4 13 3 14 2 15 1 16
REMARK H PARENT
REMARK Flexibility Score: inf
ROOT
ATOM      1  C   UNL     1      15.322  -6.755  15.421  1.00  0.00     0.000 C 
ENDROOT
BRANCH   1   2
ATOM      2  C   UNL     1      16.595  -5.940  15.715  1.00  0.00     0.000 C 
BRANCH   2   3
ATOM      3  C   UNL     1      16.329  -4.426  15.769  1.00  0.00     0.000 C 
BRANCH   3   4
ATOM      4  C   UNL     1      14.841  -4.095  15.973  1.00  0.00     0.000 C 
BRANCH   4   5
ATOM      5  C   UNL     1      14.298  -3.136  14.901  1.00  0.00     0.006 C 
BRANCH   5   6
ATOM      6  C   UNL     1      12.769  -3.183  14.786  1.00  0.00     0.053 C 
BRANCH   6   7
ATOM      7  C   UNL     1      12.357  -3.257  13.349  1.00  0.00     0.041 C 
ATOM      8  O   UNL     1      12.878  -2.489  12.500  1.00  0.00    -0.550 OA
ATOM      9  O   UNL     1      11.360  -4.142  12.957  1.00  0.00    -0.550 OA
ENDBRANCH   6   7
ENDBRANCH   5   6
ENDBRANCH   4   5
ENDBRANCH   3   4
ENDBRANCH   2   3
ENDBRANCH   1   2
BRANCH   1  10
ATOM     10  C   UNL     1      15.203  -7.151  13.941  1.00  0.00     0.000 C 
BRANCH  10  11
ATOM     11  C   UNL     1      13.977  -6.519  13.258  1.00  0.00    -0.000 C 
BRANCH  11  12
ATOM     12  C   UNL     1      14.289  -6.004  11.844  1.00  0.00    -0.000 C 
BRANCH  12  13
ATOM     13  C   UNL     1      15.509  -5.067  11.813  1.00  0.00    -0.000 C 
BRANCH  13  14
ATOM     14  C   UNL     1      16.630  -5.588  10.898  1.00  0.00    -0.000 C 
BRANCH  14  15
ATOM     15  C   UNL     1      17.904  -5.961  11.672  1.00  0.00    -0.003 C 
ATOM     16  C   UNL     1      18.383  -4.796  12.532  1.00  0.00     0.004 C 
ENDBRANCH  14  15
ENDBRANCH  13  14
ENDBRANCH  12  13
ENDBRANCH  11  12
ENDBRANCH  10  11
ENDBRANCH   1  10
TORSDOF 12
ENDMDL
MODEL 4
REMARK VINA RESULT:    -5.022      2.457      4.110
REMARK INTER + INTRA:         -10.264
REMARK INTER:                  -8.745
REMARK INTRA:                  -1.519
REMARK UNBOUND:                -1.719
REMARK SMILES CCCCCCCCCCCCCC(=O)[O-]
REMARK SMILES IDX 8 1 9 2 10 3 11 4 12 5 13 6 14 7 15 8 16 9 7 10 6 11 5 12
REMARK SMILES IDX 4 13 3 14 2 15 1 16
REMARK H PARENT
REMARK Flexibility Score: inf
ROOT
ATOM      1  C   UNL     1      12.664  -2.905  12.720  1.00  0.00     0.000 C 
ENDROOT
BRANCH   1   2
ATOM      2  C   UNL     1      12.276  -4.393  12.633  1.00  0.00     0.000 C 
BRANCH   2   3
ATOM      3  C   UNL     1      13.375  -5.254  11.987  1.00  0.00     0.000 C 
BRANCH   3   4
ATOM      4  C   UNL     1      13.849  -6.392  12.907  1.00  0.00     0.000 C 
BRANCH   4   5
ATOM      5  C   UNL     1      15.369  -6.367  13.139  1.00  0.00     0.006 C 
BRANCH   5   6
ATOM      6  C   UNL     1      16.059  -5.204  12.415  1.00  0.00     0.053 C 
BRANCH   6   7
ATOM      7  C   UNL     1      16.926  -5.719  11.310  1.00  0.00     0.041 C 
ATOM      8  O   UNL     1      16.478  -5.796  10.137  1.00  0.00    -0.550 OA
ATOM      9  O   UNL     1      18.214  -6.161  11.586  1.00  0.00    -0.550 OA
ENDBRANCH   6   7
ENDBRANCH   5   6
ENDBRANCH   4   5
ENDBRANCH   3   4
ENDBRANCH   2   3
ENDBRANCH   1   2
BRANCH   1  10
ATOM     10  C   UNL     1      13.580  -2.603  13.917  1.00  0.00     0.000 C 
BRANCH  10  11
ATOM     11  C   UNL     1      13.071  -3.235  15.224  1.00  0.00    -0.000 C 
BRANCH  11  12
ATOM     12  C   UNL     1      14.163  -4.024  15.964  1.00  0.00    -0.000 C 
BRANCH  12  13
ATOM     13  C   UNL     1      15.558  -3.392  15.803  1.00  0.00    -0.000 C 
BRANCH  13  14
ATOM     14  C   UNL     1      16.104  -2.824  17.124  1.00  0.00    -0.000 C 
BRANCH  14  15
ATOM     15  C   UNL     1      17.590  -3.149  17.341  1.00  0.00    -0.003 C 
ATOM     16  C   UNL     1      17.970  -3.019  18.812  1.00  0.00     0.004 C 
ENDBRANCH  14  15
ENDBRANCH  13  14
ENDBRANCH  12  13
ENDBRANCH  11  12
ENDBRANCH  10  11
ENDBRANCH   1  10
TORSDOF 12
ENDMDL
MODEL 5
REMARK VINA RESULT:    -5.014      2.350      4.938
REMARK INTER + INTRA:         -10.251
REMARK INTER:                  -8.685
REMARK INTRA:                  -1.566
REMARK UNBOUND:                -1.719
REMARK SMILES CCCCCCCCCCCCCC(=O)[O-]
REMARK SMILES IDX 8 1 9 2 10 3 11 4 12 5 13 6 14 7 15 8 16 9 7 10 6 11 5 12
REMARK SMILES IDX 4 13 3 14 2 15 1 16
REMARK H PARENT
REMARK Flexibility Score: inf
ROOT
ATOM      1  C   UNL     1      16.566  -5.153  14.964  1.00  0.00     0.000 C 
ENDROOT
BRANCH   1   2
ATOM      2  C   UNL     1      15.870  -4.079  15.819  1.00  0.00     0.000 C 
BRANCH   2   3
ATOM      3  C   UNL     1      14.429  -4.464  16.195  1.00  0.00     0.000 C 
BRANCH   3   4
ATOM      4  C   UNL     1      13.418  -3.350  15.876  1.00  0.00     0.000 C 
BRANCH   4   5
ATOM      5  C   UNL     1      12.987  -3.350  14.400  1.00  0.00     0.006 C 
BRANCH   5   6
ATOM      6  C   UNL     1      12.756  -1.936  13.851  1.00  0.00     0.053 C 
BRANCH   6   7
ATOM      7  C   UNL     1      13.746  -1.628  12.772  1.00  0.00     0.041 C 
ATOM      8  O   UNL     1      13.415  -0.906  11.796  1.00  0.00    -0.550 OA
ATOM      9  O   UNL     1      15.020  -2.179  12.821  1.00  0.00    -0.550 OA
ENDBRANCH   6   7
ENDBRANCH   5   6
ENDBRANCH   4   5
ENDBRANCH   3   4
ENDBRANCH   2   3
ENDBRANCH   1   2
BRANCH   1  10
ATOM     10  C   UNL     1      15.821  -6.497  14.981  1.00  0.00     0.000 C 
BRANCH  10  11
ATOM     11  C   UNL     1      15.453  -6.987  13.569  1.00  0.00    -0.000 C 
BRANCH  11  12
ATOM     12  C   UNL     1      14.025  -6.593  13.161  1.00  0.00    -0.000 C 
BRANCH  12  13
ATOM     13  C   UNL     1      13.986  -5.799  11.842  1.00  0.00    -0.000 C 
BRANCH  13  14
ATOM     14  C   UNL     1      15.390  -5.424  11.339  1.00  0.00    -0.000 C 
BRANCH  14  15
ATOM     15  C   UNL     1      15.475  -5.366   9.806  1.00  0.00    -0.003 C 
ATOM     16  C   UNL     1      14.212  -5.931   9.164  1.00  0.00     0.004 C 
ENDBRANCH  14  15
ENDBRANCH  13  14
ENDBRANCH  12  13
ENDBRANCH  11  12
ENDBRANCH  10  11
ENDBRANCH   1  10
TORSDOF 12
ENDMDL
MODEL 6
REMARK VINA RESULT:    -5.008      2.405      3.684
REMARK INTER + INTRA:         -10.241
REMARK INTER:                  -8.840
REMARK INTRA:                  -1.401
REMARK UNBOUND:                -1.719
REMARK SMILES CCCCCCCCCCCCCC(=O)[O-]
REMARK SMILES IDX 8 1 9 2 10 3 11 4 12 5 13 6 14 7 15 8 16 9 7 10 6 11 5 12
REMARK SMILES IDX 4 13 3 14 2 15 1 16
REMARK H PARENT
REMARK Flexibility Score: inf
ROOT
ATOM      1  C   UNL     1      17.071  -5.662  15.838  1.00  0.00     0.000 C 
ENDROOT
BRANCH   1   2
ATOM      2  C   UNL     1      15.729  -6.416  15.855  1.00  0.00     0.000 C 
BRANCH   2   3
ATOM      3  C   UNL     1      15.100  -6.539  14.457  1.00  0.00     0.000 C 
BRANCH   3   4
ATOM      4  C   UNL     1      16.122  -6.953  13.385  1.00  0.00     0.000 C 
BRANCH   4   5
ATOM      5  C   UNL     1      16.199  -5.949  12.223  1.00  0.00     0.006 C 
BRANCH   5   6
ATOM      6  C   UNL     1      17.628  -5.762  11.697  1.00  0.00     0.053 C 
BRANCH   6   7
ATOM      7  C   UNL     1      18.329  -4.684  12.464  1.00  0.00     0.041 C 
ATOM      8  O   UNL     1      17.688  -3.686  12.884  1.00  0.00    -0.550 OA
ATOM      9  O   UNL     1      19.701  -4.759  12.671  1.00  0.00    -0.550 OA
ENDBRANCH   6   7
ENDBRANCH   5   6
ENDBRANCH   4   5
ENDBRANCH   3   4
ENDBRANCH   2   3
ENDBRANCH   1   2
BRANCH   1  10
ATOM     10  C   UNL     1      17.042  -4.385  16.693  1.00  0.00     0.000 C 
BRANCH  10  11
ATOM     11  C   UNL     1      16.057  -3.334  16.153  1.00  0.00    -0.000 C 
BRANCH  11  12
ATOM     12  C   UNL     1      14.857  -3.114  17.087  1.00  0.00    -0.000 C 
BRANCH  12  13
ATOM     13  C   UNL     1      13.519  -3.497  16.428  1.00  0.00    -0.000 C 
BRANCH  13  14
ATOM     14  C   UNL     1      13.537  -3.304  14.903  1.00  0.00    -0.000 C 
BRANCH  14  15
ATOM     15  C   UNL     1      12.504  -2.272  14.423  1.00  0.00    -0.003 C 
ATOM     16  C   UNL     1      12.853  -1.753  13.032  1.00  0.00     0.004 C 
ENDBRANCH  14  15
ENDBRANCH  13  14
ENDBRANCH  12  13
ENDBRANCH  11  12
ENDBRANCH  10  11
ENDBRANCH   1  10
TORSDOF 12
ENDMDL
MODEL 7
REMARK VINA RESULT:    -4.923      2.999      4.791
REMARK INTER + INTRA:         -10.095
REMARK INTER:                  -8.294
REMARK INTRA:                  -1.802
REMARK UNBOUND:                -1.719
REMARK SMILES CCCCCCCCCCCCCC(=O)[O-]
REMARK SMILES IDX 8 1 9 2 10 3 11 4 12 5 13 6 14 7 15 8 16 9 7 10 6 11 5 12
REMARK SMILES IDX 4 13 3 14 2 15 1 16
REMARK H PARENT
REMARK Flexibility Score: inf
ROOT
ATOM      1  C   UNL     1      15.282  -4.689  10.905  1.00  0.00     0.000 C 
ENDROOT
BRANCH   1   2
ATOM      2  C   UNL     1      16.375  -5.648  10.396  1.00  0.00     0.000 C 
BRANCH   2   3
ATOM      3  C   UNL     1      17.482  -5.888  11.436  1.00  0.00     0.000 C 
BRANCH   3   4
ATOM      4  C   UNL     1      17.628  -4.718  12.423  1.00  0.00     0.000 C 
BRANCH   4   5
ATOM      5  C   UNL     1      19.096  -4.333  12.669  1.00  0.00     0.006 C 
BRANCH   5   6
ATOM      6  C   UNL     1      19.470  -4.345  14.157  1.00  0.00     0.053 C 
BRANCH   6   7
ATOM      7  C   UNL     1      19.328  -2.974  14.740  1.00  0.00     0.041 C 
ATOM      8  O   UNL     1      19.259  -1.969  13.986  1.00  0.00    -0.550 OA
ATOM      9  O   UNL     1      19.323  -2.802  16.119  1.00  0.00    -0.550 OA
ENDBRANCH   6   7
ENDBRANCH   5   6
ENDBRANCH   4   5
ENDBRANCH   3   4
ENDBRANCH   2   3
ENDBRANCH   1   2
BRANCH   1  10
ATOM     10  C   UNL     1      13.912  -5.373  11.042  1.00  0.00     0.000 C 
BRANCH  10  11
ATOM     11  C   UNL     1      13.508  -5.599  12.509  1.00  0.00    -0.000 C 
BRANCH  11  12
ATOM     12  C   UNL     1      14.167  -6.847  13.118  1.00  0.00    -0.000 C 
BRANCH  12  13
ATOM     13  C   UNL     1      14.847  -6.556  14.468  1.00  0.00    -0.000 C 
BRANCH  13  14
ATOM     14  C   UNL     1      14.739  -5.077  14.875  1.00  0.00    -0.000 C 
BRANCH  14  15
ATOM     15  C   UNL     1      15.969  -4.584  15.653  1.00  0.00    -0.003 C 
ATOM     16  C   UNL     1      16.839  -5.753  16.101  1.00  0.00     0.004 C 
ENDBRANCH  14  15
ENDBRANCH  13  14
ENDBRANCH  12  13
ENDBRANCH  11  12
ENDBRANCH  10  11
ENDBRANCH   1  10
TORSDOF 12
ENDMDL
MODEL 8
REMARK VINA RESULT:    -4.920      3.736      6.265
REMARK INTER + INTRA:         -10.091
REMARK INTER:                  -8.194
REMARK INTRA:                  -1.897
REMARK UNBOUND:                -1.719
REMARK SMILES CCCCCCCCCCCCCC(=O)[O-]
REMARK SMILES IDX 8 1 9 2 10 3 11 4 12 5 13 6 14 7 15 8 16 9 7 10 6 11 5 12
REMARK SMILES IDX 4 13 3 14 2 15 1 16
REMARK H PARENT
REMARK Flexibility Score: inf
ROOT
ATOM      1  C   UNL     1      12.625  -1.938  13.957  1.00  0.00     0.000 C 
ENDROOT
BRANCH   1   2
ATOM      2  C   UNL     1      12.901  -3.360  14.479  1.00  0.00     0.000 C 
BRANCH   2   3
ATOM      3  C   UNL     1      13.264  -3.383  15.973  1.00  0.00     0.000 C 
BRANCH   3   4
ATOM      4  C   UNL     1      14.540  -4.192  16.258  1.00  0.00     0.000 C 
BRANCH   4   5
ATOM      5  C   UNL     1      15.686  -3.316  16.791  1.00  0.00     0.006 C 
BRANCH   5   6
ATOM      6  C   UNL     1      17.041  -4.037  16.768  1.00  0.00     0.053 C 
BRANCH   6   7
ATOM      7  C   UNL     1      18.068  -3.240  17.509  1.00  0.00     0.041 C 
ATOM      8  O   UNL     1      19.109  -2.847  16.923  1.00  0.00    -0.550 OA
ATOM      9  O   UNL     1      17.897  -2.975  18.863  1.00  0.00    -0.550 OA
ENDBRANCH   6   7
ENDBRANCH   5   6
ENDBRANCH   4   5
ENDBRANCH   3   4
ENDBRANCH   2   3
ENDBRANCH   1   2
BRANCH   1  10
ATOM     10  C   UNL     1      13.492  -1.575  12.741  1.00  0.00     0.000 C 
BRANCH  10  11
ATOM     11  C   UNL     1      14.515  -2.672  12.397  1.00  0.00    -0.000 C 
BRANCH  11  12
ATOM     12  C   UNL     1      15.895  -2.411  13.023  1.00  0.00    -0.000 C 
BRANCH  12  13
ATOM     13  C   UNL     1      16.748  -3.688  13.123  1.00  0.00    -0.000 C 
BRANCH  13  14
ATOM     14  C   UNL     1      16.089  -4.893  12.432  1.00  0.00    -0.000 C 
BRANCH  14  15
ATOM     15  C   UNL     1      15.894  -6.087  13.379  1.00  0.00    -0.003 C 
ATOM     16  C   UNL     1      14.459  -6.600  13.328  1.00  0.00     0.004 C 
ENDBRANCH  14  15
ENDBRANCH  13  14
ENDBRANCH  12  13
ENDBRANCH  11  12
ENDBRANCH  10  11
ENDBRANCH   1  10
TORSDOF 12
ENDMDL
MODEL 9
REMARK VINA RESULT:    -4.849      2.118      3.371
REMARK INTER + INTRA:          -9.971
REMARK INTER:                  -8.308
REMARK INTRA:                  -1.662
REMARK UNBOUND:                -1.719
REMARK SMILES CCCCCCCCCCCCCC(=O)[O-]
REMARK SMILES IDX 8 1 9 2 10 3 11 4 12 5 13 6 14 7 15 8 16 9 7 10 6 11 5 12
REMARK SMILES IDX 4 13 3 14 2 15 1 16
REMARK H PARENT
REMARK Flexibility Score: inf
ROOT
ATOM      1  C   UNL     1      17.128  -5.888  12.072  1.00  0.00     0.000 C 
ENDROOT
BRANCH   1   2
ATOM      2  C   UNL     1      16.649  -5.648  10.628  1.00  0.00     0.000 C 
BRANCH   2   3
ATOM      3  C   UNL     1      15.232  -5.054  10.564  1.00  0.00     0.000 C 
BRANCH   3   4
ATOM      4  C   UNL     1      14.401  -5.375  11.818  1.00  0.00     0.000 C 
BRANCH   4   5
ATOM      5  C   UNL     1      13.684  -4.138  12.383  1.00  0.00     0.006 C 
BRANCH   5   6
ATOM      6  C   UNL     1      14.556  -2.875  12.334  1.00  0.00     0.053 C 
BRANCH   6   7
ATOM      7  C   UNL     1      13.713  -1.653  12.519  1.00  0.00     0.041 C 
ATOM      8  O   UNL     1      13.863  -0.659  11.762  1.00  0.00    -0.550 OA
ATOM      9  O   UNL     1      12.795  -1.593  13.561  1.00  0.00    -0.550 OA
ENDBRANCH   6   7
ENDBRANCH   5   6
ENDBRANCH   4   5
ENDBRANCH   3   4
ENDBRANCH   2   3
ENDBRANCH   1   2
BRANCH   1  10
ATOM     10  C   UNL     1      18.251  -4.925  12.489  1.00  0.00     0.000 C 
BRANCH  10  11
ATOM     11  C   UNL     1      17.831  -3.991  13.638  1.00  0.00    -0.000 C 
BRANCH  11  12
ATOM     12  C   UNL     1      18.306  -4.493  15.011  1.00  0.00    -0.000 C 
BRANCH  12  13
ATOM     13  C   UNL     1      17.137  -4.779  15.971  1.00  0.00    -0.000 C 
BRANCH  13  14
ATOM     14  C   UNL     1      15.767  -4.658  15.283  1.00  0.00    -0.000 C 
BRANCH  14  15
ATOM     15  C   UNL     1      14.594  -4.827  16.262  1.00  0.00    -0.003 C 
ATOM     16  C   UNL     1      13.786  -3.538  16.376  1.00  0.00     0.004 C 
ENDBRANCH  14  15
ENDBRANCH  13  14
ENDBRANCH  12  13
ENDBRANCH  11  12
ENDBRANCH  10  11
ENDBRANCH   1  10
TORSDOF 12
ENDMDL
