MODEL 1
REMARK VINA RESULT:    -7.131      0.000      0.000
REMARK INTER + INTRA:          -8.758
REMARK INTER:                  -8.590
REMARK INTRA:                  -0.168
REMARK UNBOUND:                -0.168
REMARK SMILES O=c1c(O)c(-c2ccc(O)c(O)c2)oc2cc(O)cc(O)c12
REMARK SMILES IDX 5 1 3 2 2 3 1 4 22 5 20 6 19 7 17 8 16 9 15 10 14 11 6 12
REMARK SMILES IDX 7 13 8 14 9 15 13 16 11 17 10 18 12 20 4 22 21 24 18 26
REMARK H PARENT 10 19 12 21 4 23 21 25 18 27
REMARK Flexibility Score: inf
ROOT
ATOM      1  C   UNL     1     -12.663  -2.451 -20.070  1.00  0.00     0.180 A 
ATOM      2  C   UNL     1     -11.880  -1.651 -20.919  1.00  0.00     0.208 A 
ATOM      3  C   UNL     1     -12.084  -1.726 -22.306  1.00  0.00     0.238 A 
ATOM      4  O   UNL     1     -11.417  -0.967 -23.058  1.00  0.00    -0.285 OA
ATOM      5  C   UNL     1     -13.055  -2.613 -22.828  1.00  0.00     0.111 A 
ATOM      6  C   UNL     1     -13.318  -2.801 -24.218  1.00  0.00     0.134 A 
ATOM      7  C   UNL     1     -14.392  -3.607 -24.616  1.00  0.00     0.093 A 
ATOM      8  C   UNL     1     -15.171  -4.284 -23.673  1.00  0.00     0.123 A 
ATOM      9  C   UNL     1     -14.885  -4.154 -22.317  1.00  0.00     0.094 A 
ATOM     10  C   UNL     1     -13.843  -3.328 -21.888  1.00  0.00     0.146 A 
ATOM     11  O   UNL     1     -13.611  -3.225 -20.586  1.00  0.00    -0.452 OA
ENDROOT
BRANCH   1  12
ATOM     12  C   UNL     1     -12.489  -2.445 -18.599  1.00  0.00     0.025 A 
ATOM     13  C   UNL     1     -13.489  -1.945 -17.747  1.00  0.00     0.016 A 
ATOM     14  C   UNL     1     -13.293  -1.927 -16.363  1.00  0.00     0.051 A 
ATOM     15  C   UNL     1     -12.093  -2.395 -15.813  1.00  0.00     0.157 A 
ATOM     16  C   UNL     1     -11.280  -2.893 -18.044  1.00  0.00     0.062 A 
ATOM     17  C   UNL     1     -11.081  -2.877 -16.659  1.00  0.00     0.158 A 
BRANCH  15  18
ATOM     18  O   UNL     1     -11.902  -2.377 -14.432  1.00  0.00    -0.504 OA
ATOM     19  H   UNL     1     -11.797  -3.231 -13.899  1.00  0.00     0.293 HD
ENDBRANCH  15  18
BRANCH  17  20
ATOM     20  O   UNL     1      -9.872  -3.343 -16.143  1.00  0.00    -0.504 OA
ATOM     21  H   UNL     1      -9.008  -2.823 -16.241  1.00  0.00     0.293 HD
ENDBRANCH  17  20
ENDBRANCH   1  12
BRANCH   2  22
ATOM     22  O   UNL     1     -10.940  -0.766 -20.381  1.00  0.00    -0.502 OA
ATOM     23  H   UNL     1     -10.001  -0.681 -20.750  1.00  0.00     0.293 HD
ENDBRANCH   2  22
BRANCH   6  24
ATOM     24  O   UNL     1     -12.543  -2.245 -25.241  1.00  0.00    -0.507 OA
ATOM     25  H   UNL     1     -12.005  -1.396 -25.158  1.00  0.00     0.293 HD
ENDBRANCH   6  24
BRANCH   8  26
ATOM     26  O   UNL     1     -16.228  -5.096 -24.078  1.00  0.00    -0.508 OA
ATOM     27  H   UNL     1     -17.193  -4.818 -23.943  1.00  0.00     0.293 HD
ENDBRANCH   8  26
TORSDOF 6
ENDMDL
MODEL 2
REMARK VINA RESULT:    -7.071      0.603      1.449
REMARK INTER + INTRA:          -8.686
REMARK INTER:                  -8.432
REMARK INTRA:                  -0.254
REMARK UNBOUND:                -0.168
REMARK SMILES O=c1c(O)c(-c2ccc(O)c(O)c2)oc2cc(O)cc(O)c12
REMARK SMILES IDX 5 1 3 2 2 3 1 4 22 5 20 6 19 7 17 8 16 9 15 10 14 11 6 12
REMARK SMILES IDX 7 13 8 14 9 15 13 16 11 17 10 18 12 20 4 22 21 24 18 26
REMARK H PARENT 10 19 12 21 4 23 21 25 18 27
REMARK Flexibility Score: inf
ROOT
ATOM      1  C   UNL     1     -12.525  -2.480 -20.160  1.00  0.00     0.180 A 
ATOM      2  C   UNL     1     -11.758  -1.672 -21.018  1.00  0.00     0.208 A 
ATOM      3  C   UNL     1     -11.992  -1.733 -22.401  1.00  0.00     0.238 A 
ATOM      4  O   UNL     1     -11.339  -0.968 -23.158  1.00  0.00    -0.285 OA
ATOM      5  C   UNL     1     -12.977  -2.612 -22.912  1.00  0.00     0.111 A 
ATOM      6  C   UNL     1     -13.270  -2.783 -24.297  1.00  0.00     0.134 A 
ATOM      7  C   UNL     1     -14.354  -3.583 -24.680  1.00  0.00     0.093 A 
ATOM      8  C   UNL     1     -15.115  -4.267 -23.729  1.00  0.00     0.123 A 
ATOM      9  C   UNL     1     -14.800  -4.153 -22.378  1.00  0.00     0.094 A 
ATOM     10  C   UNL     1     -13.747  -3.334 -21.962  1.00  0.00     0.146 A 
ATOM     11  O   UNL     1     -13.486  -3.245 -20.664  1.00  0.00    -0.452 OA
ENDROOT
BRANCH   1  12
ATOM     12  C   UNL     1     -12.320  -2.490 -18.694  1.00  0.00     0.025 A 
ATOM     13  C   UNL     1     -11.181  -3.079 -18.118  1.00  0.00     0.016 A 
ATOM     14  C   UNL     1     -11.021  -3.098 -16.730  1.00  0.00     0.051 A 
ATOM     15  C   UNL     1     -12.000  -2.542 -15.898  1.00  0.00     0.157 A 
ATOM     16  C   UNL     1     -13.309  -1.952 -17.854  1.00  0.00     0.062 A 
ATOM     17  C   UNL     1     -13.151  -1.969 -16.464  1.00  0.00     0.158 A 
BRANCH  15  18
ATOM     18  O   UNL     1     -11.835  -2.561 -14.513  1.00  0.00    -0.504 OA
ATOM     19  H   UNL     1     -11.787  -1.706 -13.972  1.00  0.00     0.293 HD
ENDBRANCH  15  18
BRANCH  17  20
ATOM     20  O   UNL     1     -14.148  -1.413 -15.662  1.00  0.00    -0.504 OA
ATOM     21  H   UNL     1     -15.081  -1.230 -16.013  1.00  0.00     0.293 HD
ENDBRANCH  17  20
ENDBRANCH   1  12
BRANCH   2  22
ATOM     22  O   UNL     1     -10.804  -0.796 -20.491  1.00  0.00    -0.502 OA
ATOM     23  H   UNL     1     -10.147  -0.293 -21.075  1.00  0.00     0.293 HD
ENDBRANCH   2  22
BRANCH   6  24
ATOM     24  O   UNL     1     -12.515  -2.219 -25.330  1.00  0.00    -0.507 OA
ATOM     25  H   UNL     1     -12.221  -1.255 -25.367  1.00  0.00     0.293 HD
ENDBRANCH   6  24
BRANCH   8  26
ATOM     26  O   UNL     1     -16.183  -5.072 -24.120  1.00  0.00    -0.508 OA
ATOM     27  H   UNL     1     -16.206  -6.063 -23.907  1.00  0.00     0.293 HD
ENDBRANCH   8  26
TORSDOF 6
ENDMDL
MODEL 3
REMARK VINA RESULT:    -6.713      1.755      7.137
REMARK INTER + INTRA:          -8.255
REMARK INTER:                  -7.942
REMARK INTRA:                  -0.313
REMARK UNBOUND:                -0.168
REMARK SMILES O=c1c(O)c(-c2ccc(O)c(O)c2)oc2cc(O)cc(O)c12
REMARK SMILES IDX 5 1 3 2 2 3 1 4 22 5 20 6 19 7 17 8 16 9 15 10 14 11 6 12
REMARK SMILES IDX 7 13 8 14 9 15 13 16 11 17 10 18 12 20 4 22 21 24 18 26
REMARK H PARENT 10 19 12 21 4 23 21 25 18 27
REMARK Flexibility Score: inf
ROOT
ATOM      1  C   UNL     1     -14.124  -2.695 -21.400  1.00  0.00     0.180 A 
ATOM      2  C   UNL     1     -15.175  -1.991 -20.787  1.00  0.00     0.208 A 
ATOM      3  C   UNL     1     -15.081  -1.679 -19.421  1.00  0.00     0.238 A 
ATOM      4  O   UNL     1     -16.001  -1.002 -18.891  1.00  0.00    -0.285 OA
ATOM      5  C   UNL     1     -13.946  -2.088 -18.681  1.00  0.00     0.111 A 
ATOM      6  C   UNL     1     -13.764  -1.861 -17.284  1.00  0.00     0.134 A 
ATOM      7  C   UNL     1     -12.544  -2.194 -16.684  1.00  0.00     0.093 A 
ATOM      8  C   UNL     1     -11.523  -2.805 -17.417  1.00  0.00     0.123 A 
ATOM      9  C   UNL     1     -11.714  -3.085 -18.768  1.00  0.00     0.094 A 
ATOM     10  C   UNL     1     -12.906  -2.732 -19.403  1.00  0.00     0.146 A 
ATOM     11  O   UNL     1     -13.043  -3.007 -20.695  1.00  0.00    -0.452 OA
ENDROOT
BRANCH   1  12
ATOM     12  C   UNL     1     -14.161  -3.081 -22.829  1.00  0.00     0.025 A 
ATOM     13  C   UNL     1     -14.877  -4.211 -23.262  1.00  0.00     0.016 A 
ATOM     14  C   UNL     1     -14.879  -4.571 -24.613  1.00  0.00     0.051 A 
ATOM     15  C   UNL     1     -14.156  -3.817 -25.546  1.00  0.00     0.157 A 
ATOM     16  C   UNL     1     -13.421  -2.341 -23.765  1.00  0.00     0.062 A 
ATOM     17  C   UNL     1     -13.421  -2.699 -25.118  1.00  0.00     0.158 A 
BRANCH  15  18
ATOM     18  O   UNL     1     -14.161  -4.178 -26.893  1.00  0.00    -0.504 OA
ATOM     19  H   UNL     1     -14.840  -4.830 -27.265  1.00  0.00     0.293 HD
ENDBRANCH  15  18
BRANCH  17  20
ATOM     20  O   UNL     1     -12.685  -1.932 -26.021  1.00  0.00    -0.504 OA
ATOM     21  H   UNL     1     -12.530  -2.228 -26.978  1.00  0.00     0.293 HD
ENDBRANCH  17  20
ENDBRANCH   1  12
BRANCH   2  22
ATOM     22  O   UNL     1     -16.278  -1.578 -21.541  1.00  0.00    -0.502 OA
ATOM     23  H   UNL     1     -17.205  -1.962 -21.403  1.00  0.00     0.293 HD
ENDBRANCH   2  22
BRANCH   6  24
ATOM     24  O   UNL     1     -14.753  -1.342 -16.443  1.00  0.00    -0.507 OA
ATOM     25  H   UNL     1     -15.150  -1.828 -15.654  1.00  0.00     0.293 HD
ENDBRANCH   6  24
BRANCH   8  26
ATOM     26  O   UNL     1     -10.318  -3.146 -16.808  1.00  0.00    -0.508 OA
ATOM     27  H   UNL     1      -9.750  -2.455 -16.329  1.00  0.00     0.293 HD
ENDBRANCH   8  26
TORSDOF 6
ENDMDL
MODEL 4
REMARK VINA RESULT:    -6.689      1.587      7.135
REMARK INTER + INTRA:          -8.226
REMARK INTER:                  -7.938
REMARK INTRA:                  -0.288
REMARK UNBOUND:                -0.168
REMARK SMILES O=c1c(O)c(-c2ccc(O)c(O)c2)oc2cc(O)cc(O)c12
REMARK SMILES IDX 5 1 3 2 2 3 1 4 22 5 20 6 19 7 17 8 16 9 15 10 14 11 6 12
REMARK SMILES IDX 7 13 8 14 9 15 13 16 11 17 10 18 12 20 4 22 21 24 18 26
REMARK H PARENT 10 19 12 21 4 23 21 25 18 27
REMARK Flexibility Score: inf
ROOT
ATOM      1  C   UNL     1     -13.679  -2.259 -20.883  1.00  0.00     0.180 A 
ATOM      2  C   UNL     1     -14.720  -1.598 -20.208  1.00  0.00     0.208 A 
ATOM      3  C   UNL     1     -14.639  -1.444 -18.815  1.00  0.00     0.238 A 
ATOM      4  O   UNL     1     -15.547  -0.803 -18.224  1.00  0.00    -0.285 OA
ATOM      5  C   UNL     1     -13.527  -1.966 -18.112  1.00  0.00     0.111 A 
ATOM      6  C   UNL     1     -13.361  -1.902 -16.696  1.00  0.00     0.134 A 
ATOM      7  C   UNL     1     -12.160  -2.336 -16.122  1.00  0.00     0.093 A 
ATOM      8  C   UNL     1     -11.145  -2.891 -16.906  1.00  0.00     0.123 A 
ATOM      9  C   UNL     1     -11.323  -3.012 -18.282  1.00  0.00     0.094 A 
ATOM     10  C   UNL     1     -12.495  -2.555 -18.889  1.00  0.00     0.146 A 
ATOM     11  O   UNL     1     -12.619  -2.680 -20.204  1.00  0.00    -0.452 OA
ENDROOT
BRANCH   1  12
ATOM     12  C   UNL     1     -13.705  -2.482 -22.347  1.00  0.00     0.025 A 
ATOM     13  C   UNL     1     -12.987  -1.653 -23.227  1.00  0.00     0.016 A 
ATOM     14  C   UNL     1     -13.046  -1.868 -24.606  1.00  0.00     0.051 A 
ATOM     15  C   UNL     1     -13.831  -2.904 -25.128  1.00  0.00     0.157 A 
ATOM     16  C   UNL     1     -14.507  -3.506 -22.876  1.00  0.00     0.062 A 
ATOM     17  C   UNL     1     -14.568  -3.724 -24.257  1.00  0.00     0.158 A 
BRANCH  15  18
ATOM     18  O   UNL     1     -13.886  -3.116 -26.504  1.00  0.00    -0.504 OA
ATOM     19  H   UNL     1     -14.352  -3.923 -26.899  1.00  0.00     0.293 HD
ENDBRANCH  15  18
BRANCH  17  20
ATOM     20  O   UNL     1     -15.365  -4.759 -24.745  1.00  0.00    -0.504 OA
ATOM     21  H   UNL     1     -15.326  -5.696 -24.360  1.00  0.00     0.293 HD
ENDBRANCH  17  20
ENDBRANCH   1  12
BRANCH   2  22
ATOM     22  O   UNL     1     -15.798  -1.071 -20.926  1.00  0.00    -0.502 OA
ATOM     23  H   UNL     1     -16.515  -1.657 -21.336  1.00  0.00     0.293 HD
ENDBRANCH   2  22
BRANCH   6  24
ATOM     24  O   UNL     1     -14.348  -1.451 -15.814  1.00  0.00    -0.507 OA
ATOM     25  H   UNL     1     -15.301  -1.780 -15.802  1.00  0.00     0.293 HD
ENDBRANCH   6  24
BRANCH   8  26
ATOM     26  O   UNL     1      -9.960  -3.334 -16.324  1.00  0.00    -0.508 OA
ATOM     27  H   UNL     1      -9.238  -3.790 -16.870  1.00  0.00     0.293 HD
ENDBRANCH   8  26
TORSDOF 6
ENDMDL
MODEL 5
REMARK VINA RESULT:    -6.684      3.199      6.227
REMARK INTER + INTRA:          -8.219
REMARK INTER:                  -8.121
REMARK INTRA:                  -0.098
REMARK UNBOUND:                -0.168
REMARK SMILES O=c1c(O)c(-c2ccc(O)c(O)c2)oc2cc(O)cc(O)c12
REMARK SMILES IDX 5 1 3 2 2 3 1 4 22 5 20 6 19 7 17 8 16 9 15 10 14 11 6 12
REMARK SMILES IDX 7 13 8 14 9 15 13 16 11 17 10 18 12 20 4 22 21 24 18 26
REMARK H PARENT 10 19 12 21 4 23 21 25 18 27
REMARK Flexibility Score: inf
ROOT
ATOM      1  C   UNL     1     -15.634  -2.296 -21.398  1.00  0.00     0.180 A 
ATOM      2  C   UNL     1     -15.182  -1.556 -22.505  1.00  0.00     0.208 A 
ATOM      3  C   UNL     1     -13.843  -1.137 -22.545  1.00  0.00     0.238 A 
ATOM      4  O   UNL     1     -13.432  -0.522 -23.563  1.00  0.00    -0.285 OA
ATOM      5  C   UNL     1     -12.976  -1.447 -21.470  1.00  0.00     0.111 A 
ATOM      6  C   UNL     1     -11.611  -1.039 -21.386  1.00  0.00     0.134 A 
ATOM      7  C   UNL     1     -10.812  -1.513 -20.339  1.00  0.00     0.093 A 
ATOM      8  C   UNL     1     -11.345  -2.330 -19.338  1.00  0.00     0.123 A 
ATOM      9  C   UNL     1     -12.691  -2.685 -19.379  1.00  0.00     0.094 A 
ATOM     10  C   UNL     1     -13.505  -2.257 -20.430  1.00  0.00     0.146 A 
ATOM     11  O   UNL     1     -14.780  -2.627 -20.437  1.00  0.00    -0.452 OA
ENDROOT
BRANCH   1  12
ATOM     12  C   UNL     1     -17.038  -2.751 -21.274  1.00  0.00     0.025 A 
ATOM     13  C   UNL     1     -17.622  -3.592 -22.237  1.00  0.00     0.016 A 
ATOM     14  C   UNL     1     -18.956  -3.990 -22.111  1.00  0.00     0.051 A 
ATOM     15  C   UNL     1     -19.728  -3.544 -21.031  1.00  0.00     0.157 A 
ATOM     16  C   UNL     1     -17.821  -2.290 -20.204  1.00  0.00     0.062 A 
ATOM     17  C   UNL     1     -19.157  -2.687 -20.075  1.00  0.00     0.158 A 
BRANCH  15  18
ATOM     18  O   UNL     1     -21.057  -3.944 -20.908  1.00  0.00    -0.504 OA
ATOM     19  H   UNL     1     -21.648  -3.603 -20.159  1.00  0.00     0.293 HD
ENDBRANCH  15  18
BRANCH  17  20
ATOM     20  O   UNL     1     -19.901  -2.219 -18.992  1.00  0.00    -0.504 OA
ATOM     21  H   UNL     1     -19.828  -2.634 -18.070  1.00  0.00     0.293 HD
ENDBRANCH  17  20
ENDBRANCH   1  12
BRANCH   2  22
ATOM     22  O   UNL     1     -16.051  -1.279 -23.566  1.00  0.00    -0.502 OA
ATOM     23  H   UNL     1     -15.719  -1.090 -24.504  1.00  0.00     0.293 HD
ENDBRANCH   2  22
BRANCH   6  24
ATOM     24  O   UNL     1     -11.005  -0.152 -22.282  1.00  0.00    -0.507 OA
ATOM     25  H   UNL     1     -11.461   0.257 -23.083  1.00  0.00     0.293 HD
ENDBRANCH   6  24
BRANCH   8  26
ATOM     26  O   UNL     1     -10.546  -2.785 -18.292  1.00  0.00    -0.508 OA
ATOM     27  H   UNL     1     -10.780  -2.595 -17.324  1.00  0.00     0.293 HD
ENDBRANCH   8  26
TORSDOF 6
ENDMDL
MODEL 6
REMARK VINA RESULT:    -6.481      3.906      6.888
REMARK INTER + INTRA:          -7.976
REMARK INTER:                  -7.918
REMARK INTRA:                  -0.057
REMARK UNBOUND:                -0.168
REMARK SMILES O=c1c(O)c(-c2ccc(O)c(O)c2)oc2cc(O)cc(O)c12
REMARK SMILES IDX 5 1 3 2 2 3 1 4 22 5 20 6 19 7 17 8 16 9 15 10 14 11 6 12
REMARK SMILES IDX 7 13 8 14 9 15 13 16 11 17 10 18 12 20 4 22 21 24 18 26
REMARK H PARENT 10 19 12 21 4 23 21 25 18 27
REMARK Flexibility Score: inf
ROOT
ATOM      1  C   UNL     1     -15.595  -2.486 -22.185  1.00  0.00     0.180 A 
ATOM      2  C   UNL     1     -15.393  -1.467 -21.237  1.00  0.00     0.208 A 
ATOM      3  C   UNL     1     -16.428  -1.157 -20.341  1.00  0.00     0.238 A 
ATOM      4  O   UNL     1     -16.222  -0.282 -19.459  1.00  0.00    -0.285 OA
ATOM      5  C   UNL     1     -17.657  -1.855 -20.414  1.00  0.00     0.111 A 
ATOM      6  C   UNL     1     -18.788  -1.597 -19.582  1.00  0.00     0.134 A 
ATOM      7  C   UNL     1     -19.905  -2.436 -19.655  1.00  0.00     0.093 A 
ATOM      8  C   UNL     1     -19.958  -3.487 -20.575  1.00  0.00     0.123 A 
ATOM      9  C   UNL     1     -18.884  -3.711 -21.431  1.00  0.00     0.094 A 
ATOM     10  C   UNL     1     -17.740  -2.913 -21.358  1.00  0.00     0.146 A 
ATOM     11  O   UNL     1     -16.734  -3.167 -22.186  1.00  0.00    -0.452 OA
ENDROOT
BRANCH   1  12
ATOM     12  C   UNL     1     -14.560  -2.853 -23.180  1.00  0.00     0.025 A 
ATOM     13  C   UNL     1     -13.264  -3.227 -22.783  1.00  0.00     0.016 A 
ATOM     14  C   UNL     1     -12.297  -3.546 -23.740  1.00  0.00     0.051 A 
ATOM     15  C   UNL     1     -12.606  -3.484 -25.104  1.00  0.00     0.157 A 
ATOM     16  C   UNL     1     -14.858  -2.772 -24.549  1.00  0.00     0.062 A 
ATOM     17  C   UNL     1     -13.892  -3.091 -25.510  1.00  0.00     0.158 A 
BRANCH  15  18
ATOM     18  O   UNL     1     -11.639  -3.805 -26.056  1.00  0.00    -0.504 OA
ATOM     19  H   UNL     1     -11.700  -4.650 -26.612  1.00  0.00     0.293 HD
ENDBRANCH  15  18
BRANCH  17  20
ATOM     20  O   UNL     1     -14.229  -3.013 -26.861  1.00  0.00    -0.504 OA
ATOM     21  H   UNL     1     -14.852  -2.298 -27.220  1.00  0.00     0.293 HD
ENDBRANCH  17  20
ENDBRANCH   1  12
BRANCH   2  22
ATOM     22  O   UNL     1     -14.164  -0.805 -21.168  1.00  0.00    -0.502 OA
ATOM     23  H   UNL     1     -13.682  -0.644 -20.292  1.00  0.00     0.293 HD
ENDBRANCH   2  22
BRANCH   6  24
ATOM     24  O   UNL     1     -18.873  -0.518 -18.696  1.00  0.00    -0.507 OA
ATOM     25  H   UNL     1     -18.883  -0.599 -17.691  1.00  0.00     0.293 HD
ENDBRANCH   6  24
BRANCH   8  26
ATOM     26  O   UNL     1     -21.080  -4.309 -20.650  1.00  0.00    -0.508 OA
ATOM     27  H   UNL     1     -22.019  -3.932 -20.585  1.00  0.00     0.293 HD
ENDBRANCH   8  26
TORSDOF 6
ENDMDL
MODEL 7
REMARK VINA RESULT:    -6.401      5.015      6.594
REMARK INTER + INTRA:          -7.879
REMARK INTER:                  -7.556
REMARK INTRA:                  -0.322
REMARK UNBOUND:                -0.168
REMARK SMILES O=c1c(O)c(-c2ccc(O)c(O)c2)oc2cc(O)cc(O)c12
REMARK SMILES IDX 5 1 3 2 2 3 1 4 22 5 20 6 19 7 17 8 16 9 15 10 14 11 6 12
REMARK SMILES IDX 7 13 8 14 9 15 13 16 11 17 10 18 12 20 4 22 21 24 18 26
REMARK H PARENT 10 19 12 21 4 23 21 25 18 27
REMARK Flexibility Score: inf
ROOT
ATOM      1  C   UNL     1     -15.359  -0.262 -20.147  1.00  0.00     0.180 A 
ATOM      2  C   UNL     1     -16.422  -1.165 -19.970  1.00  0.00     0.208 A 
ATOM      3  C   UNL     1     -17.734  -0.670 -19.912  1.00  0.00     0.238 A 
ATOM      4  O   UNL     1     -18.685  -1.488 -19.808  1.00  0.00    -0.285 OA
ATOM      5  C   UNL     1     -17.967   0.723 -20.015  1.00  0.00     0.111 A 
ATOM      6  C   UNL     1     -19.252   1.338 -19.929  1.00  0.00     0.134 A 
ATOM      7  C   UNL     1     -19.378   2.710 -20.175  1.00  0.00     0.093 A 
ATOM      8  C   UNL     1     -18.256   3.501 -20.440  1.00  0.00     0.123 A 
ATOM      9  C   UNL     1     -16.991   2.919 -20.467  1.00  0.00     0.094 A 
ATOM     10  C   UNL     1     -16.837   1.546 -20.261  1.00  0.00     0.146 A 
ATOM     11  O   UNL     1     -15.615   1.031 -20.306  1.00  0.00    -0.452 OA
ENDROOT
BRANCH   1  12
ATOM     12  C   UNL     1     -13.947  -0.706 -20.193  1.00  0.00     0.025 A 
ATOM     13  C   UNL     1     -13.140  -0.698 -19.042  1.00  0.00     0.016 A 
ATOM     14  C   UNL     1     -11.802  -1.098 -19.115  1.00  0.00     0.051 A 
ATOM     15  C   UNL     1     -11.249  -1.498 -20.337  1.00  0.00     0.157 A 
ATOM     16  C   UNL     1     -13.382  -1.087 -21.421  1.00  0.00     0.062 A 
ATOM     17  C   UNL     1     -12.043  -1.489 -21.496  1.00  0.00     0.158 A 
BRANCH  15  18
ATOM     18  O   UNL     1      -9.916  -1.898 -20.405  1.00  0.00    -0.504 OA
ATOM     19  H   UNL     1      -9.188  -1.407 -19.901  1.00  0.00     0.293 HD
ENDBRANCH  15  18
BRANCH  17  20
ATOM     20  O   UNL     1     -11.521  -1.875 -22.730  1.00  0.00    -0.504 OA
ATOM     21  H   UNL     1     -12.114  -2.066 -23.530  1.00  0.00     0.293 HD
ENDBRANCH  17  20
ENDBRANCH   1  12
BRANCH   2  22
ATOM     22  O   UNL     1     -16.171  -2.538 -19.892  1.00  0.00    -0.502 OA
ATOM     23  H   UNL     1     -16.040  -3.017 -19.009  1.00  0.00     0.293 HD
ENDBRANCH   2  22
BRANCH   6  24
ATOM     24  O   UNL     1     -20.422   0.656 -19.581  1.00  0.00    -0.507 OA
ATOM     25  H   UNL     1     -20.529   0.080 -18.760  1.00  0.00     0.293 HD
ENDBRANCH   6  24
BRANCH   8  26
ATOM     26  O   UNL     1     -18.389   4.868 -20.669  1.00  0.00    -0.508 OA
ATOM     27  H   UNL     1     -18.502   5.241 -21.605  1.00  0.00     0.293 HD
ENDBRANCH   8  26
TORSDOF 6
ENDMDL
MODEL 8
REMARK VINA RESULT:    -6.382      1.671      7.423
REMARK INTER + INTRA:          -7.857
REMARK INTER:                  -7.644
REMARK INTRA:                  -0.213
REMARK UNBOUND:                -0.168
REMARK SMILES O=c1c(O)c(-c2ccc(O)c(O)c2)oc2cc(O)cc(O)c12
REMARK SMILES IDX 5 1 3 2 2 3 1 4 22 5 20 6 19 7 17 8 16 9 15 10 14 11 6 12
REMARK SMILES IDX 7 13 8 14 9 15 13 16 11 17 10 18 12 20 4 22 21 24 18 26
REMARK H PARENT 10 19 12 21 4 23 21 25 18 27
REMARK Flexibility Score: inf
ROOT
ATOM      1  C   UNL     1     -12.985  -2.764 -18.755  1.00  0.00     0.180 A 
ATOM      2  C   UNL     1     -14.138  -2.438 -18.021  1.00  0.00     0.208 A 
ATOM      3  C   UNL     1     -14.029  -2.235 -16.636  1.00  0.00     0.238 A 
ATOM      4  O   UNL     1     -15.055  -1.890 -15.993  1.00  0.00    -0.285 OA
ATOM      5  C   UNL     1     -12.773  -2.376 -16.000  1.00  0.00     0.111 A 
ATOM      6  C   UNL     1     -12.554  -2.232 -14.597  1.00  0.00     0.134 A 
ATOM      7  C   UNL     1     -11.247  -2.264 -14.095  1.00  0.00     0.093 A 
ATOM      8  C   UNL     1     -10.157  -2.500 -14.938  1.00  0.00     0.123 A 
ATOM      9  C   UNL     1     -10.367  -2.701 -16.300  1.00  0.00     0.094 A 
ATOM     10  C   UNL     1     -11.655  -2.638 -16.835  1.00  0.00     0.146 A 
ATOM     11  O   UNL     1     -11.810  -2.825 -18.140  1.00  0.00    -0.452 OA
ENDROOT
BRANCH   1  12
ATOM     12  C   UNL     1     -13.024  -3.018 -20.214  1.00  0.00     0.025 A 
ATOM     13  C   UNL     1     -13.691  -4.136 -20.744  1.00  0.00     0.016 A 
ATOM     14  C   UNL     1     -13.694  -4.368 -22.122  1.00  0.00     0.051 A 
ATOM     15  C   UNL     1     -13.022  -3.496 -22.988  1.00  0.00     0.157 A 
ATOM     16  C   UNL     1     -12.334  -2.158 -21.084  1.00  0.00     0.062 A 
ATOM     17  C   UNL     1     -12.336  -2.388 -22.464  1.00  0.00     0.158 A 
BRANCH  15  18
ATOM     18  O   UNL     1     -13.030  -3.731 -24.362  1.00  0.00    -0.504 OA
ATOM     19  H   UNL     1     -12.559  -3.109 -25.009  1.00  0.00     0.293 HD
ENDBRANCH  15  18
BRANCH  17  20
ATOM     20  O   UNL     1     -11.652  -1.505 -23.299  1.00  0.00    -0.504 OA
ATOM     21  H   UNL     1     -11.702  -1.569 -24.309  1.00  0.00     0.293 HD
ENDBRANCH  17  20
ENDBRANCH   1  12
BRANCH   2  22
ATOM     22  O   UNL     1     -15.365  -2.283 -18.673  1.00  0.00    -0.502 OA
ATOM     23  H   UNL     1     -15.935  -1.452 -18.566  1.00  0.00     0.293 HD
ENDBRANCH   2  22
BRANCH   6  24
ATOM     24  O   UNL     1     -13.580  -2.085 -13.658  1.00  0.00    -0.507 OA
ATOM     25  H   UNL     1     -13.625  -1.354 -12.965  1.00  0.00     0.293 HD
ENDBRANCH   6  24
BRANCH   8  26
ATOM     26  O   UNL     1      -8.862  -2.545 -14.427  1.00  0.00    -0.508 OA
ATOM     27  H   UNL     1      -8.155  -1.879 -14.715  1.00  0.00     0.293 HD
ENDBRANCH   8  26
TORSDOF 6
ENDMDL
MODEL 9
REMARK VINA RESULT:    -6.131      4.242      5.744
REMARK INTER + INTRA:          -7.553
REMARK INTER:                  -7.303
REMARK INTRA:                  -0.250
REMARK UNBOUND:                -0.168
REMARK SMILES O=c1c(O)c(-c2ccc(O)c(O)c2)oc2cc(O)cc(O)c12
REMARK SMILES IDX 5 1 3 2 2 3 1 4 22 5 20 6 19 7 17 8 16 9 15 10 14 11 6 12
REMARK SMILES IDX 7 13 8 14 9 15 13 16 11 17 10 18 12 20 4 22 21 24 18 26
REMARK H PARENT 10 19 12 21 4 23 21 25 18 27
REMARK Flexibility Score: inf
ROOT
ATOM      1  C   UNL     1     -15.310  -0.399 -20.989  1.00  0.00     0.180 A 
ATOM      2  C   UNL     1     -15.043  -1.481 -20.132  1.00  0.00     0.208 A 
ATOM      3  C   UNL     1     -14.365  -2.601 -20.639  1.00  0.00     0.238 A 
ATOM      4  O   UNL     1     -14.081  -3.543 -19.854  1.00  0.00    -0.285 OA
ATOM      5  C   UNL     1     -13.978  -2.634 -22.000  1.00  0.00     0.111 A 
ATOM      6  C   UNL     1     -13.322  -3.733 -22.631  1.00  0.00     0.134 A 
ATOM      7  C   UNL     1     -12.869  -3.603 -23.949  1.00  0.00     0.093 A 
ATOM      8  C   UNL     1     -13.106  -2.436 -24.681  1.00  0.00     0.123 A 
ATOM      9  C   UNL     1     -13.798  -1.380 -24.093  1.00  0.00     0.094 A 
ATOM     10  C   UNL     1     -14.230  -1.466 -22.768  1.00  0.00     0.146 A 
ATOM     11  O   UNL     1     -14.877  -0.432 -22.243  1.00  0.00    -0.452 OA
ENDROOT
BRANCH   1  12
ATOM     12  C   UNL     1     -16.042   0.805 -20.534  1.00  0.00     0.025 A 
ATOM     13  C   UNL     1     -15.435   1.756 -19.694  1.00  0.00     0.016 A 
ATOM     14  C   UNL     1     -16.153   2.873 -19.257  1.00  0.00     0.051 A 
ATOM     15  C   UNL     1     -17.488   3.050 -19.641  1.00  0.00     0.157 A 
ATOM     16  C   UNL     1     -17.387   0.976 -20.898  1.00  0.00     0.062 A 
ATOM     17  C   UNL     1     -18.108   2.094 -20.463  1.00  0.00     0.158 A 
BRANCH  15  18
ATOM     18  O   UNL     1     -18.200   4.166 -19.205  1.00  0.00    -0.504 OA
ATOM     19  H   UNL     1     -17.731   5.020 -18.930  1.00  0.00     0.293 HD
ENDBRANCH  15  18
BRANCH  17  20
ATOM     20  O   UNL     1     -19.438   2.237 -20.857  1.00  0.00    -0.504 OA
ATOM     21  H   UNL     1     -20.193   2.318 -20.185  1.00  0.00     0.293 HD
ENDBRANCH  17  20
ENDBRANCH   1  12
BRANCH   2  22
ATOM     22  O   UNL     1     -15.415  -1.419 -18.785  1.00  0.00    -0.502 OA
ATOM     23  H   UNL     1     -14.787  -1.087 -18.063  1.00  0.00     0.293 HD
ENDBRANCH   2  22
BRANCH   6  24
ATOM     24  O   UNL     1     -13.119  -4.974 -22.020  1.00  0.00    -0.507 OA
ATOM     25  H   UNL     1     -13.782  -5.733 -22.025  1.00  0.00     0.293 HD
ENDBRANCH   6  24
BRANCH   8  26
ATOM     26  O   UNL     1     -12.665  -2.322 -25.997  1.00  0.00    -0.508 OA
ATOM     27  H   UNL     1     -11.680  -2.359 -26.232  1.00  0.00     0.293 HD
ENDBRANCH   8  26
TORSDOF 6
ENDMDL
