MODEL 1
REMARK VINA RESULT:    -7.589      0.000      0.000
REMARK INTER + INTRA:          -9.368
REMARK INTER:                  -9.142
REMARK INTRA:                  -0.226
REMARK UNBOUND:                -0.226
REMARK SMILES O=c1c(O)c(-c2ccc(O)c(O)c2)oc2cc(O)cc(O)c12
REMARK SMILES IDX 5 1 3 2 2 3 1 4 22 5 20 6 19 7 17 8 16 9 15 10 14 11 6 12
REMARK SMILES IDX 7 13 8 14 9 15 13 16 11 17 10 18 12 20 4 22 21 24 18 26
REMARK H PARENT 10 19 12 21 4 23 21 25 18 27
REMARK Flexibility Score: inf
ROOT
ATOM      1  C   UNL     1     165.372 153.334 150.608  1.00  0.00     0.180 A 
ATOM      2  C   UNL     1     165.868 153.225 149.298  1.00  0.00     0.208 A 
ATOM      3  C   UNL     1     165.560 152.079 148.546  1.00  0.00     0.238 A 
ATOM      4  O   UNL     1     166.052 151.962 147.394  1.00  0.00    -0.285 OA
ATOM      5  C   UNL     1     164.747 151.065 149.109  1.00  0.00     0.111 A 
ATOM      6  C   UNL     1     164.339 149.881 148.424  1.00  0.00     0.134 A 
ATOM      7  C   UNL     1     163.643 148.886 149.121  1.00  0.00     0.093 A 
ATOM      8  C   UNL     1     163.285 149.060 150.459  1.00  0.00     0.123 A 
ATOM      9  C   UNL     1     163.628 150.238 151.120  1.00  0.00     0.094 A 
ATOM     10  C   UNL     1     164.353 151.234 150.461  1.00  0.00     0.146 A 
ATOM     11  O   UNL     1     164.668 152.337 151.130  1.00  0.00    -0.452 OA
ENDROOT
BRANCH   1  12
ATOM     12  C   UNL     1     165.633 154.522 151.453  1.00  0.00     0.025 A 
ATOM     13  C   UNL     1     166.406 154.386 152.617  1.00  0.00     0.016 A 
ATOM     14  C   UNL     1     166.647 155.489 153.440  1.00  0.00     0.051 A 
ATOM     15  C   UNL     1     166.106 156.740 153.119  1.00  0.00     0.157 A 
ATOM     16  C   UNL     1     165.075 155.776 151.146  1.00  0.00     0.062 A 
ATOM     17  C   UNL     1     165.315 156.884 151.972  1.00  0.00     0.158 A 
BRANCH  15  18
ATOM     18  O   UNL     1     166.345 157.844 153.935  1.00  0.00    -0.504 OA
ATOM     19  H   UNL     1     165.594 158.462 154.223  1.00  0.00     0.293 HD
ENDBRANCH  15  18
BRANCH  17  20
ATOM     20  O   UNL     1     164.766 158.127 151.662  1.00  0.00    -0.504 OA
ATOM     21  H   UNL     1     165.349 158.944 151.521  1.00  0.00     0.293 HD
ENDBRANCH  17  20
ENDBRANCH   1  12
BRANCH   2  22
ATOM     22  O   UNL     1     166.687 154.227 148.771  1.00  0.00    -0.502 OA
ATOM     23  H   UNL     1     166.577 154.578 147.826  1.00  0.00     0.293 HD
ENDBRANCH   2  22
BRANCH   6  24
ATOM     24  O   UNL     1     164.566 149.649 147.064  1.00  0.00    -0.507 OA
ATOM     25  H   UNL     1     163.941 149.143 146.455  1.00  0.00     0.293 HD
ENDBRANCH   6  24
BRANCH   8  26
ATOM     26  O   UNL     1     162.579 148.071 151.141  1.00  0.00    -0.508 OA
ATOM     27  H   UNL     1     161.765 148.293 151.704  1.00  0.00     0.293 HD
ENDBRANCH   8  26
TORSDOF 6
ENDMDL
MODEL 2
REMARK VINA RESULT:    -7.513      1.206      2.853
REMARK INTER + INTRA:          -9.275
REMARK INTER:                  -9.020
REMARK INTRA:                  -0.256
REMARK UNBOUND:                -0.226
REMARK SMILES O=c1c(O)c(-c2ccc(O)c(O)c2)oc2cc(O)cc(O)c12
REMARK SMILES IDX 5 1 3 2 2 3 1 4 22 5 20 6 19 7 17 8 16 9 15 10 14 11 6 12
REMARK SMILES IDX 7 13 8 14 9 15 13 16 11 17 10 18 12 20 4 22 21 24 18 26
REMARK H PARENT 10 19 12 21 4 23 21 25 18 27
REMARK Flexibility Score: inf
ROOT
ATOM      1  C   UNL     1     164.918 153.352 151.285  1.00  0.00     0.180 A 
ATOM      2  C   UNL     1     164.037 152.461 151.922  1.00  0.00     0.208 A 
ATOM      3  C   UNL     1     163.708 151.255 151.283  1.00  0.00     0.238 A 
ATOM      4  O   UNL     1     162.876 150.487 151.832  1.00  0.00    -0.285 OA
ATOM      5  C   UNL     1     164.276 150.947 150.023  1.00  0.00     0.111 A 
ATOM      6  C   UNL     1     164.044 149.736 149.304  1.00  0.00     0.134 A 
ATOM      7  C   UNL     1     164.555 149.595 148.007  1.00  0.00     0.093 A 
ATOM      8  C   UNL     1     165.343 150.593 147.430  1.00  0.00     0.123 A 
ATOM      9  C   UNL     1     165.623 151.754 148.148  1.00  0.00     0.094 A 
ATOM     10  C   UNL     1     165.098 151.939 149.429  1.00  0.00     0.146 A 
ATOM     11  O   UNL     1     165.382 153.065 150.075  1.00  0.00    -0.452 OA
ENDROOT
BRANCH   1  12
ATOM     12  C   UNL     1     165.331 154.631 151.906  1.00  0.00     0.025 A 
ATOM     13  C   UNL     1     166.235 154.617 152.980  1.00  0.00     0.016 A 
ATOM     14  C   UNL     1     166.623 155.811 153.594  1.00  0.00     0.051 A 
ATOM     15  C   UNL     1     166.100 157.033 153.154  1.00  0.00     0.157 A 
ATOM     16  C   UNL     1     164.793 155.859 151.481  1.00  0.00     0.062 A 
ATOM     17  C   UNL     1     165.180 157.058 152.098  1.00  0.00     0.158 A 
BRANCH  15  18
ATOM     18  O   UNL     1     166.485 158.227 153.762  1.00  0.00    -0.504 OA
ATOM     19  H   UNL     1     167.071 158.234 154.589  1.00  0.00     0.293 HD
ENDBRANCH  15  18
BRANCH  17  20
ATOM     20  O   UNL     1     164.650 158.274 151.671  1.00  0.00    -0.504 OA
ATOM     21  H   UNL     1     164.501 159.043 152.314  1.00  0.00     0.293 HD
ENDBRANCH  17  20
ENDBRANCH   1  12
BRANCH   2  22
ATOM     22  O   UNL     1     163.470 152.795 153.155  1.00  0.00    -0.502 OA
ATOM     23  H   UNL     1     163.285 152.104 153.873  1.00  0.00     0.293 HD
ENDBRANCH   2  22
BRANCH   6  24
ATOM     24  O   UNL     1     163.348 148.640 149.823  1.00  0.00    -0.507 OA
ATOM     25  H   UNL     1     162.343 148.563 149.859  1.00  0.00     0.293 HD
ENDBRANCH   6  24
BRANCH   8  26
ATOM     26  O   UNL     1     165.860 150.438 146.146  1.00  0.00    -0.508 OA
ATOM     27  H   UNL     1     165.620 151.077 145.396  1.00  0.00     0.293 HD
ENDBRANCH   8  26
TORSDOF 6
ENDMDL
MODEL 3
REMARK VINA RESULT:    -7.443      5.484      8.753
REMARK INTER + INTRA:          -9.191
REMARK INTER:                  -9.380
REMARK INTRA:                   0.188
REMARK UNBOUND:                -0.226
REMARK SMILES O=c1c(O)c(-c2ccc(O)c(O)c2)oc2cc(O)cc(O)c12
REMARK SMILES IDX 5 1 3 2 2 3 1 4 22 5 20 6 19 7 17 8 16 9 15 10 14 11 6 12
REMARK SMILES IDX 7 13 8 14 9 15 13 16 11 17 10 18 12 20 4 22 21 24 18 26
REMARK H PARENT 10 19 12 21 4 23 21 25 18 27
REMARK Flexibility Score: inf
ROOT
ATOM      1  C   UNL     1     169.396 149.310 147.065  1.00  0.00     0.180 A 
ATOM      2  C   UNL     1     170.077 150.527 147.237  1.00  0.00     0.208 A 
ATOM      3  C   UNL     1     169.344 151.725 147.226  1.00  0.00     0.238 A 
ATOM      4  O   UNL     1     169.965 152.815 147.325  1.00  0.00    -0.285 OA
ATOM      5  C   UNL     1     167.938 151.690 147.059  1.00  0.00     0.111 A 
ATOM      6  C   UNL     1     167.092 152.839 147.072  1.00  0.00     0.134 A 
ATOM      7  C   UNL     1     165.732 152.698 146.767  1.00  0.00     0.093 A 
ATOM      8  C   UNL     1     165.177 151.442 146.515  1.00  0.00     0.123 A 
ATOM      9  C   UNL     1     165.984 150.307 146.558  1.00  0.00     0.094 A 
ATOM     10  C   UNL     1     167.351 150.420 146.824  1.00  0.00     0.146 A 
ATOM     11  O   UNL     1     168.086 149.314 146.846  1.00  0.00    -0.452 OA
ENDROOT
BRANCH   1  12
ATOM     12  C   UNL     1     170.095 148.006 147.090  1.00  0.00     0.025 A 
ATOM     13  C   UNL     1     169.498 146.913 147.739  1.00  0.00     0.016 A 
ATOM     14  C   UNL     1     170.149 145.678 147.792  1.00  0.00     0.051 A 
ATOM     15  C   UNL     1     171.415 145.522 147.212  1.00  0.00     0.157 A 
ATOM     16  C   UNL     1     171.375 147.850 146.527  1.00  0.00     0.062 A 
ATOM     17  C   UNL     1     172.031 146.611 146.582  1.00  0.00     0.158 A 
BRANCH  15  18
ATOM     18  O   UNL     1     172.068 144.293 147.261  1.00  0.00    -0.504 OA
ATOM     19  H   UNL     1     172.564 143.989 148.092  1.00  0.00     0.293 HD
ENDBRANCH  15  18
BRANCH  17  20
ATOM     20  O   UNL     1     173.296 146.458 146.017  1.00  0.00    -0.504 OA
ATOM     21  H   UNL     1     173.629 147.074 145.285  1.00  0.00     0.293 HD
ENDBRANCH  17  20
ENDBRANCH   1  12
BRANCH   2  22
ATOM     22  O   UNL     1     171.467 150.541 147.377  1.00  0.00    -0.502 OA
ATOM     23  H   UNL     1     172.010 151.396 147.332  1.00  0.00     0.293 HD
ENDBRANCH   2  22
BRANCH   6  24
ATOM     24  O   UNL     1     167.528 154.126 147.402  1.00  0.00    -0.507 OA
ATOM     25  H   UNL     1     166.950 154.952 147.377  1.00  0.00     0.293 HD
ENDBRANCH   6  24
BRANCH   8  26
ATOM     26  O   UNL     1     163.819 151.309 146.228  1.00  0.00    -0.508 OA
ATOM     27  H   UNL     1     163.481 150.611 145.575  1.00  0.00     0.293 HD
ENDBRANCH   8  26
TORSDOF 6
ENDMDL
MODEL 4
REMARK VINA RESULT:    -7.426      4.581      7.077
REMARK INTER + INTRA:          -9.171
REMARK INTER:                  -8.951
REMARK INTRA:                  -0.220
REMARK UNBOUND:                -0.226
REMARK SMILES O=c1c(O)c(-c2ccc(O)c(O)c2)oc2cc(O)cc(O)c12
REMARK SMILES IDX 5 1 3 2 2 3 1 4 22 5 20 6 19 7 17 8 16 9 15 10 14 11 6 12
REMARK SMILES IDX 7 13 8 14 9 15 13 16 11 17 10 18 12 20 4 22 21 24 18 26
REMARK H PARENT 10 19 12 21 4 23 21 25 18 27
REMARK Flexibility Score: inf
ROOT
ATOM      1  C   UNL     1     167.751 151.228 147.192  1.00  0.00     0.180 A 
ATOM      2  C   UNL     1     168.618 152.330 147.287  1.00  0.00     0.208 A 
ATOM      3  C   UNL     1     170.003 152.105 147.330  1.00  0.00     0.238 A 
ATOM      4  O   UNL     1     170.772 153.092 147.470  1.00  0.00    -0.285 OA
ATOM      5  C   UNL     1     170.505 150.783 147.262  1.00  0.00     0.111 A 
ATOM      6  C   UNL     1     171.891 150.441 147.257  1.00  0.00     0.134 A 
ATOM      7  C   UNL     1     172.269 149.094 147.319  1.00  0.00     0.093 A 
ATOM      8  C   UNL     1     171.314 148.076 147.319  1.00  0.00     0.123 A 
ATOM      9  C   UNL     1     169.960 148.398 147.264  1.00  0.00     0.094 A 
ATOM     10  C   UNL     1     169.550 149.733 147.238  1.00  0.00     0.146 A 
ATOM     11  O   UNL     1     168.249 149.997 147.197  1.00  0.00    -0.452 OA
ENDROOT
BRANCH   1  12
ATOM     12  C   UNL     1     166.281 151.386 147.117  1.00  0.00     0.025 A 
ATOM     13  C   UNL     1     165.703 151.932 145.959  1.00  0.00     0.016 A 
ATOM     14  C   UNL     1     164.319 152.108 145.875  1.00  0.00     0.051 A 
ATOM     15  C   UNL     1     163.495 151.758 146.952  1.00  0.00     0.157 A 
ATOM     16  C   UNL     1     165.452 151.055 148.204  1.00  0.00     0.062 A 
ATOM     17  C   UNL     1     164.063 151.234 148.121  1.00  0.00     0.158 A 
BRANCH  15  18
ATOM     18  O   UNL     1     162.115 151.931 146.873  1.00  0.00    -0.504 OA
ATOM     19  H   UNL     1     161.622 152.547 147.509  1.00  0.00     0.293 HD
ENDBRANCH  15  18
BRANCH  17  20
ATOM     20  O   UNL     1     163.243 150.899 149.197  1.00  0.00    -0.504 OA
ATOM     21  H   UNL     1     163.278 151.411 150.071  1.00  0.00     0.293 HD
ENDBRANCH  17  20
ENDBRANCH   1  12
BRANCH   2  22
ATOM     22  O   UNL     1     168.101 153.625 147.375  1.00  0.00    -0.502 OA
ATOM     23  H   UNL     1     167.856 154.170 146.556  1.00  0.00     0.293 HD
ENDBRANCH   2  22
BRANCH   6  24
ATOM     24  O   UNL     1     172.925 151.377 147.166  1.00  0.00    -0.507 OA
ATOM     25  H   UNL     1     172.795 152.377 147.147  1.00  0.00     0.293 HD
ENDBRANCH   6  24
BRANCH   8  26
ATOM     26  O   UNL     1     171.700 146.738 147.364  1.00  0.00    -0.508 OA
ATOM     27  H   UNL     1     171.101 146.001 147.010  1.00  0.00     0.293 HD
ENDBRANCH   8  26
TORSDOF 6
ENDMDL
MODEL 5
REMARK VINA RESULT:    -7.235      8.337      9.902
REMARK INTER + INTRA:          -8.941
REMARK INTER:                  -8.624
REMARK INTRA:                  -0.317
REMARK UNBOUND:                -0.226
REMARK SMILES O=c1c(O)c(-c2ccc(O)c(O)c2)oc2cc(O)cc(O)c12
REMARK SMILES IDX 5 1 3 2 2 3 1 4 22 5 20 6 19 7 17 8 16 9 15 10 14 11 6 12
REMARK SMILES IDX 7 13 8 14 9 15 13 16 11 17 10 18 12 20 4 22 21 24 18 26
REMARK H PARENT 10 19 12 21 4 23 21 25 18 27
REMARK Flexibility Score: inf
ROOT
ATOM      1  C   UNL     1     168.636 145.083 154.217  1.00  0.00     0.180 A 
ATOM      2  C   UNL     1     168.511 143.717 154.524  1.00  0.00     0.208 A 
ATOM      3  C   UNL     1     168.411 142.790 153.474  1.00  0.00     0.238 A 
ATOM      4  O   UNL     1     168.244 141.575 153.755  1.00  0.00    -0.285 OA
ATOM      5  C   UNL     1     168.453 143.238 152.132  1.00  0.00     0.111 A 
ATOM      6  C   UNL     1     168.401 142.382 150.990  1.00  0.00     0.134 A 
ATOM      7  C   UNL     1     168.319 142.944 149.710  1.00  0.00     0.093 A 
ATOM      8  C   UNL     1     168.354 144.328 149.527  1.00  0.00     0.123 A 
ATOM      9  C   UNL     1     168.464 145.170 150.632  1.00  0.00     0.094 A 
ATOM     10  C   UNL     1     168.511 144.640 151.924  1.00  0.00     0.146 A 
ATOM     11  O   UNL     1     168.607 145.478 152.950  1.00  0.00    -0.452 OA
ENDROOT
BRANCH   1  12
ATOM     12  C   UNL     1     168.771 146.117 155.268  1.00  0.00     0.025 A 
ATOM     13  C   UNL     1     167.654 146.888 155.626  1.00  0.00     0.016 A 
ATOM     14  C   UNL     1     167.764 147.884 156.601  1.00  0.00     0.051 A 
ATOM     15  C   UNL     1     168.996 148.134 157.219  1.00  0.00     0.157 A 
ATOM     16  C   UNL     1     170.011 146.386 155.876  1.00  0.00     0.062 A 
ATOM     17  C   UNL     1     170.123 147.386 156.853  1.00  0.00     0.158 A 
BRANCH  15  18
ATOM     18  O   UNL     1     169.111 149.124 158.192  1.00  0.00    -0.504 OA
ATOM     19  H   UNL     1     168.306 149.446 158.717  1.00  0.00     0.293 HD
ENDBRANCH  15  18
BRANCH  17  20
ATOM     20  O   UNL     1     171.351 147.646 157.459  1.00  0.00    -0.504 OA
ATOM     21  H   UNL     1     172.101 148.110 156.960  1.00  0.00     0.293 HD
ENDBRANCH  17  20
ENDBRANCH   1  12
BRANCH   2  22
ATOM     22  O   UNL     1     168.448 143.299 155.856  1.00  0.00    -0.502 OA
ATOM     23  H   UNL     1     167.800 143.702 156.523  1.00  0.00     0.293 HD
ENDBRANCH   2  22
BRANCH   6  24
ATOM     24  O   UNL     1     168.454 140.987 151.058  1.00  0.00    -0.507 OA
ATOM     25  H   UNL     1     169.290 140.451 151.234  1.00  0.00     0.293 HD
ENDBRANCH   6  24
BRANCH   8  26
ATOM     26  O   UNL     1     168.288 144.878 148.248  1.00  0.00    -0.508 OA
ATOM     27  H   UNL     1     169.022 145.480 147.892  1.00  0.00     0.293 HD
ENDBRANCH   8  26
TORSDOF 6
ENDMDL
MODEL 6
REMARK VINA RESULT:    -7.190      1.474      2.155
REMARK INTER + INTRA:          -8.887
REMARK INTER:                  -8.564
REMARK INTRA:                  -0.322
REMARK UNBOUND:                -0.226
REMARK SMILES O=c1c(O)c(-c2ccc(O)c(O)c2)oc2cc(O)cc(O)c12
REMARK SMILES IDX 5 1 3 2 2 3 1 4 22 5 20 6 19 7 17 8 16 9 15 10 14 11 6 12
REMARK SMILES IDX 7 13 8 14 9 15 13 16 11 17 10 18 12 20 4 22 21 24 18 26
REMARK H PARENT 10 19 12 21 4 23 21 25 18 27
REMARK Flexibility Score: inf
ROOT
ATOM      1  C   UNL     1     165.065 151.853 150.173  1.00  0.00     0.180 A 
ATOM      2  C   UNL     1     165.764 151.729 148.960  1.00  0.00     0.208 A 
ATOM      3  C   UNL     1     165.568 150.581 148.176  1.00  0.00     0.238 A 
ATOM      4  O   UNL     1     166.237 150.449 147.119  1.00  0.00    -0.285 OA
ATOM      5  C   UNL     1     164.662 149.580 148.605  1.00  0.00     0.111 A 
ATOM      6  C   UNL     1     164.355 148.396 147.870  1.00  0.00     0.134 A 
ATOM      7  C   UNL     1     163.544 147.413 148.452  1.00  0.00     0.093 A 
ATOM      8  C   UNL     1     162.977 147.602 149.714  1.00  0.00     0.123 A 
ATOM      9  C   UNL     1     163.223 148.781 150.414  1.00  0.00     0.094 A 
ATOM     10  C   UNL     1     164.057 149.764 149.876  1.00  0.00     0.146 A 
ATOM     11  O   UNL     1     164.273 150.869 150.580  1.00  0.00    -0.452 OA
ENDROOT
BRANCH   1  12
ATOM     12  C   UNL     1     165.201 153.045 151.042  1.00  0.00     0.025 A 
ATOM     13  C   UNL     1     164.348 154.143 150.847  1.00  0.00     0.016 A 
ATOM     14  C   UNL     1     164.472 155.285 151.643  1.00  0.00     0.051 A 
ATOM     15  C   UNL     1     165.461 155.352 152.632  1.00  0.00     0.157 A 
ATOM     16  C   UNL     1     166.206 153.124 152.024  1.00  0.00     0.062 A 
ATOM     17  C   UNL     1     166.332 154.271 152.821  1.00  0.00     0.158 A 
BRANCH  15  18
ATOM     18  O   UNL     1     165.588 156.488 153.429  1.00  0.00    -0.504 OA
ATOM     19  H   UNL     1     166.196 156.500 154.241  1.00  0.00     0.293 HD
ENDBRANCH  15  18
BRANCH  17  20
ATOM     20  O   UNL     1     167.324 154.345 153.797  1.00  0.00    -0.504 OA
ATOM     21  H   UNL     1     168.216 153.877 153.684  1.00  0.00     0.293 HD
ENDBRANCH  17  20
ENDBRANCH   1  12
BRANCH   2  22
ATOM     22  O   UNL     1     166.670 152.717 148.566  1.00  0.00    -0.502 OA
ATOM     23  H   UNL     1     167.387 153.076 149.186  1.00  0.00     0.293 HD
ENDBRANCH   2  22
BRANCH   6  24
ATOM     24  O   UNL     1     164.796 148.150 146.566  1.00  0.00    -0.507 OA
ATOM     25  H   UNL     1     165.396 147.385 146.297  1.00  0.00     0.293 HD
ENDBRANCH   6  24
BRANCH   8  26
ATOM     26  O   UNL     1     162.158 146.626 150.279  1.00  0.00    -0.508 OA
ATOM     27  H   UNL     1     161.148 146.712 150.272  1.00  0.00     0.293 HD
ENDBRANCH   8  26
TORSDOF 6
ENDMDL
MODEL 7
REMARK VINA RESULT:    -7.167      9.000     11.917
REMARK INTER + INTRA:          -8.859
REMARK INTER:                  -8.543
REMARK INTRA:                  -0.316
REMARK UNBOUND:                -0.226
REMARK SMILES O=c1c(O)c(-c2ccc(O)c(O)c2)oc2cc(O)cc(O)c12
REMARK SMILES IDX 5 1 3 2 2 3 1 4 22 5 20 6 19 7 17 8 16 9 15 10 14 11 6 12
REMARK SMILES IDX 7 13 8 14 9 15 13 16 11 17 10 18 12 20 4 22 21 24 18 26
REMARK H PARENT 10 19 12 21 4 23 21 25 18 27
REMARK Flexibility Score: inf
ROOT
ATOM      1  C   UNL     1     168.973 145.442 154.695  1.00  0.00     0.180 A 
ATOM      2  C   UNL     1     167.959 146.190 155.317  1.00  0.00     0.208 A 
ATOM      3  C   UNL     1     168.289 147.007 156.410  1.00  0.00     0.238 A 
ATOM      4  O   UNL     1     167.368 147.632 156.998  1.00  0.00    -0.285 OA
ATOM      5  C   UNL     1     169.631 147.079 156.857  1.00  0.00     0.111 A 
ATOM      6  C   UNL     1     170.085 147.905 157.929  1.00  0.00     0.134 A 
ATOM      7  C   UNL     1     171.410 147.797 158.369  1.00  0.00     0.093 A 
ATOM      8  C   UNL     1     172.313 146.943 157.735  1.00  0.00     0.123 A 
ATOM      9  C   UNL     1     171.894 146.176 156.649  1.00  0.00     0.094 A 
ATOM     10  C   UNL     1     170.570 146.235 156.210  1.00  0.00     0.146 A 
ATOM     11  O   UNL     1     170.209 145.480 155.178  1.00  0.00    -0.452 OA
ENDROOT
BRANCH   1  12
ATOM     12  C   UNL     1     168.708 144.578 153.522  1.00  0.00     0.025 A 
ATOM     13  C   UNL     1     168.865 145.100 152.229  1.00  0.00     0.016 A 
ATOM     14  C   UNL     1     168.601 144.308 151.109  1.00  0.00     0.051 A 
ATOM     15  C   UNL     1     168.160 142.988 151.265  1.00  0.00     0.157 A 
ATOM     16  C   UNL     1     168.246 143.257 153.675  1.00  0.00     0.062 A 
ATOM     17  C   UNL     1     167.979 142.462 152.551  1.00  0.00     0.158 A 
BRANCH  15  18
ATOM     18  O   UNL     1     167.896 142.193 150.152  1.00  0.00    -0.504 OA
ATOM     19  H   UNL     1     167.274 142.505 149.414  1.00  0.00     0.293 HD
ENDBRANCH  15  18
BRANCH  17  20
ATOM     20  O   UNL     1     167.527 141.153 152.705  1.00  0.00    -0.504 OA
ATOM     21  H   UNL     1     167.078 140.653 151.946  1.00  0.00     0.293 HD
ENDBRANCH  17  20
ENDBRANCH   1  12
BRANCH   2  22
ATOM     22  O   UNL     1     166.638 146.087 154.874  1.00  0.00    -0.502 OA
ATOM     23  H   UNL     1     166.025 145.333 155.162  1.00  0.00     0.293 HD
ENDBRANCH   2  22
BRANCH   6  24
ATOM     24  O   UNL     1     169.288 148.858 158.572  1.00  0.00    -0.507 OA
ATOM     25  H   UNL     1     168.305 148.998 158.395  1.00  0.00     0.293 HD
ENDBRANCH   6  24
BRANCH   8  26
ATOM     26  O   UNL     1     173.634 146.854 158.169  1.00  0.00    -0.508 OA
ATOM     27  H   UNL     1     174.203 147.681 158.310  1.00  0.00     0.293 HD
ENDBRANCH   8  26
TORSDOF 6
ENDMDL
MODEL 8
REMARK VINA RESULT:    -7.095      3.106      4.626
REMARK INTER + INTRA:          -8.773
REMARK INTER:                  -8.522
REMARK INTRA:                  -0.251
REMARK UNBOUND:                -0.226
REMARK SMILES O=c1c(O)c(-c2ccc(O)c(O)c2)oc2cc(O)cc(O)c12
REMARK SMILES IDX 5 1 3 2 2 3 1 4 22 5 20 6 19 7 17 8 16 9 15 10 14 11 6 12
REMARK SMILES IDX 7 13 8 14 9 15 13 16 11 17 10 18 12 20 4 22 21 24 18 26
REMARK H PARENT 10 19 12 21 4 23 21 25 18 27
REMARK Flexibility Score: inf
ROOT
ATOM      1  C   UNL     1     167.176 152.997 149.479  1.00  0.00     0.180 A 
ATOM      2  C   UNL     1     166.258 152.284 148.689  1.00  0.00     0.208 A 
ATOM      3  C   UNL     1     166.743 151.380 147.730  1.00  0.00     0.238 A 
ATOM      4  O   UNL     1     165.918 150.785 146.988  1.00  0.00    -0.285 OA
ATOM      5  C   UNL     1     168.138 151.188 147.584  1.00  0.00     0.111 A 
ATOM      6  C   UNL     1     168.738 150.268 146.673  1.00  0.00     0.134 A 
ATOM      7  C   UNL     1     170.131 150.257 146.521  1.00  0.00     0.093 A 
ATOM      8  C   UNL     1     170.947 151.085 147.295  1.00  0.00     0.123 A 
ATOM      9  C   UNL     1     170.373 151.944 148.230  1.00  0.00     0.094 A 
ATOM     10  C   UNL     1     168.985 152.004 148.378  1.00  0.00     0.146 A 
ATOM     11  O   UNL     1     168.478 152.844 149.273  1.00  0.00    -0.452 OA
ENDROOT
BRANCH   1  12
ATOM     12  C   UNL     1     166.741 153.948 150.527  1.00  0.00     0.025 A 
ATOM     13  C   UNL     1     166.256 155.212 150.155  1.00  0.00     0.016 A 
ATOM     14  C   UNL     1     165.860 156.133 151.129  1.00  0.00     0.051 A 
ATOM     15  C   UNL     1     165.959 155.810 152.488  1.00  0.00     0.157 A 
ATOM     16  C   UNL     1     166.858 153.636 151.894  1.00  0.00     0.062 A 
ATOM     17  C   UNL     1     166.463 154.560 152.872  1.00  0.00     0.158 A 
BRANCH  15  18
ATOM     18  O   UNL     1     165.564 156.724 153.463  1.00  0.00    -0.504 OA
ATOM     19  H   UNL     1     164.723 157.281 153.356  1.00  0.00     0.293 HD
ENDBRANCH  15  18
BRANCH  17  20
ATOM     20  O   UNL     1     166.573 154.246 154.225  1.00  0.00    -0.504 OA
ATOM     21  H   UNL     1     166.242 153.362 154.593  1.00  0.00     0.293 HD
ENDBRANCH  17  20
ENDBRANCH   1  12
BRANCH   2  22
ATOM     22  O   UNL     1     164.886 152.505 148.834  1.00  0.00    -0.502 OA
ATOM     23  H   UNL     1     164.503 153.081 149.575  1.00  0.00     0.293 HD
ENDBRANCH   2  22
BRANCH   6  24
ATOM     24  O   UNL     1     168.020 149.335 145.919  1.00  0.00    -0.507 OA
ATOM     25  H   UNL     1     167.595 148.500 146.292  1.00  0.00     0.293 HD
ENDBRANCH   6  24
BRANCH   8  26
ATOM     26  O   UNL     1     172.332 151.055 147.149  1.00  0.00    -0.508 OA
ATOM     27  H   UNL     1     172.857 151.886 146.901  1.00  0.00     0.293 HD
ENDBRANCH   8  26
TORSDOF 6
ENDMDL
MODEL 9
REMARK VINA RESULT:    -7.025      2.704      3.641
REMARK INTER + INTRA:          -8.688
REMARK INTER:                  -8.419
REMARK INTRA:                  -0.269
REMARK UNBOUND:                -0.226
REMARK SMILES O=c1c(O)c(-c2ccc(O)c(O)c2)oc2cc(O)cc(O)c12
REMARK SMILES IDX 5 1 3 2 2 3 1 4 22 5 20 6 19 7 17 8 16 9 15 10 14 11 6 12
REMARK SMILES IDX 7 13 8 14 9 15 13 16 11 17 10 18 12 20 4 22 21 24 18 26
REMARK H PARENT 10 19 12 21 4 23 21 25 18 27
REMARK Flexibility Score: inf
ROOT
ATOM      1  C   UNL     1     165.934 152.399 149.983  1.00  0.00     0.180 A 
ATOM      2  C   UNL     1     167.194 152.876 149.584  1.00  0.00     0.208 A 
ATOM      3  C   UNL     1     167.815 152.304 148.461  1.00  0.00     0.238 A 
ATOM      4  O   UNL     1     168.967 152.698 148.141  1.00  0.00    -0.285 OA
ATOM      5  C   UNL     1     167.160 151.275 147.742  1.00  0.00     0.111 A 
ATOM      6  C   UNL     1     167.678 150.653 146.566  1.00  0.00     0.134 A 
ATOM      7  C   UNL     1     167.006 149.556 146.013  1.00  0.00     0.093 A 
ATOM      8  C   UNL     1     165.802 149.101 146.554  1.00  0.00     0.123 A 
ATOM      9  C   UNL     1     165.258 149.740 147.667  1.00  0.00     0.094 A 
ATOM     10  C   UNL     1     165.924 150.814 148.262  1.00  0.00     0.146 A 
ATOM     11  O   UNL     1     165.376 151.388 149.327  1.00  0.00    -0.452 OA
ENDROOT
BRANCH   1  12
ATOM     12  C   UNL     1     165.206 152.967 151.140  1.00  0.00     0.025 A 
ATOM     13  C   UNL     1     164.159 153.876 150.920  1.00  0.00     0.016 A 
ATOM     14  C   UNL     1     163.473 154.440 151.998  1.00  0.00     0.051 A 
ATOM     15  C   UNL     1     163.834 154.116 153.312  1.00  0.00     0.157 A 
ATOM     16  C   UNL     1     165.579 152.660 152.462  1.00  0.00     0.062 A 
ATOM     17  C   UNL     1     164.892 153.228 153.545  1.00  0.00     0.158 A 
BRANCH  15  18
ATOM     18  O   UNL     1     163.151 154.675 154.391  1.00  0.00    -0.504 OA
ATOM     19  H   UNL     1     162.501 154.129 154.945  1.00  0.00     0.293 HD
ENDBRANCH  15  18
BRANCH  17  20
ATOM     20  O   UNL     1     165.258 152.918 154.853  1.00  0.00    -0.504 OA
ATOM     21  H   UNL     1     166.071 153.336 155.290  1.00  0.00     0.293 HD
ENDBRANCH  17  20
ENDBRANCH   1  12
BRANCH   2  22
ATOM     22  O   UNL     1     167.832 153.877 150.321  1.00  0.00    -0.502 OA
ATOM     23  H   UNL     1     167.642 154.033 151.304  1.00  0.00     0.293 HD
ENDBRANCH   2  22
BRANCH   6  24
ATOM     24  O   UNL     1     168.825 151.087 145.894  1.00  0.00    -0.507 OA
ATOM     25  H   UNL     1     168.885 151.234 144.898  1.00  0.00     0.293 HD
ENDBRANCH   6  24
BRANCH   8  26
ATOM     26  O   UNL     1     165.131 148.018 145.988  1.00  0.00    -0.508 OA
ATOM     27  H   UNL     1     164.122 147.936 146.036  1.00  0.00     0.293 HD
ENDBRANCH   8  26
TORSDOF 6
ENDMDL
