MODEL 1
REMARK VINA RESULT:    -7.530      0.000      0.000
REMARK INTER + INTRA:          -9.031
REMARK INTER:                  -8.851
REMARK INTRA:                  -0.181
REMARK UNBOUND:                -0.181
REMARK SMILES O=c1c(O)c(-c2ccc(O)cc2)oc2cc(O)cc(O)c12
REMARK SMILES IDX 5 1 3 2 2 3 1 4 21 5 19 6 18 7 16 8 15 9 14 10 13 11 6 12
REMARK SMILES IDX 7 13 8 14 9 15 12 16 11 17 10 18 4 20 20 22 17 24
REMARK H PARENT 10 19 4 21 20 23 17 25
REMARK Flexibility Score: inf
ROOT
ATOM      1  C   UNL     1     -11.274 -66.215 -32.874  1.00  0.00     0.180 A 
ATOM      2  C   UNL     1     -10.647 -66.878 -31.805  1.00  0.00     0.208 A 
ATOM      3  C   UNL     1      -9.272 -66.681 -31.594  1.00  0.00     0.238 A 
ATOM      4  O   UNL     1      -8.727 -67.233 -30.603  1.00  0.00    -0.285 OA
ATOM      5  C   UNL     1      -8.540 -65.838 -32.465  1.00  0.00     0.111 A 
ATOM      6  C   UNL     1      -7.136 -65.599 -32.369  1.00  0.00     0.134 A 
ATOM      7  C   UNL     1      -6.540 -64.646 -33.204  1.00  0.00     0.093 A 
ATOM      8  C   UNL     1      -7.285 -63.971 -34.173  1.00  0.00     0.123 A 
ATOM      9  C   UNL     1      -8.644 -64.241 -34.314  1.00  0.00     0.094 A 
ATOM     10  C   UNL     1      -9.274 -65.161 -33.472  1.00  0.00     0.146 A 
ATOM     11  O   UNL     1     -10.574 -65.381 -33.633  1.00  0.00    -0.452 OA
ENDROOT
BRANCH   1  12
ATOM     12  C   UNL     1     -12.714 -66.393 -33.176  1.00  0.00     0.021 A 
ATOM     13  C   UNL     1     -13.143 -67.066 -34.333  1.00  0.00     0.016 A 
ATOM     14  C   UNL     1     -14.507 -67.201 -34.609  1.00  0.00     0.047 A 
ATOM     15  C   UNL     1     -15.458 -66.652 -33.739  1.00  0.00     0.115 A 
ATOM     16  C   UNL     1     -13.673 -65.828 -32.320  1.00  0.00     0.016 A 
ATOM     17  C   UNL     1     -15.037 -65.964 -32.597  1.00  0.00     0.047 A 
BRANCH  15  18
ATOM     18  O   UNL     1     -16.820 -66.780 -34.002  1.00  0.00    -0.508 OA
ATOM     19  H   UNL     1     -17.189 -66.679 -34.941  1.00  0.00     0.293 HD
ENDBRANCH  15  18
ENDBRANCH   1  12
BRANCH   2  20
ATOM     20  O   UNL     1     -11.394 -67.687 -30.944  1.00  0.00    -0.502 OA
ATOM     21  H   UNL     1     -12.365 -67.917 -31.120  1.00  0.00     0.293 HD
ENDBRANCH   2  20
BRANCH   6  22
ATOM     22  O   UNL     1      -6.285 -66.285 -31.498  1.00  0.00    -0.507 OA
ATOM     23  H   UNL     1      -6.409 -67.244 -31.210  1.00  0.00     0.293 HD
ENDBRANCH   6  22
BRANCH   8  24
ATOM     24  O   UNL     1      -6.681 -63.035 -35.010  1.00  0.00    -0.508 OA
ATOM     25  H   UNL     1      -5.785 -63.216 -35.448  1.00  0.00     0.293 HD
ENDBRANCH   8  24
TORSDOF 5
ENDMDL
MODEL 2
REMARK VINA RESULT:    -7.167      3.717      6.518
REMARK INTER + INTRA:          -8.605
REMARK INTER:                  -8.644
REMARK INTRA:                   0.039
REMARK UNBOUND:                -0.181
REMARK SMILES O=c1c(O)c(-c2ccc(O)cc2)oc2cc(O)cc(O)c12
REMARK SMILES IDX 5 1 3 2 2 3 1 4 21 5 19 6 18 7 16 8 15 9 14 10 13 11 6 12
REMARK SMILES IDX 7 13 8 14 9 15 12 16 11 17 10 18 4 20 20 22 17 24
REMARK H PARENT 10 19 4 21 20 23 17 25
REMARK Flexibility Score: inf
ROOT
ATOM      1  C   UNL     1      -7.129 -65.319 -32.278  1.00  0.00     0.180 A 
ATOM      2  C   UNL     1      -6.141 -65.191 -31.287  1.00  0.00     0.208 A 
ATOM      3  C   UNL     1      -6.324 -65.838 -30.054  1.00  0.00     0.238 A 
ATOM      4  O   UNL     1      -5.411 -65.765 -29.191  1.00  0.00    -0.285 OA
ATOM      5  C   UNL     1      -7.502 -66.590 -29.823  1.00  0.00     0.111 A 
ATOM      6  C   UNL     1      -7.811 -67.253 -28.597  1.00  0.00     0.134 A 
ATOM      7  C   UNL     1      -8.942 -68.075 -28.524  1.00  0.00     0.093 A 
ATOM      8  C   UNL     1      -9.809 -68.206 -29.610  1.00  0.00     0.123 A 
ATOM      9  C   UNL     1      -9.548 -67.516 -30.791  1.00  0.00     0.094 A 
ATOM     10  C   UNL     1      -8.408 -66.716 -30.907  1.00  0.00     0.146 A 
ATOM     11  O   UNL     1      -8.191 -66.084 -32.054  1.00  0.00    -0.452 OA
ENDROOT
BRANCH   1  12
ATOM     12  C   UNL     1      -7.018 -64.645 -33.594  1.00  0.00     0.021 A 
ATOM     13  C   UNL     1      -8.068 -63.863 -34.106  1.00  0.00     0.016 A 
ATOM     14  C   UNL     1      -7.950 -63.256 -35.361  1.00  0.00     0.047 A 
ATOM     15  C   UNL     1      -6.789 -63.435 -36.123  1.00  0.00     0.115 A 
ATOM     16  C   UNL     1      -5.866 -64.837 -34.373  1.00  0.00     0.016 A 
ATOM     17  C   UNL     1      -5.750 -64.229 -35.627  1.00  0.00     0.047 A 
BRANCH  15  18
ATOM     18  O   UNL     1      -6.659 -62.836 -37.374  1.00  0.00    -0.508 OA
ATOM     19  H   UNL     1      -7.358 -62.963 -38.097  1.00  0.00     0.293 HD
ENDBRANCH  15  18
ENDBRANCH   1  12
BRANCH   2  20
ATOM     20  O   UNL     1      -4.975 -64.463 -31.546  1.00  0.00    -0.502 OA
ATOM     21  H   UNL     1      -4.417 -64.610 -32.378  1.00  0.00     0.293 HD
ENDBRANCH   2  20
BRANCH   6  22
ATOM     22  O   UNL     1      -7.061 -67.116 -27.425  1.00  0.00    -0.507 OA
ATOM     23  H   UNL     1      -6.472 -67.835 -27.033  1.00  0.00     0.293 HD
ENDBRANCH   6  22
BRANCH   8  24
ATOM     24  O   UNL     1     -10.940 -69.014 -29.524  1.00  0.00    -0.508 OA
ATOM     25  H   UNL     1     -11.474 -69.089 -28.665  1.00  0.00     0.293 HD
ENDBRANCH   8  24
TORSDOF 5
ENDMDL
MODEL 3
REMARK VINA RESULT:    -7.124      3.681      6.328
REMARK INTER + INTRA:          -8.554
REMARK INTER:                  -8.675
REMARK INTRA:                   0.121
REMARK UNBOUND:                -0.181
REMARK SMILES O=c1c(O)c(-c2ccc(O)cc2)oc2cc(O)cc(O)c12
REMARK SMILES IDX 5 1 3 2 2 3 1 4 21 5 19 6 18 7 16 8 15 9 14 10 13 11 6 12
REMARK SMILES IDX 7 13 8 14 9 15 12 16 11 17 10 18 4 20 20 22 17 24
REMARK H PARENT 10 19 4 21 20 23 17 25
REMARK Flexibility Score: inf
ROOT
ATOM      1  C   UNL     1      -7.318 -65.326 -32.370  1.00  0.00     0.180 A 
ATOM      2  C   UNL     1      -6.295 -65.180 -31.417  1.00  0.00     0.208 A 
ATOM      3  C   UNL     1      -6.423 -65.822 -30.175  1.00  0.00     0.238 A 
ATOM      4  O   UNL     1      -5.479 -65.732 -29.347  1.00  0.00    -0.285 OA
ATOM      5  C   UNL     1      -7.580 -66.588 -29.895  1.00  0.00     0.111 A 
ATOM      6  C   UNL     1      -7.834 -67.249 -28.655  1.00  0.00     0.134 A 
ATOM      7  C   UNL     1      -8.949 -68.086 -28.535  1.00  0.00     0.093 A 
ATOM      8  C   UNL     1      -9.855 -68.235 -29.587  1.00  0.00     0.123 A 
ATOM      9  C   UNL     1      -9.648 -67.548 -30.781  1.00  0.00     0.094 A 
ATOM     10  C   UNL     1      -8.525 -66.733 -30.944  1.00  0.00     0.146 A 
ATOM     11  O   UNL     1      -8.359 -66.105 -32.102  1.00  0.00    -0.452 OA
ENDROOT
BRANCH   1  12
ATOM     12  C   UNL     1      -7.266 -64.659 -33.692  1.00  0.00     0.021 A 
ATOM     13  C   UNL     1      -6.092 -64.656 -34.465  1.00  0.00     0.016 A 
ATOM     14  C   UNL     1      -6.060 -64.000 -35.699  1.00  0.00     0.047 A 
ATOM     15  C   UNL     1      -7.195 -63.327 -36.168  1.00  0.00     0.115 A 
ATOM     16  C   UNL     1      -8.394 -63.965 -34.160  1.00  0.00     0.016 A 
ATOM     17  C   UNL     1      -8.360 -63.309 -35.395  1.00  0.00     0.047 A 
BRANCH  15  18
ATOM     18  O   UNL     1      -7.176 -62.670 -37.397  1.00  0.00    -0.508 OA
ATOM     19  H   UNL     1      -7.222 -63.181 -38.271  1.00  0.00     0.293 HD
ENDBRANCH  15  18
ENDBRANCH   1  12
BRANCH   2  20
ATOM     20  O   UNL     1      -5.150 -64.437 -31.724  1.00  0.00    -0.502 OA
ATOM     21  H   UNL     1      -4.389 -64.814 -32.276  1.00  0.00     0.293 HD
ENDBRANCH   2  20
BRANCH   6  22
ATOM     22  O   UNL     1      -7.042 -67.095 -27.513  1.00  0.00    -0.507 OA
ATOM     23  H   UNL     1      -6.628 -66.225 -27.214  1.00  0.00     0.293 HD
ENDBRANCH   6  22
BRANCH   8  24
ATOM     24  O   UNL     1     -10.971 -69.058 -29.454  1.00  0.00    -0.508 OA
ATOM     25  H   UNL     1     -11.859 -68.820 -29.883  1.00  0.00     0.293 HD
ENDBRANCH   8  24
TORSDOF 5
ENDMDL
MODEL 4
REMARK VINA RESULT:    -7.090      1.606      3.609
REMARK INTER + INTRA:          -8.514
REMARK INTER:                  -8.373
REMARK INTRA:                  -0.141
REMARK UNBOUND:                -0.181
REMARK SMILES O=c1c(O)c(-c2ccc(O)cc2)oc2cc(O)cc(O)c12
REMARK SMILES IDX 5 1 3 2 2 3 1 4 21 5 19 6 18 7 16 8 15 9 14 10 13 11 6 12
REMARK SMILES IDX 7 13 8 14 9 15 12 16 11 17 10 18 4 20 20 22 17 24
REMARK H PARENT 10 19 4 21 20 23 17 25
REMARK Flexibility Score: inf
ROOT
ATOM      1  C   UNL     1     -11.064 -66.560 -33.238  1.00  0.00     0.180 A 
ATOM      2  C   UNL     1     -10.081 -65.677 -33.718  1.00  0.00     0.208 A 
ATOM      3  C   UNL     1      -8.902 -65.500 -32.974  1.00  0.00     0.238 A 
ATOM      4  O   UNL     1      -8.003 -64.750 -33.436  1.00  0.00    -0.285 OA
ATOM      5  C   UNL     1      -8.731 -66.195 -31.753  1.00  0.00     0.111 A 
ATOM      6  C   UNL     1      -7.595 -66.061 -30.898  1.00  0.00     0.134 A 
ATOM      7  C   UNL     1      -7.471 -66.894 -29.780  1.00  0.00     0.093 A 
ATOM      8  C   UNL     1      -8.471 -67.811 -29.450  1.00  0.00     0.123 A 
ATOM      9  C   UNL     1      -9.611 -67.908 -30.245  1.00  0.00     0.094 A 
ATOM     10  C   UNL     1      -9.747 -67.115 -31.387  1.00  0.00     0.146 A 
ATOM     11  O   UNL     1     -10.844 -67.246 -32.124  1.00  0.00    -0.452 OA
ENDROOT
BRANCH   1  12
ATOM     12  C   UNL     1     -12.343 -66.779 -33.953  1.00  0.00     0.021 A 
ATOM     13  C   UNL     1     -13.573 -66.397 -33.389  1.00  0.00     0.016 A 
ATOM     14  C   UNL     1     -14.769 -66.635 -34.072  1.00  0.00     0.047 A 
ATOM     15  C   UNL     1     -14.752 -67.271 -35.320  1.00  0.00     0.115 A 
ATOM     16  C   UNL     1     -12.336 -67.435 -35.196  1.00  0.00     0.016 A 
ATOM     17  C   UNL     1     -13.534 -67.672 -35.877  1.00  0.00     0.047 A 
BRANCH  15  18
ATOM     18  O   UNL     1     -15.937 -67.514 -36.011  1.00  0.00    -0.508 OA
ATOM     19  H   UNL     1     -15.933 -67.888 -36.953  1.00  0.00     0.293 HD
ENDBRANCH  15  18
ENDBRANCH   1  12
BRANCH   2  20
ATOM     20  O   UNL     1     -10.262 -65.018 -34.938  1.00  0.00    -0.502 OA
ATOM     21  H   UNL     1      -9.512 -64.522 -35.404  1.00  0.00     0.293 HD
ENDBRANCH   2  20
BRANCH   6  22
ATOM     22  O   UNL     1      -6.584 -65.114 -31.086  1.00  0.00    -0.507 OA
ATOM     23  H   UNL     1      -5.614 -65.334 -31.251  1.00  0.00     0.293 HD
ENDBRANCH   6  22
BRANCH   8  24
ATOM     24  O   UNL     1      -8.347 -68.626 -28.327  1.00  0.00    -0.508 OA
ATOM     25  H   UNL     1      -9.127 -68.786 -27.699  1.00  0.00     0.293 HD
ENDBRANCH   8  24
TORSDOF 5
ENDMDL
MODEL 5
REMARK VINA RESULT:    -6.999      6.735      8.232
REMARK INTER + INTRA:          -8.407
REMARK INTER:                  -8.157
REMARK INTRA:                  -0.250
REMARK UNBOUND:                -0.181
REMARK SMILES O=c1c(O)c(-c2ccc(O)cc2)oc2cc(O)cc(O)c12
REMARK SMILES IDX 5 1 3 2 2 3 1 4 21 5 19 6 18 7 16 8 15 9 14 10 13 11 6 12
REMARK SMILES IDX 7 13 8 14 9 15 12 16 11 17 10 18 4 20 20 22 17 24
REMARK H PARENT 10 19 4 21 20 23 17 25
REMARK Flexibility Score: inf
ROOT
ATOM      1  C   UNL     1     -10.648 -66.593 -25.103  1.00  0.00     0.180 A 
ATOM      2  C   UNL     1     -10.815 -67.757 -25.874  1.00  0.00     0.208 A 
ATOM      3  C   UNL     1      -9.928 -68.006 -26.934  1.00  0.00     0.238 A 
ATOM      4  O   UNL     1     -10.049 -69.075 -27.586  1.00  0.00    -0.285 OA
ATOM      5  C   UNL     1      -8.896 -67.079 -27.220  1.00  0.00     0.111 A 
ATOM      6  C   UNL     1      -7.966 -67.209 -28.295  1.00  0.00     0.134 A 
ATOM      7  C   UNL     1      -6.907 -66.300 -28.405  1.00  0.00     0.093 A 
ATOM      8  C   UNL     1      -6.782 -65.229 -27.518  1.00  0.00     0.123 A 
ATOM      9  C   UNL     1      -7.719 -65.059 -26.501  1.00  0.00     0.094 A 
ATOM     10  C   UNL     1      -8.766 -65.970 -26.344  1.00  0.00     0.146 A 
ATOM     11  O   UNL     1      -9.631 -65.778 -25.355  1.00  0.00    -0.452 OA
ENDROOT
BRANCH   1  12
ATOM     12  C   UNL     1     -11.558 -66.250 -23.986  1.00  0.00     0.021 A 
ATOM     13  C   UNL     1     -11.199 -66.492 -22.648  1.00  0.00     0.016 A 
ATOM     14  C   UNL     1     -12.084 -66.182 -21.611  1.00  0.00     0.047 A 
ATOM     15  C   UNL     1     -13.343 -65.639 -21.899  1.00  0.00     0.115 A 
ATOM     16  C   UNL     1     -12.831 -65.726 -24.267  1.00  0.00     0.016 A 
ATOM     17  C   UNL     1     -13.714 -65.416 -23.229  1.00  0.00     0.047 A 
BRANCH  15  18
ATOM     18  O   UNL     1     -14.234 -65.325 -20.875  1.00  0.00    -0.508 OA
ATOM     19  H   UNL     1     -15.004 -64.682 -21.022  1.00  0.00     0.293 HD
ENDBRANCH  15  18
ENDBRANCH   1  12
BRANCH   2  20
ATOM     20  O   UNL     1     -11.827 -68.670 -25.559  1.00  0.00    -0.502 OA
ATOM     21  H   UNL     1     -12.658 -68.777 -26.128  1.00  0.00     0.293 HD
ENDBRANCH   2  20
BRANCH   6  22
ATOM     22  O   UNL     1      -8.054 -68.189 -29.289  1.00  0.00    -0.507 OA
ATOM     23  H   UNL     1      -8.040 -69.183 -29.119  1.00  0.00     0.293 HD
ENDBRANCH   6  22
BRANCH   8  24
ATOM     24  O   UNL     1      -5.734 -64.320 -27.644  1.00  0.00    -0.508 OA
ATOM     25  H   UNL     1      -4.890 -64.404 -27.087  1.00  0.00     0.293 HD
ENDBRANCH   8  24
TORSDOF 5
ENDMDL
MODEL 6
REMARK VINA RESULT:    -6.960      4.007      7.099
REMARK INTER + INTRA:          -8.362
REMARK INTER:                  -8.417
REMARK INTRA:                   0.055
REMARK UNBOUND:                -0.181
REMARK SMILES O=c1c(O)c(-c2ccc(O)cc2)oc2cc(O)cc(O)c12
REMARK SMILES IDX 5 1 3 2 2 3 1 4 21 5 19 6 18 7 16 8 15 9 14 10 13 11 6 12
REMARK SMILES IDX 7 13 8 14 9 15 12 16 11 17 10 18 4 20 20 22 17 24
REMARK H PARENT 10 19 4 21 20 23 17 25
REMARK Flexibility Score: inf
ROOT
ATOM      1  C   UNL     1      -7.927 -66.640 -30.348  1.00  0.00     0.180 A 
ATOM      2  C   UNL     1      -8.987 -67.558 -30.456  1.00  0.00     0.208 A 
ATOM      3  C   UNL     1      -9.490 -68.158 -29.291  1.00  0.00     0.238 A 
ATOM      4  O   UNL     1     -10.473 -68.937 -29.388  1.00  0.00    -0.285 OA
ATOM      5  C   UNL     1      -8.916 -67.846 -28.035  1.00  0.00     0.111 A 
ATOM      6  C   UNL     1      -9.319 -68.425 -26.794  1.00  0.00     0.134 A 
ATOM      7  C   UNL     1      -8.771 -67.946 -25.598  1.00  0.00     0.093 A 
ATOM      8  C   UNL     1      -7.787 -66.955 -25.603  1.00  0.00     0.123 A 
ATOM      9  C   UNL     1      -7.344 -66.425 -26.812  1.00  0.00     0.094 A 
ATOM     10  C   UNL     1      -7.898 -66.858 -28.020  1.00  0.00     0.146 A 
ATOM     11  O   UNL     1      -7.455 -66.319 -29.150  1.00  0.00    -0.452 OA
ENDROOT
BRANCH   1  12
ATOM     12  C   UNL     1      -7.327 -65.985 -31.534  1.00  0.00     0.021 A 
ATOM     13  C   UNL     1      -5.935 -65.968 -31.735  1.00  0.00     0.016 A 
ATOM     14  C   UNL     1      -5.390 -65.323 -32.850  1.00  0.00     0.047 A 
ATOM     15  C   UNL     1      -6.227 -64.678 -33.769  1.00  0.00     0.115 A 
ATOM     16  C   UNL     1      -8.158 -65.318 -32.449  1.00  0.00     0.016 A 
ATOM     17  C   UNL     1      -7.610 -64.674 -33.563  1.00  0.00     0.047 A 
BRANCH  15  18
ATOM     18  O   UNL     1      -5.696 -64.033 -34.884  1.00  0.00    -0.508 OA
ATOM     19  H   UNL     1      -5.960 -63.083 -35.121  1.00  0.00     0.293 HD
ENDBRANCH  15  18
ENDBRANCH   1  12
BRANCH   2  20
ATOM     20  O   UNL     1      -9.553 -67.834 -31.705  1.00  0.00    -0.502 OA
ATOM     21  H   UNL     1     -10.502 -68.174 -31.807  1.00  0.00     0.293 HD
ENDBRANCH   2  20
BRANCH   6  22
ATOM     22  O   UNL     1     -10.226 -69.484 -26.685  1.00  0.00    -0.507 OA
ATOM     23  H   UNL     1     -10.530 -69.892 -25.814  1.00  0.00     0.293 HD
ENDBRANCH   6  22
BRANCH   8  24
ATOM     24  O   UNL     1      -7.235 -66.495 -24.409  1.00  0.00    -0.508 OA
ATOM     25  H   UNL     1      -6.234 -66.385 -24.296  1.00  0.00     0.293 HD
ENDBRANCH   8  24
TORSDOF 5
ENDMDL
MODEL 7
REMARK VINA RESULT:    -6.950      3.734      5.134
REMARK INTER + INTRA:          -8.350
REMARK INTER:                  -8.624
REMARK INTRA:                   0.274
REMARK UNBOUND:                -0.181
REMARK SMILES O=c1c(O)c(-c2ccc(O)cc2)oc2cc(O)cc(O)c12
REMARK SMILES IDX 5 1 3 2 2 3 1 4 21 5 19 6 18 7 16 8 15 9 14 10 13 11 6 12
REMARK SMILES IDX 7 13 8 14 9 15 12 16 11 17 10 18 4 20 20 22 17 24
REMARK H PARENT 10 19 4 21 20 23 17 25
REMARK Flexibility Score: inf
ROOT
ATOM      1  C   UNL     1      -7.966 -66.309 -31.058  1.00  0.00     0.180 A 
ATOM      2  C   UNL     1      -6.588 -66.028 -31.057  1.00  0.00     0.208 A 
ATOM      3  C   UNL     1      -6.040 -65.306 -32.129  1.00  0.00     0.238 A 
ATOM      4  O   UNL     1      -4.817 -65.010 -32.096  1.00  0.00    -0.285 OA
ATOM      5  C   UNL     1      -6.873 -64.888 -33.196  1.00  0.00     0.111 A 
ATOM      6  C   UNL     1      -6.416 -64.185 -34.352  1.00  0.00     0.134 A 
ATOM      7  C   UNL     1      -7.348 -63.708 -35.281  1.00  0.00     0.093 A 
ATOM      8  C   UNL     1      -8.712 -63.965 -35.130  1.00  0.00     0.123 A 
ATOM      9  C   UNL     1      -9.162 -64.700 -34.036  1.00  0.00     0.094 A 
ATOM     10  C   UNL     1      -8.260 -65.159 -33.073  1.00  0.00     0.146 A 
ATOM     11  O   UNL     1      -8.731 -65.847 -32.040  1.00  0.00    -0.452 OA
ENDROOT
BRANCH   1  12
ATOM     12  C   UNL     1      -8.612 -67.088 -29.976  1.00  0.00     0.021 A 
ATOM     13  C   UNL     1      -8.156 -67.015 -28.648  1.00  0.00     0.016 A 
ATOM     14  C   UNL     1      -8.767 -67.777 -27.647  1.00  0.00     0.047 A 
ATOM     15  C   UNL     1      -9.831 -68.631 -27.964  1.00  0.00     0.115 A 
ATOM     16  C   UNL     1      -9.666 -67.963 -30.289  1.00  0.00     0.016 A 
ATOM     17  C   UNL     1     -10.275 -68.724 -29.286  1.00  0.00     0.047 A 
BRANCH  15  18
ATOM     18  O   UNL     1     -10.448 -69.396 -26.976  1.00  0.00    -0.508 OA
ATOM     19  H   UNL     1     -11.082 -68.979 -26.304  1.00  0.00     0.293 HD
ENDBRANCH  15  18
ENDBRANCH   1  12
BRANCH   2  20
ATOM     20  O   UNL     1      -5.789 -66.430 -29.983  1.00  0.00    -0.502 OA
ATOM     21  H   UNL     1      -6.150 -66.515 -29.040  1.00  0.00     0.293 HD
ENDBRANCH   2  20
BRANCH   6  22
ATOM     22  O   UNL     1      -5.069 -63.957 -34.645  1.00  0.00    -0.507 OA
ATOM     23  H   UNL     1      -4.377 -64.680 -34.769  1.00  0.00     0.293 HD
ENDBRANCH   6  22
BRANCH   8  24
ATOM     24  O   UNL     1      -9.632 -63.499 -36.068  1.00  0.00    -0.508 OA
ATOM     25  H   UNL     1     -10.257 -64.131 -36.556  1.00  0.00     0.293 HD
ENDBRANCH   8  24
TORSDOF 5
ENDMDL
MODEL 8
REMARK VINA RESULT:    -6.922      4.328      8.685
REMARK INTER + INTRA:          -8.317
REMARK INTER:                  -8.033
REMARK INTRA:                  -0.284
REMARK UNBOUND:                -0.181
REMARK SMILES O=c1c(O)c(-c2ccc(O)cc2)oc2cc(O)cc(O)c12
REMARK SMILES IDX 5 1 3 2 2 3 1 4 21 5 19 6 18 7 16 8 15 9 14 10 13 11 6 12
REMARK SMILES IDX 7 13 8 14 9 15 12 16 11 17 10 18 4 20 20 22 17 24
REMARK H PARENT 10 19 4 21 20 23 17 25
REMARK Flexibility Score: inf
ROOT
ATOM      1  C   UNL     1      -5.362 -64.002 -36.413  1.00  0.00     0.180 A 
ATOM      2  C   UNL     1      -6.680 -63.535 -36.560  1.00  0.00     0.208 A 
ATOM      3  C   UNL     1      -7.589 -63.718 -35.505  1.00  0.00     0.238 A 
ATOM      4  O   UNL     1      -8.751 -63.250 -35.621  1.00  0.00    -0.285 OA
ATOM      5  C   UNL     1      -7.173 -64.380 -34.325  1.00  0.00     0.111 A 
ATOM      6  C   UNL     1      -8.021 -64.656 -33.210  1.00  0.00     0.134 A 
ATOM      7  C   UNL     1      -7.471 -65.201 -32.043  1.00  0.00     0.093 A 
ATOM      8  C   UNL     1      -6.118 -65.539 -31.974  1.00  0.00     0.123 A 
ATOM      9  C   UNL     1      -5.294 -65.328 -33.078  1.00  0.00     0.094 A 
ATOM     10  C   UNL     1      -5.806 -64.754 -34.244  1.00  0.00     0.146 A 
ATOM     11  O   UNL     1      -4.985 -64.560 -35.269  1.00  0.00    -0.452 OA
ENDROOT
BRANCH   1  12
ATOM     12  C   UNL     1      -4.353 -63.868 -37.491  1.00  0.00     0.021 A 
ATOM     13  C   UNL     1      -4.302 -64.777 -38.563  1.00  0.00     0.016 A 
ATOM     14  C   UNL     1      -3.326 -64.645 -39.556  1.00  0.00     0.047 A 
ATOM     15  C   UNL     1      -2.383 -63.612 -39.482  1.00  0.00     0.115 A 
ATOM     16  C   UNL     1      -3.391 -62.848 -37.413  1.00  0.00     0.016 A 
ATOM     17  C   UNL     1      -2.416 -62.718 -38.408  1.00  0.00     0.047 A 
BRANCH  15  18
ATOM     18  O   UNL     1      -1.407 -63.469 -40.465  1.00  0.00    -0.508 OA
ATOM     19  H   UNL     1      -1.354 -62.637 -41.041  1.00  0.00     0.293 HD
ENDBRANCH  15  18
ENDBRANCH   1  12
BRANCH   2  20
ATOM     20  O   UNL     1      -7.062 -62.864 -37.725  1.00  0.00    -0.502 OA
ATOM     21  H   UNL     1      -7.030 -63.300 -38.639  1.00  0.00     0.293 HD
ENDBRANCH   2  20
BRANCH   6  22
ATOM     22  O   UNL     1      -9.402 -64.442 -33.208  1.00  0.00    -0.507 OA
ATOM     23  H   UNL     1      -9.843 -63.535 -33.181  1.00  0.00     0.293 HD
ENDBRANCH   6  22
BRANCH   8  24
ATOM     24  O   UNL     1      -5.582 -66.094 -30.815  1.00  0.00    -0.508 OA
ATOM     25  H   UNL     1      -5.877 -67.003 -30.477  1.00  0.00     0.293 HD
ENDBRANCH   8  24
TORSDOF 5
ENDMDL
MODEL 9
REMARK VINA RESULT:    -6.734      4.080      6.049
REMARK INTER + INTRA:          -8.095
REMARK INTER:                  -8.181
REMARK INTRA:                   0.086
REMARK UNBOUND:                -0.181
REMARK SMILES O=c1c(O)c(-c2ccc(O)cc2)oc2cc(O)cc(O)c12
REMARK SMILES IDX 5 1 3 2 2 3 1 4 21 5 19 6 18 7 16 8 15 9 14 10 13 11 6 12
REMARK SMILES IDX 7 13 8 14 9 15 12 16 11 17 10 18 4 20 20 22 17 24
REMARK H PARENT 10 19 4 21 20 23 17 25
REMARK Flexibility Score: inf
ROOT
ATOM      1  C   UNL     1      -7.223 -65.036 -33.060  1.00  0.00     0.180 A 
ATOM      2  C   UNL     1      -8.323 -64.471 -33.728  1.00  0.00     0.208 A 
ATOM      3  C   UNL     1      -8.116 -63.827 -34.959  1.00  0.00     0.238 A 
ATOM      4  O   UNL     1      -9.112 -63.371 -35.578  1.00  0.00    -0.285 OA
ATOM      5  C   UNL     1      -6.809 -63.742 -35.497  1.00  0.00     0.111 A 
ATOM      6  C   UNL     1      -6.478 -63.078 -36.717  1.00  0.00     0.134 A 
ATOM      7  C   UNL     1      -5.174 -63.169 -37.219  1.00  0.00     0.093 A 
ATOM      8  C   UNL     1      -4.176 -63.844 -36.514  1.00  0.00     0.123 A 
ATOM      9  C   UNL     1      -4.476 -64.445 -35.294  1.00  0.00     0.094 A 
ATOM     10  C   UNL     1      -5.776 -64.402 -34.784  1.00  0.00     0.146 A 
ATOM     11  O   UNL     1      -6.021 -64.997 -33.623  1.00  0.00    -0.452 OA
ENDROOT
BRANCH   1  12
ATOM     12  C   UNL     1      -7.358 -65.709 -31.747  1.00  0.00     0.021 A 
ATOM     13  C   UNL     1      -8.368 -66.659 -31.511  1.00  0.00     0.016 A 
ATOM     14  C   UNL     1      -8.491 -67.263 -30.256  1.00  0.00     0.047 A 
ATOM     15  C   UNL     1      -7.616 -66.916 -29.219  1.00  0.00     0.115 A 
ATOM     16  C   UNL     1      -6.499 -65.351 -30.696  1.00  0.00     0.016 A 
ATOM     17  C   UNL     1      -6.623 -65.957 -29.441  1.00  0.00     0.047 A 
BRANCH  15  18
ATOM     18  O   UNL     1      -7.727 -67.511 -27.964  1.00  0.00    -0.508 OA
ATOM     19  H   UNL     1      -7.174 -67.194 -27.177  1.00  0.00     0.293 HD
ENDBRANCH  15  18
ENDBRANCH   1  12
BRANCH   2  20
ATOM     20  O   UNL     1      -9.608 -64.586 -33.189  1.00  0.00    -0.502 OA
ATOM     21  H   UNL     1     -10.239 -63.797 -33.114  1.00  0.00     0.293 HD
ENDBRANCH   2  20
BRANCH   6  22
ATOM     22  O   UNL     1      -7.378 -62.300 -37.451  1.00  0.00    -0.507 OA
ATOM     23  H   UNL     1      -8.084 -61.704 -37.048  1.00  0.00     0.293 HD
ENDBRANCH   6  22
BRANCH   8  24
ATOM     24  O   UNL     1      -2.878 -63.917 -37.014  1.00  0.00    -0.508 OA
ATOM     25  H   UNL     1      -2.406 -63.099 -37.384  1.00  0.00     0.293 HD
ENDBRANCH   8  24
TORSDOF 5
ENDMDL
