MODEL 1
REMARK VINA RESULT:    -6.255      0.000      0.000
REMARK INTER + INTRA:          -7.823
REMARK INTER:                  -7.535
REMARK INTRA:                  -0.288
REMARK UNBOUND:                -0.288
REMARK SMILES O=c1c(O)c(-c2ccc(O)c(O)c2)oc2cc(O)cc(O)c12
REMARK SMILES IDX 5 1 3 2 2 3 1 4 22 5 20 6 19 7 17 8 16 9 15 10 14 11 6 12
REMARK SMILES IDX 7 13 8 14 9 15 13 16 11 17 10 18 12 20 4 22 21 24 18 26
REMARK H PARENT 10 19 12 21 4 23 21 25 18 27
REMARK Flexibility Score: inf
ROOT
ATOM      1  C   UNL     1     -13.886  13.106 -15.198  1.00  0.00     0.180 A 
ATOM      2  C   UNL     1     -13.760  11.832 -14.617  1.00  0.00     0.208 A 
ATOM      3  C   UNL     1     -13.576  10.718 -15.453  1.00  0.00     0.238 A 
ATOM      4  O   UNL     1     -13.409   9.588 -14.925  1.00  0.00    -0.285 OA
ATOM      5  C   UNL     1     -13.536  10.890 -16.858  1.00  0.00     0.111 A 
ATOM      6  C   UNL     1     -13.394   9.828 -17.800  1.00  0.00     0.134 A 
ATOM      7  C   UNL     1     -13.236  10.127 -19.160  1.00  0.00     0.093 A 
ATOM      8  C   UNL     1     -13.279  11.444 -19.617  1.00  0.00     0.123 A 
ATOM      9  C   UNL     1     -13.478  12.486 -18.711  1.00  0.00     0.094 A 
ATOM     10  C   UNL     1     -13.602  12.222 -17.344  1.00  0.00     0.146 A 
ATOM     11  O   UNL     1     -13.779  13.243 -16.514  1.00  0.00    -0.452 OA
ENDROOT
BRANCH   1  12
ATOM     12  C   UNL     1     -14.108  14.323 -14.384  1.00  0.00     0.025 A 
ATOM     13  C   UNL     1     -15.390  14.589 -13.878  1.00  0.00     0.016 A 
ATOM     14  C   UNL     1     -15.619  15.721 -13.091  1.00  0.00     0.051 A 
ATOM     15  C   UNL     1     -14.567  16.594 -12.784  1.00  0.00     0.157 A 
ATOM     16  C   UNL     1     -13.050  15.190 -14.058  1.00  0.00     0.062 A 
ATOM     17  C   UNL     1     -13.276  16.323 -13.267  1.00  0.00     0.158 A 
BRANCH  15  18
ATOM     18  O   UNL     1     -14.798  17.723 -12.000  1.00  0.00    -0.504 OA
ATOM     19  H   UNL     1     -15.045  18.615 -12.414  1.00  0.00     0.293 HD
ENDBRANCH  15  18
BRANCH  17  20
ATOM     20  O   UNL     1     -12.204  17.164 -12.968  1.00  0.00    -0.504 OA
ATOM     21  H   UNL     1     -12.285  17.923 -12.302  1.00  0.00     0.293 HD
ENDBRANCH  17  20
ENDBRANCH   1  12
BRANCH   2  22
ATOM     22  O   UNL     1     -13.780  11.687 -13.227  1.00  0.00    -0.502 OA
ATOM     23  H   UNL     1     -14.642  11.630 -12.698  1.00  0.00     0.293 HD
ENDBRANCH   2  22
BRANCH   6  24
ATOM     24  O   UNL     1     -13.429   8.472 -17.460  1.00  0.00    -0.507 OA
ATOM     25  H   UNL     1     -12.940   8.064 -16.679  1.00  0.00     0.293 HD
ENDBRANCH   6  24
BRANCH   8  26
ATOM     26  O   UNL     1     -13.134  11.704 -20.978  1.00  0.00    -0.508 OA
ATOM     27  H   UNL     1     -13.359  11.008 -21.678  1.00  0.00     0.293 HD
ENDBRANCH   8  26
TORSDOF 6
ENDMDL
MODEL 2
REMARK VINA RESULT:    -6.245     13.435     14.731
REMARK INTER + INTRA:          -7.811
REMARK INTER:                  -7.915
REMARK INTRA:                   0.104
REMARK UNBOUND:                -0.288
REMARK SMILES O=c1c(O)c(-c2ccc(O)c(O)c2)oc2cc(O)cc(O)c12
REMARK SMILES IDX 5 1 3 2 2 3 1 4 22 5 20 6 19 7 17 8 16 9 15 10 14 11 6 12
REMARK SMILES IDX 7 13 8 14 9 15 13 16 11 17 10 18 12 20 4 22 21 24 18 26
REMARK H PARENT 10 19 12 21 4 23 21 25 18 27
REMARK Flexibility Score: inf
ROOT
ATOM      1  C   UNL     1      -2.307  14.026 -23.145  1.00  0.00     0.180 A 
ATOM      2  C   UNL     1      -2.061  12.666 -23.402  1.00  0.00     0.208 A 
ATOM      3  C   UNL     1      -1.233  11.947 -22.526  1.00  0.00     0.238 A 
ATOM      4  O   UNL     1      -1.060  10.718 -22.730  1.00  0.00    -0.285 OA
ATOM      5  C   UNL     1      -0.649  12.599 -21.412  1.00  0.00     0.111 A 
ATOM      6  C   UNL     1       0.236  11.978 -20.483  1.00  0.00     0.134 A 
ATOM      7  C   UNL     1       0.651  12.684 -19.346  1.00  0.00     0.093 A 
ATOM      8  C   UNL     1       0.264  14.007 -19.139  1.00  0.00     0.123 A 
ATOM      9  C   UNL     1      -0.554  14.644 -20.073  1.00  0.00     0.094 A 
ATOM     10  C   UNL     1      -1.013  13.954 -21.199  1.00  0.00     0.146 A 
ATOM     11  O   UNL     1      -1.798  14.593 -22.058  1.00  0.00    -0.452 OA
ENDROOT
BRANCH   1  12
ATOM     12  C   UNL     1      -3.148  14.857 -24.038  1.00  0.00     0.025 A 
ATOM     13  C   UNL     1      -2.693  16.126 -24.430  1.00  0.00     0.016 A 
ATOM     14  C   UNL     1      -3.460  16.918 -25.288  1.00  0.00     0.051 A 
ATOM     15  C   UNL     1      -4.684  16.448 -25.780  1.00  0.00     0.157 A 
ATOM     16  C   UNL     1      -4.368  14.379 -24.549  1.00  0.00     0.062 A 
ATOM     17  C   UNL     1      -5.137  15.170 -25.411  1.00  0.00     0.158 A 
BRANCH  15  18
ATOM     18  O   UNL     1      -5.448  17.241 -26.634  1.00  0.00    -0.504 OA
ATOM     19  H   UNL     1      -5.247  17.299 -27.627  1.00  0.00     0.293 HD
ENDBRANCH  15  18
BRANCH  17  20
ATOM     20  O   UNL     1      -6.345  14.667 -25.894  1.00  0.00    -0.504 OA
ATOM     21  H   UNL     1      -7.117  14.438 -25.279  1.00  0.00     0.293 HD
ENDBRANCH  17  20
ENDBRANCH   1  12
BRANCH   2  22
ATOM     22  O   UNL     1      -2.665  12.037 -24.494  1.00  0.00    -0.502 OA
ATOM     23  H   UNL     1      -2.154  11.428 -25.123  1.00  0.00     0.293 HD
ENDBRANCH   2  22
BRANCH   6  24
ATOM     24  O   UNL     1       0.758  10.690 -20.642  1.00  0.00    -0.507 OA
ATOM     25  H   UNL     1       0.490   9.890 -20.088  1.00  0.00     0.293 HD
ENDBRANCH   6  24
BRANCH   8  26
ATOM     26  O   UNL     1       0.707  14.684 -18.006  1.00  0.00    -0.508 OA
ATOM     27  H   UNL     1       0.060  15.024 -17.304  1.00  0.00     0.293 HD
ENDBRANCH   8  26
TORSDOF 6
ENDMDL
MODEL 3
REMARK VINA RESULT:    -6.144      7.117      8.730
REMARK INTER + INTRA:          -7.690
REMARK INTER:                  -7.416
REMARK INTRA:                  -0.274
REMARK UNBOUND:                -0.288
REMARK SMILES O=c1c(O)c(-c2ccc(O)c(O)c2)oc2cc(O)cc(O)c12
REMARK SMILES IDX 5 1 3 2 2 3 1 4 22 5 20 6 19 7 17 8 16 9 15 10 14 11 6 12
REMARK SMILES IDX 7 13 8 14 9 15 13 16 11 17 10 18 12 20 4 22 21 24 18 26
REMARK H PARENT 10 19 12 21 4 23 21 25 18 27
REMARK Flexibility Score: inf
ROOT
ATOM      1  C   UNL     1     -11.070  14.200 -23.164  1.00  0.00     0.180 A 
ATOM      2  C   UNL     1     -11.453  12.898 -22.797  1.00  0.00     0.208 A 
ATOM      3  C   UNL     1     -10.582  11.830 -23.067  1.00  0.00     0.238 A 
ATOM      4  O   UNL     1     -10.906  10.676 -22.687  1.00  0.00    -0.285 OA
ATOM      5  C   UNL     1      -9.347  12.075 -23.715  1.00  0.00     0.111 A 
ATOM      6  C   UNL     1      -8.406  11.064 -24.073  1.00  0.00     0.134 A 
ATOM      7  C   UNL     1      -7.159  11.434 -24.594  1.00  0.00     0.093 A 
ATOM      8  C   UNL     1      -6.845  12.772 -24.828  1.00  0.00     0.123 A 
ATOM      9  C   UNL     1      -7.781  13.765 -24.537  1.00  0.00     0.094 A 
ATOM     10  C   UNL     1      -9.020  13.430 -23.983  1.00  0.00     0.146 A 
ATOM     11  O   UNL     1      -9.878  14.406 -23.711  1.00  0.00    -0.452 OA
ENDROOT
BRANCH   1  12
ATOM     12  C   UNL     1     -11.946  15.373 -22.935  1.00  0.00     0.025 A 
ATOM     13  C   UNL     1     -12.697  15.891 -24.002  1.00  0.00     0.016 A 
ATOM     14  C   UNL     1     -13.545  16.984 -23.805  1.00  0.00     0.051 A 
ATOM     15  C   UNL     1     -13.668  17.564 -22.535  1.00  0.00     0.157 A 
ATOM     16  C   UNL     1     -12.086  15.944 -21.658  1.00  0.00     0.062 A 
ATOM     17  C   UNL     1     -12.937  17.038 -21.457  1.00  0.00     0.158 A 
BRANCH  15  18
ATOM     18  O   UNL     1     -14.513  18.655 -22.342  1.00  0.00    -0.504 OA
ATOM     19  H   UNL     1     -14.522  19.440 -22.984  1.00  0.00     0.293 HD
ENDBRANCH  15  18
BRANCH  17  20
ATOM     20  O   UNL     1     -13.047  17.583 -20.178  1.00  0.00    -0.504 OA
ATOM     21  H   UNL     1     -13.942  17.841 -19.778  1.00  0.00     0.293 HD
ENDBRANCH  17  20
ENDBRANCH   1  12
BRANCH   2  22
ATOM     22  O   UNL     1     -12.667  12.682 -22.138  1.00  0.00    -0.502 OA
ATOM     23  H   UNL     1     -12.878  13.095 -21.237  1.00  0.00     0.293 HD
ENDBRANCH   2  22
BRANCH   6  24
ATOM     24  O   UNL     1      -8.655   9.692 -23.966  1.00  0.00    -0.507 OA
ATOM     25  H   UNL     1      -9.101   9.250 -23.177  1.00  0.00     0.293 HD
ENDBRANCH   6  24
BRANCH   8  26
ATOM     26  O   UNL     1      -5.601  13.103 -25.361  1.00  0.00    -0.508 OA
ATOM     27  H   UNL     1      -5.514  13.550 -26.266  1.00  0.00     0.293 HD
ENDBRANCH   8  26
TORSDOF 6
ENDMDL
MODEL 4
REMARK VINA RESULT:    -6.140     13.368     14.507
REMARK INTER + INTRA:          -7.685
REMARK INTER:                  -7.872
REMARK INTRA:                   0.187
REMARK UNBOUND:                -0.288
REMARK SMILES O=c1c(O)c(-c2ccc(O)c(O)c2)oc2cc(O)cc(O)c12
REMARK SMILES IDX 5 1 3 2 2 3 1 4 22 5 20 6 19 7 17 8 16 9 15 10 14 11 6 12
REMARK SMILES IDX 7 13 8 14 9 15 13 16 11 17 10 18 12 20 4 22 21 24 18 26
REMARK H PARENT 10 19 12 21 4 23 21 25 18 27
REMARK Flexibility Score: inf
ROOT
ATOM      1  C   UNL     1      -2.350  14.154 -23.029  1.00  0.00     0.180 A 
ATOM      2  C   UNL     1      -1.686  14.745 -21.940  1.00  0.00     0.208 A 
ATOM      3  C   UNL     1      -0.930  13.931 -21.081  1.00  0.00     0.238 A 
ATOM      4  O   UNL     1      -0.295  14.473 -20.140  1.00  0.00    -0.285 OA
ATOM      5  C   UNL     1      -0.859  12.536 -21.313  1.00  0.00     0.111 A 
ATOM      6  C   UNL     1      -0.156  11.612 -20.484  1.00  0.00     0.134 A 
ATOM      7  C   UNL     1      -0.046  10.273 -20.881  1.00  0.00     0.093 A 
ATOM      8  C   UNL     1      -0.667   9.813 -22.041  1.00  0.00     0.123 A 
ATOM      9  C   UNL     1      -1.408  10.695 -22.827  1.00  0.00     0.094 A 
ATOM     10  C   UNL     1      -1.506  12.045 -22.476  1.00  0.00     0.146 A 
ATOM     11  O   UNL     1      -2.212  12.853 -23.257  1.00  0.00    -0.452 OA
ENDROOT
BRANCH   1  12
ATOM     12  C   UNL     1      -3.187  14.943 -23.963  1.00  0.00     0.025 A 
ATOM     13  C   UNL     1      -2.747  16.208 -24.383  1.00  0.00     0.016 A 
ATOM     14  C   UNL     1      -3.510  16.961 -25.279  1.00  0.00     0.051 A 
ATOM     15  C   UNL     1      -4.716  16.453 -25.781  1.00  0.00     0.157 A 
ATOM     16  C   UNL     1      -4.387  14.428 -24.484  1.00  0.00     0.062 A 
ATOM     17  C   UNL     1      -5.153  15.179 -25.384  1.00  0.00     0.158 A 
BRANCH  15  18
ATOM     18  O   UNL     1      -5.476  17.207 -26.673  1.00  0.00    -0.504 OA
ATOM     19  H   UNL     1      -6.489  17.156 -26.683  1.00  0.00     0.293 HD
ENDBRANCH  15  18
BRANCH  17  20
ATOM     20  O   UNL     1      -6.342  14.639 -25.876  1.00  0.00    -0.504 OA
ATOM     21  H   UNL     1      -6.808  15.018 -26.692  1.00  0.00     0.293 HD
ENDBRANCH  17  20
ENDBRANCH   1  12
BRANCH   2  22
ATOM     22  O   UNL     1      -1.751  16.127 -21.743  1.00  0.00    -0.502 OA
ATOM     23  H   UNL     1      -1.745  16.546 -20.820  1.00  0.00     0.293 HD
ENDBRANCH   2  22
BRANCH   6  24
ATOM     24  O   UNL     1       0.424  11.949 -19.257  1.00  0.00    -0.507 OA
ATOM     25  H   UNL     1       1.093  12.692 -19.122  1.00  0.00     0.293 HD
ENDBRANCH   6  24
BRANCH   8  26
ATOM     26  O   UNL     1      -0.550   8.471 -22.397  1.00  0.00    -0.508 OA
ATOM     27  H   UNL     1      -1.206   8.032 -23.032  1.00  0.00     0.293 HD
ENDBRANCH   8  26
TORSDOF 6
ENDMDL
MODEL 5
REMARK VINA RESULT:    -6.098      2.394      3.984
REMARK INTER + INTRA:          -7.633
REMARK INTER:                  -7.788
REMARK INTRA:                   0.155
REMARK UNBOUND:                -0.288
REMARK SMILES O=c1c(O)c(-c2ccc(O)c(O)c2)oc2cc(O)cc(O)c12
REMARK SMILES IDX 5 1 3 2 2 3 1 4 22 5 20 6 19 7 17 8 16 9 15 10 14 11 6 12
REMARK SMILES IDX 7 13 8 14 9 15 13 16 11 17 10 18 12 20 4 22 21 24 18 26
REMARK H PARENT 10 19 12 21 4 23 21 25 18 27
REMARK Flexibility Score: inf
ROOT
ATOM      1  C   UNL     1     -13.586  13.182 -17.910  1.00  0.00     0.180 A 
ATOM      2  C   UNL     1     -13.710  11.875 -18.415  1.00  0.00     0.208 A 
ATOM      3  C   UNL     1     -13.263  11.604 -19.718  1.00  0.00     0.238 A 
ATOM      4  O   UNL     1     -13.326  10.422 -20.145  1.00  0.00    -0.285 OA
ATOM      5  C   UNL     1     -12.712  12.645 -20.505  1.00  0.00     0.111 A 
ATOM      6  C   UNL     1     -12.265  12.492 -21.851  1.00  0.00     0.134 A 
ATOM      7  C   UNL     1     -11.618  13.558 -22.490  1.00  0.00     0.093 A 
ATOM      8  C   UNL     1     -11.462  14.790 -21.854  1.00  0.00     0.123 A 
ATOM      9  C   UNL     1     -11.949  14.968 -20.559  1.00  0.00     0.094 A 
ATOM     10  C   UNL     1     -12.567  13.912 -19.883  1.00  0.00     0.146 A 
ATOM     11  O   UNL     1     -13.007  14.121 -18.649  1.00  0.00    -0.452 OA
ENDROOT
BRANCH   1  12
ATOM     12  C   UNL     1     -14.059  13.550 -16.555  1.00  0.00     0.025 A 
ATOM     13  C   UNL     1     -14.753  14.756 -16.371  1.00  0.00     0.016 A 
ATOM     14  C   UNL     1     -15.226  15.114 -15.106  1.00  0.00     0.051 A 
ATOM     15  C   UNL     1     -15.027  14.265 -14.010  1.00  0.00     0.157 A 
ATOM     16  C   UNL     1     -13.878  12.690 -15.457  1.00  0.00     0.062 A 
ATOM     17  C   UNL     1     -14.353  13.045 -14.189  1.00  0.00     0.158 A 
BRANCH  15  18
ATOM     18  O   UNL     1     -15.498  14.625 -12.749  1.00  0.00    -0.504 OA
ATOM     19  H   UNL     1     -16.245  15.301 -12.635  1.00  0.00     0.293 HD
ENDBRANCH  15  18
BRANCH  17  20
ATOM     20  O   UNL     1     -14.150  12.171 -13.121  1.00  0.00    -0.504 OA
ATOM     21  H   UNL     1     -13.549  11.359 -13.197  1.00  0.00     0.293 HD
ENDBRANCH  17  20
ENDBRANCH   1  12
BRANCH   2  22
ATOM     22  O   UNL     1     -14.235  10.858 -17.613  1.00  0.00    -0.502 OA
ATOM     23  H   UNL     1     -14.046   9.877 -17.784  1.00  0.00     0.293 HD
ENDBRANCH   2  22
BRANCH   6  24
ATOM     24  O   UNL     1     -12.454  11.333 -22.610  1.00  0.00    -0.507 OA
ATOM     25  H   UNL     1     -13.109  11.246 -23.372  1.00  0.00     0.293 HD
ENDBRANCH   6  24
BRANCH   8  26
ATOM     26  O   UNL     1     -10.828  15.833 -22.524  1.00  0.00    -0.508 OA
ATOM     27  H   UNL     1     -11.055  16.802 -22.333  1.00  0.00     0.293 HD
ENDBRANCH   8  26
TORSDOF 6
ENDMDL
MODEL 6
REMARK VINA RESULT:    -6.012     10.467     11.847
REMARK INTER + INTRA:          -7.530
REMARK INTER:                  -7.698
REMARK INTRA:                   0.168
REMARK UNBOUND:                -0.288
REMARK SMILES O=c1c(O)c(-c2ccc(O)c(O)c2)oc2cc(O)cc(O)c12
REMARK SMILES IDX 5 1 3 2 2 3 1 4 22 5 20 6 19 7 17 8 16 9 15 10 14 11 6 12
REMARK SMILES IDX 7 13 8 14 9 15 13 16 11 17 10 18 12 20 4 22 21 24 18 26
REMARK H PARENT 10 19 12 21 4 23 21 25 18 27
REMARK Flexibility Score: inf
ROOT
ATOM      1  C   UNL     1      -3.702  11.019 -11.112  1.00  0.00     0.180 A 
ATOM      2  C   UNL     1      -3.783   9.619 -11.219  1.00  0.00     0.208 A 
ATOM      3  C   UNL     1      -5.032   8.996 -11.062  1.00  0.00     0.238 A 
ATOM      4  O   UNL     1      -5.108   7.749 -11.213  1.00  0.00    -0.285 OA
ATOM      5  C   UNL     1      -6.180   9.778 -10.786  1.00  0.00     0.111 A 
ATOM      6  C   UNL     1      -7.487   9.248 -10.569  1.00  0.00     0.134 A 
ATOM      7  C   UNL     1      -8.573  10.123 -10.432  1.00  0.00     0.093 A 
ATOM      8  C   UNL     1      -8.389  11.506 -10.439  1.00  0.00     0.123 A 
ATOM      9  C   UNL     1      -7.106  12.033 -10.590  1.00  0.00     0.094 A 
ATOM     10  C   UNL     1      -6.008  11.186 -10.765  1.00  0.00     0.146 A 
ATOM     11  O   UNL     1      -4.806  11.729 -10.916  1.00  0.00    -0.452 OA
ENDROOT
BRANCH   1  12
ATOM     12  C   UNL     1      -2.417  11.745 -11.239  1.00  0.00     0.025 A 
ATOM     13  C   UNL     1      -2.132  12.801 -10.359  1.00  0.00     0.016 A 
ATOM     14  C   UNL     1      -0.917  13.487 -10.447  1.00  0.00     0.051 A 
ATOM     15  C   UNL     1       0.036  13.115 -11.404  1.00  0.00     0.157 A 
ATOM     16  C   UNL     1      -1.449  11.361 -12.185  1.00  0.00     0.062 A 
ATOM     17  C   UNL     1      -0.231  12.045 -12.273  1.00  0.00     0.158 A 
BRANCH  15  18
ATOM     18  O   UNL     1       1.246  13.802 -11.491  1.00  0.00    -0.504 OA
ATOM     19  H   UNL     1       1.581  14.179 -12.371  1.00  0.00     0.293 HD
ENDBRANCH  15  18
BRANCH  17  20
ATOM     20  O   UNL     1       0.703  11.641 -13.227  1.00  0.00    -0.504 OA
ATOM     21  H   UNL     1       1.248  12.307 -13.763  1.00  0.00     0.293 HD
ENDBRANCH  17  20
ENDBRANCH   1  12
BRANCH   2  22
ATOM     22  O   UNL     1      -2.642   8.869 -11.515  1.00  0.00    -0.502 OA
ATOM     23  H   UNL     1      -2.031   9.091 -12.292  1.00  0.00     0.293 HD
ENDBRANCH   2  22
BRANCH   6  24
ATOM     24  O   UNL     1      -7.768   7.884 -10.453  1.00  0.00    -0.507 OA
ATOM     25  H   UNL     1      -7.351   7.268  -9.772  1.00  0.00     0.293 HD
ENDBRANCH   6  24
BRANCH   8  26
ATOM     26  O   UNL     1      -9.489  12.346 -10.285  1.00  0.00    -0.508 OA
ATOM     27  H   UNL     1      -9.904  12.827 -11.074  1.00  0.00     0.293 HD
ENDBRANCH   8  26
TORSDOF 6
ENDMDL
MODEL 7
REMARK VINA RESULT:    -5.971      2.239      6.805
REMARK INTER + INTRA:          -7.482
REMARK INTER:                  -7.190
REMARK INTRA:                  -0.292
REMARK UNBOUND:                -0.288
REMARK SMILES O=c1c(O)c(-c2ccc(O)c(O)c2)oc2cc(O)cc(O)c12
REMARK SMILES IDX 5 1 3 2 2 3 1 4 22 5 20 6 19 7 17 8 16 9 15 10 14 11 6 12
REMARK SMILES IDX 7 13 8 14 9 15 13 16 11 17 10 18 12 20 4 22 21 24 18 26
REMARK H PARENT 10 19 12 21 4 23 21 25 18 27
REMARK Flexibility Score: inf
ROOT
ATOM      1  C   UNL     1     -13.613  11.173 -15.837  1.00  0.00     0.180 A 
ATOM      2  C   UNL     1     -13.047  11.768 -16.977  1.00  0.00     0.208 A 
ATOM      3  C   UNL     1     -13.136  13.161 -17.133  1.00  0.00     0.238 A 
ATOM      4  O   UNL     1     -12.580  13.694 -18.128  1.00  0.00    -0.285 OA
ATOM      5  C   UNL     1     -13.803  13.939 -16.155  1.00  0.00     0.111 A 
ATOM      6  C   UNL     1     -13.987  15.351 -16.231  1.00  0.00     0.134 A 
ATOM      7  C   UNL     1     -14.548  16.034 -15.144  1.00  0.00     0.093 A 
ATOM      8  C   UNL     1     -14.990  15.348 -14.013  1.00  0.00     0.123 A 
ATOM      9  C   UNL     1     -14.869  13.960 -13.954  1.00  0.00     0.094 A 
ATOM     10  C   UNL     1     -14.281  13.255 -15.008  1.00  0.00     0.146 A 
ATOM     11  O   UNL     1     -14.175  11.935 -14.907  1.00  0.00    -0.452 OA
ENDROOT
BRANCH   1  12
ATOM     12  C   UNL     1     -13.582   9.708 -15.616  1.00  0.00     0.025 A 
ATOM     13  C   UNL     1     -14.493   8.888 -16.301  1.00  0.00     0.016 A 
ATOM     14  C   UNL     1     -14.469   7.502 -16.124  1.00  0.00     0.051 A 
ATOM     15  C   UNL     1     -13.524   6.915 -15.273  1.00  0.00     0.157 A 
ATOM     16  C   UNL     1     -12.622   9.114 -14.779  1.00  0.00     0.062 A 
ATOM     17  C   UNL     1     -12.594   7.725 -14.601  1.00  0.00     0.158 A 
BRANCH  15  18
ATOM     18  O   UNL     1     -13.504   5.532 -15.097  1.00  0.00    -0.504 OA
ATOM     19  H   UNL     1     -12.646   5.038 -14.875  1.00  0.00     0.293 HD
ENDBRANCH  15  18
BRANCH  17  20
ATOM     20  O   UNL     1     -11.631   7.170 -13.758  1.00  0.00    -0.504 OA
ATOM     21  H   UNL     1     -11.835   6.383 -13.153  1.00  0.00     0.293 HD
ENDBRANCH  17  20
ENDBRANCH   1  12
BRANCH   2  22
ATOM     22  O   UNL     1     -12.373  10.985 -17.919  1.00  0.00    -0.502 OA
ATOM     23  H   UNL     1     -12.601  11.004 -18.906  1.00  0.00     0.293 HD
ENDBRANCH   2  22
BRANCH   6  24
ATOM     24  O   UNL     1     -13.665  16.122 -17.353  1.00  0.00    -0.507 OA
ATOM     25  H   UNL     1     -12.895  15.933 -17.977  1.00  0.00     0.293 HD
ENDBRANCH   6  24
BRANCH   8  26
ATOM     26  O   UNL     1     -15.557  16.057 -12.958  1.00  0.00    -0.508 OA
ATOM     27  H   UNL     1     -16.388  16.623 -13.084  1.00  0.00     0.293 HD
ENDBRANCH   8  26
TORSDOF 6
ENDMDL
MODEL 8
REMARK VINA RESULT:    -5.971      7.034      8.470
REMARK INTER + INTRA:          -7.481
REMARK INTER:                  -7.147
REMARK INTRA:                  -0.334
REMARK UNBOUND:                -0.288
REMARK SMILES O=c1c(O)c(-c2ccc(O)c(O)c2)oc2cc(O)cc(O)c12
REMARK SMILES IDX 5 1 3 2 2 3 1 4 22 5 20 6 19 7 17 8 16 9 15 10 14 11 6 12
REMARK SMILES IDX 7 13 8 14 9 15 13 16 11 17 10 18 12 20 4 22 21 24 18 26
REMARK H PARENT 10 19 12 21 4 23 21 25 18 27
REMARK Flexibility Score: inf
ROOT
ATOM      1  C   UNL     1     -11.275  14.406 -23.083  1.00  0.00     0.180 A 
ATOM      2  C   UNL     1      -9.929  14.537 -23.464  1.00  0.00     0.208 A 
ATOM      3  C   UNL     1      -9.175  13.378 -23.711  1.00  0.00     0.238 A 
ATOM      4  O   UNL     1      -7.987  13.503 -24.104  1.00  0.00    -0.285 OA
ATOM      5  C   UNL     1      -9.773  12.103 -23.558  1.00  0.00     0.111 A 
ATOM      6  C   UNL     1      -9.092  10.863 -23.743  1.00  0.00     0.134 A 
ATOM      7  C   UNL     1      -9.816   9.664 -23.693  1.00  0.00     0.093 A 
ATOM      8  C   UNL     1     -11.179   9.658 -23.400  1.00  0.00     0.123 A 
ATOM      9  C   UNL     1     -11.842  10.862 -23.159  1.00  0.00     0.094 A 
ATOM     10  C   UNL     1     -11.155  12.076 -23.238  1.00  0.00     0.146 A 
ATOM     11  O   UNL     1     -11.825  13.200 -23.011  1.00  0.00    -0.452 OA
ENDROOT
BRANCH   1  12
ATOM     12  C   UNL     1     -12.126  15.581 -22.781  1.00  0.00     0.025 A 
ATOM     13  C   UNL     1     -12.937  16.123 -23.790  1.00  0.00     0.016 A 
ATOM     14  C   UNL     1     -13.763  17.218 -23.523  1.00  0.00     0.051 A 
ATOM     15  C   UNL     1     -13.802  17.777 -22.239  1.00  0.00     0.157 A 
ATOM     16  C   UNL     1     -12.182  16.131 -21.488  1.00  0.00     0.062 A 
ATOM     17  C   UNL     1     -13.011  17.227 -21.217  1.00  0.00     0.158 A 
BRANCH  15  18
ATOM     18  O   UNL     1     -14.625  18.871 -21.975  1.00  0.00    -0.504 OA
ATOM     19  H   UNL     1     -15.559  18.938 -22.363  1.00  0.00     0.293 HD
ENDBRANCH  15  18
BRANCH  17  20
ATOM     20  O   UNL     1     -13.037  17.751 -19.924  1.00  0.00    -0.504 OA
ATOM     21  H   UNL     1     -12.268  18.293 -19.547  1.00  0.00     0.293 HD
ENDBRANCH  17  20
ENDBRANCH   1  12
BRANCH   2  22
ATOM     22  O   UNL     1      -9.365  15.806 -23.631  1.00  0.00    -0.502 OA
ATOM     23  H   UNL     1      -9.631  16.599 -23.059  1.00  0.00     0.293 HD
ENDBRANCH   2  22
BRANCH   6  24
ATOM     24  O   UNL     1      -7.714  10.752 -23.949  1.00  0.00    -0.507 OA
ATOM     25  H   UNL     1      -7.189   9.895 -23.866  1.00  0.00     0.293 HD
ENDBRANCH   6  24
BRANCH   8  26
ATOM     26  O   UNL     1     -11.864   8.447 -23.343  1.00  0.00    -0.508 OA
ATOM     27  H   UNL     1     -12.116   7.939 -24.183  1.00  0.00     0.293 HD
ENDBRANCH   8  26
TORSDOF 6
ENDMDL
MODEL 9
REMARK VINA RESULT:    -5.856      1.649      2.445
REMARK INTER + INTRA:          -7.343
REMARK INTER:                  -7.401
REMARK INTRA:                   0.058
REMARK UNBOUND:                -0.288
REMARK SMILES O=c1c(O)c(-c2ccc(O)c(O)c2)oc2cc(O)cc(O)c12
REMARK SMILES IDX 5 1 3 2 2 3 1 4 22 5 20 6 19 7 17 8 16 9 15 10 14 11 6 12
REMARK SMILES IDX 7 13 8 14 9 15 13 16 11 17 10 18 12 20 4 22 21 24 18 26
REMARK H PARENT 10 19 12 21 4 23 21 25 18 27
REMARK Flexibility Score: inf
ROOT
ATOM      1  C   UNL     1     -13.733  13.429 -16.689  1.00  0.00     0.180 A 
ATOM      2  C   UNL     1     -13.748  12.029 -16.558  1.00  0.00     0.208 A 
ATOM      3  C   UNL     1     -13.499  11.236 -17.690  1.00  0.00     0.238 A 
ATOM      4  O   UNL     1     -13.459   9.986 -17.555  1.00  0.00    -0.285 OA
ATOM      5  C   UNL     1     -13.255  11.852 -18.942  1.00  0.00     0.111 A 
ATOM      6  C   UNL     1     -13.030  11.146 -20.161  1.00  0.00     0.134 A 
ATOM      7  C   UNL     1     -12.670  11.856 -21.314  1.00  0.00     0.093 A 
ATOM      8  C   UNL     1     -12.590  13.248 -21.306  1.00  0.00     0.123 A 
ATOM      9  C   UNL     1     -12.866  13.952 -20.134  1.00  0.00     0.094 A 
ATOM     10  C   UNL     1     -13.193  13.269 -18.959  1.00  0.00     0.146 A 
ATOM     11  O   UNL     1     -13.438  13.976 -17.862  1.00  0.00    -0.452 OA
ENDROOT
BRANCH   1  12
ATOM     12  C   UNL     1     -14.012  14.330 -15.547  1.00  0.00     0.025 A 
ATOM     13  C   UNL     1     -13.236  15.486 -15.375  1.00  0.00     0.016 A 
ATOM     14  C   UNL     1     -13.494  16.361 -14.317  1.00  0.00     0.051 A 
ATOM     15  C   UNL     1     -14.543  16.101 -13.425  1.00  0.00     0.157 A 
ATOM     16  C   UNL     1     -15.077  14.082 -14.662  1.00  0.00     0.062 A 
ATOM     17  C   UNL     1     -15.339  14.958 -13.602  1.00  0.00     0.158 A 
BRANCH  15  18
ATOM     18  O   UNL     1     -14.797  16.975 -12.369  1.00  0.00    -0.504 OA
ATOM     19  H   UNL     1     -15.620  16.876 -11.785  1.00  0.00     0.293 HD
ENDBRANCH  15  18
BRANCH  17  20
ATOM     20  O   UNL     1     -16.399  14.678 -12.740  1.00  0.00    -0.504 OA
ATOM     21  H   UNL     1     -17.063  13.936 -12.926  1.00  0.00     0.293 HD
ENDBRANCH  17  20
ENDBRANCH   1  12
BRANCH   2  22
ATOM     22  O   UNL     1     -13.969  11.442 -15.309  1.00  0.00    -0.502 OA
ATOM     23  H   UNL     1     -13.233  10.979 -14.787  1.00  0.00     0.293 HD
ENDBRANCH   2  22
BRANCH   6  24
ATOM     24  O   UNL     1     -13.174   9.762 -20.300  1.00  0.00    -0.507 OA
ATOM     25  H   UNL     1     -12.938   9.086 -19.590  1.00  0.00     0.293 HD
ENDBRANCH   6  24
BRANCH   8  26
ATOM     26  O   UNL     1     -12.244  13.923 -22.475  1.00  0.00    -0.508 OA
ATOM     27  H   UNL     1     -11.277  14.088 -22.726  1.00  0.00     0.293 HD
ENDBRANCH   8  26
TORSDOF 6
ENDMDL
