MODEL 1
REMARK VINA RESULT:    -2.268      0.000      0.000
REMARK INTER + INTRA:          -4.981
REMARK INTER:                  -3.593
REMARK INTRA:                  -1.388
REMARK UNBOUND:                -1.388
REMARK SMILES CCCCCCCCCCCC(=O)[O-]
REMARK SMILES IDX 7 1 8 2 9 3 10 4 11 5 12 6 13 7 14 8 6 9 5 10 4 11 3 12 2 13
REMARK SMILES IDX 1 14
REMARK H PARENT
REMARK Flexibility Score: inf
ROOT
ATOM      1  C   UNL     1      74.385  91.714  73.736  1.00  0.00     0.000 C 
ENDROOT
BRANCH   1   2
ATOM      2  C   UNL     1      74.834  91.441  75.176  1.00  0.00     0.000 C 
BRANCH   2   3
ATOM      3  C   UNL     1      76.178  92.125  75.473  1.00  0.00     0.000 C 
BRANCH   3   4
ATOM      4  C   UNL     1      76.707  91.806  76.880  1.00  0.00     0.006 C 
BRANCH   4   5
ATOM      5  C   UNL     1      76.076  90.542  77.476  1.00  0.00     0.053 C 
BRANCH   5   6
ATOM      6  C   UNL     1      75.585  90.808  78.865  1.00  0.00     0.041 C 
ATOM      7  O   UNL     1      74.643  91.620  79.059  1.00  0.00    -0.550 OA
ATOM      8  O   UNL     1      76.203  90.197  79.949  1.00  0.00    -0.550 OA
ENDBRANCH   5   6
ENDBRANCH   4   5
ENDBRANCH   3   4
ENDBRANCH   2   3
ENDBRANCH   1   2
BRANCH   1   9
ATOM      9  C   UNL     1      74.155  90.401  72.973  1.00  0.00     0.000 C 
BRANCH   9  10
ATOM     10  C   UNL     1      74.587  89.161  73.774  1.00  0.00    -0.000 C 
BRANCH  10  11
ATOM     11  C   UNL     1      75.766  88.370  73.170  1.00  0.00    -0.000 C 
BRANCH  11  12
ATOM     12  C   UNL     1      77.077  89.163  73.024  1.00  0.00    -0.000 C 
BRANCH  12  13
ATOM     13  C   UNL     1      77.896  89.204  74.322  1.00  0.00    -0.003 C 
ATOM     14  C   UNL     1      77.859  87.857  75.038  1.00  0.00     0.004 C 
ENDBRANCH  12  13
ENDBRANCH  11  12
ENDBRANCH  10  11
ENDBRANCH   9  10
ENDBRANCH   1   9
TORSDOF 10
ENDMDL
MODEL 2
REMARK VINA RESULT:    -2.232     16.114     17.353
REMARK INTER + INTRA:          -4.925
REMARK INTER:                  -3.794
REMARK INTRA:                  -1.131
REMARK UNBOUND:                -1.388
REMARK SMILES CCCCCCCCCCCC(=O)[O-]
REMARK SMILES IDX 7 1 8 2 9 3 10 4 11 5 12 6 13 7 14 8 6 9 5 10 4 11 3 12 2 13
REMARK SMILES IDX 1 14
REMARK H PARENT
REMARK Flexibility Score: inf
ROOT
ATOM      1  C   UNL     1      77.300  89.799  91.367  1.00  0.00     0.000 C 
ENDROOT
BRANCH   1   2
ATOM      2  C   UNL     1      78.030  89.078  92.506  1.00  0.00     0.000 C 
BRANCH   2   3
ATOM      3  C   UNL     1      77.423  87.689  92.756  1.00  0.00     0.000 C 
BRANCH   3   4
ATOM      4  C   UNL     1      78.085  86.592  91.909  1.00  0.00     0.006 C 
BRANCH   4   5
ATOM      5  C   UNL     1      77.478  85.205  92.157  1.00  0.00     0.053 C 
BRANCH   5   6
ATOM      6  C   UNL     1      75.996  85.239  91.949  1.00  0.00     0.041 C 
ATOM      7  O   UNL     1      75.216  85.044  92.918  1.00  0.00    -0.550 OA
ATOM      8  O   UNL     1      75.478  85.437  90.675  1.00  0.00    -0.550 OA
ENDBRANCH   5   6
ENDBRANCH   4   5
ENDBRANCH   3   4
ENDBRANCH   2   3
ENDBRANCH   1   2
BRANCH   1   9
ATOM      9  C   UNL     1      76.727  91.142  91.845  1.00  0.00     0.000 C 
BRANCH   9  10
ATOM     10  C   UNL     1      75.881  91.009  93.123  1.00  0.00    -0.000 C 
BRANCH  10  11
ATOM     11  C   UNL     1      74.395  90.667  92.892  1.00  0.00    -0.000 C 
BRANCH  11  12
ATOM     12  C   UNL     1      74.033  89.180  93.065  1.00  0.00    -0.000 C 
BRANCH  12  13
ATOM     13  C   UNL     1      73.804  88.463  91.727  1.00  0.00    -0.003 C 
ATOM     14  C   UNL     1      72.798  87.326  91.879  1.00  0.00     0.004 C 
ENDBRANCH  12  13
ENDBRANCH  11  12
ENDBRANCH  10  11
ENDBRANCH   9  10
ENDBRANCH   1   9
TORSDOF 10
ENDMDL
MODEL 3
REMARK VINA RESULT:    -2.186     15.412     16.726
REMARK INTER + INTRA:          -4.852
REMARK INTER:                  -3.501
REMARK INTRA:                  -1.352
REMARK UNBOUND:                -1.388
REMARK SMILES CCCCCCCCCCCC(=O)[O-]
REMARK SMILES IDX 7 1 8 2 9 3 10 4 11 5 12 6 13 7 14 8 6 9 5 10 4 11 3 12 2 13
REMARK SMILES IDX 1 14
REMARK H PARENT
REMARK Flexibility Score: inf
ROOT
ATOM      1  C   UNL     1      76.746  90.393  91.778  1.00  0.00     0.000 C 
ENDROOT
BRANCH   1   2
ATOM      2  C   UNL     1      75.882  90.971  92.904  1.00  0.00     0.000 C 
BRANCH   2   3
ATOM      3  C   UNL     1      74.437  90.456  92.809  1.00  0.00     0.000 C 
BRANCH   3   4
ATOM      4  C   UNL     1      74.359  88.924  92.721  1.00  0.00     0.006 C 
BRANCH   4   5
ATOM      5  C   UNL     1      73.590  88.441  91.485  1.00  0.00     0.053 C 
BRANCH   5   6
ATOM      6  C   UNL     1      72.791  87.218  91.811  1.00  0.00     0.041 C 
ATOM      7  O   UNL     1      72.133  86.633  90.912  1.00  0.00    -0.550 OA
ATOM      8  O   UNL     1      72.735  86.755  93.120  1.00  0.00    -0.550 OA
ENDBRANCH   5   6
ENDBRANCH   4   5
ENDBRANCH   3   4
ENDBRANCH   2   3
ENDBRANCH   1   2
BRANCH   1   9
ATOM      9  C   UNL     1      78.064  89.830  92.330  1.00  0.00     0.000 C 
BRANCH   9  10
ATOM     10  C   UNL     1      78.427  88.460  91.730  1.00  0.00    -0.000 C 
BRANCH  10  11
ATOM     11  C   UNL     1      77.785  88.154  90.362  1.00  0.00    -0.000 C 
BRANCH  11  12
ATOM     12  C   UNL     1      76.850  86.931  90.339  1.00  0.00    -0.000 C 
BRANCH  12  13
ATOM     13  C   UNL     1      76.714  86.259  91.712  1.00  0.00    -0.003 C 
ATOM     14  C   UNL     1      75.787  85.049  91.641  1.00  0.00     0.004 C 
ENDBRANCH  12  13
ENDBRANCH  11  12
ENDBRANCH  10  11
ENDBRANCH   9  10
ENDBRANCH   1   9
TORSDOF 10
ENDMDL
MODEL 4
REMARK VINA RESULT:    -2.154      3.222      6.379
REMARK INTER + INTRA:          -4.801
REMARK INTER:                  -4.092
REMARK INTRA:                  -0.709
REMARK UNBOUND:                -1.388
REMARK SMILES CCCCCCCCCCCC(=O)[O-]
REMARK SMILES IDX 7 1 8 2 9 3 10 4 11 5 12 6 13 7 14 8 6 9 5 10 4 11 3 12 2 13
REMARK SMILES IDX 1 14
REMARK H PARENT
REMARK Flexibility Score: inf
ROOT
ATOM      1  C   UNL     1      76.679  92.040  78.535  1.00  0.00     0.000 C 
ENDROOT
BRANCH   1   2
ATOM      2  C   UNL     1      76.955  90.676  77.892  1.00  0.00     0.000 C 
BRANCH   2   3
ATOM      3  C   UNL     1      76.791  90.744  76.366  1.00  0.00     0.000 C 
BRANCH   3   4
ATOM      4  C   UNL     1      76.298  92.116  75.883  1.00  0.00     0.006 C 
BRANCH   4   5
ATOM      5  C   UNL     1      74.915  92.049  75.224  1.00  0.00     0.053 C 
BRANCH   5   6
ATOM      6  C   UNL     1      75.030  91.541  73.821  1.00  0.00     0.041 C 
ATOM      7  O   UNL     1      75.871  92.045  73.031  1.00  0.00    -0.550 OA
ATOM      8  O   UNL     1      74.174  90.543  73.372  1.00  0.00    -0.550 OA
ENDBRANCH   5   6
ENDBRANCH   4   5
ENDBRANCH   3   4
ENDBRANCH   2   3
ENDBRANCH   1   2
BRANCH   1   9
ATOM      9  C   UNL     1      75.788  91.892  79.777  1.00  0.00     0.000 C 
BRANCH   9  10
ATOM     10  C   UNL     1      74.514  91.073  79.506  1.00  0.00    -0.000 C 
BRANCH  10  11
ATOM     11  C   UNL     1      73.291  91.461  80.362  1.00  0.00    -0.000 C 
BRANCH  11  12
ATOM     12  C   UNL     1      72.405  90.283  80.806  1.00  0.00    -0.000 C 
BRANCH  12  13
ATOM     13  C   UNL     1      72.600  89.914  82.283  1.00  0.00    -0.003 C 
ATOM     14  C   UNL     1      73.683  88.851  82.444  1.00  0.00     0.004 C 
ENDBRANCH  12  13
ENDBRANCH  11  12
ENDBRANCH  10  11
ENDBRANCH   9  10
ENDBRANCH   1   9
TORSDOF 10
ENDMDL
MODEL 5
REMARK VINA RESULT:    -2.136      2.650      4.445
REMARK INTER + INTRA:          -4.773
REMARK INTER:                  -4.283
REMARK INTRA:                  -0.490
REMARK UNBOUND:                -1.388
REMARK SMILES CCCCCCCCCCCC(=O)[O-]
REMARK SMILES IDX 7 1 8 2 9 3 10 4 11 5 12 6 13 7 14 8 6 9 5 10 4 11 3 12 2 13
REMARK SMILES IDX 1 14
REMARK H PARENT
REMARK Flexibility Score: inf
ROOT
ATOM      1  C   UNL     1      75.626  90.755  77.624  1.00  0.00     0.000 C 
ENDROOT
BRANCH   1   2
ATOM      2  C   UNL     1      75.917  90.931  79.119  1.00  0.00     0.000 C 
BRANCH   2   3
ATOM      3  C   UNL     1      74.613  91.057  79.922  1.00  0.00     0.000 C 
BRANCH   3   4
ATOM      4  C   UNL     1      74.061  89.697  80.373  1.00  0.00     0.006 C 
BRANCH   4   5
ATOM      5  C   UNL     1      74.120  89.510  81.895  1.00  0.00     0.053 C 
BRANCH   5   6
ATOM      6  C   UNL     1      72.763  89.695  82.497  1.00  0.00     0.041 C 
ATOM      7  O   UNL     1      71.875  90.334  81.873  1.00  0.00    -0.550 OA
ATOM      8  O   UNL     1      72.494  89.205  83.769  1.00  0.00    -0.550 OA
ENDBRANCH   5   6
ENDBRANCH   4   5
ENDBRANCH   3   4
ENDBRANCH   2   3
ENDBRANCH   1   2
BRANCH   1   9
ATOM      9  C   UNL     1      75.537  92.115  76.917  1.00  0.00     0.000 C 
BRANCH   9  10
ATOM     10  C   UNL     1      76.060  92.073  75.470  1.00  0.00    -0.000 C 
BRANCH  10  11
ATOM     11  C   UNL     1      76.091  90.671  74.827  1.00  0.00    -0.000 C 
BRANCH  11  12
ATOM     12  C   UNL     1      75.543  90.601  73.389  1.00  0.00    -0.000 C 
BRANCH  12  13
ATOM     13  C   UNL     1      74.059  90.214  73.335  1.00  0.00    -0.003 C 
ATOM     14  C   UNL     1      73.176  91.446  73.159  1.00  0.00     0.004 C 
ENDBRANCH  12  13
ENDBRANCH  11  12
ENDBRANCH  10  11
ENDBRANCH   9  10
ENDBRANCH   1   9
TORSDOF 10
ENDMDL
MODEL 6
REMARK VINA RESULT:    -2.093      3.801      5.130
REMARK INTER + INTRA:          -4.704
REMARK INTER:                  -3.520
REMARK INTRA:                  -1.184
REMARK UNBOUND:                -1.388
REMARK SMILES CCCCCCCCCCCC(=O)[O-]
REMARK SMILES IDX 7 1 8 2 9 3 10 4 11 5 12 6 13 7 14 8 6 9 5 10 4 11 3 12 2 13
REMARK SMILES IDX 1 14
REMARK H PARENT
REMARK Flexibility Score: inf
ROOT
ATOM      1  C   UNL     1      75.057  88.836  72.880  1.00  0.00     0.000 C 
ENDROOT
BRANCH   1   2
ATOM      2  C   UNL     1      74.580  87.751  73.853  1.00  0.00     0.000 C 
BRANCH   2   3
ATOM      3  C   UNL     1      75.772  87.046  74.518  1.00  0.00     0.000 C 
BRANCH   3   4
ATOM      4  C   UNL     1      75.392  86.356  75.837  1.00  0.00     0.006 C 
BRANCH   4   5
ATOM      5  C   UNL     1      74.130  85.493  75.710  1.00  0.00     0.053 C 
BRANCH   5   6
ATOM      6  C   UNL     1      74.488  84.040  75.724  1.00  0.00     0.041 C 
ATOM      7  O   UNL     1      74.677  83.424  74.642  1.00  0.00    -0.550 OA
ATOM      8  O   UNL     1      74.563  83.354  76.930  1.00  0.00    -0.550 OA
ENDBRANCH   5   6
ENDBRANCH   4   5
ENDBRANCH   3   4
ENDBRANCH   2   3
ENDBRANCH   1   2
BRANCH   1   9
ATOM      9  C   UNL     1      74.181  90.093  72.987  1.00  0.00     0.000 C 
BRANCH   9  10
ATOM     10  C   UNL     1      74.993  91.397  72.890  1.00  0.00    -0.000 C 
BRANCH  10  11
ATOM     11  C   UNL     1      75.804  91.758  74.151  1.00  0.00    -0.000 C 
BRANCH  11  12
ATOM     12  C   UNL     1      75.099  91.462  75.487  1.00  0.00    -0.000 C 
BRANCH  12  13
ATOM     13  C   UNL     1      75.853  90.437  76.345  1.00  0.00    -0.003 C 
ATOM     14  C   UNL     1      77.223  90.125  75.750  1.00  0.00     0.004 C 
ENDBRANCH  12  13
ENDBRANCH  11  12
ENDBRANCH  10  11
ENDBRANCH   9  10
ENDBRANCH   1   9
TORSDOF 10
ENDMDL
MODEL 7
REMARK VINA RESULT:    -2.089     17.721     20.073
REMARK INTER + INTRA:          -4.698
REMARK INTER:                  -3.371
REMARK INTRA:                  -1.327
REMARK UNBOUND:                -1.388
REMARK SMILES CCCCCCCCCCCC(=O)[O-]
REMARK SMILES IDX 7 1 8 2 9 3 10 4 11 5 12 6 13 7 14 8 6 9 5 10 4 11 3 12 2 13
REMARK SMILES IDX 1 14
REMARK H PARENT
REMARK Flexibility Score: inf
ROOT
ATOM      1  C   UNL     1      89.639  75.744  74.913  1.00  0.00     0.000 C 
ENDROOT
BRANCH   1   2
ATOM      2  C   UNL     1      89.446  75.524  76.418  1.00  0.00     0.000 C 
BRANCH   2   3
ATOM      3  C   UNL     1      88.307  74.529  76.687  1.00  0.00     0.000 C 
BRANCH   3   4
ATOM      4  C   UNL     1      88.126  74.226  78.182  1.00  0.00     0.006 C 
BRANCH   4   5
ATOM      5  C   UNL     1      89.295  74.736  79.034  1.00  0.00     0.053 C 
BRANCH   5   6
ATOM      6  C   UNL     1      90.067  73.587  79.603  1.00  0.00     0.041 C 
ATOM      7  O   UNL     1      89.792  72.408  79.260  1.00  0.00    -0.550 OA
ATOM      8  O   UNL     1      91.056  73.817  80.551  1.00  0.00    -0.550 OA
ENDBRANCH   5   6
ENDBRANCH   4   5
ENDBRANCH   3   4
ENDBRANCH   2   3
ENDBRANCH   1   2
BRANCH   1   9
ATOM      9  C   UNL     1      88.742  74.799  74.100  1.00  0.00     0.000 C 
BRANCH   9  10
ATOM     10  C   UNL     1      88.107  75.482  72.876  1.00  0.00    -0.000 C 
BRANCH  10  11
ATOM     11  C   UNL     1      86.769  76.200  73.148  1.00  0.00    -0.000 C 
BRANCH  11  12
ATOM     12  C   UNL     1      85.836  75.485  74.141  1.00  0.00    -0.000 C 
BRANCH  12  13
ATOM     13  C   UNL     1      85.378  76.395  75.290  1.00  0.00    -0.003 C 
ATOM     14  C   UNL     1      86.362  77.542  75.506  1.00  0.00     0.004 C 
ENDBRANCH  12  13
ENDBRANCH  11  12
ENDBRANCH  10  11
ENDBRANCH   9  10
ENDBRANCH   1   9
TORSDOF 10
ENDMDL
MODEL 8
REMARK VINA RESULT:    -2.086     15.852     17.024
REMARK INTER + INTRA:          -4.693
REMARK INTER:                  -3.494
REMARK INTRA:                  -1.199
REMARK UNBOUND:                -1.388
REMARK SMILES CCCCCCCCCCCC(=O)[O-]
REMARK SMILES IDX 7 1 8 2 9 3 10 4 11 5 12 6 13 7 14 8 6 9 5 10 4 11 3 12 2 13
REMARK SMILES IDX 1 14
REMARK H PARENT
REMARK Flexibility Score: inf
ROOT
ATOM      1  C   UNL     1      75.575  90.966  93.027  1.00  0.00     0.000 C 
ENDROOT
BRANCH   1   2
ATOM      2  C   UNL     1      74.272  90.162  92.950  1.00  0.00     0.000 C 
BRANCH   2   3
ATOM      3  C   UNL     1      74.388  89.022  91.925  1.00  0.00     0.000 C 
BRANCH   3   4
ATOM      4  C   UNL     1      73.374  87.895  92.175  1.00  0.00     0.006 C 
BRANCH   4   5
ATOM      5  C   UNL     1      72.756  87.358  90.879  1.00  0.00     0.053 C 
BRANCH   5   6
ATOM      6  C   UNL     1      72.463  85.896  91.007  1.00  0.00     0.041 C 
ATOM      7  O   UNL     1      72.713  85.291  92.083  1.00  0.00    -0.550 OA
ATOM      8  O   UNL     1      71.960  85.191  89.921  1.00  0.00    -0.550 OA
ENDBRANCH   5   6
ENDBRANCH   4   5
ENDBRANCH   3   4
ENDBRANCH   2   3
ENDBRANCH   1   2
BRANCH   1   9
ATOM      9  C   UNL     1      76.538  90.561  91.901  1.00  0.00     0.000 C 
BRANCH   9  10
ATOM     10  C   UNL     1      77.983  90.363  92.392  1.00  0.00    -0.000 C 
BRANCH  10  11
ATOM     11  C   UNL     1      78.508  88.915  92.309  1.00  0.00    -0.000 C 
BRANCH  11  12
ATOM     12  C   UNL     1      77.708  87.882  93.124  1.00  0.00    -0.000 C 
BRANCH  12  13
ATOM     13  C   UNL     1      77.298  86.657  92.295  1.00  0.00    -0.003 C 
ATOM     14  C   UNL     1      77.232  86.997  90.809  1.00  0.00     0.004 C 
ENDBRANCH  12  13
ENDBRANCH  11  12
ENDBRANCH  10  11
ENDBRANCH   9  10
ENDBRANCH   1   9
TORSDOF 10
ENDMDL
