MODEL 1
REMARK VINA RESULT:    -4.952      0.000      0.000
REMARK INTER + INTRA:         -11.423
REMARK INTER:                 -10.741
REMARK INTRA:                  -0.682
REMARK UNBOUND:                -0.682
REMARK SMILES CCCCCCCCCCCCCCCCCCCCCC(=O)[O-]
REMARK SMILES IDX 12 1 11 2 10 3 9 4 8 5 7 6 6 7 5 8 4 9 3 10 2 11 1 12 13 13
REMARK SMILES IDX 14 14 15 15 16 16 17 17 18 18 19 19 20 20 21 21 22 22 23 23
REMARK SMILES IDX 24 24
REMARK H PARENT
REMARK Flexibility Score: inf
ROOT
ATOM      1  C   UNL     1      38.806  67.135  23.875  1.00  0.00     0.000 C 
ENDROOT
BRANCH   1   2
ATOM      2  C   UNL     1      39.631  66.352  22.839  1.00  0.00     0.000 C 
BRANCH   2   3
ATOM      3  C   UNL     1      40.422  67.267  21.891  1.00  0.00     0.000 C 
BRANCH   3   4
ATOM      4  C   UNL     1      41.857  67.470  22.392  1.00  0.00    -0.000 C 
BRANCH   4   5
ATOM      5  C   UNL     1      41.888  68.412  23.606  1.00  0.00    -0.000 C 
BRANCH   5   6
ATOM      6  C   UNL     1      43.282  69.014  23.866  1.00  0.00    -0.000 C 
BRANCH   6   7
ATOM      7  C   UNL     1      43.347  70.055  24.998  1.00  0.00    -0.000 C 
BRANCH   7   8
ATOM      8  C   UNL     1      44.157  71.305  24.617  1.00  0.00    -0.000 C 
BRANCH   8   9
ATOM      9  C   UNL     1      43.483  72.613  25.071  1.00  0.00    -0.000 C 
BRANCH   9  10
ATOM     10  C   UNL     1      42.501  73.235  24.057  1.00  0.00    -0.000 C 
BRANCH  10  11
ATOM     11  C   UNL     1      41.274  73.926  24.680  1.00  0.00    -0.003 C 
ATOM     12  C   UNL     1      41.270  73.866  26.206  1.00  0.00     0.004 C 
ENDBRANCH  10  11
ENDBRANCH   9  10
ENDBRANCH   8   9
ENDBRANCH   7   8
ENDBRANCH   6   7
ENDBRANCH   5   6
ENDBRANCH   4   5
ENDBRANCH   3   4
ENDBRANCH   2   3
ENDBRANCH   1   2
BRANCH   1  13
ATOM     13  C   UNL     1      39.140  66.818  25.347  1.00  0.00     0.000 C 
BRANCH  13  14
ATOM     14  C   UNL     1      40.634  66.926  25.715  1.00  0.00     0.000 C 
BRANCH  14  15
ATOM     15  C   UNL     1      41.365  65.578  25.889  1.00  0.00     0.000 C 
BRANCH  15  16
ATOM     16  C   UNL     1      41.747  64.869  24.577  1.00  0.00     0.000 C 
BRANCH  16  17
ATOM     17  C   UNL     1      41.906  63.349  24.747  1.00  0.00     0.000 C 
BRANCH  17  18
ATOM     18  C   UNL     1      42.415  62.958  26.143  1.00  0.00     0.000 C 
BRANCH  18  19
ATOM     19  C   UNL     1      43.107  61.584  26.167  1.00  0.00     0.000 C 
BRANCH  19  20
ATOM     20  C   UNL     1      44.580  61.671  26.597  1.00  0.00     0.006 C 
BRANCH  20  21
ATOM     21  C   UNL     1      45.485  62.231  25.495  1.00  0.00     0.053 C 
BRANCH  21  22
ATOM     22  C   UNL     1      46.624  62.996  26.090  1.00  0.00     0.041 C 
ATOM     23  O   UNL     1      47.578  63.381  25.364  1.00  0.00    -0.550 OA
ATOM     24  O   UNL     1      46.610  63.327  27.440  1.00  0.00    -0.550 OA
ENDBRANCH  21  22
ENDBRANCH  20  21
ENDBRANCH  19  20
ENDBRANCH  18  19
ENDBRANCH  17  18
ENDBRANCH  16  17
ENDBRANCH  15  16
ENDBRANCH  14  15
ENDBRANCH  13  14
ENDBRANCH   1  13
TORSDOF 20
ENDMDL
MODEL 2
REMARK VINA RESULT:    -4.903      4.265      6.289
REMARK INTER + INTRA:         -11.317
REMARK INTER:                 -10.399
REMARK INTRA:                  -0.919
REMARK UNBOUND:                -0.682
REMARK SMILES CCCCCCCCCCCCCCCCCCCCCC(=O)[O-]
REMARK SMILES IDX 12 1 11 2 10 3 9 4 8 5 7 6 6 7 5 8 4 9 3 10 2 11 1 12 13 13
REMARK SMILES IDX 14 14 15 15 16 16 17 17 18 18 19 19 20 20 21 21 22 22 23 23
REMARK SMILES IDX 24 24
REMARK H PARENT
REMARK Flexibility Score: inf
ROOT
ATOM      1  C   UNL     1      41.755  65.241  23.773  1.00  0.00     0.000 C 
ENDROOT
BRANCH   1   2
ATOM      2  C   UNL     1      41.029  65.973  22.631  1.00  0.00     0.000 C 
BRANCH   2   3
ATOM      3  C   UNL     1      41.677  67.320  22.279  1.00  0.00     0.000 C 
BRANCH   3   4
ATOM      4  C   UNL     1      41.713  68.249  23.499  1.00  0.00    -0.000 C 
BRANCH   4   5
ATOM      5  C   UNL     1      43.095  68.905  23.650  1.00  0.00    -0.000 C 
BRANCH   5   6
ATOM      6  C   UNL     1      43.259  69.661  24.982  1.00  0.00    -0.000 C 
BRANCH   6   7
ATOM      7  C   UNL     1      44.415  70.677  25.022  1.00  0.00    -0.000 C 
BRANCH   7   8
ATOM      8  C   UNL     1      44.094  71.981  24.273  1.00  0.00    -0.000 C 
BRANCH   8   9
ATOM      9  C   UNL     1      42.974  72.796  24.946  1.00  0.00    -0.000 C 
BRANCH   9  10
ATOM     10  C   UNL     1      42.011  73.516  23.981  1.00  0.00    -0.000 C 
BRANCH  10  11
ATOM     11  C   UNL     1      40.843  74.255  24.659  1.00  0.00    -0.003 C 
ATOM     12  C   UNL     1      40.941  74.249  26.184  1.00  0.00     0.004 C 
ENDBRANCH  10  11
ENDBRANCH   9  10
ENDBRANCH   8   9
ENDBRANCH   7   8
ENDBRANCH   6   7
ENDBRANCH   5   6
ENDBRANCH   4   5
ENDBRANCH   3   4
ENDBRANCH   2   3
ENDBRANCH   1   2
BRANCH   1  13
ATOM     13  C   UNL     1      41.016  65.253  25.127  1.00  0.00     0.000 C 
BRANCH  13  14
ATOM     14  C   UNL     1      40.787  66.653  25.732  1.00  0.00     0.000 C 
BRANCH  14  15
ATOM     15  C   UNL     1      39.311  67.089  25.835  1.00  0.00     0.000 C 
BRANCH  15  16
ATOM     16  C   UNL     1      38.501  66.963  24.531  1.00  0.00     0.000 C 
BRANCH  16  17
ATOM     17  C   UNL     1      37.138  67.672  24.606  1.00  0.00     0.000 C 
BRANCH  17  18
ATOM     18  C   UNL     1      36.540  67.658  26.022  1.00  0.00     0.000 C 
BRANCH  18  19
ATOM     19  C   UNL     1      35.015  67.453  26.026  1.00  0.00     0.000 C 
BRANCH  19  20
ATOM     20  C   UNL     1      34.618  65.970  25.959  1.00  0.00     0.006 C 
BRANCH  20  21
ATOM     21  C   UNL     1      34.996  65.198  27.227  1.00  0.00     0.053 C 
BRANCH  21  22
ATOM     22  C   UNL     1      34.806  63.729  27.023  1.00  0.00     0.041 C 
ATOM     23  O   UNL     1      34.721  62.956  28.013  1.00  0.00    -0.550 OA
ATOM     24  O   UNL     1      34.676  63.216  25.737  1.00  0.00    -0.550 OA
ENDBRANCH  21  22
ENDBRANCH  20  21
ENDBRANCH  19  20
ENDBRANCH  18  19
ENDBRANCH  17  18
ENDBRANCH  16  17
ENDBRANCH  15  16
ENDBRANCH  14  15
ENDBRANCH  13  14
ENDBRANCH   1  13
TORSDOF 20
ENDMDL
MODEL 3
REMARK VINA RESULT:    -4.880      4.348      8.419
REMARK INTER + INTRA:         -11.267
REMARK INTER:                 -10.876
REMARK INTRA:                  -0.392
REMARK UNBOUND:                -0.682
REMARK SMILES CCCCCCCCCCCCCCCCCCCCCC(=O)[O-]
REMARK SMILES IDX 12 1 11 2 10 3 9 4 8 5 7 6 6 7 5 8 4 9 3 10 2 11 1 12 13 13
REMARK SMILES IDX 14 14 15 15 16 16 17 17 18 18 19 19 20 20 21 21 22 22 23 23
REMARK SMILES IDX 24 24
REMARK H PARENT
REMARK Flexibility Score: inf
ROOT
ATOM      1  C   UNL     1      41.356  64.764  23.915  1.00  0.00     0.000 C 
ENDROOT
BRANCH   1   2
ATOM      2  C   UNL     1      41.375  65.759  22.740  1.00  0.00     0.000 C 
BRANCH   2   3
ATOM      3  C   UNL     1      39.995  65.940  22.090  1.00  0.00     0.000 C 
BRANCH   3   4
ATOM      4  C   UNL     1      39.252  67.134  22.702  1.00  0.00    -0.000 C 
BRANCH   4   5
ATOM      5  C   UNL     1      38.588  66.746  24.032  1.00  0.00    -0.000 C 
BRANCH   5   6
ATOM      6  C   UNL     1      37.362  67.614  24.369  1.00  0.00    -0.000 C 
BRANCH   6   7
ATOM      7  C   UNL     1      36.861  67.509  25.821  1.00  0.00    -0.000 C 
BRANCH   7   8
ATOM      8  C   UNL     1      35.329  67.589  25.934  1.00  0.00    -0.000 C 
BRANCH   8   9
ATOM      9  C   UNL     1      34.657  66.203  25.926  1.00  0.00    -0.000 C 
BRANCH   9  10
ATOM     10  C   UNL     1      34.980  65.306  27.138  1.00  0.00    -0.000 C 
BRANCH  10  11
ATOM     11  C   UNL     1      34.948  63.793  26.855  1.00  0.00    -0.003 C 
ATOM     12  C   UNL     1      34.423  62.978  28.036  1.00  0.00     0.004 C 
ENDBRANCH  10  11
ENDBRANCH   9  10
ENDBRANCH   8   9
ENDBRANCH   7   8
ENDBRANCH   6   7
ENDBRANCH   5   6
ENDBRANCH   4   5
ENDBRANCH   3   4
ENDBRANCH   2   3
ENDBRANCH   1   2
BRANCH   1  13
ATOM     13  C   UNL     1      41.779  65.356  25.275  1.00  0.00     0.000 C 
BRANCH  13  14
ATOM     14  C   UNL     1      41.032  66.641  25.688  1.00  0.00     0.000 C 
BRANCH  14  15
ATOM     15  C   UNL     1      41.812  67.953  25.462  1.00  0.00     0.000 C 
BRANCH  15  16
ATOM     16  C   UNL     1      42.133  68.275  23.991  1.00  0.00     0.000 C 
BRANCH  16  17
ATOM     17  C   UNL     1      43.317  69.245  23.839  1.00  0.00     0.000 C 
BRANCH  17  18
ATOM     18  C   UNL     1      43.548  70.101  25.095  1.00  0.00     0.000 C 
BRANCH  18  19
ATOM     19  C   UNL     1      44.392  71.357  24.818  1.00  0.00     0.000 C 
BRANCH  19  20
ATOM     20  C   UNL     1      43.681  72.652  25.242  1.00  0.00     0.006 C 
BRANCH  20  21
ATOM     21  C   UNL     1      42.630  73.110  24.225  1.00  0.00     0.053 C 
BRANCH  21  22
ATOM     22  C   UNL     1      41.466  73.741  24.921  1.00  0.00     0.041 C 
ATOM     23  O   UNL     1      40.498  74.194  24.256  1.00  0.00    -0.550 OA
ATOM     24  O   UNL     1      41.427  73.786  26.310  1.00  0.00    -0.550 OA
ENDBRANCH  21  22
ENDBRANCH  20  21
ENDBRANCH  19  20
ENDBRANCH  18  19
ENDBRANCH  17  18
ENDBRANCH  16  17
ENDBRANCH  15  16
ENDBRANCH  14  15
ENDBRANCH  13  14
ENDBRANCH   1  13
TORSDOF 20
ENDMDL
MODEL 4
REMARK VINA RESULT:    -4.790      2.805      6.382
REMARK INTER + INTRA:         -11.073
REMARK INTER:                 -10.096
REMARK INTRA:                  -0.977
REMARK UNBOUND:                -0.682
REMARK SMILES CCCCCCCCCCCCCCCCCCCCCC(=O)[O-]
REMARK SMILES IDX 12 1 11 2 10 3 9 4 8 5 7 6 6 7 5 8 4 9 3 10 2 11 1 12 13 13
REMARK SMILES IDX 14 14 15 15 16 16 17 17 18 18 19 19 20 20 21 21 22 22 23 23
REMARK SMILES IDX 24 24
REMARK H PARENT
REMARK Flexibility Score: inf
ROOT
ATOM      1  C   UNL     1      41.321  68.180  23.964  1.00  0.00     0.000 C 
ENDROOT
BRANCH   1   2
ATOM      2  C   UNL     1      41.551  67.562  25.355  1.00  0.00     0.000 C 
BRANCH   2   3
ATOM      3  C   UNL     1      40.296  66.877  25.918  1.00  0.00     0.000 C 
BRANCH   3   4
ATOM      4  C   UNL     1      39.084  67.118  25.011  1.00  0.00    -0.000 C 
BRANCH   4   5
ATOM      5  C   UNL     1      37.784  67.163  25.829  1.00  0.00    -0.000 C 
BRANCH   5   6
ATOM      6  C   UNL     1      36.615  67.817  25.069  1.00  0.00    -0.000 C 
BRANCH   6   7
ATOM      7  C   UNL     1      35.242  67.710  25.756  1.00  0.00    -0.000 C 
BRANCH   7   8
ATOM      8  C   UNL     1      35.046  66.379  26.501  1.00  0.00    -0.000 C 
BRANCH   8   9
ATOM      9  C   UNL     1      34.591  65.238  25.572  1.00  0.00    -0.000 C 
BRANCH   9  10
ATOM     10  C   UNL     1      34.553  63.838  26.218  1.00  0.00    -0.000 C 
BRANCH  10  11
ATOM     11  C   UNL     1      34.909  63.802  27.715  1.00  0.00    -0.003 C 
ATOM     12  C   UNL     1      34.284  62.616  28.447  1.00  0.00     0.004 C 
ENDBRANCH  10  11
ENDBRANCH   9  10
ENDBRANCH   8   9
ENDBRANCH   7   8
ENDBRANCH   6   7
ENDBRANCH   5   6
ENDBRANCH   4   5
ENDBRANCH   3   4
ENDBRANCH   2   3
ENDBRANCH   1   2
BRANCH   1  13
ATOM     13  C   UNL     1      42.002  67.432  22.800  1.00  0.00     0.000 C 
BRANCH  13  14
ATOM     14  C   UNL     1      41.085  66.472  22.015  1.00  0.00     0.000 C 
BRANCH  14  15
ATOM     15  C   UNL     1      40.936  65.063  22.626  1.00  0.00     0.000 C 
BRANCH  15  16
ATOM     16  C   UNL     1      41.719  64.832  23.931  1.00  0.00     0.000 C 
BRANCH  16  17
ATOM     17  C   UNL     1      41.649  63.374  24.416  1.00  0.00     0.000 C 
BRANCH  17  18
ATOM     18  C   UNL     1      42.311  63.173  25.789  1.00  0.00     0.000 C 
BRANCH  18  19
ATOM     19  C   UNL     1      42.922  61.771  25.961  1.00  0.00     0.000 C 
BRANCH  19  20
ATOM     20  C   UNL     1      44.350  61.813  26.525  1.00  0.00     0.006 C 
BRANCH  20  21
ATOM     21  C   UNL     1      45.406  62.063  25.442  1.00  0.00     0.053 C 
BRANCH  21  22
ATOM     22  C   UNL     1      46.511  62.918  25.976  1.00  0.00     0.041 C 
ATOM     23  O   UNL     1      46.522  63.256  27.188  1.00  0.00    -0.550 OA
ATOM     24  O   UNL     1      47.556  63.304  25.144  1.00  0.00    -0.550 OA
ENDBRANCH  21  22
ENDBRANCH  20  21
ENDBRANCH  19  20
ENDBRANCH  18  19
ENDBRANCH  17  18
ENDBRANCH  16  17
ENDBRANCH  15  16
ENDBRANCH  14  15
ENDBRANCH  13  14
ENDBRANCH   1  13
TORSDOF 20
ENDMDL
MODEL 5
REMARK VINA RESULT:    -4.689      3.533      8.411
REMARK INTER + INTRA:         -10.854
REMARK INTER:                 -10.421
REMARK INTRA:                  -0.433
REMARK UNBOUND:                -0.682
REMARK SMILES CCCCCCCCCCCCCCCCCCCCCC(=O)[O-]
REMARK SMILES IDX 12 1 11 2 10 3 9 4 8 5 7 6 6 7 5 8 4 9 3 10 2 11 1 12 13 13
REMARK SMILES IDX 14 14 15 15 16 16 17 17 18 18 19 19 20 20 21 21 22 22 23 23
REMARK SMILES IDX 24 24
REMARK H PARENT
REMARK Flexibility Score: inf
ROOT
ATOM      1  C   UNL     1      38.843  67.127  24.110  1.00  0.00     0.000 C 
ENDROOT
BRANCH   1   2
ATOM      2  C   UNL     1      39.269  66.836  25.559  1.00  0.00     0.000 C 
BRANCH   2   3
ATOM      3  C   UNL     1      40.790  66.906  25.760  1.00  0.00     0.000 C 
BRANCH   3   4
ATOM      4  C   UNL     1      41.381  65.508  25.979  1.00  0.00    -0.000 C 
BRANCH   4   5
ATOM      5  C   UNL     1      41.760  64.855  24.641  1.00  0.00    -0.000 C 
BRANCH   5   6
ATOM      6  C   UNL     1      41.954  63.331  24.748  1.00  0.00    -0.000 C 
BRANCH   6   7
ATOM      7  C   UNL     1      42.423  62.823  26.123  1.00  0.00    -0.000 C 
BRANCH   7   8
ATOM      8  C   UNL     1      43.352  61.601  26.027  1.00  0.00    -0.000 C 
BRANCH   8   9
ATOM      9  C   UNL     1      44.808  61.927  26.410  1.00  0.00    -0.000 C 
BRANCH   9  10
ATOM     10  C   UNL     1      45.730  62.308  25.234  1.00  0.00    -0.000 C 
BRANCH  10  11
ATOM     11  C   UNL     1      46.995  63.092  25.628  1.00  0.00    -0.003 C 
ATOM     12  C   UNL     1      47.033  63.451  27.113  1.00  0.00     0.004 C 
ENDBRANCH  10  11
ENDBRANCH   9  10
ENDBRANCH   8   9
ENDBRANCH   7   8
ENDBRANCH   6   7
ENDBRANCH   5   6
ENDBRANCH   4   5
ENDBRANCH   3   4
ENDBRANCH   2   3
ENDBRANCH   1   2
BRANCH   1  13
ATOM     13  C   UNL     1      39.594  66.313  23.035  1.00  0.00     0.000 C 
BRANCH  13  14
ATOM     14  C   UNL     1      40.243  67.152  21.916  1.00  0.00     0.000 C 
BRANCH  14  15
ATOM     15  C   UNL     1      41.718  67.535  22.157  1.00  0.00     0.000 C 
BRANCH  15  16
ATOM     16  C   UNL     1      42.031  68.071  23.567  1.00  0.00     0.000 C 
BRANCH  16  17
ATOM     17  C   UNL     1      43.239  69.022  23.587  1.00  0.00     0.000 C 
BRANCH  17  18
ATOM     18  C   UNL     1      43.247  69.945  24.815  1.00  0.00     0.000 C 
BRANCH  18  19
ATOM     19  C   UNL     1      44.330  71.036  24.740  1.00  0.00     0.000 C 
BRANCH  19  20
ATOM     20  C   UNL     1      43.828  72.402  25.233  1.00  0.00     0.006 C 
BRANCH  20  21
ATOM     21  C   UNL     1      42.822  73.045  24.271  1.00  0.00     0.053 C 
BRANCH  21  22
ATOM     22  C   UNL     1      41.671  73.627  25.028  1.00  0.00     0.041 C 
ATOM     23  O   UNL     1      41.638  73.556  26.285  1.00  0.00    -0.550 OA
ATOM     24  O   UNL     1      40.655  74.290  24.350  1.00  0.00    -0.550 OA
ENDBRANCH  21  22
ENDBRANCH  20  21
ENDBRANCH  19  20
ENDBRANCH  18  19
ENDBRANCH  17  18
ENDBRANCH  16  17
ENDBRANCH  15  16
ENDBRANCH  14  15
ENDBRANCH  13  14
ENDBRANCH   1  13
TORSDOF 20
ENDMDL
MODEL 6
REMARK VINA RESULT:    -4.619      4.159      8.748
REMARK INTER + INTRA:         -10.703
REMARK INTER:                  -9.594
REMARK INTRA:                  -1.108
REMARK UNBOUND:                -0.682
REMARK SMILES CCCCCCCCCCCCCCCCCCCCCC(=O)[O-]
REMARK SMILES IDX 12 1 11 2 10 3 9 4 8 5 7 6 6 7 5 8 4 9 3 10 2 11 1 12 13 13
REMARK SMILES IDX 14 14 15 15 16 16 17 17 18 18 19 19 20 20 21 21 22 22 23 23
REMARK SMILES IDX 24 24
REMARK H PARENT
REMARK Flexibility Score: inf
ROOT
ATOM      1  C   UNL     1      41.761  63.744  24.416  1.00  0.00     0.000 C 
ENDROOT
BRANCH   1   2
ATOM      2  C   UNL     1      42.457  63.334  25.726  1.00  0.00     0.000 C 
BRANCH   2   3
ATOM      3  C   UNL     1      42.884  61.858  25.738  1.00  0.00     0.000 C 
BRANCH   3   4
ATOM      4  C   UNL     1      44.222  61.678  26.465  1.00  0.00    -0.000 C 
BRANCH   4   5
ATOM      5  C   UNL     1      45.356  62.395  25.717  1.00  0.00    -0.000 C 
BRANCH   5   6
ATOM      6  C   UNL     1      46.502  62.842  26.644  1.00  0.00    -0.000 C 
BRANCH   6   7
ATOM      7  C   UNL     1      47.708  63.484  25.936  1.00  0.00    -0.000 C 
BRANCH   7   8
ATOM      8  C   UNL     1      47.523  63.591  24.414  1.00  0.00    -0.000 C 
BRANCH   8   9
ATOM      9  C   UNL     1      48.788  64.093  23.692  1.00  0.00    -0.000 C 
BRANCH   9  10
ATOM     10  C   UNL     1      48.604  65.373  22.853  1.00  0.00    -0.000 C 
BRANCH  10  11
ATOM     11  C   UNL     1      49.806  65.748  21.967  1.00  0.00    -0.003 C 
ATOM     12  C   UNL     1      50.696  64.551  21.635  1.00  0.00     0.004 C 
ENDBRANCH  10  11
ENDBRANCH   9  10
ENDBRANCH   8   9
ENDBRANCH   7   8
ENDBRANCH   6   7
ENDBRANCH   5   6
ENDBRANCH   4   5
ENDBRANCH   3   4
ENDBRANCH   2   3
ENDBRANCH   1   2
BRANCH   1  13
ATOM     13  C   UNL     1      41.651  65.266  24.188  1.00  0.00     0.000 C 
BRANCH  13  14
ATOM     14  C   UNL     1      41.189  66.078  25.414  1.00  0.00     0.000 C 
BRANCH  14  15
ATOM     15  C   UNL     1      41.460  67.596  25.335  1.00  0.00     0.000 C 
BRANCH  15  16
ATOM     16  C   UNL     1      41.824  68.121  23.934  1.00  0.00     0.000 C 
BRANCH  16  17
ATOM     17  C   UNL     1      43.181  68.844  23.904  1.00  0.00     0.000 C 
BRANCH  17  18
ATOM     18  C   UNL     1      43.321  69.890  25.021  1.00  0.00     0.000 C 
BRANCH  18  19
ATOM     19  C   UNL     1      44.184  71.096  24.609  1.00  0.00     0.000 C 
BRANCH  19  20
ATOM     20  C   UNL     1      43.644  72.425  25.161  1.00  0.00     0.006 C 
BRANCH  20  21
ATOM     21  C   UNL     1      42.673  73.115  24.197  1.00  0.00     0.053 C 
BRANCH  21  22
ATOM     22  C   UNL     1      41.539  73.734  24.950  1.00  0.00     0.041 C 
ATOM     23  O   UNL     1      40.556  74.220  24.330  1.00  0.00    -0.550 OA
ATOM     24  O   UNL     1      41.542  73.732  26.340  1.00  0.00    -0.550 OA
ENDBRANCH  21  22
ENDBRANCH  20  21
ENDBRANCH  19  20
ENDBRANCH  18  19
ENDBRANCH  17  18
ENDBRANCH  16  17
ENDBRANCH  15  16
ENDBRANCH  14  15
ENDBRANCH  13  14
ENDBRANCH   1  13
TORSDOF 20
ENDMDL
MODEL 7
REMARK VINA RESULT:    -4.603      4.365      8.348
REMARK INTER + INTRA:         -10.667
REMARK INTER:                  -9.776
REMARK INTRA:                  -0.891
REMARK UNBOUND:                -0.682
REMARK SMILES CCCCCCCCCCCCCCCCCCCCCC(=O)[O-]
REMARK SMILES IDX 12 1 11 2 10 3 9 4 8 5 7 6 6 7 5 8 4 9 3 10 2 11 1 12 13 13
REMARK SMILES IDX 14 14 15 15 16 16 17 17 18 18 19 19 20 20 21 21 22 22 23 23
REMARK SMILES IDX 24 24
REMARK H PARENT
REMARK Flexibility Score: inf
ROOT
ATOM      1  C   UNL     1      42.173  67.825  23.435  1.00  0.00     0.000 C 
ENDROOT
BRANCH   1   2
ATOM      2  C   UNL     1      41.145  67.484  22.342  1.00  0.00     0.000 C 
BRANCH   2   3
ATOM      3  C   UNL     1      41.340  66.078  21.755  1.00  0.00     0.000 C 
BRANCH   3   4
ATOM      4  C   UNL     1      40.806  65.004  22.711  1.00  0.00    -0.000 C 
BRANCH   4   5
ATOM      5  C   UNL     1      41.750  64.814  23.908  1.00  0.00    -0.000 C 
BRANCH   5   6
ATOM      6  C   UNL     1      41.731  63.380  24.469  1.00  0.00    -0.000 C 
BRANCH   6   7
ATOM      7  C   UNL     1      42.452  63.191  25.816  1.00  0.00    -0.000 C 
BRANCH   7   8
ATOM      8  C   UNL     1      43.213  61.858  25.906  1.00  0.00    -0.000 C 
BRANCH   8   9
ATOM      9  C   UNL     1      44.668  62.033  26.380  1.00  0.00    -0.000 C 
BRANCH   9  10
ATOM     10  C   UNL     1      45.709  62.224  25.258  1.00  0.00    -0.000 C 
BRANCH  10  11
ATOM     11  C   UNL     1      46.920  63.096  25.636  1.00  0.00    -0.003 C 
ATOM     12  C   UNL     1      46.999  63.386  27.134  1.00  0.00     0.004 C 
ENDBRANCH  10  11
ENDBRANCH   9  10
ENDBRANCH   8   9
ENDBRANCH   7   8
ENDBRANCH   6   7
ENDBRANCH   5   6
ENDBRANCH   4   5
ENDBRANCH   3   4
ENDBRANCH   2   3
ENDBRANCH   1   2
BRANCH   1  13
ATOM     13  C   UNL     1      41.567  68.267  24.783  1.00  0.00     0.000 C 
BRANCH  13  14
ATOM     14  C   UNL     1      41.224  67.118  25.752  1.00  0.00     0.000 C 
BRANCH  14  15
ATOM     15  C   UNL     1      39.716  66.847  25.940  1.00  0.00     0.000 C 
BRANCH  15  16
ATOM     16  C   UNL     1      38.804  67.465  24.864  1.00  0.00     0.000 C 
BRANCH  16  17
ATOM     17  C   UNL     1      37.339  67.018  24.999  1.00  0.00     0.000 C 
BRANCH  17  18
ATOM     18  C   UNL     1      36.535  67.903  25.964  1.00  0.00     0.000 C 
BRANCH  18  19
ATOM     19  C   UNL     1      35.031  67.576  25.966  1.00  0.00     0.000 C 
BRANCH  19  20
ATOM     20  C   UNL     1      34.754  66.067  25.890  1.00  0.00     0.006 C 
BRANCH  20  21
ATOM     21  C   UNL     1      35.050  65.344  27.209  1.00  0.00     0.053 C 
BRANCH  21  22
ATOM     22  C   UNL     1      34.848  63.871  27.056  1.00  0.00     0.041 C 
ATOM     23  O   UNL     1      34.788  63.130  28.073  1.00  0.00    -0.550 OA
ATOM     24  O   UNL     1      34.677  63.318  25.792  1.00  0.00    -0.550 OA
ENDBRANCH  21  22
ENDBRANCH  20  21
ENDBRANCH  19  20
ENDBRANCH  18  19
ENDBRANCH  17  18
ENDBRANCH  16  17
ENDBRANCH  15  16
ENDBRANCH  14  15
ENDBRANCH  13  14
ENDBRANCH   1  13
TORSDOF 20
ENDMDL
MODEL 8
REMARK VINA RESULT:    -4.356      3.754      6.829
REMARK INTER + INTRA:         -10.132
REMARK INTER:                  -9.066
REMARK INTRA:                  -1.065
REMARK UNBOUND:                -0.682
REMARK SMILES CCCCCCCCCCCCCCCCCCCCCC(=O)[O-]
REMARK SMILES IDX 12 1 11 2 10 3 9 4 8 5 7 6 6 7 5 8 4 9 3 10 2 11 1 12 13 13
REMARK SMILES IDX 14 14 15 15 16 16 17 17 18 18 19 19 20 20 21 21 22 22 23 23
REMARK SMILES IDX 24 24
REMARK H PARENT
REMARK Flexibility Score: inf
ROOT
ATOM      1  C   UNL     1      41.775  63.650  24.553  1.00  0.00     0.000 C 
ENDROOT
BRANCH   1   2
ATOM      2  C   UNL     1      41.615  65.142  24.216  1.00  0.00     0.000 C 
BRANCH   2   3
ATOM      3  C   UNL     1      41.311  66.004  25.451  1.00  0.00     0.000 C 
BRANCH   3   4
ATOM      4  C   UNL     1      40.378  67.167  25.094  1.00  0.00    -0.000 C 
BRANCH   4   5
ATOM      5  C   UNL     1      39.258  66.705  24.149  1.00  0.00    -0.000 C 
BRANCH   5   6
ATOM      6  C   UNL     1      37.946  67.489  24.341  1.00  0.00    -0.000 C 
BRANCH   6   7
ATOM      7  C   UNL     1      37.217  67.234  25.672  1.00  0.00    -0.000 C 
BRANCH   7   8
ATOM      8  C   UNL     1      35.732  67.628  25.627  1.00  0.00    -0.000 C 
BRANCH   8   9
ATOM      9  C   UNL     1      34.789  66.413  25.715  1.00  0.00    -0.000 C 
BRANCH   9  10
ATOM     10  C   UNL     1      35.028  65.478  26.918  1.00  0.00    -0.000 C 
BRANCH  10  11
ATOM     11  C   UNL     1      34.716  63.993  26.661  1.00  0.00    -0.003 C 
ATOM     12  C   UNL     1      34.818  63.137  27.922  1.00  0.00     0.004 C 
ENDBRANCH  10  11
ENDBRANCH   9  10
ENDBRANCH   8   9
ENDBRANCH   7   8
ENDBRANCH   6   7
ENDBRANCH   5   6
ENDBRANCH   4   5
ENDBRANCH   3   4
ENDBRANCH   2   3
ENDBRANCH   1   2
BRANCH   1  13
ATOM     13  C   UNL     1      42.600  63.354  25.824  1.00  0.00     0.000 C 
BRANCH  13  14
ATOM     14  C   UNL     1      42.849  61.859  26.106  1.00  0.00     0.000 C 
BRANCH  14  15
ATOM     15  C   UNL     1      44.293  61.503  26.517  1.00  0.00     0.000 C 
BRANCH  15  16
ATOM     16  C   UNL     1      45.395  62.254  25.747  1.00  0.00     0.000 C 
BRANCH  16  17
ATOM     17  C   UNL     1      46.388  62.970  26.678  1.00  0.00     0.000 C 
BRANCH  17  18
ATOM     18  C   UNL     1      47.634  63.481  25.937  1.00  0.00     0.000 C 
BRANCH  18  19
ATOM     19  C   UNL     1      47.409  63.634  24.422  1.00  0.00     0.000 C 
BRANCH  19  20
ATOM     20  C   UNL     1      48.722  63.824  23.646  1.00  0.00     0.006 C 
BRANCH  20  21
ATOM     21  C   UNL     1      48.775  65.156  22.890  1.00  0.00     0.053 C 
BRANCH  21  22
ATOM     22  C   UNL     1      50.011  65.234  22.052  1.00  0.00     0.041 C 
ATOM     23  O   UNL     1      50.425  66.348  21.634  1.00  0.00    -0.550 OA
ATOM     24  O   UNL     1      50.736  64.082  21.770  1.00  0.00    -0.550 OA
ENDBRANCH  21  22
ENDBRANCH  20  21
ENDBRANCH  19  20
ENDBRANCH  18  19
ENDBRANCH  17  18
ENDBRANCH  16  17
ENDBRANCH  15  16
ENDBRANCH  14  15
ENDBRANCH  13  14
ENDBRANCH   1  13
TORSDOF 20
ENDMDL
MODEL 9
REMARK VINA RESULT:    -4.353      2.331      4.107
REMARK INTER + INTRA:         -10.126
REMARK INTER:                  -8.913
REMARK INTRA:                  -1.213
REMARK UNBOUND:                -0.682
REMARK SMILES CCCCCCCCCCCCCCCCCCCCCC(=O)[O-]
REMARK SMILES IDX 12 1 11 2 10 3 9 4 8 5 7 6 6 7 5 8 4 9 3 10 2 11 1 12 13 13
REMARK SMILES IDX 14 14 15 15 16 16 17 17 18 18 19 19 20 20 21 21 22 22 23 23
REMARK SMILES IDX 24 24
REMARK H PARENT
REMARK Flexibility Score: inf
ROOT
ATOM      1  C   UNL     1      41.722  63.751  24.578  1.00  0.00     0.000 C 
ENDROOT
BRANCH   1   2
ATOM      2  C   UNL     1      41.671  65.268  24.329  1.00  0.00     0.000 C 
BRANCH   2   3
ATOM      3  C   UNL     1      41.296  66.067  25.587  1.00  0.00     0.000 C 
BRANCH   3   4
ATOM      4  C   UNL     1      41.329  67.575  25.311  1.00  0.00    -0.000 C 
BRANCH   4   5
ATOM      5  C   UNL     1      41.742  67.860  23.859  1.00  0.00    -0.000 C 
BRANCH   5   6
ATOM      6  C   UNL     1      42.940  68.822  23.751  1.00  0.00    -0.000 C 
BRANCH   6   7
ATOM      7  C   UNL     1      43.147  69.752  24.961  1.00  0.00    -0.000 C 
BRANCH   7   8
ATOM      8  C   UNL     1      44.130  70.899  24.674  1.00  0.00    -0.000 C 
BRANCH   8   9
ATOM      9  C   UNL     1      43.606  72.266  25.152  1.00  0.00    -0.000 C 
BRANCH   9  10
ATOM     10  C   UNL     1      42.896  73.113  24.076  1.00  0.00    -0.000 C 
BRANCH  10  11
ATOM     11  C   UNL     1      41.535  73.693  24.499  1.00  0.00    -0.003 C 
ATOM     12  C   UNL     1      41.405  73.862  26.011  1.00  0.00     0.004 C 
ENDBRANCH  10  11
ENDBRANCH   9  10
ENDBRANCH   8   9
ENDBRANCH   7   8
ENDBRANCH   6   7
ENDBRANCH   5   6
ENDBRANCH   4   5
ENDBRANCH   3   4
ENDBRANCH   2   3
ENDBRANCH   1   2
BRANCH   1  13
ATOM     13  C   UNL     1      42.453  63.328  25.870  1.00  0.00     0.000 C 
BRANCH  13  14
ATOM     14  C   UNL     1      42.813  61.831  25.955  1.00  0.00     0.000 C 
BRANCH  14  15
ATOM     15  C   UNL     1      44.254  61.529  26.418  1.00  0.00     0.000 C 
BRANCH  15  16
ATOM     16  C   UNL     1      45.357  62.269  25.639  1.00  0.00     0.000 C 
BRANCH  16  17
ATOM     17  C   UNL     1      46.336  63.017  26.559  1.00  0.00     0.000 C 
BRANCH  17  18
ATOM     18  C   UNL     1      47.637  63.415  25.844  1.00  0.00     0.000 C 
BRANCH  18  19
ATOM     19  C   UNL     1      47.460  63.579  24.324  1.00  0.00     0.000 C 
BRANCH  19  20
ATOM     20  C   UNL     1      48.790  63.835  23.598  1.00  0.00     0.006 C 
BRANCH  20  21
ATOM     21  C   UNL     1      48.821  65.190  22.883  1.00  0.00     0.053 C 
BRANCH  21  22
ATOM     22  C   UNL     1      50.023  65.287  21.998  1.00  0.00     0.041 C 
ATOM     23  O   UNL     1      50.271  66.356  21.380  1.00  0.00    -0.550 OA
ATOM     24  O   UNL     1      50.898  64.212  21.891  1.00  0.00    -0.550 OA
ENDBRANCH  21  22
ENDBRANCH  20  21
ENDBRANCH  19  20
ENDBRANCH  18  19
ENDBRANCH  17  18
ENDBRANCH  16  17
ENDBRANCH  15  16
ENDBRANCH  14  15
ENDBRANCH  13  14
ENDBRANCH   1  13
TORSDOF 20
ENDMDL
