MODEL 1
REMARK VINA RESULT:    -4.344      0.000      0.000
REMARK INTER + INTRA:          -8.095
REMARK INTER:                  -6.884
REMARK INTRA:                  -1.211
REMARK UNBOUND:                -1.211
REMARK SMILES CCCCCCCCCCCC(=O)[O-]
REMARK SMILES IDX 7 1 8 2 9 3 10 4 11 5 12 6 13 7 14 8 6 9 5 10 4 11 3 12 2 13
REMARK SMILES IDX 1 14
REMARK H PARENT
REMARK Flexibility Score: inf
ROOT
ATOM      1  C   UNL     1      12.641 -30.967  21.615  1.00  0.00     0.000 C 
ENDROOT
BRANCH   1   2
ATOM      2  C   UNL     1      13.205 -31.891  20.523  1.00  0.00     0.000 C 
BRANCH   2   3
ATOM      3  C   UNL     1      14.182 -32.939  21.077  1.00  0.00     0.000 C 
BRANCH   3   4
ATOM      4  C   UNL     1      14.584 -33.945  19.988  1.00  0.00     0.006 C 
BRANCH   4   5
ATOM      5  C   UNL     1      15.678 -34.911  20.464  1.00  0.00     0.053 C 
BRANCH   5   6
ATOM      6  C   UNL     1      16.618 -35.276  19.355  1.00  0.00     0.041 C 
ATOM      7  O   UNL     1      17.189 -34.374  18.687  1.00  0.00    -0.550 OA
ATOM      8  O   UNL     1      16.887 -36.610  19.082  1.00  0.00    -0.550 OA
ENDBRANCH   5   6
ENDBRANCH   4   5
ENDBRANCH   3   4
ENDBRANCH   2   3
ENDBRANCH   1   2
BRANCH   1   9
ATOM      9  C   UNL     1      13.701 -30.568  22.657  1.00  0.00     0.000 C 
BRANCH   9  10
ATOM     10  C   UNL     1      14.462 -29.291  22.265  1.00  0.00    -0.000 C 
BRANCH  10  11
ATOM     11  C   UNL     1      15.946 -29.558  21.959  1.00  0.00    -0.000 C 
BRANCH  11  12
ATOM     12  C   UNL     1      16.559 -30.614  22.894  1.00  0.00    -0.000 C 
BRANCH  12  13
ATOM     13  C   UNL     1      17.780 -31.314  22.279  1.00  0.00    -0.003 C 
ATOM     14  C   UNL     1      17.603 -31.505  20.775  1.00  0.00     0.004 C 
ENDBRANCH  12  13
ENDBRANCH  11  12
ENDBRANCH  10  11
ENDBRANCH   9  10
ENDBRANCH   1   9
TORSDOF 10
ENDMDL
MODEL 2
REMARK VINA RESULT:    -4.272      2.047      3.948
REMARK INTER + INTRA:          -7.980
REMARK INTER:                  -6.817
REMARK INTRA:                  -1.164
REMARK UNBOUND:                -1.211
REMARK SMILES CCCCCCCCCCCC(=O)[O-]
REMARK SMILES IDX 7 1 8 2 9 3 10 4 11 5 12 6 13 7 14 8 6 9 5 10 4 11 3 12 2 13
REMARK SMILES IDX 1 14
REMARK H PARENT
REMARK Flexibility Score: inf
ROOT
ATOM      1  C   UNL     1      15.772 -30.256  22.936  1.00  0.00     0.000 C 
ENDROOT
BRANCH   1   2
ATOM      2  C   UNL     1      17.026 -31.110  22.688  1.00  0.00     0.000 C 
BRANCH   2   3
ATOM      3  C   UNL     1      17.439 -31.144  21.209  1.00  0.00     0.000 C 
BRANCH   3   4
ATOM      4  C   UNL     1      17.264 -32.553  20.622  1.00  0.00     0.006 C 
BRANCH   4   5
ATOM      5  C   UNL     1      16.993 -33.605  21.706  1.00  0.00     0.053 C 
BRANCH   5   6
ATOM      6  C   UNL     1      15.606 -34.164  21.604  1.00  0.00     0.041 C 
ATOM      7  O   UNL     1      14.762 -33.934  22.509  1.00  0.00    -0.550 OA
ATOM      8  O   UNL     1      15.237 -34.913  20.494  1.00  0.00    -0.550 OA
ENDBRANCH   5   6
ENDBRANCH   4   5
ENDBRANCH   3   4
ENDBRANCH   2   3
ENDBRANCH   1   2
BRANCH   1   9
ATOM      9  C   UNL     1      15.087 -29.817  21.630  1.00  0.00     0.000 C 
BRANCH   9  10
ATOM     10  C   UNL     1      13.843 -30.661  21.304  1.00  0.00    -0.000 C 
BRANCH  10  11
ATOM     11  C   UNL     1      12.917 -30.842  22.518  1.00  0.00    -0.000 C 
BRANCH  11  12
ATOM     12  C   UNL     1      12.078 -29.587  22.812  1.00  0.00    -0.000 C 
BRANCH  12  13
ATOM     13  C   UNL     1      12.435 -28.937  24.156  1.00  0.00    -0.003 C 
ATOM     14  C   UNL     1      13.116 -27.586  23.950  1.00  0.00     0.004 C 
ENDBRANCH  12  13
ENDBRANCH  11  12
ENDBRANCH  10  11
ENDBRANCH   9  10
ENDBRANCH   1   9
TORSDOF 10
ENDMDL
MODEL 3
REMARK VINA RESULT:    -4.240      2.966      5.095
REMARK INTER + INTRA:          -7.930
REMARK INTER:                  -6.657
REMARK INTRA:                  -1.272
REMARK UNBOUND:                -1.211
REMARK SMILES CCCCCCCCCCCC(=O)[O-]
REMARK SMILES IDX 7 1 8 2 9 3 10 4 11 5 12 6 13 7 14 8 6 9 5 10 4 11 3 12 2 13
REMARK SMILES IDX 1 14
REMARK H PARENT
REMARK Flexibility Score: inf
ROOT
ATOM      1  C   UNL     1      14.640 -33.709  21.069  1.00  0.00     0.000 C 
ENDROOT
BRANCH   1   2
ATOM      2  C   UNL     1      15.059 -33.933  22.531  1.00  0.00     0.000 C 
BRANCH   2   3
ATOM      3  C   UNL     1      15.171 -32.622  23.325  1.00  0.00     0.000 C 
BRANCH   3   4
ATOM      4  C   UNL     1      13.797 -32.177  23.846  1.00  0.00     0.006 C 
BRANCH   4   5
ATOM      5  C   UNL     1      13.499 -30.708  23.521  1.00  0.00     0.053 C 
BRANCH   5   6
ATOM      6  C   UNL     1      13.282 -30.496  22.053  1.00  0.00     0.041 C 
ATOM      7  O   UNL     1      12.223 -30.899  21.505  1.00  0.00    -0.550 OA
ATOM      8  O   UNL     1      14.235 -29.825  21.298  1.00  0.00    -0.550 OA
ENDBRANCH   5   6
ENDBRANCH   4   5
ENDBRANCH   3   4
ENDBRANCH   2   3
ENDBRANCH   1   2
BRANCH   1   9
ATOM      9  C   UNL     1      15.230 -34.764  20.116  1.00  0.00     0.000 C 
BRANCH   9  10
ATOM     10  C   UNL     1      16.468 -35.463  20.704  1.00  0.00    -0.000 C 
BRANCH  10  11
ATOM     11  C   UNL     1      17.729 -35.248  19.849  1.00  0.00    -0.000 C 
BRANCH  11  12
ATOM     12  C   UNL     1      17.972 -33.766  19.519  1.00  0.00    -0.000 C 
BRANCH  12  13
ATOM     13  C   UNL     1      18.346 -32.937  20.755  1.00  0.00    -0.003 C 
ATOM     14  C   UNL     1      17.659 -31.574  20.731  1.00  0.00     0.004 C 
ENDBRANCH  12  13
ENDBRANCH  11  12
ENDBRANCH  10  11
ENDBRANCH   9  10
ENDBRANCH   1   9
TORSDOF 10
ENDMDL
MODEL 4
REMARK VINA RESULT:    -4.206      1.914      3.570
REMARK INTER + INTRA:          -7.876
REMARK INTER:                  -7.074
REMARK INTRA:                  -0.802
REMARK UNBOUND:                -1.211
REMARK SMILES CCCCCCCCCCCC(=O)[O-]
REMARK SMILES IDX 7 1 8 2 9 3 10 4 11 5 12 6 13 7 14 8 6 9 5 10 4 11 3 12 2 13
REMARK SMILES IDX 1 14
REMARK H PARENT
REMARK Flexibility Score: inf
ROOT
ATOM      1  C   UNL     1      14.448 -33.232  23.886  1.00  0.00     0.000 C 
ENDROOT
BRANCH   1   2
ATOM      2  C   UNL     1      15.926 -33.396  23.493  1.00  0.00     0.000 C 
BRANCH   2   3
ATOM      3  C   UNL     1      16.129 -33.500  21.974  1.00  0.00     0.000 C 
BRANCH   3   4
ATOM      4  C   UNL     1      15.006 -34.322  21.325  1.00  0.00     0.006 C 
BRANCH   4   5
ATOM      5  C   UNL     1      15.115 -34.350  19.794  1.00  0.00     0.053 C 
BRANCH   5   6
ATOM      6  C   UNL     1      16.404 -34.967  19.340  1.00  0.00     0.041 C 
ATOM      7  O   UNL     1      16.603 -36.201  19.491  1.00  0.00    -0.550 OA
ATOM      8  O   UNL     1      17.370 -34.184  18.722  1.00  0.00    -0.550 OA
ENDBRANCH   5   6
ENDBRANCH   4   5
ENDBRANCH   3   4
ENDBRANCH   2   3
ENDBRANCH   1   2
BRANCH   1   9
ATOM      9  C   UNL     1      13.985 -31.765  23.844  1.00  0.00     0.000 C 
BRANCH   9  10
ATOM     10  C   UNL     1      13.037 -31.478  22.667  1.00  0.00    -0.000 C 
BRANCH  10  11
ATOM     11  C   UNL     1      12.982 -29.985  22.304  1.00  0.00    -0.000 C 
BRANCH  11  12
ATOM     12  C   UNL     1      13.633 -29.093  23.374  1.00  0.00    -0.000 C 
BRANCH  12  13
ATOM     13  C   UNL     1      12.605 -28.279  24.172  1.00  0.00    -0.003 C 
ATOM     14  C   UNL     1      11.320 -28.081  23.372  1.00  0.00     0.004 C 
ENDBRANCH  12  13
ENDBRANCH  11  12
ENDBRANCH  10  11
ENDBRANCH   9  10
ENDBRANCH   1   9
TORSDOF 10
ENDMDL
MODEL 5
REMARK VINA RESULT:    -4.188      3.225      5.226
REMARK INTER + INTRA:          -7.848
REMARK INTER:                  -6.880
REMARK INTRA:                  -0.967
REMARK UNBOUND:                -1.211
REMARK SMILES CCCCCCCCCCCC(=O)[O-]
REMARK SMILES IDX 7 1 8 2 9 3 10 4 11 5 12 6 13 7 14 8 6 9 5 10 4 11 3 12 2 13
REMARK SMILES IDX 1 14
REMARK H PARENT
REMARK Flexibility Score: inf
ROOT
ATOM      1  C   UNL     1      15.726 -35.131  20.397  1.00  0.00     0.000 C 
ENDROOT
BRANCH   1   2
ATOM      2  C   UNL     1      14.711 -34.047  19.997  1.00  0.00     0.000 C 
BRANCH   2   3
ATOM      3  C   UNL     1      14.339 -33.121  21.164  1.00  0.00     0.000 C 
BRANCH   3   4
ATOM      4  C   UNL     1      13.533 -31.911  20.669  1.00  0.00     0.006 C 
BRANCH   4   5
ATOM      5  C   UNL     1      13.926 -30.615  21.392  1.00  0.00     0.053 C 
BRANCH   5   6
ATOM      6  C   UNL     1      13.038 -30.344  22.569  1.00  0.00     0.041 C 
ATOM      7  O   UNL     1      13.509 -30.373  23.736  1.00  0.00    -0.550 OA
ATOM      8  O   UNL     1      11.700 -30.028  22.374  1.00  0.00    -0.550 OA
ENDBRANCH   5   6
ENDBRANCH   4   5
ENDBRANCH   3   4
ENDBRANCH   2   3
ENDBRANCH   1   2
BRANCH   1   9
ATOM      9  C   UNL     1      16.754 -35.417  19.288  1.00  0.00     0.000 C 
BRANCH   9  10
ATOM     10  C   UNL     1      17.883 -34.374  19.246  1.00  0.00    -0.000 C 
BRANCH  10  11
ATOM     11  C   UNL     1      18.311 -33.911  20.650  1.00  0.00    -0.000 C 
BRANCH  11  12
ATOM     12  C   UNL     1      18.790 -32.451  20.668  1.00  0.00    -0.000 C 
BRANCH  12  13
ATOM     13  C   UNL     1      17.636 -31.450  20.825  1.00  0.00    -0.003 C 
ATOM     14  C   UNL     1      18.158 -30.060  21.180  1.00  0.00     0.004 C 
ENDBRANCH  12  13
ENDBRANCH  11  12
ENDBRANCH  10  11
ENDBRANCH   9  10
ENDBRANCH   1   9
TORSDOF 10
ENDMDL
MODEL 6
REMARK VINA RESULT:    -4.171      1.405      3.478
REMARK INTER + INTRA:          -7.820
REMARK INTER:                  -6.754
REMARK INTRA:                  -1.067
REMARK UNBOUND:                -1.211
REMARK SMILES CCCCCCCCCCCC(=O)[O-]
REMARK SMILES IDX 7 1 8 2 9 3 10 4 11 5 12 6 13 7 14 8 6 9 5 10 4 11 3 12 2 13
REMARK SMILES IDX 1 14
REMARK H PARENT
REMARK Flexibility Score: inf
ROOT
ATOM      1  C   UNL     1      17.233 -30.503  21.650  1.00  0.00     0.000 C 
ENDROOT
BRANCH   1   2
ATOM      2  C   UNL     1      17.071 -31.817  20.869  1.00  0.00     0.000 C 
BRANCH   2   3
ATOM      3  C   UNL     1      18.364 -32.645  20.822  1.00  0.00     0.000 C 
BRANCH   3   4
ATOM      4  C   UNL     1      18.182 -33.900  19.955  1.00  0.00     0.006 C 
BRANCH   4   5
ATOM      5  C   UNL     1      16.764 -34.008  19.379  1.00  0.00     0.053 C 
BRANCH   5   6
ATOM      6  C   UNL     1      15.982 -35.109  20.028  1.00  0.00     0.041 C 
ATOM      7  O   UNL     1      16.158 -36.304  19.674  1.00  0.00    -0.550 OA
ATOM      8  O   UNL     1      15.083 -34.818  21.046  1.00  0.00    -0.550 OA
ENDBRANCH   5   6
ENDBRANCH   4   5
ENDBRANCH   3   4
ENDBRANCH   2   3
ENDBRANCH   1   2
BRANCH   1   9
ATOM      9  C   UNL     1      16.298 -30.421  22.870  1.00  0.00     0.000 C 
BRANCH   9  10
ATOM     10  C   UNL     1      15.924 -31.807  23.421  1.00  0.00    -0.000 C 
BRANCH  10  11
ATOM     11  C   UNL     1      14.403 -32.011  23.522  1.00  0.00    -0.000 C 
BRANCH  11  12
ATOM     12  C   UNL     1      13.613 -30.744  23.159  1.00  0.00    -0.000 C 
BRANCH  12  13
ATOM     13  C   UNL     1      12.587 -30.984  22.042  1.00  0.00    -0.003 C 
ATOM     14  C   UNL     1      13.254 -31.576  20.803  1.00  0.00     0.004 C 
ENDBRANCH  12  13
ENDBRANCH  11  12
ENDBRANCH  10  11
ENDBRANCH   9  10
ENDBRANCH   1   9
TORSDOF 10
ENDMDL
MODEL 7
REMARK VINA RESULT:    -4.162      2.954      5.089
REMARK INTER + INTRA:          -7.806
REMARK INTER:                  -6.089
REMARK INTRA:                  -1.717
REMARK UNBOUND:                -1.211
REMARK SMILES CCCCCCCCCCCC(=O)[O-]
REMARK SMILES IDX 7 1 8 2 9 3 10 4 11 5 12 6 13 7 14 8 6 9 5 10 4 11 3 12 2 13
REMARK SMILES IDX 1 14
REMARK H PARENT
REMARK Flexibility Score: inf
ROOT
ATOM      1  C   UNL     1      18.119 -32.233  21.192  1.00  0.00     0.000 C 
ENDROOT
BRANCH   1   2
ATOM      2  C   UNL     1      17.201 -31.000  21.251  1.00  0.00     0.000 C 
BRANCH   2   3
ATOM      3  C   UNL     1      16.763 -30.653  22.682  1.00  0.00     0.000 C 
BRANCH   3   4
ATOM      4  C   UNL     1      15.264 -30.323  22.732  1.00  0.00     0.006 C 
BRANCH   4   5
ATOM      5  C   UNL     1      14.599 -30.425  21.352  1.00  0.00     0.053 C 
BRANCH   5   6
ATOM      6  C   UNL     1      13.244 -31.060  21.433  1.00  0.00     0.041 C 
ATOM      7  O   UNL     1      12.823 -31.774  20.486  1.00  0.00    -0.550 OA
ATOM      8  O   UNL     1      12.461 -30.888  22.567  1.00  0.00    -0.550 OA
ENDBRANCH   5   6
ENDBRANCH   4   5
ENDBRANCH   3   4
ENDBRANCH   2   3
ENDBRANCH   1   2
BRANCH   1   9
ATOM      9  C   UNL     1      17.652 -33.269  20.155  1.00  0.00     0.000 C 
BRANCH   9  10
ATOM     10  C   UNL     1      16.189 -33.695  20.363  1.00  0.00    -0.000 C 
BRANCH  10  11
ATOM     11  C   UNL     1      16.008 -34.601  21.592  1.00  0.00    -0.000 C 
BRANCH  11  12
ATOM     12  C   UNL     1      15.095 -33.974  22.659  1.00  0.00    -0.000 C 
BRANCH  12  13
ATOM     13  C   UNL     1      15.735 -33.961  24.054  1.00  0.00    -0.003 C 
ATOM     14  C   UNL     1      17.128 -34.584  24.026  1.00  0.00     0.004 C 
ENDBRANCH  12  13
ENDBRANCH  11  12
ENDBRANCH  10  11
ENDBRANCH   9  10
ENDBRANCH   1   9
TORSDOF 10
ENDMDL
MODEL 8
REMARK VINA RESULT:    -4.152      2.028      3.695
REMARK INTER + INTRA:          -7.790
REMARK INTER:                  -7.117
REMARK INTRA:                  -0.674
REMARK UNBOUND:                -1.211
REMARK SMILES CCCCCCCCCCCC(=O)[O-]
REMARK SMILES IDX 7 1 8 2 9 3 10 4 11 5 12 6 13 7 14 8 6 9 5 10 4 11 3 12 2 13
REMARK SMILES IDX 1 14
REMARK H PARENT
REMARK Flexibility Score: inf
ROOT
ATOM      1  C   UNL     1      14.234 -32.903  21.041  1.00  0.00     0.000 C 
ENDROOT
BRANCH   1   2
ATOM      2  C   UNL     1      14.554 -33.954  19.965  1.00  0.00     0.000 C 
BRANCH   2   3
ATOM      3  C   UNL     1      15.514 -35.043  20.466  1.00  0.00     0.000 C 
BRANCH   3   4
ATOM      4  C   UNL     1      16.511 -35.444  19.368  1.00  0.00     0.006 C 
BRANCH   4   5
ATOM      5  C   UNL     1      17.441 -34.288  18.977  1.00  0.00     0.053 C 
BRANCH   5   6
ATOM      6  C   UNL     1      18.071 -33.650  20.178  1.00  0.00     0.041 C 
ATOM      7  O   UNL     1      18.894 -34.295  20.879  1.00  0.00    -0.550 OA
ATOM      8  O   UNL     1      17.772 -32.334  20.505  1.00  0.00    -0.550 OA
ENDBRANCH   5   6
ENDBRANCH   4   5
ENDBRANCH   3   4
ENDBRANCH   2   3
ENDBRANCH   1   2
BRANCH   1   9
ATOM      9  C   UNL     1      14.763 -33.298  22.431  1.00  0.00     0.000 C 
BRANCH   9  10
ATOM     10  C   UNL     1      14.532 -32.201  23.484  1.00  0.00    -0.000 C 
BRANCH  10  11
ATOM     11  C   UNL     1      14.019 -30.889  22.867  1.00  0.00    -0.000 C 
BRANCH  11  12
ATOM     12  C   UNL     1      13.163 -30.071  23.848  1.00  0.00    -0.000 C 
BRANCH  12  13
ATOM     13  C   UNL     1      12.793 -28.686  23.299  1.00  0.00    -0.003 C 
ATOM     14  C   UNL     1      11.279 -28.520  23.204  1.00  0.00     0.004 C 
ENDBRANCH  12  13
ENDBRANCH  11  12
ENDBRANCH  10  11
ENDBRANCH   9  10
ENDBRANCH   1   9
TORSDOF 10
ENDMDL
MODEL 9
REMARK VINA RESULT:    -4.152      3.963      5.905
REMARK INTER + INTRA:          -7.790
REMARK INTER:                  -6.659
REMARK INTRA:                  -1.131
REMARK UNBOUND:                -1.211
REMARK SMILES CCCCCCCCCCCC(=O)[O-]
REMARK SMILES IDX 7 1 8 2 9 3 10 4 11 5 12 6 13 7 14 8 6 9 5 10 4 11 3 12 2 13
REMARK SMILES IDX 1 14
REMARK H PARENT
REMARK Flexibility Score: inf
ROOT
ATOM      1  C   UNL     1      16.579 -31.003  22.219  1.00  0.00     0.000 C 
ENDROOT
BRANCH   1   2
ATOM      2  C   UNL     1      15.511 -29.899  22.283  1.00  0.00     0.000 C 
BRANCH   2   3
ATOM      3  C   UNL     1      14.265 -30.227  21.446  1.00  0.00     0.000 C 
BRANCH   3   4
ATOM      4  C   UNL     1      13.106 -30.687  22.343  1.00  0.00     0.006 C 
BRANCH   4   5
ATOM      5  C   UNL     1      13.169 -30.059  23.742  1.00  0.00     0.053 C 
BRANCH   5   6
ATOM      6  C   UNL     1      12.442 -28.750  23.798  1.00  0.00     0.041 C 
ATOM      7  O   UNL     1      12.977 -27.751  24.346  1.00  0.00    -0.550 OA
ATOM      8  O   UNL     1      11.187 -28.625  23.216  1.00  0.00    -0.550 OA
ENDBRANCH   5   6
ENDBRANCH   4   5
ENDBRANCH   3   4
ENDBRANCH   2   3
ENDBRANCH   1   2
BRANCH   1   9
ATOM      9  C   UNL     1      16.347 -32.111  23.262  1.00  0.00     0.000 C 
BRANCH   9  10
ATOM     10  C   UNL     1      16.353 -33.517  22.641  1.00  0.00    -0.000 C 
BRANCH  10  11
ATOM     11  C   UNL     1      14.965 -33.944  22.134  1.00  0.00    -0.000 C 
BRANCH  11  12
ATOM     12  C   UNL     1      14.904 -34.051  20.601  1.00  0.00    -0.000 C 
BRANCH  12  13
ATOM     13  C   UNL     1      15.875 -35.102  20.042  1.00  0.00    -0.003 C 
ATOM     14  C   UNL     1      16.841 -34.478  19.039  1.00  0.00     0.004 C 
ENDBRANCH  12  13
ENDBRANCH  11  12
ENDBRANCH  10  11
ENDBRANCH   9  10
ENDBRANCH   1   9
TORSDOF 10
ENDMDL
