MODEL 1
REMARK VINA RESULT:    -4.731      0.000      0.000
REMARK INTER + INTRA:          -4.869
REMARK INTER:                  -4.869
REMARK INTRA:                   0.000
REMARK UNBOUND:                 0.000
REMARK SMILES O=c1ccc2ccc(O)cc2o1
REMARK SMILES IDX 6 1 7 2 8 3 10 4 11 5 5 6 4 7 3 8 2 9 1 10 12 11 9 12
REMARK H PARENT 9 13
REMARK Flexibility Score: inf
ROOT
ATOM      1  C   UNL     1     -23.383   9.434  -3.876  1.00  0.00     0.016 A 
ATOM      2  C   UNL     1     -22.393   8.522  -4.259  1.00  0.00     0.047 A 
ATOM      3  C   UNL     1     -22.728   7.385  -5.003  1.00  0.00     0.119 A 
ATOM      4  C   UNL     1     -24.063   7.155  -5.367  1.00  0.00     0.094 A 
ATOM      5  C   UNL     1     -25.060   8.061  -4.989  1.00  0.00     0.142 A 
ATOM      6  C   UNL     1     -24.718   9.208  -4.239  1.00  0.00     0.018 A 
ATOM      7  C   UNL     1     -25.735  10.096  -3.875  1.00  0.00     0.019 A 
ATOM      8  C   UNL     1     -27.048   9.826  -4.261  1.00  0.00     0.094 A 
ATOM      9  C   UNL     1     -27.313   8.670  -5.004  1.00  0.00     0.336 A 
ATOM     10  O   UNL     1     -28.492   8.410  -5.361  1.00  0.00    -0.246 OA
ATOM     11  O   UNL     1     -26.326   7.842  -5.337  1.00  0.00    -0.423 OA
ENDROOT
BRANCH   3  12
ATOM     12  O   UNL     1     -21.728   6.489  -5.374  1.00  0.00    -0.508 OA
ATOM     13  H   UNL     1     -21.288   5.875  -4.698  1.00  0.00     0.293 HD
ENDBRANCH   3  12
TORSDOF 1
ENDMDL
MODEL 2
REMARK VINA RESULT:    -4.512      1.062      1.347
REMARK INTER + INTRA:          -4.644
REMARK INTER:                  -4.644
REMARK INTRA:                   0.000
REMARK UNBOUND:                 0.000
REMARK SMILES O=c1ccc2ccc(O)cc2o1
REMARK SMILES IDX 6 1 7 2 8 3 10 4 11 5 5 6 4 7 3 8 2 9 1 10 12 11 9 12
REMARK H PARENT 9 13
REMARK Flexibility Score: inf
ROOT
ATOM      1  C   UNL     1     -24.258  10.967  -3.875  1.00  0.00     0.016 A 
ATOM      2  C   UNL     1     -23.016  10.323  -3.900  1.00  0.00     0.047 A 
ATOM      3  C   UNL     1     -22.920   8.986  -4.301  1.00  0.00     0.119 A 
ATOM      4  C   UNL     1     -24.075   8.284  -4.680  1.00  0.00     0.094 A 
ATOM      5  C   UNL     1     -25.321   8.920  -4.658  1.00  0.00     0.142 A 
ATOM      6  C   UNL     1     -25.413  10.271  -4.254  1.00  0.00     0.018 A 
ATOM      7  C   UNL     1     -26.672  10.879  -4.242  1.00  0.00     0.019 A 
ATOM      8  C   UNL     1     -27.791  10.142  -4.629  1.00  0.00     0.094 A 
ATOM      9  C   UNL     1     -27.624   8.808  -5.018  1.00  0.00     0.336 A 
ATOM     10  O   UNL     1     -28.623   8.127  -5.369  1.00  0.00    -0.246 OA
ATOM     11  O   UNL     1     -26.415   8.254  -5.020  1.00  0.00    -0.423 OA
ENDROOT
BRANCH   3  12
ATOM     12  O   UNL     1     -21.675   8.362  -4.319  1.00  0.00    -0.508 OA
ATOM     13  H   UNL     1     -21.284   7.935  -3.486  1.00  0.00     0.293 HD
ENDBRANCH   3  12
TORSDOF 1
ENDMDL
MODEL 3
REMARK VINA RESULT:    -3.690      1.475      2.219
REMARK INTER + INTRA:          -3.798
REMARK INTER:                  -3.798
REMARK INTRA:                   0.000
REMARK UNBOUND:                 0.000
REMARK SMILES O=c1ccc2ccc(O)cc2o1
REMARK SMILES IDX 6 1 7 2 8 3 10 4 11 5 5 6 4 7 3 8 2 9 1 10 12 11 9 12
REMARK H PARENT 9 13
REMARK Flexibility Score: inf
ROOT
ATOM      1  C   UNL     1     -24.495   7.105  -5.462  1.00  0.00     0.016 A 
ATOM      2  C   UNL     1     -23.127   7.231  -5.200  1.00  0.00     0.047 A 
ATOM      3  C   UNL     1     -22.632   8.367  -4.549  1.00  0.00     0.119 A 
ATOM      4  C   UNL     1     -23.512   9.386  -4.154  1.00  0.00     0.094 A 
ATOM      5  C   UNL     1     -24.882   9.268  -4.411  1.00  0.00     0.142 A 
ATOM      6  C   UNL     1     -25.378   8.120  -5.069  1.00  0.00     0.018 A 
ATOM      7  C   UNL     1     -26.752   8.031  -5.311  1.00  0.00     0.019 A 
ATOM      8  C   UNL     1     -27.587   9.069  -4.900  1.00  0.00     0.094 A 
ATOM      9  C   UNL     1     -27.027  10.177  -4.254  1.00  0.00     0.336 A 
ATOM     10  O   UNL     1     -27.765  11.123  -3.876  1.00  0.00    -0.246 OA
ATOM     11  O   UNL     1     -25.716  10.236  -4.035  1.00  0.00    -0.423 OA
ENDROOT
BRANCH   3  12
ATOM     12  O   UNL     1     -21.266   8.474  -4.298  1.00  0.00    -0.508 OA
ATOM     13  H   UNL     1     -20.801   9.374  -4.276  1.00  0.00     0.293 HD
ENDBRANCH   3  12
TORSDOF 1
ENDMDL
MODEL 4
REMARK VINA RESULT:    -3.127      1.538      4.725
REMARK INTER + INTRA:          -3.218
REMARK INTER:                  -3.218
REMARK INTRA:                   0.000
REMARK UNBOUND:                 0.000
REMARK SMILES O=c1ccc2ccc(O)cc2o1
REMARK SMILES IDX 6 1 7 2 8 3 10 4 11 5 5 6 4 7 3 8 2 9 1 10 12 11 9 12
REMARK H PARENT 9 13
REMARK Flexibility Score: inf
ROOT
ATOM      1  C   UNL     1     -26.804   7.833  -5.376  1.00  0.00     0.016 A 
ATOM      2  C   UNL     1     -27.579   8.906  -4.922  1.00  0.00     0.047 A 
ATOM      3  C   UNL     1     -26.970  10.013  -4.321  1.00  0.00     0.119 A 
ATOM      4  C   UNL     1     -25.576  10.050  -4.171  1.00  0.00     0.094 A 
ATOM      5  C   UNL     1     -24.793   8.982  -4.621  1.00  0.00     0.142 A 
ATOM      6  C   UNL     1     -25.411   7.866  -5.228  1.00  0.00     0.018 A 
ATOM      7  C   UNL     1     -24.602   6.813  -5.668  1.00  0.00     0.019 A 
ATOM      8  C   UNL     1     -23.221   6.895  -5.498  1.00  0.00     0.094 A 
ATOM      9  C   UNL     1     -22.678   8.032  -4.888  1.00  0.00     0.336 A 
ATOM     10  O   UNL     1     -21.433   8.123  -4.726  1.00  0.00    -0.246 OA
ATOM     11  O   UNL     1     -23.470   9.019  -4.479  1.00  0.00    -0.423 OA
ENDROOT
BRANCH   3  12
ATOM     12  O   UNL     1     -27.758  11.072  -3.875  1.00  0.00    -0.508 OA
ATOM     13  H   UNL     1     -27.980  11.192  -2.893  1.00  0.00     0.293 HD
ENDBRANCH   3  12
TORSDOF 1
ENDMDL
MODEL 5
REMARK VINA RESULT:    -2.975      2.195      4.945
REMARK INTER + INTRA:          -3.062
REMARK INTER:                  -3.062
REMARK INTRA:                   0.000
REMARK UNBOUND:                 0.000
REMARK SMILES O=c1ccc2ccc(O)cc2o1
REMARK SMILES IDX 6 1 7 2 8 3 10 4 11 5 5 6 4 7 3 8 2 9 1 10 12 11 9 12
REMARK H PARENT 9 13
REMARK Flexibility Score: inf
ROOT
ATOM      1  C   UNL     1     -27.404   7.496  -5.394  1.00  0.00     0.016 A 
ATOM      2  C   UNL     1     -28.727   7.742  -5.010  1.00  0.00     0.047 A 
ATOM      3  C   UNL     1     -29.045   8.878  -4.256  1.00  0.00     0.119 A 
ATOM      4  C   UNL     1     -28.033   9.775  -3.883  1.00  0.00     0.094 A 
ATOM      5  C   UNL     1     -26.708   9.537  -4.262  1.00  0.00     0.142 A 
ATOM      6  C   UNL     1     -26.391   8.390  -5.023  1.00  0.00     0.018 A 
ATOM      7  C   UNL     1     -25.058   8.179  -5.388  1.00  0.00     0.019 A 
ATOM      8  C   UNL     1     -24.087   9.099  -4.993  1.00  0.00     0.094 A 
ATOM      9  C   UNL     1     -24.474  10.213  -4.240  1.00  0.00     0.336 A 
ATOM     10  O   UNL     1     -23.612  11.055  -3.875  1.00  0.00    -0.246 OA
ATOM     11  O   UNL     1     -25.750  10.391  -3.907  1.00  0.00    -0.423 OA
ENDROOT
BRANCH   3  12
ATOM     12  O   UNL     1     -30.367   9.105  -3.883  1.00  0.00    -0.508 OA
ATOM     13  H   UNL     1     -31.139   8.674  -4.378  1.00  0.00     0.293 HD
ENDBRANCH   3  12
TORSDOF 1
ENDMDL
MODEL 6
REMARK VINA RESULT:    -2.929      2.075      2.996
REMARK INTER + INTRA:          -3.014
REMARK INTER:                  -3.014
REMARK INTRA:                   0.000
REMARK UNBOUND:                 0.000
REMARK SMILES O=c1ccc2ccc(O)cc2o1
REMARK SMILES IDX 6 1 7 2 8 3 10 4 11 5 5 6 4 7 3 8 2 9 1 10 12 11 9 12
REMARK H PARENT 9 13
REMARK Flexibility Score: inf
ROOT
ATOM      1  C   UNL     1     -25.059   8.116  -5.378  1.00  0.00     0.016 A 
ATOM      2  C   UNL     1     -24.041   8.998  -4.995  1.00  0.00     0.047 A 
ATOM      3  C   UNL     1     -24.341  10.143  -4.248  1.00  0.00     0.119 A 
ATOM      4  C   UNL     1     -25.668  10.410  -3.879  1.00  0.00     0.094 A 
ATOM      5  C   UNL     1     -26.692   9.535  -4.257  1.00  0.00     0.142 A 
ATOM      6  C   UNL     1     -26.385   8.379  -5.010  1.00  0.00     0.018 A 
ATOM      7  C   UNL     1     -27.429   7.523  -5.373  1.00  0.00     0.019 A 
ATOM      8  C   UNL     1     -28.732   7.830  -4.982  1.00  0.00     0.094 A 
ATOM      9  C   UNL     1     -28.961   8.992  -4.236  1.00  0.00     0.336 A 
ATOM     10  O   UNL     1     -30.131   9.286  -3.875  1.00  0.00    -0.246 OA
ATOM     11  O   UNL     1     -27.950   9.789  -3.905  1.00  0.00    -0.423 OA
ENDROOT
BRANCH   3  12
ATOM     12  O   UNL     1     -23.315  11.008  -3.878  1.00  0.00    -0.508 OA
ATOM     13  H   UNL     1     -23.049  11.131  -2.908  1.00  0.00     0.293 HD
ENDBRANCH   3  12
TORSDOF 1
ENDMDL
MODEL 7
REMARK VINA RESULT:    -2.855      1.611      2.133
REMARK INTER + INTRA:          -2.938
REMARK INTER:                  -2.938
REMARK INTRA:                   0.000
REMARK UNBOUND:                 0.000
REMARK SMILES O=c1ccc2ccc(O)cc2o1
REMARK SMILES IDX 6 1 7 2 8 3 10 4 11 5 5 6 4 7 3 8 2 9 1 10 12 11 9 12
REMARK H PARENT 9 13
REMARK Flexibility Score: inf
ROOT
ATOM      1  C   UNL     1     -22.901   8.014  -4.916  1.00  0.00     0.016 A 
ATOM      2  C   UNL     1     -23.106   6.748  -5.474  1.00  0.00     0.047 A 
ATOM      3  C   UNL     1     -24.400   6.312  -5.783  1.00  0.00     0.119 A 
ATOM      4  C   UNL     1     -25.499   7.148  -5.531  1.00  0.00     0.094 A 
ATOM      5  C   UNL     1     -25.303   8.416  -4.973  1.00  0.00     0.142 A 
ATOM      6  C   UNL     1     -23.996   8.852  -4.663  1.00  0.00     0.018 A 
ATOM      7  C   UNL     1     -23.831  10.124  -4.106  1.00  0.00     0.019 A 
ATOM      8  C   UNL     1     -24.953  10.919  -3.875  1.00  0.00     0.094 A 
ATOM      9  C   UNL     1     -26.218  10.421  -4.207  1.00  0.00     0.336 A 
ATOM     10  O   UNL     1     -27.243  11.124  -4.005  1.00  0.00    -0.246 OA
ATOM     11  O   UNL     1     -26.346   9.207  -4.736  1.00  0.00    -0.423 OA
ENDROOT
BRANCH   3  12
ATOM     12  O   UNL     1     -24.584   5.048  -6.338  1.00  0.00    -0.508 OA
ATOM     13  H   UNL     1     -24.443   4.878  -7.327  1.00  0.00     0.293 HD
ENDBRANCH   3  12
TORSDOF 1
ENDMDL
