MODEL 1
REMARK VINA RESULT:    -4.552      0.000      0.000
REMARK INTER + INTRA:         -14.591
REMARK INTER:                 -11.470
REMARK INTRA:                  -3.121
REMARK UNBOUND:                -3.121
REMARK SMILES CCCCCCCCCCCCCCCCCCCCCCCCCCCC(=O)[O-]
REMARK SMILES IDX 15 1 16 2 17 3 18 4 19 5 20 6 21 7 22 8 23 9 24 10 25 11
REMARK SMILES IDX 26 12 27 13 28 14 29 15 30 16 14 17 13 18 12 19 11 20 10 21
REMARK SMILES IDX 9 22 8 23 7 24 6 25 5 26 4 27 3 28 2 29 1 30
REMARK H PARENT
REMARK Flexibility Score: inf
ROOT
ATOM      1  C   UNL     1      -9.096   5.598  -8.081  1.00  0.00     0.000 C 
ENDROOT
BRANCH   1   2
ATOM      2  C   UNL     1      -9.313   4.566  -9.199  1.00  0.00     0.000 C 
BRANCH   2   3
ATOM      3  C   UNL     1      -9.519   5.214 -10.576  1.00  0.00     0.000 C 
BRANCH   3   4
ATOM      4  C   UNL     1      -8.358   4.867 -11.520  1.00  0.00     0.000 C 
BRANCH   4   5
ATOM      5  C   UNL     1      -8.828   4.508 -12.941  1.00  0.00     0.000 C 
BRANCH   5   6
ATOM      6  C   UNL     1      -8.024   5.163 -14.083  1.00  0.00     0.000 C 
BRANCH   6   7
ATOM      7  C   UNL     1      -6.497   5.163 -13.890  1.00  0.00     0.000 C 
BRANCH   7   8
ATOM      8  C   UNL     1      -5.767   4.251 -14.887  1.00  0.00     0.000 C 
BRANCH   8   9
ATOM      9  C   UNL     1      -4.653   5.014 -15.617  1.00  0.00     0.000 C 
BRANCH   9  10
ATOM     10  C   UNL     1      -4.999   6.505 -15.740  1.00  0.00     0.000 C 
BRANCH  10  11
ATOM     11  C   UNL     1      -5.499   6.886 -17.143  1.00  0.00     0.000 C 
BRANCH  11  12
ATOM     12  C   UNL     1      -6.796   7.709 -17.106  1.00  0.00     0.006 C 
BRANCH  12  13
ATOM     13  C   UNL     1      -8.027   6.798 -17.137  1.00  0.00     0.053 C 
BRANCH  13  14
ATOM     14  C   UNL     1      -8.775   6.958 -18.425  1.00  0.00     0.041 C 
ATOM     15  O   UNL     1      -9.570   7.925 -18.580  1.00  0.00    -0.550 OA
ATOM     16  O   UNL     1      -8.589   6.049 -19.460  1.00  0.00    -0.550 OA
ENDBRANCH  13  14
ENDBRANCH  12  13
ENDBRANCH  11  12
ENDBRANCH  10  11
ENDBRANCH   9  10
ENDBRANCH   8   9
ENDBRANCH   7   8
ENDBRANCH   6   7
ENDBRANCH   5   6
ENDBRANCH   4   5
ENDBRANCH   3   4
ENDBRANCH   2   3
ENDBRANCH   1   2
BRANCH   1  17
ATOM     17  C   UNL     1      -7.747   5.419  -7.363  1.00  0.00     0.000 C 
BRANCH  17  18
ATOM     18  C   UNL     1      -6.557   5.882  -8.219  1.00  0.00     0.000 C 
BRANCH  18  19
ATOM     19  C   UNL     1      -5.853   7.116  -7.631  1.00  0.00     0.000 C 
BRANCH  19  20
ATOM     20  C   UNL     1      -6.126   7.294  -6.129  1.00  0.00     0.000 C 
BRANCH  20  21
ATOM     21  C   UNL     1      -4.864   7.120  -5.271  1.00  0.00     0.000 C 
BRANCH  21  22
ATOM     22  C   UNL     1      -5.230   6.768  -3.824  1.00  0.00    -0.000 C 
BRANCH  22  23
ATOM     23  C   UNL     1      -5.128   5.255  -3.578  1.00  0.00    -0.000 C 
BRANCH  23  24
ATOM     24  C   UNL     1      -6.487   4.545  -3.693  1.00  0.00    -0.000 C 
BRANCH  24  25
ATOM     25  C   UNL     1      -7.329   4.668  -2.415  1.00  0.00    -0.000 C 
BRANCH  25  26
ATOM     26  C   UNL     1      -8.546   5.576  -2.646  1.00  0.00    -0.000 C 
BRANCH  26  27
ATOM     27  C   UNL     1      -8.890   5.750  -4.136  1.00  0.00    -0.000 C 
BRANCH  27  28
ATOM     28  C   UNL     1      -9.380   7.169  -4.496  1.00  0.00    -0.000 C 
BRANCH  28  29
ATOM     29  C   UNL     1      -8.799   8.237  -3.558  1.00  0.00    -0.003 C 
ATOM     30  C   UNL     1      -9.906   9.049  -2.894  1.00  0.00     0.004 C 
ENDBRANCH  28  29
ENDBRANCH  27  28
ENDBRANCH  26  27
ENDBRANCH  25  26
ENDBRANCH  24  25
ENDBRANCH  23  24
ENDBRANCH  22  23
ENDBRANCH  21  22
ENDBRANCH  20  21
ENDBRANCH  19  20
ENDBRANCH  18  19
ENDBRANCH  17  18
ENDBRANCH   1  17
TORSDOF 26
ENDMDL
MODEL 2
REMARK VINA RESULT:    -4.512      1.575      3.300
REMARK INTER + INTRA:         -14.490
REMARK INTER:                 -12.038
REMARK INTRA:                  -2.452
REMARK UNBOUND:                -3.121
REMARK SMILES CCCCCCCCCCCCCCCCCCCCCCCCCCCC(=O)[O-]
REMARK SMILES IDX 15 1 16 2 17 3 18 4 19 5 20 6 21 7 22 8 23 9 24 10 25 11
REMARK SMILES IDX 26 12 27 13 28 14 29 15 30 16 14 17 13 18 12 19 11 20 10 21
REMARK SMILES IDX 9 22 8 23 7 24 6 25 5 26 4 27 3 28 2 29 1 30
REMARK H PARENT
REMARK Flexibility Score: inf
ROOT
ATOM      1  C   UNL     1      -6.560   6.310  -7.732  1.00  0.00     0.000 C 
ENDROOT
BRANCH   1   2
ATOM      2  C   UNL     1      -7.686   5.299  -7.468  1.00  0.00     0.000 C 
BRANCH   2   3
ATOM      3  C   UNL     1      -8.963   5.610  -8.263  1.00  0.00     0.000 C 
BRANCH   3   4
ATOM      4  C   UNL     1      -9.208   4.544  -9.340  1.00  0.00     0.000 C 
BRANCH   4   5
ATOM      5  C   UNL     1      -9.501   5.147 -10.726  1.00  0.00     0.000 C 
BRANCH   5   6
ATOM      6  C   UNL     1      -8.565   4.677 -11.858  1.00  0.00     0.000 C 
BRANCH   6   7
ATOM      7  C   UNL     1      -7.398   5.628 -12.178  1.00  0.00     0.000 C 
BRANCH   7   8
ATOM      8  C   UNL     1      -6.297   4.964 -13.018  1.00  0.00     0.000 C 
BRANCH   8   9
ATOM      9  C   UNL     1      -6.899   4.123 -14.150  1.00  0.00     0.000 C 
BRANCH   9  10
ATOM     10  C   UNL     1      -5.798   3.401 -14.942  1.00  0.00     0.000 C 
BRANCH  10  11
ATOM     11  C   UNL     1      -5.088   4.322 -15.948  1.00  0.00     0.000 C 
BRANCH  11  12
ATOM     12  C   UNL     1      -6.070   5.153 -16.787  1.00  0.00     0.006 C 
BRANCH  12  13
ATOM     13  C   UNL     1      -5.986   6.638 -16.421  1.00  0.00     0.053 C 
BRANCH  13  14
ATOM     14  C   UNL     1      -7.128   7.399 -17.022  1.00  0.00     0.041 C 
ATOM     15  O   UNL     1      -8.225   7.485 -16.407  1.00  0.00    -0.550 OA
ATOM     16  O   UNL     1      -6.981   8.023 -18.255  1.00  0.00    -0.550 OA
ENDBRANCH  13  14
ENDBRANCH  12  13
ENDBRANCH  11  12
ENDBRANCH  10  11
ENDBRANCH   9  10
ENDBRANCH   8   9
ENDBRANCH   7   8
ENDBRANCH   6   7
ENDBRANCH   5   6
ENDBRANCH   4   5
ENDBRANCH   3   4
ENDBRANCH   2   3
ENDBRANCH   1   2
BRANCH   1  17
ATOM     17  C   UNL     1      -6.543   7.459  -6.710  1.00  0.00     0.000 C 
BRANCH  17  18
ATOM     18  C   UNL     1      -5.190   7.588  -5.991  1.00  0.00     0.000 C 
BRANCH  18  19
ATOM     19  C   UNL     1      -5.078   6.650  -4.776  1.00  0.00     0.000 C 
BRANCH  19  20
ATOM     20  C   UNL     1      -6.270   6.779  -3.816  1.00  0.00     0.000 C 
BRANCH  20  21
ATOM     21  C   UNL     1      -7.083   5.481  -3.700  1.00  0.00     0.000 C 
BRANCH  21  22
ATOM     22  C   UNL     1      -8.553   5.781  -3.381  1.00  0.00    -0.000 C 
BRANCH  22  23
ATOM     23  C   UNL     1      -9.256   6.441  -4.578  1.00  0.00    -0.000 C 
BRANCH  23  24
ATOM     24  C   UNL     1      -9.953   7.758  -4.200  1.00  0.00    -0.000 C 
BRANCH  24  25
ATOM     25  C   UNL     1      -9.928   8.029  -2.689  1.00  0.00    -0.000 C 
BRANCH  25  26
ATOM     26  C   UNL     1      -9.480   9.468  -2.397  1.00  0.00    -0.000 C 
BRANCH  26  27
ATOM     27  C   UNL     1     -10.618  10.354  -1.861  1.00  0.00    -0.000 C 
BRANCH  27  28
ATOM     28  C   UNL     1     -11.606  10.820  -2.951  1.00  0.00    -0.000 C 
BRANCH  28  29
ATOM     29  C   UNL     1     -13.063  10.495  -2.588  1.00  0.00    -0.003 C 
ATOM     30  C   UNL     1     -14.011  10.880  -3.718  1.00  0.00     0.004 C 
ENDBRANCH  28  29
ENDBRANCH  27  28
ENDBRANCH  26  27
ENDBRANCH  25  26
ENDBRANCH  24  25
ENDBRANCH  23  24
ENDBRANCH  22  23
ENDBRANCH  21  22
ENDBRANCH  20  21
ENDBRANCH  19  20
ENDBRANCH  18  19
ENDBRANCH  17  18
ENDBRANCH   1  17
TORSDOF 26
ENDMDL
MODEL 3
REMARK VINA RESULT:    -4.433      1.756      2.143
REMARK INTER + INTRA:         -14.292
REMARK INTER:                 -10.989
REMARK INTRA:                  -3.303
REMARK UNBOUND:                -3.121
REMARK SMILES CCCCCCCCCCCCCCCCCCCCCCCCCCCC(=O)[O-]
REMARK SMILES IDX 15 1 16 2 17 3 18 4 19 5 20 6 21 7 22 8 23 9 24 10 25 11
REMARK SMILES IDX 26 12 27 13 28 14 29 15 30 16 14 17 13 18 12 19 11 20 10 21
REMARK SMILES IDX 9 22 8 23 7 24 6 25 5 26 4 27 3 28 2 29 1 30
REMARK H PARENT
REMARK Flexibility Score: inf
ROOT
ATOM      1  C   UNL     1      -9.034   5.608  -8.113  1.00  0.00     0.000 C 
ENDROOT
BRANCH   1   2
ATOM      2  C   UNL     1      -9.170   4.578  -9.244  1.00  0.00     0.000 C 
BRANCH   2   3
ATOM      3  C   UNL     1      -9.522   5.220 -10.595  1.00  0.00     0.000 C 
BRANCH   3   4
ATOM      4  C   UNL     1      -8.764   4.531 -11.739  1.00  0.00     0.000 C 
BRANCH   4   5
ATOM      5  C   UNL     1      -7.949   5.515 -12.597  1.00  0.00     0.000 C 
BRANCH   5   6
ATOM      6  C   UNL     1      -6.432   5.243 -12.645  1.00  0.00     0.000 C 
BRANCH   6   7
ATOM      7  C   UNL     1      -5.926   4.589 -13.943  1.00  0.00     0.000 C 
BRANCH   7   8
ATOM      8  C   UNL     1      -5.619   5.610 -15.048  1.00  0.00     0.000 C 
BRANCH   8   9
ATOM      9  C   UNL     1      -6.601   5.468 -16.218  1.00  0.00     0.000 C 
BRANCH   9  10
ATOM     10  C   UNL     1      -7.794   6.421 -16.050  1.00  0.00     0.000 C 
BRANCH  10  11
ATOM     11  C   UNL     1      -7.841   7.512 -17.132  1.00  0.00     0.000 C 
BRANCH  11  12
ATOM     12  C   UNL     1      -6.731   7.353 -18.182  1.00  0.00     0.006 C 
BRANCH  12  13
ATOM     13  C   UNL     1      -6.035   8.691 -18.453  1.00  0.00     0.053 C 
BRANCH  13  14
ATOM     14  C   UNL     1      -5.271   9.147 -17.249  1.00  0.00     0.041 C 
ATOM     15  O   UNL     1      -5.522  10.268 -16.727  1.00  0.00    -0.550 OA
ATOM     16  O   UNL     1      -4.290   8.336 -16.693  1.00  0.00    -0.550 OA
ENDBRANCH  13  14
ENDBRANCH  12  13
ENDBRANCH  11  12
ENDBRANCH  10  11
ENDBRANCH   9  10
ENDBRANCH   8   9
ENDBRANCH   7   8
ENDBRANCH   6   7
ENDBRANCH   5   6
ENDBRANCH   4   5
ENDBRANCH   3   4
ENDBRANCH   2   3
ENDBRANCH   1   2
BRANCH   1  17
ATOM     17  C   UNL     1      -7.731   5.441  -7.312  1.00  0.00     0.000 C 
BRANCH  17  18
ATOM     18  C   UNL     1      -7.139   6.787  -6.863  1.00  0.00     0.000 C 
BRANCH  18  19
ATOM     19  C   UNL     1      -5.734   7.033  -7.439  1.00  0.00     0.000 C 
BRANCH  19  20
ATOM     20  C   UNL     1      -4.748   7.565  -6.388  1.00  0.00     0.000 C 
BRANCH  20  21
ATOM     21  C   UNL     1      -5.451   8.106  -5.134  1.00  0.00     0.000 C 
BRANCH  21  22
ATOM     22  C   UNL     1      -4.820   7.530  -3.860  1.00  0.00    -0.000 C 
BRANCH  22  23
ATOM     23  C   UNL     1      -4.344   6.086  -4.082  1.00  0.00    -0.000 C 
BRANCH  23  24
ATOM     24  C   UNL     1      -5.125   5.069  -3.233  1.00  0.00    -0.000 C 
BRANCH  24  25
ATOM     25  C   UNL     1      -6.487   4.711  -3.844  1.00  0.00    -0.000 C 
BRANCH  25  26
ATOM     26  C   UNL     1      -7.634   5.164  -2.928  1.00  0.00    -0.000 C 
BRANCH  26  27
ATOM     27  C   UNL     1      -8.759   5.888  -3.689  1.00  0.00    -0.000 C 
BRANCH  27  28
ATOM     28  C   UNL     1      -8.680   7.427  -3.593  1.00  0.00    -0.000 C 
BRANCH  28  29
ATOM     29  C   UNL     1      -8.578   7.911  -2.139  1.00  0.00    -0.003 C 
ATOM     30  C   UNL     1      -7.662   9.126  -2.026  1.00  0.00     0.004 C 
ENDBRANCH  28  29
ENDBRANCH  27  28
ENDBRANCH  26  27
ENDBRANCH  25  26
ENDBRANCH  24  25
ENDBRANCH  23  24
ENDBRANCH  22  23
ENDBRANCH  21  22
ENDBRANCH  20  21
ENDBRANCH  19  20
ENDBRANCH  18  19
ENDBRANCH  17  18
ENDBRANCH   1  17
TORSDOF 26
ENDMDL
MODEL 4
REMARK VINA RESULT:    -4.430      4.339     11.790
REMARK INTER + INTRA:         -14.285
REMARK INTER:                 -11.477
REMARK INTRA:                  -2.808
REMARK UNBOUND:                -3.121
REMARK SMILES CCCCCCCCCCCCCCCCCCCCCCCCCCCC(=O)[O-]
REMARK SMILES IDX 15 1 16 2 17 3 18 4 19 5 20 6 21 7 22 8 23 9 24 10 25 11
REMARK SMILES IDX 26 12 27 13 28 14 29 15 30 16 14 17 13 18 12 19 11 20 10 21
REMARK SMILES IDX 9 22 8 23 7 24 6 25 5 26 4 27 3 28 2 29 1 30
REMARK H PARENT
REMARK Flexibility Score: inf
ROOT
ATOM      1  C   UNL     1      -9.110   5.543  -8.131  1.00  0.00     0.000 C 
ENDROOT
BRANCH   1   2
ATOM      2  C   UNL     1      -7.644   5.640  -7.681  1.00  0.00     0.000 C 
BRANCH   2   3
ATOM      3  C   UNL     1      -7.402   6.784  -6.685  1.00  0.00     0.000 C 
BRANCH   3   4
ATOM      4  C   UNL     1      -5.907   7.127  -6.602  1.00  0.00     0.000 C 
BRANCH   4   5
ATOM      5  C   UNL     1      -5.599   8.222  -5.565  1.00  0.00     0.000 C 
BRANCH   5   6
ATOM      6  C   UNL     1      -4.729   7.771  -4.374  1.00  0.00     0.000 C 
BRANCH   6   7
ATOM      7  C   UNL     1      -4.250   6.309  -4.431  1.00  0.00     0.000 C 
BRANCH   7   8
ATOM      8  C   UNL     1      -4.598   5.514  -3.164  1.00  0.00     0.000 C 
BRANCH   8   9
ATOM      9  C   UNL     1      -6.006   5.865  -2.664  1.00  0.00     0.000 C 
BRANCH   9  10
ATOM     10  C   UNL     1      -7.076   5.098  -3.454  1.00  0.00     0.000 C 
BRANCH  10  11
ATOM     11  C   UNL     1      -8.481   5.701  -3.295  1.00  0.00     0.000 C 
BRANCH  11  12
ATOM     12  C   UNL     1      -8.470   7.237  -3.299  1.00  0.00     0.006 C 
BRANCH  12  13
ATOM     13  C   UNL     1      -9.786   7.795  -3.850  1.00  0.00     0.053 C 
BRANCH  13  14
ATOM     14  C   UNL     1     -10.554   8.504  -2.778  1.00  0.00     0.041 C 
ATOM     15  O   UNL     1     -10.939   7.877  -1.754  1.00  0.00    -0.550 OA
ATOM     16  O   UNL     1     -10.837   9.859  -2.900  1.00  0.00    -0.550 OA
ENDBRANCH  13  14
ENDBRANCH  12  13
ENDBRANCH  11  12
ENDBRANCH  10  11
ENDBRANCH   9  10
ENDBRANCH   8   9
ENDBRANCH   7   8
ENDBRANCH   6   7
ENDBRANCH   5   6
ENDBRANCH   4   5
ENDBRANCH   3   4
ENDBRANCH   2   3
ENDBRANCH   1   2
BRANCH   1  17
ATOM     17  C   UNL     1      -9.324   4.492  -9.234  1.00  0.00     0.000 C 
BRANCH  17  18
ATOM     18  C   UNL     1      -9.554   5.126 -10.615  1.00  0.00     0.000 C 
BRANCH  18  19
ATOM     19  C   UNL     1      -8.305   5.056 -11.511  1.00  0.00     0.000 C 
BRANCH  19  20
ATOM     20  C   UNL     1      -8.598   4.441 -12.888  1.00  0.00     0.000 C 
BRANCH  20  21
ATOM     21  C   UNL     1      -7.885   5.178 -14.032  1.00  0.00     0.000 C 
BRANCH  21  22
ATOM     22  C   UNL     1      -6.406   5.410 -13.697  1.00  0.00    -0.000 C 
BRANCH  22  23
ATOM     23  C   UNL     1      -5.506   5.085 -14.899  1.00  0.00    -0.000 C 
BRANCH  23  24
ATOM     24  C   UNL     1      -6.223   5.284 -16.245  1.00  0.00    -0.000 C 
BRANCH  24  25
ATOM     25  C   UNL     1      -5.987   6.680 -16.840  1.00  0.00    -0.000 C 
BRANCH  25  26
ATOM     26  C   UNL     1      -7.264   7.216 -17.502  1.00  0.00    -0.000 C 
BRANCH  26  27
ATOM     27  C   UNL     1      -8.411   6.190 -17.514  1.00  0.00    -0.000 C 
BRANCH  27  28
ATOM     28  C   UNL     1      -9.136   6.087 -18.872  1.00  0.00    -0.000 C 
BRANCH  28  29
ATOM     29  C   UNL     1      -9.051   7.395 -19.674  1.00  0.00    -0.003 C 
ATOM     30  C   UNL     1     -10.301   8.245 -19.475  1.00  0.00     0.004 C 
ENDBRANCH  28  29
ENDBRANCH  27  28
ENDBRANCH  26  27
ENDBRANCH  25  26
ENDBRANCH  24  25
ENDBRANCH  23  24
ENDBRANCH  22  23
ENDBRANCH  21  22
ENDBRANCH  20  21
ENDBRANCH  19  20
ENDBRANCH  18  19
ENDBRANCH  17  18
ENDBRANCH   1  17
TORSDOF 26
ENDMDL
MODEL 5
REMARK VINA RESULT:    -4.425      2.103      4.401
REMARK INTER + INTRA:         -14.271
REMARK INTER:                 -11.895
REMARK INTRA:                  -2.375
REMARK UNBOUND:                -3.121
REMARK SMILES CCCCCCCCCCCCCCCCCCCCCCCCCCCC(=O)[O-]
REMARK SMILES IDX 15 1 16 2 17 3 18 4 19 5 20 6 21 7 22 8 23 9 24 10 25 11
REMARK SMILES IDX 26 12 27 13 28 14 29 15 30 16 14 17 13 18 12 19 11 20 10 21
REMARK SMILES IDX 9 22 8 23 7 24 6 25 5 26 4 27 3 28 2 29 1 30
REMARK H PARENT
REMARK Flexibility Score: inf
ROOT
ATOM      1  C   UNL     1      -9.299   6.343  -5.606  1.00  0.00     0.000 C 
ENDROOT
BRANCH   1   2
ATOM      2  C   UNL     1      -7.854   6.206  -6.109  1.00  0.00     0.000 C 
BRANCH   2   3
ATOM      3  C   UNL     1      -7.770   5.616  -7.525  1.00  0.00     0.000 C 
BRANCH   3   4
ATOM      4  C   UNL     1      -9.156   5.589  -8.186  1.00  0.00     0.000 C 
BRANCH   4   5
ATOM      5  C   UNL     1      -9.248   4.578  -9.343  1.00  0.00     0.000 C 
BRANCH   5   6
ATOM      6  C   UNL     1      -9.449   5.197 -10.741  1.00  0.00     0.000 C 
BRANCH   6   7
ATOM      7  C   UNL     1      -8.739   4.461 -11.891  1.00  0.00     0.000 C 
BRANCH   7   8
ATOM      8  C   UNL     1      -7.585   5.271 -12.500  1.00  0.00     0.000 C 
BRANCH   8   9
ATOM      9  C   UNL     1      -6.961   4.533 -13.691  1.00  0.00     0.000 C 
BRANCH   9  10
ATOM     10  C   UNL     1      -6.339   5.524 -14.686  1.00  0.00     0.000 C 
BRANCH  10  11
ATOM     11  C   UNL     1      -7.196   5.718 -15.947  1.00  0.00     0.000 C 
BRANCH  11  12
ATOM     12  C   UNL     1      -6.361   5.706 -17.237  1.00  0.00     0.006 C 
BRANCH  12  13
ATOM     13  C   UNL     1      -7.264   5.709 -18.476  1.00  0.00     0.053 C 
BRANCH  13  14
ATOM     14  C   UNL     1      -7.917   7.044 -18.656  1.00  0.00     0.041 C 
ATOM     15  O   UNL     1      -7.213   8.071 -18.857  1.00  0.00    -0.550 OA
ATOM     16  O   UNL     1      -9.301   7.158 -18.611  1.00  0.00    -0.550 OA
ENDBRANCH  13  14
ENDBRANCH  12  13
ENDBRANCH  11  12
ENDBRANCH  10  11
ENDBRANCH   9  10
ENDBRANCH   8   9
ENDBRANCH   7   8
ENDBRANCH   6   7
ENDBRANCH   5   6
ENDBRANCH   4   5
ENDBRANCH   3   4
ENDBRANCH   2   3
ENDBRANCH   1   2
BRANCH   1  17
ATOM     17  C   UNL     1      -9.390   7.077  -4.257  1.00  0.00     0.000 C 
BRANCH  17  18
ATOM     18  C   UNL     1      -8.008   7.388  -3.661  1.00  0.00     0.000 C 
BRANCH  18  19
ATOM     19  C   UNL     1      -7.721   6.578  -2.385  1.00  0.00     0.000 C 
BRANCH  19  20
ATOM     20  C   UNL     1      -8.854   5.600  -2.037  1.00  0.00     0.000 C 
BRANCH  20  21
ATOM     21  C   UNL     1      -9.137   5.531  -0.529  1.00  0.00     0.000 C 
BRANCH  21  22
ATOM     22  C   UNL     1      -9.762   6.838  -0.028  1.00  0.00    -0.000 C 
BRANCH  22  23
ATOM     23  C   UNL     1     -11.047   7.172  -0.802  1.00  0.00    -0.000 C 
BRANCH  23  24
ATOM     24  C   UNL     1     -11.316   8.684  -0.878  1.00  0.00    -0.000 C 
BRANCH  24  25
ATOM     25  C   UNL     1     -10.169   9.457  -1.544  1.00  0.00    -0.000 C 
BRANCH  25  26
ATOM     26  C   UNL     1     -10.703  10.411  -2.622  1.00  0.00    -0.000 C 
BRANCH  26  27
ATOM     27  C   UNL     1     -11.988   9.896  -3.294  1.00  0.00    -0.000 C 
BRANCH  27  28
ATOM     28  C   UNL     1     -13.240  10.733  -2.959  1.00  0.00    -0.000 C 
BRANCH  28  29
ATOM     29  C   UNL     1     -13.055  12.218  -3.310  1.00  0.00    -0.003 C 
ATOM     30  C   UNL     1     -13.649  13.117  -2.231  1.00  0.00     0.004 C 
ENDBRANCH  28  29
ENDBRANCH  27  28
ENDBRANCH  26  27
ENDBRANCH  25  26
ENDBRANCH  24  25
ENDBRANCH  23  24
ENDBRANCH  22  23
ENDBRANCH  21  22
ENDBRANCH  20  21
ENDBRANCH  19  20
ENDBRANCH  18  19
ENDBRANCH  17  18
ENDBRANCH   1  17
TORSDOF 26
ENDMDL
MODEL 6
REMARK VINA RESULT:    -4.424      0.967      2.191
REMARK INTER + INTRA:         -14.269
REMARK INTER:                 -11.686
REMARK INTRA:                  -2.583
REMARK UNBOUND:                -3.121
REMARK SMILES CCCCCCCCCCCCCCCCCCCCCCCCCCCC(=O)[O-]
REMARK SMILES IDX 15 1 16 2 17 3 18 4 19 5 20 6 21 7 22 8 23 9 24 10 25 11
REMARK SMILES IDX 26 12 27 13 28 14 29 15 30 16 14 17 13 18 12 19 11 20 10 21
REMARK SMILES IDX 9 22 8 23 7 24 6 25 5 26 4 27 3 28 2 29 1 30
REMARK H PARENT
REMARK Flexibility Score: inf
ROOT
ATOM      1  C   UNL     1      -6.799   6.371  -7.466  1.00  0.00     0.000 C 
ENDROOT
BRANCH   1   2
ATOM      2  C   UNL     1      -7.982   5.439  -7.160  1.00  0.00     0.000 C 
BRANCH   2   3
ATOM      3  C   UNL     1      -9.158   5.632  -8.129  1.00  0.00     0.000 C 
BRANCH   3   4
ATOM      4  C   UNL     1      -9.173   4.526  -9.195  1.00  0.00     0.000 C 
BRANCH   4   5
ATOM      5  C   UNL     1      -9.487   5.056 -10.605  1.00  0.00     0.000 C 
BRANCH   5   6
ATOM      6  C   UNL     1      -8.277   5.148 -11.556  1.00  0.00     0.000 C 
BRANCH   6   7
ATOM      7  C   UNL     1      -8.406   4.338 -12.859  1.00  0.00     0.000 C 
BRANCH   7   8
ATOM      8  C   UNL     1      -8.299   5.209 -14.119  1.00  0.00     0.000 C 
BRANCH   8   9
ATOM      9  C   UNL     1      -6.836   5.377 -14.550  1.00  0.00     0.000 C 
BRANCH   9  10
ATOM     10  C   UNL     1      -6.715   5.399 -16.081  1.00  0.00     0.000 C 
BRANCH  10  11
ATOM     11  C   UNL     1      -6.637   6.824 -16.652  1.00  0.00     0.000 C 
BRANCH  11  12
ATOM     12  C   UNL     1      -8.015   7.385 -17.033  1.00  0.00     0.006 C 
BRANCH  12  13
ATOM     13  C   UNL     1      -8.174   7.470 -18.554  1.00  0.00     0.053 C 
BRANCH  13  14
ATOM     14  C   UNL     1      -9.269   6.565 -19.027  1.00  0.00     0.041 C 
ATOM     15  O   UNL     1     -10.154   6.998 -19.814  1.00  0.00    -0.550 OA
ATOM     16  O   UNL     1      -9.312   5.240 -18.607  1.00  0.00    -0.550 OA
ENDBRANCH  13  14
ENDBRANCH  12  13
ENDBRANCH  11  12
ENDBRANCH  10  11
ENDBRANCH   9  10
ENDBRANCH   8   9
ENDBRANCH   7   8
ENDBRANCH   6   7
ENDBRANCH   5   6
ENDBRANCH   4   5
ENDBRANCH   3   4
ENDBRANCH   2   3
ENDBRANCH   1   2
BRANCH   1  17
ATOM     17  C   UNL     1      -6.434   7.275  -6.275  1.00  0.00     0.000 C 
BRANCH  17  18
ATOM     18  C   UNL     1      -4.919   7.497  -6.147  1.00  0.00     0.000 C 
BRANCH  18  19
ATOM     19  C   UNL     1      -4.375   7.064  -4.774  1.00  0.00     0.000 C 
BRANCH  19  20
ATOM     20  C   UNL     1      -5.448   6.404  -3.894  1.00  0.00     0.000 C 
BRANCH  20  21
ATOM     21  C   UNL     1      -5.074   4.975  -3.471  1.00  0.00     0.000 C 
BRANCH  21  22
ATOM     22  C   UNL     1      -6.272   4.029  -3.618  1.00  0.00    -0.000 C 
BRANCH  22  23
ATOM     23  C   UNL     1      -6.640   3.385  -2.272  1.00  0.00    -0.000 C 
BRANCH  23  24
ATOM     24  C   UNL     1      -7.225   4.397  -1.273  1.00  0.00    -0.000 C 
BRANCH  24  25
ATOM     25  C   UNL     1      -8.714   4.678  -1.520  1.00  0.00    -0.000 C 
BRANCH  25  26
ATOM     26  C   UNL     1      -8.925   6.113  -2.023  1.00  0.00    -0.000 C 
BRANCH  26  27
ATOM     27  C   UNL     1      -9.093   6.195  -3.550  1.00  0.00    -0.000 C 
BRANCH  27  28
ATOM     28  C   UNL     1      -9.382   7.621  -4.066  1.00  0.00    -0.000 C 
BRANCH  28  29
ATOM     29  C   UNL     1      -9.930   8.536  -2.961  1.00  0.00    -0.003 C 
ATOM     30  C   UNL     1     -11.306   9.080  -3.328  1.00  0.00     0.004 C 
ENDBRANCH  28  29
ENDBRANCH  27  28
ENDBRANCH  26  27
ENDBRANCH  25  26
ENDBRANCH  24  25
ENDBRANCH  23  24
ENDBRANCH  22  23
ENDBRANCH  21  22
ENDBRANCH  20  21
ENDBRANCH  19  20
ENDBRANCH  18  19
ENDBRANCH  17  18
ENDBRANCH   1  17
TORSDOF 26
ENDMDL
MODEL 7
REMARK VINA RESULT:    -4.413      4.370     11.999
REMARK INTER + INTRA:         -14.242
REMARK INTER:                 -11.569
REMARK INTRA:                  -2.673
REMARK UNBOUND:                -3.121
REMARK SMILES CCCCCCCCCCCCCCCCCCCCCCCCCCCC(=O)[O-]
REMARK SMILES IDX 15 1 16 2 17 3 18 4 19 5 20 6 21 7 22 8 23 9 24 10 25 11
REMARK SMILES IDX 26 12 27 13 28 14 29 15 30 16 14 17 13 18 12 19 11 20 10 21
REMARK SMILES IDX 9 22 8 23 7 24 6 25 5 26 4 27 3 28 2 29 1 30
REMARK H PARENT
REMARK Flexibility Score: inf
ROOT
ATOM      1  C   UNL     1      -9.023   5.591  -8.222  1.00  0.00     0.000 C 
ENDROOT
BRANCH   1   2
ATOM      2  C   UNL     1      -7.560   5.922  -7.889  1.00  0.00     0.000 C 
BRANCH   2   3
ATOM      3  C   UNL     1      -7.399   6.594  -6.517  1.00  0.00     0.000 C 
BRANCH   3   4
ATOM      4  C   UNL     1      -8.705   6.512  -5.714  1.00  0.00     0.000 C 
BRANCH   4   5
ATOM      5  C   UNL     1      -8.670   5.431  -4.618  1.00  0.00     0.000 C 
BRANCH   5   6
ATOM      6  C   UNL     1      -7.344   4.651  -4.510  1.00  0.00     0.000 C 
BRANCH   6   7
ATOM      7  C   UNL     1      -6.631   4.759  -3.150  1.00  0.00     0.000 C 
BRANCH   7   8
ATOM      8  C   UNL     1      -7.545   5.290  -2.036  1.00  0.00     0.000 C 
BRANCH   8   9
ATOM      9  C   UNL     1      -7.098   6.683  -1.573  1.00  0.00     0.000 C 
BRANCH   9  10
ATOM     10  C   UNL     1      -8.259   7.686  -1.650  1.00  0.00     0.000 C 
BRANCH  10  11
ATOM     11  C   UNL     1      -9.525   7.186  -0.937  1.00  0.00     0.000 C 
BRANCH  11  12
ATOM     12  C   UNL     1     -10.812   7.779  -1.530  1.00  0.00     0.006 C 
BRANCH  12  13
ATOM     13  C   UNL     1     -10.541   8.433  -2.889  1.00  0.00     0.053 C 
BRANCH  13  14
ATOM     14  C   UNL     1     -11.078   9.831  -2.923  1.00  0.00     0.041 C 
ATOM     15  O   UNL     1     -10.386  10.786  -2.478  1.00  0.00    -0.550 OA
ATOM     16  O   UNL     1     -12.337  10.084  -3.454  1.00  0.00    -0.550 OA
ENDBRANCH  13  14
ENDBRANCH  12  13
ENDBRANCH  11  12
ENDBRANCH  10  11
ENDBRANCH   9  10
ENDBRANCH   8   9
ENDBRANCH   7   8
ENDBRANCH   6   7
ENDBRANCH   5   6
ENDBRANCH   4   5
ENDBRANCH   3   4
ENDBRANCH   2   3
ENDBRANCH   1   2
BRANCH   1  17
ATOM     17  C   UNL     1      -9.155   4.475  -9.272  1.00  0.00     0.000 C 
BRANCH  17  18
ATOM     18  C   UNL     1      -9.544   5.013 -10.658  1.00  0.00     0.000 C 
BRANCH  18  19
ATOM     19  C   UNL     1      -8.329   5.176 -11.589  1.00  0.00     0.000 C 
BRANCH  19  20
ATOM     20  C   UNL     1      -8.549   4.534 -12.967  1.00  0.00     0.000 C 
BRANCH  20  21
ATOM     21  C   UNL     1      -7.233   4.156 -13.663  1.00  0.00     0.000 C 
BRANCH  21  22
ATOM     22  C   UNL     1      -6.113   5.134 -13.288  1.00  0.00    -0.000 C 
BRANCH  22  23
ATOM     23  C   UNL     1      -5.312   5.563 -14.528  1.00  0.00    -0.000 C 
BRANCH  23  24
ATOM     24  C   UNL     1      -5.503   4.605 -15.715  1.00  0.00    -0.000 C 
BRANCH  24  25
ATOM     25  C   UNL     1      -5.890   5.336 -17.009  1.00  0.00    -0.000 C 
BRANCH  25  26
ATOM     26  C   UNL     1      -6.578   6.673 -16.698  1.00  0.00    -0.000 C 
BRANCH  26  27
ATOM     27  C   UNL     1      -8.104   6.621 -16.888  1.00  0.00    -0.000 C 
BRANCH  27  28
ATOM     28  C   UNL     1      -8.546   5.822 -18.132  1.00  0.00    -0.000 C 
BRANCH  28  29
ATOM     29  C   UNL     1      -8.868   6.737 -19.323  1.00  0.00    -0.003 C 
ATOM     30  C   UNL     1      -9.881   7.809 -18.937  1.00  0.00     0.004 C 
ENDBRANCH  28  29
ENDBRANCH  27  28
ENDBRANCH  26  27
ENDBRANCH  25  26
ENDBRANCH  24  25
ENDBRANCH  23  24
ENDBRANCH  22  23
ENDBRANCH  21  22
ENDBRANCH  20  21
ENDBRANCH  19  20
ENDBRANCH  18  19
ENDBRANCH  17  18
ENDBRANCH   1  17
TORSDOF 26
ENDMDL
MODEL 8
REMARK VINA RESULT:    -4.372      4.456     11.890
REMARK INTER + INTRA:         -14.137
REMARK INTER:                 -11.502
REMARK INTRA:                  -2.635
REMARK UNBOUND:                -3.121
REMARK SMILES CCCCCCCCCCCCCCCCCCCCCCCCCCCC(=O)[O-]
REMARK SMILES IDX 15 1 16 2 17 3 18 4 19 5 20 6 21 7 22 8 23 9 24 10 25 11
REMARK SMILES IDX 26 12 27 13 28 14 29 15 30 16 14 17 13 18 12 19 11 20 10 21
REMARK SMILES IDX 9 22 8 23 7 24 6 25 5 26 4 27 3 28 2 29 1 30
REMARK H PARENT
REMARK Flexibility Score: inf
ROOT
ATOM      1  C   UNL     1      -8.460   6.657  -5.484  1.00  0.00     0.000 C 
ENDROOT
BRANCH   1   2
ATOM      2  C   UNL     1      -7.306   7.655  -5.301  1.00  0.00     0.000 C 
BRANCH   2   3
ATOM      3  C   UNL     1      -6.582   7.488  -3.957  1.00  0.00     0.000 C 
BRANCH   3   4
ATOM      4  C   UNL     1      -5.337   6.602  -4.115  1.00  0.00     0.000 C 
BRANCH   4   5
ATOM      5  C   UNL     1      -5.174   5.587  -2.969  1.00  0.00     0.000 C 
BRANCH   5   6
ATOM      6  C   UNL     1      -5.831   4.213  -3.210  1.00  0.00     0.000 C 
BRANCH   6   7
ATOM      7  C   UNL     1      -6.769   3.732  -2.088  1.00  0.00     0.000 C 
BRANCH   7   8
ATOM      8  C   UNL     1      -8.043   4.580  -1.968  1.00  0.00     0.000 C 
BRANCH   8   9
ATOM      9  C   UNL     1      -8.268   5.034  -0.519  1.00  0.00     0.000 C 
BRANCH   9  10
ATOM     10  C   UNL     1      -9.212   6.245  -0.464  1.00  0.00     0.000 C 
BRANCH  10  11
ATOM     11  C   UNL     1      -9.426   6.895  -1.841  1.00  0.00     0.000 C 
BRANCH  11  12
ATOM     12  C   UNL     1     -10.621   7.861  -1.860  1.00  0.00     0.006 C 
BRANCH  12  13
ATOM     13  C   UNL     1     -10.677   8.640  -3.177  1.00  0.00     0.053 C 
BRANCH  13  14
ATOM     14  C   UNL     1     -11.367   9.956  -2.988  1.00  0.00     0.041 C 
ATOM     15  O   UNL     1     -12.594  10.073  -3.253  1.00  0.00    -0.550 OA
ATOM     16  O   UNL     1     -10.660  11.054  -2.510  1.00  0.00    -0.550 OA
ENDBRANCH  13  14
ENDBRANCH  12  13
ENDBRANCH  11  12
ENDBRANCH  10  11
ENDBRANCH   9  10
ENDBRANCH   8   9
ENDBRANCH   7   8
ENDBRANCH   6   7
ENDBRANCH   5   6
ENDBRANCH   4   5
ENDBRANCH   3   4
ENDBRANCH   2   3
ENDBRANCH   1   2
BRANCH   1  17
ATOM     17  C   UNL     1      -7.986   5.292  -6.012  1.00  0.00     0.000 C 
BRANCH  17  18
ATOM     18  C   UNL     1      -7.795   5.285  -7.537  1.00  0.00     0.000 C 
BRANCH  18  19
ATOM     19  C   UNL     1      -9.100   5.585  -8.295  1.00  0.00     0.000 C 
BRANCH  19  20
ATOM     20  C   UNL     1      -9.427   4.522  -9.354  1.00  0.00     0.000 C 
BRANCH  20  21
ATOM     21  C   UNL     1      -9.508   5.102 -10.774  1.00  0.00     0.000 C 
BRANCH  21  22
ATOM     22  C   UNL     1      -8.177   4.926 -11.515  1.00  0.00    -0.000 C 
BRANCH  22  23
ATOM     23  C   UNL     1      -8.407   4.568 -12.992  1.00  0.00    -0.000 C 
BRANCH  23  24
ATOM     24  C   UNL     1      -7.095   4.295 -13.745  1.00  0.00    -0.000 C 
BRANCH  24  25
ATOM     25  C   UNL     1      -6.776   5.375 -14.789  1.00  0.00    -0.000 C 
BRANCH  25  26
ATOM     26  C   UNL     1      -8.055   6.095 -15.241  1.00  0.00    -0.000 C 
BRANCH  26  27
ATOM     27  C   UNL     1      -7.883   6.843 -16.575  1.00  0.00    -0.000 C 
BRANCH  27  28
ATOM     28  C   UNL     1      -7.627   5.911 -17.779  1.00  0.00    -0.000 C 
BRANCH  28  29
ATOM     29  C   UNL     1      -8.735   6.019 -18.838  1.00  0.00    -0.003 C 
ATOM     30  C   UNL     1      -9.608   7.246 -18.599  1.00  0.00     0.004 C 
ENDBRANCH  28  29
ENDBRANCH  27  28
ENDBRANCH  26  27
ENDBRANCH  25  26
ENDBRANCH  24  25
ENDBRANCH  23  24
ENDBRANCH  22  23
ENDBRANCH  21  22
ENDBRANCH  20  21
ENDBRANCH  19  20
ENDBRANCH  18  19
ENDBRANCH  17  18
ENDBRANCH   1  17
TORSDOF 26
ENDMDL
MODEL 9
REMARK VINA RESULT:    -4.371      6.104      9.848
REMARK INTER + INTRA:         -14.134
REMARK INTER:                  -9.739
REMARK INTRA:                  -4.396
REMARK UNBOUND:                -3.121
REMARK SMILES CCCCCCCCCCCCCCCCCCCCCCCCCCCC(=O)[O-]
REMARK SMILES IDX 15 1 16 2 17 3 18 4 19 5 20 6 21 7 22 8 23 9 24 10 25 11
REMARK SMILES IDX 26 12 27 13 28 14 29 15 30 16 14 17 13 18 12 19 11 20 10 21
REMARK SMILES IDX 9 22 8 23 7 24 6 25 5 26 4 27 3 28 2 29 1 30
REMARK H PARENT
REMARK Flexibility Score: inf
ROOT
ATOM      1  C   UNL     1     -10.992   7.548  -0.879  1.00  0.00     0.000 C 
ENDROOT
BRANCH   1   2
ATOM      2  C   UNL     1      -9.712   6.912  -1.443  1.00  0.00     0.000 C 
BRANCH   2   3
ATOM      3  C   UNL     1      -9.178   5.771  -0.565  1.00  0.00     0.000 C 
BRANCH   3   4
ATOM      4  C   UNL     1      -9.025   4.480  -1.383  1.00  0.00     0.000 C 
BRANCH   4   5
ATOM      5  C   UNL     1      -8.361   3.341  -0.589  1.00  0.00     0.000 C 
BRANCH   5   6
ATOM      6  C   UNL     1      -7.155   2.674  -1.283  1.00  0.00     0.000 C 
BRANCH   6   7
ATOM      7  C   UNL     1      -5.781   3.259  -0.911  1.00  0.00     0.000 C 
BRANCH   7   8
ATOM      8  C   UNL     1      -5.425   4.513  -1.723  1.00  0.00     0.000 C 
BRANCH   8   9
ATOM      9  C   UNL     1      -5.561   4.251  -3.229  1.00  0.00     0.000 C 
BRANCH   9  10
ATOM     10  C   UNL     1      -6.419   5.335  -3.899  1.00  0.00     0.000 C 
BRANCH  10  11
ATOM     11  C   UNL     1      -7.462   4.755  -4.867  1.00  0.00     0.000 C 
BRANCH  11  12
ATOM     12  C   UNL     1      -8.770   5.561  -4.881  1.00  0.00     0.006 C 
BRANCH  12  13
ATOM     13  C   UNL     1      -8.801   6.539  -6.060  1.00  0.00     0.053 C 
BRANCH  13  14
ATOM     14  C   UNL     1      -8.345   5.869  -7.319  1.00  0.00     0.041 C 
ATOM     15  O   UNL     1      -9.151   5.174  -7.995  1.00  0.00    -0.550 OA
ATOM     16  O   UNL     1      -7.033   6.018  -7.754  1.00  0.00    -0.550 OA
ENDBRANCH  13  14
ENDBRANCH  12  13
ENDBRANCH  11  12
ENDBRANCH  10  11
ENDBRANCH   9  10
ENDBRANCH   8   9
ENDBRANCH   7   8
ENDBRANCH   6   7
ENDBRANCH   5   6
ENDBRANCH   4   5
ENDBRANCH   3   4
ENDBRANCH   2   3
ENDBRANCH   1   2
BRANCH   1  17
ATOM     17  C   UNL     1     -11.239   8.966  -1.423  1.00  0.00     0.000 C 
BRANCH  17  18
ATOM     18  C   UNL     1     -11.255   9.013  -2.960  1.00  0.00     0.000 C 
BRANCH  18  19
ATOM     19  C   UNL     1     -12.440   9.824  -3.512  1.00  0.00     0.000 C 
BRANCH  19  20
ATOM     20  C   UNL     1     -13.128  10.674  -2.433  1.00  0.00     0.000 C 
BRANCH  20  21
ATOM     21  C   UNL     1     -13.643  12.017  -2.973  1.00  0.00     0.000 C 
BRANCH  21  22
ATOM     22  C   UNL     1     -12.492  12.859  -3.537  1.00  0.00    -0.000 C 
BRANCH  22  23
ATOM     23  C   UNL     1     -11.378  13.044  -2.495  1.00  0.00    -0.000 C 
BRANCH  23  24
ATOM     24  C   UNL     1     -10.002  12.596  -3.014  1.00  0.00    -0.000 C 
BRANCH  24  25
ATOM     25  C   UNL     1      -9.140  11.948  -1.921  1.00  0.00    -0.000 C 
BRANCH  25  26
ATOM     26  C   UNL     1      -7.803  11.457  -2.496  1.00  0.00    -0.000 C 
BRANCH  26  27
ATOM     27  C   UNL     1      -7.595   9.943  -2.323  1.00  0.00    -0.000 C 
BRANCH  27  28
ATOM     28  C   UNL     1      -7.775   9.140  -3.629  1.00  0.00    -0.000 C 
BRANCH  28  29
ATOM     29  C   UNL     1      -6.932   9.711  -4.780  1.00  0.00    -0.003 C 
ATOM     30  C   UNL     1      -5.832   8.738  -5.192  1.00  0.00     0.004 C 
ENDBRANCH  28  29
ENDBRANCH  27  28
ENDBRANCH  26  27
ENDBRANCH  25  26
ENDBRANCH  24  25
ENDBRANCH  23  24
ENDBRANCH  22  23
ENDBRANCH  21  22
ENDBRANCH  20  21
ENDBRANCH  19  20
ENDBRANCH  18  19
ENDBRANCH  17  18
ENDBRANCH   1  17
TORSDOF 26
ENDMDL
