MODEL 1
REMARK VINA RESULT:    -3.827      0.000      0.000
REMARK INTER + INTRA:          -8.181
REMARK INTER:                  -7.407
REMARK INTRA:                  -0.773
REMARK UNBOUND:                -0.773
REMARK SMILES CCCCCCCCCCCCCCCCCC(=O)[O-]
REMARK SMILES IDX 10 1 11 2 12 3 13 4 14 5 15 6 16 7 17 8 18 9 19 10 20 11
REMARK SMILES IDX 9 12 8 13 7 14 6 15 5 16 4 17 3 18 2 19 1 20
REMARK H PARENT
REMARK Flexibility Score: inf
ROOT
ATOM      1  C   UNL     1       7.168   9.085  33.465  1.00  0.00     0.000 C 
ENDROOT
BRANCH   1   2
ATOM      2  C   UNL     1       7.017   7.588  33.121  1.00  0.00     0.000 C 
BRANCH   2   3
ATOM      3  C   UNL     1       6.347   6.798  34.259  1.00  0.00     0.000 C 
BRANCH   3   4
ATOM      4  C   UNL     1       6.895   7.170  35.646  1.00  0.00     0.000 C 
BRANCH   4   5
ATOM      5  C   UNL     1       7.547   5.978  36.364  1.00  0.00     0.000 C 
BRANCH   5   6
ATOM      6  C   UNL     1       6.780   4.678  36.082  1.00  0.00     0.000 C 
BRANCH   6   7
ATOM      7  C   UNL     1       7.698   3.446  35.990  1.00  0.00     0.006 C 
BRANCH   7   8
ATOM      8  C   UNL     1       8.954   3.531  36.876  1.00  0.00     0.053 C 
BRANCH   8   9
ATOM      9  C   UNL     1      10.212   3.738  36.086  1.00  0.00     0.041 C 
ATOM     10  O   UNL     1      10.343   4.755  35.354  1.00  0.00    -0.550 OA
ATOM     11  O   UNL     1      11.253   2.823  36.184  1.00  0.00    -0.550 OA
ENDBRANCH   8   9
ENDBRANCH   7   8
ENDBRANCH   6   7
ENDBRANCH   5   6
ENDBRANCH   4   5
ENDBRANCH   3   4
ENDBRANCH   2   3
ENDBRANCH   1   2
BRANCH   1  12
ATOM     12  C   UNL     1       6.151   9.988  32.746  1.00  0.00     0.000 C 
BRANCH  12  13
ATOM     13  C   UNL     1       5.975  11.354  33.431  1.00  0.00    -0.000 C 
BRANCH  13  14
ATOM     14  C   UNL     1       6.126  11.272  34.958  1.00  0.00    -0.000 C 
BRANCH  14  15
ATOM     15  C   UNL     1       5.933  12.633  35.645  1.00  0.00    -0.000 C 
BRANCH  15  16
ATOM     16  C   UNL     1       6.342  13.782  34.711  1.00  0.00    -0.000 C 
BRANCH  16  17
ATOM     17  C   UNL     1       5.878  15.158  35.238  1.00  0.00    -0.000 C 
BRANCH  17  18
ATOM     18  C   UNL     1       5.966  16.285  34.192  1.00  0.00    -0.000 C 
BRANCH  18  19
ATOM     19  C   UNL     1       6.086  17.700  34.782  1.00  0.00    -0.003 C 
ATOM     20  C   UNL     1       6.257  18.778  33.710  1.00  0.00     0.004 C 
ENDBRANCH  18  19
ENDBRANCH  17  18
ENDBRANCH  16  17
ENDBRANCH  15  16
ENDBRANCH  14  15
ENDBRANCH  13  14
ENDBRANCH  12  13
ENDBRANCH   1  12
TORSDOF 16
ENDMDL
MODEL 2
REMARK VINA RESULT:    -2.922      5.379     11.146
REMARK INTER + INTRA:          -6.428
REMARK INTER:                  -5.860
REMARK INTRA:                  -0.569
REMARK UNBOUND:                -0.773
REMARK SMILES CCCCCCCCCCCCCCCCCC(=O)[O-]
REMARK SMILES IDX 10 1 11 2 12 3 13 4 14 5 15 6 16 7 17 8 18 9 19 10 20 11
REMARK SMILES IDX 9 12 8 13 7 14 6 15 5 16 4 17 3 18 2 19 1 20
REMARK H PARENT
REMARK Flexibility Score: inf
ROOT
ATOM      1  C   UNL     1       7.546  10.249  33.328  1.00  0.00     0.000 C 
ENDROOT
BRANCH   1   2
ATOM      2  C   UNL     1       6.258  11.059  33.073  1.00  0.00     0.000 C 
BRANCH   2   3
ATOM      3  C   UNL     1       6.047  12.157  34.131  1.00  0.00     0.000 C 
BRANCH   3   4
ATOM      4  C   UNL     1       6.064  13.573  33.531  1.00  0.00     0.000 C 
BRANCH   4   5
ATOM      5  C   UNL     1       6.189  14.668  34.602  1.00  0.00     0.000 C 
BRANCH   5   6
ATOM      6  C   UNL     1       5.887  16.052  34.012  1.00  0.00     0.000 C 
BRANCH   6   7
ATOM      7  C   UNL     1       6.694  17.180  34.680  1.00  0.00     0.006 C 
BRANCH   7   8
ATOM      8  C   UNL     1       5.904  18.487  34.875  1.00  0.00     0.053 C 
BRANCH   8   9
ATOM      9  C   UNL     1       6.492  19.641  34.120  1.00  0.00     0.041 C 
ATOM     10  O   UNL     1       7.030  20.598  34.738  1.00  0.00    -0.550 OA
ATOM     11  O   UNL     1       6.476  19.644  32.730  1.00  0.00    -0.550 OA
ENDBRANCH   8   9
ENDBRANCH   7   8
ENDBRANCH   6   7
ENDBRANCH   5   6
ENDBRANCH   4   5
ENDBRANCH   3   4
ENDBRANCH   2   3
ENDBRANCH   1   2
BRANCH   1  12
ATOM     12  C   UNL     1       7.425   8.763  32.944  1.00  0.00     0.000 C 
BRANCH  12  13
ATOM     13  C   UNL     1       6.264   8.053  33.660  1.00  0.00    -0.000 C 
BRANCH  13  14
ATOM     14  C   UNL     1       6.564   6.572  33.942  1.00  0.00    -0.000 C 
BRANCH  14  15
ATOM     15  C   UNL     1       6.415   6.212  35.429  1.00  0.00    -0.000 C 
BRANCH  15  16
ATOM     16  C   UNL     1       7.291   5.003  35.792  1.00  0.00    -0.000 C 
BRANCH  16  17
ATOM     17  C   UNL     1       8.164   5.267  37.039  1.00  0.00    -0.000 C 
BRANCH  17  18
ATOM     18  C   UNL     1       9.432   4.394  37.103  1.00  0.00    -0.000 C 
BRANCH  18  19
ATOM     19  C   UNL     1      10.164   4.225  35.761  1.00  0.00    -0.003 C 
ATOM     20  C   UNL     1      11.080   3.001  35.734  1.00  0.00     0.004 C 
ENDBRANCH  18  19
ENDBRANCH  17  18
ENDBRANCH  16  17
ENDBRANCH  15  16
ENDBRANCH  14  15
ENDBRANCH  13  14
ENDBRANCH  12  13
ENDBRANCH   1  12
TORSDOF 16
ENDMDL
MODEL 3
REMARK VINA RESULT:    -2.311      5.426     11.644
REMARK INTER + INTRA:          -5.246
REMARK INTER:                  -4.898
REMARK INTRA:                  -0.348
REMARK UNBOUND:                -0.773
REMARK SMILES CCCCCCCCCCCCCCCCCC(=O)[O-]
REMARK SMILES IDX 10 1 11 2 12 3 13 4 14 5 15 6 16 7 17 8 18 9 19 10 20 11
REMARK SMILES IDX 9 12 8 13 7 14 6 15 5 16 4 17 3 18 2 19 1 20
REMARK H PARENT
REMARK Flexibility Score: inf
ROOT
ATOM      1  C   UNL     1       6.912  11.965  33.518  1.00  0.00     0.000 C 
ENDROOT
BRANCH   1   2
ATOM      2  C   UNL     1       5.887  13.087  33.787  1.00  0.00     0.000 C 
BRANCH   2   3
ATOM      3  C   UNL     1       6.506  14.261  34.566  1.00  0.00     0.000 C 
BRANCH   3   4
ATOM      4  C   UNL     1       5.880  15.616  34.197  1.00  0.00     0.000 C 
BRANCH   4   5
ATOM      5  C   UNL     1       6.917  16.749  34.134  1.00  0.00     0.000 C 
BRANCH   5   6
ATOM      6  C   UNL     1       6.268  18.107  34.436  1.00  0.00     0.000 C 
BRANCH   6   7
ATOM      7  C   UNL     1       6.802  19.241  33.543  1.00  0.00     0.006 C 
BRANCH   7   8
ATOM      8  C   UNL     1       6.896  20.605  34.251  1.00  0.00     0.053 C 
BRANCH   8   9
ATOM      9  C   UNL     1       7.046  20.480  35.738  1.00  0.00     0.041 C 
ATOM     10  O   UNL     1       8.192  20.444  36.261  1.00  0.00    -0.550 OA
ATOM     11  O   UNL     1       5.919  20.438  36.550  1.00  0.00    -0.550 OA
ENDBRANCH   8   9
ENDBRANCH   7   8
ENDBRANCH   6   7
ENDBRANCH   5   6
ENDBRANCH   4   5
ENDBRANCH   3   4
ENDBRANCH   2   3
ENDBRANCH   1   2
BRANCH   1  12
ATOM     12  C   UNL     1       6.297  10.709  32.876  1.00  0.00     0.000 C 
BRANCH  12  13
ATOM     13  C   UNL     1       6.133   9.548  33.870  1.00  0.00    -0.000 C 
BRANCH  13  14
ATOM     14  C   UNL     1       6.589   8.202  33.283  1.00  0.00    -0.000 C 
BRANCH  14  15
ATOM     15  C   UNL     1       6.219   7.011  34.181  1.00  0.00    -0.000 C 
BRANCH  15  16
ATOM     16  C   UNL     1       7.178   6.905  35.377  1.00  0.00    -0.000 C 
BRANCH  16  17
ATOM     17  C   UNL     1       8.116   5.683  35.268  1.00  0.00    -0.000 C 
BRANCH  17  18
ATOM     18  C   UNL     1       7.435   4.345  35.614  1.00  0.00    -0.000 C 
BRANCH  18  19
ATOM     19  C   UNL     1       8.211   3.470  36.612  1.00  0.00    -0.003 C 
ATOM     20  C   UNL     1       9.712   3.763  36.619  1.00  0.00     0.004 C 
ENDBRANCH  18  19
ENDBRANCH  17  18
ENDBRANCH  16  17
ENDBRANCH  15  16
ENDBRANCH  14  15
ENDBRANCH  13  14
ENDBRANCH  12  13
ENDBRANCH   1  12
TORSDOF 16
ENDMDL
MODEL 4
REMARK VINA RESULT:    -2.243      4.443      9.350
REMARK INTER + INTRA:          -5.115
REMARK INTER:                  -4.862
REMARK INTRA:                  -0.253
REMARK UNBOUND:                -0.773
REMARK SMILES CCCCCCCCCCCCCCCCCC(=O)[O-]
REMARK SMILES IDX 10 1 11 2 12 3 13 4 14 5 15 6 16 7 17 8 18 9 19 10 20 11
REMARK SMILES IDX 9 12 8 13 7 14 6 15 5 16 4 17 3 18 2 19 1 20
REMARK H PARENT
REMARK Flexibility Score: inf
ROOT
ATOM      1  C   UNL     1       7.707   9.294  33.139  1.00  0.00     0.000 C 
ENDROOT
BRANCH   1   2
ATOM      2  C   UNL     1       6.449   9.844  33.842  1.00  0.00     0.000 C 
BRANCH   2   3
ATOM      3  C   UNL     1       6.142   9.093  35.150  1.00  0.00     0.000 C 
BRANCH   3   4
ATOM      4  C   UNL     1       6.711   9.801  36.390  1.00  0.00     0.000 C 
BRANCH   4   5
ATOM      5  C   UNL     1       5.919  11.062  36.767  1.00  0.00     0.000 C 
BRANCH   5   6
ATOM      6  C   UNL     1       6.758  12.328  36.541  1.00  0.00     0.000 C 
BRANCH   6   7
ATOM      7  C   UNL     1       5.913  13.543  36.119  1.00  0.00     0.006 C 
BRANCH   7   8
ATOM      8  C   UNL     1       6.381  14.209  34.812  1.00  0.00     0.053 C 
BRANCH   8   9
ATOM      9  C   UNL     1       6.208  15.698  34.823  1.00  0.00     0.041 C 
ATOM     10  O   UNL     1       6.028  16.326  33.745  1.00  0.00    -0.550 OA
ATOM     11  O   UNL     1       6.213  16.390  36.028  1.00  0.00    -0.550 OA
ENDBRANCH   8   9
ENDBRANCH   7   8
ENDBRANCH   6   7
ENDBRANCH   5   6
ENDBRANCH   4   5
ENDBRANCH   3   4
ENDBRANCH   2   3
ENDBRANCH   1   2
BRANCH   1  12
ATOM     12  C   UNL     1       7.713   7.762  32.993  1.00  0.00     0.000 C 
BRANCH  12  13
ATOM     13  C   UNL     1       6.410   7.110  33.484  1.00  0.00    -0.000 C 
BRANCH  13  14
ATOM     14  C   UNL     1       6.581   5.614  33.793  1.00  0.00    -0.000 C 
BRANCH  14  15
ATOM     15  C   UNL     1       6.358   5.289  35.279  1.00  0.00    -0.000 C 
BRANCH  15  16
ATOM     16  C   UNL     1       7.232   6.181  36.173  1.00  0.00    -0.000 C 
BRANCH  16  17
ATOM     17  C   UNL     1       8.700   5.702  36.221  1.00  0.00    -0.000 C 
BRANCH  17  18
ATOM     18  C   UNL     1       8.870   4.280  36.789  1.00  0.00    -0.000 C 
BRANCH  18  19
ATOM     19  C   UNL     1      10.119   3.535  36.290  1.00  0.00    -0.003 C 
ATOM     20  C   UNL     1      10.751   4.189  35.061  1.00  0.00     0.004 C 
ENDBRANCH  18  19
ENDBRANCH  17  18
ENDBRANCH  16  17
ENDBRANCH  15  16
ENDBRANCH  14  15
ENDBRANCH  13  14
ENDBRANCH  12  13
ENDBRANCH   1  12
TORSDOF 16
ENDMDL
MODEL 5
REMARK VINA RESULT:    -2.211      1.649      2.820
REMARK INTER + INTRA:          -5.052
REMARK INTER:                  -4.125
REMARK INTRA:                  -0.926
REMARK UNBOUND:                -0.773
REMARK SMILES CCCCCCCCCCCCCCCCCC(=O)[O-]
REMARK SMILES IDX 10 1 11 2 12 3 13 4 14 5 15 6 16 7 17 8 18 9 19 10 20 11
REMARK SMILES IDX 9 12 8 13 7 14 6 15 5 16 4 17 3 18 2 19 1 20
REMARK H PARENT
REMARK Flexibility Score: inf
ROOT
ATOM      1  C   UNL     1       7.842   9.218  33.724  1.00  0.00     0.000 C 
ENDROOT
BRANCH   1   2
ATOM      2  C   UNL     1       7.393   7.766  33.456  1.00  0.00     0.000 C 
BRANCH   2   3
ATOM      3  C   UNL     1       6.218   7.348  34.357  1.00  0.00     0.000 C 
BRANCH   3   4
ATOM      4  C   UNL     1       6.665   6.528  35.577  1.00  0.00     0.000 C 
BRANCH   4   5
ATOM      5  C   UNL     1       6.207   5.063  35.507  1.00  0.00     0.000 C 
BRANCH   5   6
ATOM      6  C   UNL     1       7.391   4.105  35.692  1.00  0.00     0.000 C 
BRANCH   6   7
ATOM      7  C   UNL     1       8.710   4.832  36.011  1.00  0.00     0.006 C 
BRANCH   7   8
ATOM      8  C   UNL     1       9.754   3.954  36.726  1.00  0.00     0.053 C 
BRANCH   8   9
ATOM      9  C   UNL     1      10.919   3.605  35.849  1.00  0.00     0.041 C 
ATOM     10  O   UNL     1      11.096   4.208  34.757  1.00  0.00    -0.550 OA
ATOM     11  O   UNL     1      11.830   2.637  36.255  1.00  0.00    -0.550 OA
ENDBRANCH   8   9
ENDBRANCH   7   8
ENDBRANCH   6   7
ENDBRANCH   5   6
ENDBRANCH   4   5
ENDBRANCH   3   4
ENDBRANCH   2   3
ENDBRANCH   1   2
BRANCH   1  12
ATOM     12  C   UNL     1       7.494  10.191  32.583  1.00  0.00     0.000 C 
BRANCH  12  13
ATOM     13  C   UNL     1       6.048  10.708  32.657  1.00  0.00    -0.000 C 
BRANCH  13  14
ATOM     14  C   UNL     1       5.875  11.829  33.694  1.00  0.00    -0.000 C 
BRANCH  14  15
ATOM     15  C   UNL     1       6.296  13.205  33.153  1.00  0.00    -0.000 C 
BRANCH  15  16
ATOM     16  C   UNL     1       6.663  14.158  34.300  1.00  0.00    -0.000 C 
BRANCH  16  17
ATOM     17  C   UNL     1       6.000  13.750  35.634  1.00  0.00    -0.000 C 
BRANCH  17  18
ATOM     18  C   UNL     1       6.971  13.089  36.631  1.00  0.00    -0.000 C 
BRANCH  18  19
ATOM     19  C   UNL     1       7.110  11.564  36.477  1.00  0.00    -0.003 C 
ATOM     20  C   UNL     1       5.878  10.802  36.967  1.00  0.00     0.004 C 
ENDBRANCH  18  19
ENDBRANCH  17  18
ENDBRANCH  16  17
ENDBRANCH  15  16
ENDBRANCH  14  15
ENDBRANCH  13  14
ENDBRANCH  12  13
ENDBRANCH   1  12
TORSDOF 16
ENDMDL
MODEL 6
REMARK VINA RESULT:    -2.074     21.892     24.802
REMARK INTER + INTRA:          -4.788
REMARK INTER:                  -3.942
REMARK INTRA:                  -0.846
REMARK UNBOUND:                -0.773
REMARK SMILES CCCCCCCCCCCCCCCCCC(=O)[O-]
REMARK SMILES IDX 10 1 11 2 12 3 13 4 14 5 15 6 16 7 17 8 18 9 19 10 20 11
REMARK SMILES IDX 9 12 8 13 7 14 6 15 5 16 4 17 3 18 2 19 1 20
REMARK H PARENT
REMARK Flexibility Score: inf
ROOT
ATOM      1  C   UNL     1      19.476  17.910  17.068  1.00  0.00     0.000 C 
ENDROOT
BRANCH   1   2
ATOM      2  C   UNL     1      18.509  17.221  18.053  1.00  0.00     0.000 C 
BRANCH   2   3
ATOM      3  C   UNL     1      17.736  18.239  18.911  1.00  0.00     0.000 C 
BRANCH   3   4
ATOM      4  C   UNL     1      16.568  18.891  18.155  1.00  0.00     0.000 C 
BRANCH   4   5
ATOM      5  C   UNL     1      16.623  20.427  18.191  1.00  0.00     0.000 C 
BRANCH   5   6
ATOM      6  C   UNL     1      18.074  20.927  18.147  1.00  0.00     0.000 C 
BRANCH   6   7
ATOM      7  C   UNL     1      18.332  22.110  19.097  1.00  0.00     0.006 C 
BRANCH   7   8
ATOM      8  C   UNL     1      18.901  21.700  20.468  1.00  0.00     0.053 C 
BRANCH   8   9
ATOM      9  C   UNL     1      20.349  21.314  20.407  1.00  0.00     0.041 C 
ATOM     10  O   UNL     1      20.747  20.248  20.947  1.00  0.00    -0.550 OA
ATOM     11  O   UNL     1      21.253  22.117  19.722  1.00  0.00    -0.550 OA
ENDBRANCH   8   9
ENDBRANCH   7   8
ENDBRANCH   6   7
ENDBRANCH   5   6
ENDBRANCH   4   5
ENDBRANCH   3   4
ENDBRANCH   2   3
ENDBRANCH   1   2
BRANCH   1  12
ATOM     12  C   UNL     1      20.131  19.182  17.635  1.00  0.00     0.000 C 
BRANCH  12  13
ATOM     13  C   UNL     1      21.405  19.589  16.875  1.00  0.00    -0.000 C 
BRANCH  13  14
ATOM     14  C   UNL     1      22.688  19.150  17.599  1.00  0.00    -0.000 C 
BRANCH  14  15
ATOM     15  C   UNL     1      23.935  19.890  17.090  1.00  0.00    -0.000 C 
BRANCH  15  16
ATOM     16  C   UNL     1      24.081  21.257  17.776  1.00  0.00    -0.000 C 
BRANCH  16  17
ATOM     17  C   UNL     1      25.538  21.549  18.196  1.00  0.00    -0.000 C 
BRANCH  17  18
ATOM     18  C   UNL     1      26.120  20.513  19.176  1.00  0.00    -0.000 C 
BRANCH  18  19
ATOM     19  C   UNL     1      25.159  20.080  20.297  1.00  0.00    -0.003 C 
ATOM     20  C   UNL     1      25.284  18.597  20.647  1.00  0.00     0.004 C 
ENDBRANCH  18  19
ENDBRANCH  17  18
ENDBRANCH  16  17
ENDBRANCH  15  16
ENDBRANCH  14  15
ENDBRANCH  13  14
ENDBRANCH  12  13
ENDBRANCH   1  12
TORSDOF 16
ENDMDL
MODEL 7
REMARK VINA RESULT:    -2.068      5.627     11.727
REMARK INTER + INTRA:          -4.776
REMARK INTER:                  -4.303
REMARK INTRA:                  -0.474
REMARK UNBOUND:                -0.773
REMARK SMILES CCCCCCCCCCCCCCCCCC(=O)[O-]
REMARK SMILES IDX 10 1 11 2 12 3 13 4 14 5 15 6 16 7 17 8 18 9 19 10 20 11
REMARK SMILES IDX 9 12 8 13 7 14 6 15 5 16 4 17 3 18 2 19 1 20
REMARK H PARENT
REMARK Flexibility Score: inf
ROOT
ATOM      1  C   UNL     1       6.944  11.988  33.450  1.00  0.00     0.000 C 
ENDROOT
BRANCH   1   2
ATOM      2  C   UNL     1       5.921  13.107  33.740  1.00  0.00     0.000 C 
BRANCH   2   3
ATOM      3  C   UNL     1       6.433  14.097  34.802  1.00  0.00     0.000 C 
BRANCH   3   4
ATOM      4  C   UNL     1       5.875  15.517  34.610  1.00  0.00     0.000 C 
BRANCH   4   5
ATOM      5  C   UNL     1       6.968  16.540  34.264  1.00  0.00     0.000 C 
BRANCH   5   6
ATOM      6  C   UNL     1       6.563  17.951  34.711  1.00  0.00     0.000 C 
BRANCH   6   7
ATOM      7  C   UNL     1       5.876  18.762  33.597  1.00  0.00     0.006 C 
BRANCH   7   8
ATOM      8  C   UNL     1       6.467  20.169  33.390  1.00  0.00     0.053 C 
BRANCH   8   9
ATOM      9  C   UNL     1       6.492  20.584  31.949  1.00  0.00     0.041 C 
ATOM     10  O   UNL     1       5.881  19.906  31.081  1.00  0.00    -0.550 OA
ATOM     11  O   UNL     1       7.165  21.740  31.570  1.00  0.00    -0.550 OA
ENDBRANCH   8   9
ENDBRANCH   7   8
ENDBRANCH   6   7
ENDBRANCH   5   6
ENDBRANCH   4   5
ENDBRANCH   3   4
ENDBRANCH   2   3
ENDBRANCH   1   2
BRANCH   1  12
ATOM     12  C   UNL     1       6.324  10.743  32.792  1.00  0.00     0.000 C 
BRANCH  12  13
ATOM     13  C   UNL     1       6.124   9.581  33.779  1.00  0.00    -0.000 C 
BRANCH  13  14
ATOM     14  C   UNL     1       6.945   8.339  33.402  1.00  0.00    -0.000 C 
BRANCH  14  15
ATOM     15  C   UNL     1       6.191   7.027  33.672  1.00  0.00    -0.000 C 
BRANCH  15  16
ATOM     16  C   UNL     1       6.623   6.410  35.010  1.00  0.00    -0.000 C 
BRANCH  16  17
ATOM     17  C   UNL     1       6.737   4.872  34.936  1.00  0.00    -0.000 C 
BRANCH  17  18
ATOM     18  C   UNL     1       7.110   4.212  36.277  1.00  0.00    -0.000 C 
BRANCH  18  19
ATOM     19  C   UNL     1       8.533   4.520  36.771  1.00  0.00    -0.003 C 
ATOM     20  C   UNL     1       9.601   4.253  35.710  1.00  0.00     0.004 C 
ENDBRANCH  18  19
ENDBRANCH  17  18
ENDBRANCH  16  17
ENDBRANCH  15  16
ENDBRANCH  14  15
ENDBRANCH  13  14
ENDBRANCH  12  13
ENDBRANCH   1  12
TORSDOF 16
ENDMDL
MODEL 8
REMARK VINA RESULT:    -1.734     21.690     24.344
REMARK INTER + INTRA:          -4.129
REMARK INTER:                  -2.956
REMARK INTRA:                  -1.173
REMARK UNBOUND:                -0.773
REMARK SMILES CCCCCCCCCCCCCCCCCC(=O)[O-]
REMARK SMILES IDX 10 1 11 2 12 3 13 4 14 5 15 6 16 7 17 8 18 9 19 10 20 11
REMARK SMILES IDX 9 12 8 13 7 14 6 15 5 16 4 17 3 18 2 19 1 20
REMARK H PARENT
REMARK Flexibility Score: inf
ROOT
ATOM      1  C   UNL     1      18.474  18.073  19.245  1.00  0.00     0.000 C 
ENDROOT
BRANCH   1   2
ATOM      2  C   UNL     1      17.382  19.146  19.438  1.00  0.00     0.000 C 
BRANCH   2   3
ATOM      3  C   UNL     1      16.353  19.137  18.294  1.00  0.00     0.000 C 
BRANCH   3   4
ATOM      4  C   UNL     1      16.519  20.325  17.332  1.00  0.00     0.000 C 
BRANCH   4   5
ATOM      5  C   UNL     1      17.989  20.594  16.973  1.00  0.00     0.000 C 
BRANCH   5   6
ATOM      6  C   UNL     1      18.404  22.015  17.377  1.00  0.00     0.000 C 
BRANCH   6   7
ATOM      7  C   UNL     1      18.814  22.124  18.857  1.00  0.00     0.006 C 
BRANCH   7   8
ATOM      8  C   UNL     1      20.116  21.378  19.203  1.00  0.00     0.053 C 
BRANCH   8   9
ATOM      9  C   UNL     1      20.473  21.475  20.657  1.00  0.00     0.041 C 
ATOM     10  O   UNL     1      21.634  21.819  21.005  1.00  0.00    -0.550 OA
ATOM     11  O   UNL     1      19.513  21.217  21.627  1.00  0.00    -0.550 OA
ENDBRANCH   8   9
ENDBRANCH   7   8
ENDBRANCH   6   7
ENDBRANCH   5   6
ENDBRANCH   4   5
ENDBRANCH   3   4
ENDBRANCH   2   3
ENDBRANCH   1   2
BRANCH   1  12
ATOM     12  C   UNL     1      18.646  17.624  17.783  1.00  0.00     0.000 C 
BRANCH  12  13
ATOM     13  C   UNL     1      19.387  16.284  17.652  1.00  0.00    -0.000 C 
BRANCH  13  14
ATOM     14  C   UNL     1      20.719  16.418  16.895  1.00  0.00    -0.000 C 
BRANCH  14  15
ATOM     15  C   UNL     1      21.244  17.863  16.877  1.00  0.00    -0.000 C 
BRANCH  15  16
ATOM     16  C   UNL     1      22.780  17.888  16.901  1.00  0.00    -0.000 C 
BRANCH  16  17
ATOM     17  C   UNL     1      23.338  19.313  17.113  1.00  0.00    -0.000 C 
BRANCH  17  18
ATOM     18  C   UNL     1      23.196  19.825  18.559  1.00  0.00    -0.000 C 
BRANCH  18  19
ATOM     19  C   UNL     1      24.524  19.980  19.319  1.00  0.00    -0.003 C 
ATOM     20  C   UNL     1      24.931  18.711  20.069  1.00  0.00     0.004 C 
ENDBRANCH  18  19
ENDBRANCH  17  18
ENDBRANCH  16  17
ENDBRANCH  15  16
ENDBRANCH  14  15
ENDBRANCH  13  14
ENDBRANCH  12  13
ENDBRANCH   1  12
TORSDOF 16
ENDMDL
