MODEL 1
REMARK VINA RESULT:    -4.947      0.000      0.000
REMARK INTER + INTRA:          -9.161
REMARK INTER:                  -8.417
REMARK INTRA:                  -0.745
REMARK UNBOUND:                -0.745
REMARK SMILES CCCCCCCCCCCCCC(=O)[O-]
REMARK SMILES IDX 8 1 9 2 10 3 11 4 12 5 13 6 14 7 15 8 16 9 7 10 6 11 5 12
REMARK SMILES IDX 4 13 3 14 2 15 1 16
REMARK H PARENT
REMARK Flexibility Score: inf
ROOT
ATOM      1  C   UNL     1     -19.232  37.360  83.982  1.00  0.00     0.000 C 
ENDROOT
BRANCH   1   2
ATOM      2  C   UNL     1     -17.754  37.236  83.573  1.00  0.00     0.000 C 
BRANCH   2   3
ATOM      3  C   UNL     1     -17.196  35.819  83.789  1.00  0.00     0.000 C 
BRANCH   3   4
ATOM      4  C   UNL     1     -16.836  35.115  82.473  1.00  0.00     0.000 C 
BRANCH   4   5
ATOM      5  C   UNL     1     -18.094  34.840  81.635  1.00  0.00     0.006 C 
BRANCH   5   6
ATOM      6  C   UNL     1     -17.885  35.159  80.149  1.00  0.00     0.053 C 
BRANCH   6   7
ATOM      7  C   UNL     1     -18.197  36.591  79.838  1.00  0.00     0.041 C 
ATOM      8  O   UNL     1     -19.332  36.910  79.393  1.00  0.00    -0.550 OA
ATOM      9  O   UNL     1     -17.247  37.577  80.072  1.00  0.00    -0.550 OA
ENDBRANCH   6   7
ENDBRANCH   5   6
ENDBRANCH   4   5
ENDBRANCH   3   4
ENDBRANCH   2   3
ENDBRANCH   1   2
BRANCH   1  10
ATOM     10  C   UNL     1     -19.451  38.416  85.087  1.00  0.00     0.000 C 
BRANCH  10  11
ATOM     11  C   UNL     1     -19.568  37.815  86.500  1.00  0.00    -0.000 C 
BRANCH  11  12
ATOM     12  C   UNL     1     -20.635  38.472  87.395  1.00  0.00    -0.000 C 
BRANCH  12  13
ATOM     13  C   UNL     1     -20.347  38.414  88.909  1.00  0.00    -0.000 C 
BRANCH  13  14
ATOM     14  C   UNL     1     -19.199  37.475  89.321  1.00  0.00    -0.000 C 
BRANCH  14  15
ATOM     15  C   UNL     1     -18.264  38.097  90.368  1.00  0.00    -0.003 C 
ATOM     16  C   UNL     1     -17.866  39.516  89.975  1.00  0.00     0.004 C 
ENDBRANCH  14  15
ENDBRANCH  13  14
ENDBRANCH  12  13
ENDBRANCH  11  12
ENDBRANCH  10  11
ENDBRANCH   1  10
TORSDOF 12
ENDMDL
MODEL 2
REMARK VINA RESULT:    -4.899      6.361      8.767
REMARK INTER + INTRA:          -9.081
REMARK INTER:                  -7.896
REMARK INTRA:                  -1.185
REMARK UNBOUND:                -0.745
REMARK SMILES CCCCCCCCCCCCCC(=O)[O-]
REMARK SMILES IDX 8 1 9 2 10 3 11 4 12 5 13 6 14 7 15 8 16 9 7 10 6 11 5 12
REMARK SMILES IDX 4 13 3 14 2 15 1 16
REMARK H PARENT
REMARK Flexibility Score: inf
ROOT
ATOM      1  C   UNL     1     -20.187  44.255  86.745  1.00  0.00     0.000 C 
ENDROOT
BRANCH   1   2
ATOM      2  C   UNL     1     -19.924  42.834  86.216  1.00  0.00     0.000 C 
BRANCH   2   3
ATOM      3  C   UNL     1     -20.721  41.761  86.977  1.00  0.00     0.000 C 
BRANCH   3   4
ATOM      4  C   UNL     1     -20.708  41.978  88.497  1.00  0.00     0.000 C 
BRANCH   4   5
ATOM      5  C   UNL     1     -20.610  40.638  89.242  1.00  0.00     0.006 C 
BRANCH   5   6
ATOM      6  C   UNL     1     -19.504  39.737  88.675  1.00  0.00     0.053 C 
BRANCH   6   7
ATOM      7  C   UNL     1     -20.002  38.353  88.398  1.00  0.00     0.041 C 
ATOM      8  O   UNL     1     -20.988  38.175  87.632  1.00  0.00    -0.550 OA
ATOM      9  O   UNL     1     -19.358  37.255  88.956  1.00  0.00    -0.550 OA
ENDBRANCH   6   7
ENDBRANCH   5   6
ENDBRANCH   4   5
ENDBRANCH   3   4
ENDBRANCH   2   3
ENDBRANCH   1   2
BRANCH   1  10
ATOM     10  C   UNL     1     -21.421  44.909  86.087  1.00  0.00     0.000 C 
BRANCH  10  11
ATOM     11  C   UNL     1     -21.081  46.134  85.218  1.00  0.00    -0.000 C 
BRANCH  11  12
ATOM     12  C   UNL     1     -21.014  45.855  83.705  1.00  0.00    -0.000 C 
BRANCH  12  13
ATOM     13  C   UNL     1     -19.716  46.317  83.011  1.00  0.00    -0.000 C 
BRANCH  13  14
ATOM     14  C   UNL     1     -18.460  45.499  83.362  1.00  0.00    -0.000 C 
BRANCH  14  15
ATOM     15  C   UNL     1     -17.521  46.231  84.330  1.00  0.00    -0.003 C 
ATOM     16  C   UNL     1     -16.940  45.271  85.364  1.00  0.00     0.004 C 
ENDBRANCH  14  15
ENDBRANCH  13  14
ENDBRANCH  12  13
ENDBRANCH  11  12
ENDBRANCH  10  11
ENDBRANCH   1  10
TORSDOF 12
ENDMDL
MODEL 3
REMARK VINA RESULT:    -4.892      6.315      8.587
REMARK INTER + INTRA:          -9.068
REMARK INTER:                  -7.920
REMARK INTRA:                  -1.148
REMARK UNBOUND:                -0.745
REMARK SMILES CCCCCCCCCCCCCC(=O)[O-]
REMARK SMILES IDX 8 1 9 2 10 3 11 4 12 5 13 6 14 7 15 8 16 9 7 10 6 11 5 12
REMARK SMILES IDX 4 13 3 14 2 15 1 16
REMARK H PARENT
REMARK Flexibility Score: inf
ROOT
ATOM      1  C   UNL     1     -19.935  42.813  86.021  1.00  0.00     0.000 C 
ENDROOT
BRANCH   1   2
ATOM      2  C   UNL     1     -19.861  41.473  86.773  1.00  0.00     0.000 C 
BRANCH   2   3
ATOM      3  C   UNL     1     -21.249  40.898  87.099  1.00  0.00     0.000 C 
BRANCH   3   4
ATOM      4  C   UNL     1     -21.250  39.365  87.196  1.00  0.00     0.000 C 
BRANCH   4   5
ATOM      5  C   UNL     1     -19.889  38.845  87.683  1.00  0.00     0.006 C 
BRANCH   5   6
ATOM      6  C   UNL     1     -19.984  38.163  89.055  1.00  0.00     0.053 C 
BRANCH   6   7
ATOM      7  C   UNL     1     -19.583  39.086  90.164  1.00  0.00     0.041 C 
ATOM      8  O   UNL     1     -20.032  38.911  91.328  1.00  0.00    -0.550 OA
ATOM      9  O   UNL     1     -18.688  40.120  89.920  1.00  0.00    -0.550 OA
ENDBRANCH   6   7
ENDBRANCH   5   6
ENDBRANCH   4   5
ENDBRANCH   3   4
ENDBRANCH   2   3
ENDBRANCH   1   2
BRANCH   1  10
ATOM     10  C   UNL     1     -20.565  43.934  86.876  1.00  0.00     0.000 C 
BRANCH  10  11
ATOM     11  C   UNL     1     -20.768  45.254  86.110  1.00  0.00    -0.000 C 
BRANCH  11  12
ATOM     12  C   UNL     1     -20.912  45.102  84.584  1.00  0.00    -0.000 C 
BRANCH  12  13
ATOM     13  C   UNL     1     -20.040  46.058  83.745  1.00  0.00    -0.000 C 
BRANCH  13  14
ATOM     14  C   UNL     1     -18.622  45.548  83.435  1.00  0.00    -0.000 C 
BRANCH  14  15
ATOM     15  C   UNL     1     -17.553  46.155  84.355  1.00  0.00    -0.003 C 
ATOM     16  C   UNL     1     -17.069  45.136  85.382  1.00  0.00     0.004 C 
ENDBRANCH  14  15
ENDBRANCH  13  14
ENDBRANCH  12  13
ENDBRANCH  11  12
ENDBRANCH  10  11
ENDBRANCH   1  10
TORSDOF 12
ENDMDL
MODEL 4
REMARK VINA RESULT:    -4.888      4.054      8.320
REMARK INTER + INTRA:          -9.062
REMARK INTER:                  -8.303
REMARK INTRA:                  -0.759
REMARK UNBOUND:                -0.745
REMARK SMILES CCCCCCCCCCCCCC(=O)[O-]
REMARK SMILES IDX 8 1 9 2 10 3 11 4 12 5 13 6 14 7 15 8 16 9 7 10 6 11 5 12
REMARK SMILES IDX 4 13 3 14 2 15 1 16
REMARK H PARENT
REMARK Flexibility Score: inf
ROOT
ATOM      1  C   UNL     1     -19.173  38.134  85.674  1.00  0.00     0.000 C 
ENDROOT
BRANCH   1   2
ATOM      2  C   UNL     1     -20.585  38.510  86.156  1.00  0.00     0.000 C 
BRANCH   2   3
ATOM      3  C   UNL     1     -20.765  38.324  87.671  1.00  0.00     0.000 C 
BRANCH   3   4
ATOM      4  C   UNL     1     -19.514  37.748  88.351  1.00  0.00     0.000 C 
BRANCH   4   5
ATOM      5  C   UNL     1     -19.686  37.714  89.878  1.00  0.00     0.006 C 
BRANCH   5   6
ATOM      6  C   UNL     1     -20.341  38.992  90.419  1.00  0.00     0.053 C 
BRANCH   6   7
ATOM      7  C   UNL     1     -19.356  40.114  90.534  1.00  0.00     0.041 C 
ATOM      8  O   UNL     1     -19.504  41.161  89.848  1.00  0.00    -0.550 OA
ATOM      9  O   UNL     1     -18.294  40.020  91.425  1.00  0.00    -0.550 OA
ENDBRANCH   6   7
ENDBRANCH   5   6
ENDBRANCH   4   5
ENDBRANCH   3   4
ENDBRANCH   2   3
ENDBRANCH   1   2
BRANCH   1  10
ATOM     10  C   UNL     1     -19.175  37.540  84.250  1.00  0.00     0.000 C 
BRANCH  10  11
ATOM     11  C   UNL     1     -18.039  36.531  83.999  1.00  0.00    -0.000 C 
BRANCH  11  12
ATOM     12  C   UNL     1     -16.896  37.053  83.108  1.00  0.00    -0.000 C 
BRANCH  12  13
ATOM     13  C   UNL     1     -16.569  36.175  81.882  1.00  0.00    -0.000 C 
BRANCH  13  14
ATOM     14  C   UNL     1     -17.475  34.945  81.698  1.00  0.00    -0.000 C 
BRANCH  14  15
ATOM     15  C   UNL     1     -18.120  34.880  80.306  1.00  0.00    -0.003 C 
ATOM     16  C   UNL     1     -18.436  36.278  79.782  1.00  0.00     0.004 C 
ENDBRANCH  14  15
ENDBRANCH  13  14
ENDBRANCH  12  13
ENDBRANCH  11  12
ENDBRANCH  10  11
ENDBRANCH   1  10
TORSDOF 12
ENDMDL
MODEL 5
REMARK VINA RESULT:    -4.884      6.568      8.937
REMARK INTER + INTRA:          -9.054
REMARK INTER:                  -7.868
REMARK INTRA:                  -1.186
REMARK UNBOUND:                -0.745
REMARK SMILES CCCCCCCCCCCCCC(=O)[O-]
REMARK SMILES IDX 8 1 9 2 10 3 11 4 12 5 13 6 14 7 15 8 16 9 7 10 6 11 5 12
REMARK SMILES IDX 4 13 3 14 2 15 1 16
REMARK H PARENT
REMARK Flexibility Score: inf
ROOT
ATOM      1  C   UNL     1     -19.128  43.668  85.375  1.00  0.00     0.000 C 
ENDROOT
BRANCH   1   2
ATOM      2  C   UNL     1     -20.100  43.524  86.559  1.00  0.00     0.000 C 
BRANCH   2   3
ATOM      3  C   UNL     1     -20.617  42.086  86.731  1.00  0.00     0.000 C 
BRANCH   3   4
ATOM      4  C   UNL     1     -19.528  41.117  87.214  1.00  0.00     0.000 C 
BRANCH   4   5
ATOM      5  C   UNL     1     -19.630  40.888  88.730  1.00  0.00     0.006 C 
BRANCH   5   6
ATOM      6  C   UNL     1     -20.673  39.821  89.088  1.00  0.00     0.053 C 
BRANCH   6   7
ATOM      7  C   UNL     1     -20.315  38.482  88.521  1.00  0.00     0.041 C 
ATOM      8  O   UNL     1     -21.031  37.962  87.624  1.00  0.00    -0.550 OA
ATOM      9  O   UNL     1     -19.173  37.823  88.957  1.00  0.00    -0.550 OA
ENDBRANCH   6   7
ENDBRANCH   5   6
ENDBRANCH   4   5
ENDBRANCH   3   4
ENDBRANCH   2   3
ENDBRANCH   1   2
BRANCH   1  10
ATOM     10  C   UNL     1     -18.106  44.805  85.587  1.00  0.00     0.000 C 
BRANCH  10  11
ATOM     11  C   UNL     1     -17.609  45.441  84.276  1.00  0.00    -0.000 C 
BRANCH  11  12
ATOM     12  C   UNL     1     -18.414  46.667  83.806  1.00  0.00    -0.000 C 
BRANCH  12  13
ATOM     13  C   UNL     1     -19.538  46.364  82.793  1.00  0.00    -0.000 C 
BRANCH  13  14
ATOM     14  C   UNL     1     -20.969  46.533  83.334  1.00  0.00    -0.000 C 
BRANCH  14  15
ATOM     15  C   UNL     1     -21.005  46.986  84.800  1.00  0.00    -0.003 C 
ATOM     16  C   UNL     1     -22.199  46.382  85.533  1.00  0.00     0.004 C 
ENDBRANCH  14  15
ENDBRANCH  13  14
ENDBRANCH  12  13
ENDBRANCH  11  12
ENDBRANCH  10  11
ENDBRANCH   1  10
TORSDOF 12
ENDMDL
MODEL 6
REMARK VINA RESULT:    -4.828      9.644     12.688
REMARK INTER + INTRA:          -8.960
REMARK INTER:                  -8.471
REMARK INTRA:                  -0.489
REMARK UNBOUND:                -0.745
REMARK SMILES CCCCCCCCCCCCCC(=O)[O-]
REMARK SMILES IDX 8 1 9 2 10 3 11 4 12 5 13 6 14 7 15 8 16 9 7 10 6 11 5 12
REMARK SMILES IDX 4 13 3 14 2 15 1 16
REMARK H PARENT
REMARK Flexibility Score: inf
ROOT
ATOM      1  C   UNL     1     -24.278  45.875  87.304  1.00  0.00     0.000 C 
ENDROOT
BRANCH   1   2
ATOM      2  C   UNL     1     -25.802  45.721  87.446  1.00  0.00     0.000 C 
BRANCH   2   3
ATOM      3  C   UNL     1     -26.382  46.579  88.583  1.00  0.00     0.000 C 
BRANCH   3   4
ATOM      4  C   UNL     1     -26.018  46.044  89.975  1.00  0.00     0.000 C 
BRANCH   4   5
ATOM      5  C   UNL     1     -27.235  45.391  90.648  1.00  0.00     0.006 C 
BRANCH   5   6
ATOM      6  C   UNL     1     -26.984  43.919  91.001  1.00  0.00     0.053 C 
BRANCH   6   7
ATOM      7  C   UNL     1     -28.094  43.035  90.521  1.00  0.00     0.041 C 
ATOM      8  O   UNL     1     -28.092  42.602  89.338  1.00  0.00    -0.550 OA
ATOM      9  O   UNL     1     -29.112  42.661  91.389  1.00  0.00    -0.550 OA
ENDBRANCH   6   7
ENDBRANCH   5   6
ENDBRANCH   4   5
ENDBRANCH   3   4
ENDBRANCH   2   3
ENDBRANCH   1   2
BRANCH   1  10
ATOM     10  C   UNL     1     -23.887  46.816  86.144  1.00  0.00     0.000 C 
BRANCH  10  11
ATOM     11  C   UNL     1     -22.370  46.875  85.880  1.00  0.00    -0.000 C 
BRANCH  11  12
ATOM     12  C   UNL     1     -21.645  45.519  85.970  1.00  0.00    -0.000 C 
BRANCH  12  13
ATOM     13  C   UNL     1     -20.638  45.238  84.836  1.00  0.00    -0.000 C 
BRANCH  13  14
ATOM     14  C   UNL     1     -19.324  44.570  85.279  1.00  0.00    -0.000 C 
BRANCH  14  15
ATOM     15  C   UNL     1     -18.143  44.907  84.358  1.00  0.00    -0.003 C 
ATOM     16  C   UNL     1     -17.639  46.325  84.607  1.00  0.00     0.004 C 
ENDBRANCH  14  15
ENDBRANCH  13  14
ENDBRANCH  12  13
ENDBRANCH  11  12
ENDBRANCH  10  11
ENDBRANCH   1  10
TORSDOF 12
ENDMDL
MODEL 7
REMARK VINA RESULT:    -4.824      1.496      2.584
REMARK INTER + INTRA:          -8.954
REMARK INTER:                  -7.968
REMARK INTRA:                  -0.986
REMARK UNBOUND:                -0.745
REMARK SMILES CCCCCCCCCCCCCC(=O)[O-]
REMARK SMILES IDX 8 1 9 2 10 3 11 4 12 5 13 6 14 7 15 8 16 9 7 10 6 11 5 12
REMARK SMILES IDX 4 13 3 14 2 15 1 16
REMARK H PARENT
REMARK Flexibility Score: inf
ROOT
ATOM      1  C   UNL     1     -20.288  38.295  86.450  1.00  0.00     0.000 C 
ENDROOT
BRANCH   1   2
ATOM      2  C   UNL     1     -19.177  38.510  85.407  1.00  0.00     0.000 C 
BRANCH   2   3
ATOM      3  C   UNL     1     -19.152  37.410  84.333  1.00  0.00     0.000 C 
BRANCH   3   4
ATOM      4  C   UNL     1     -17.838  37.386  83.537  1.00  0.00     0.000 C 
BRANCH   4   5
ATOM      5  C   UNL     1     -17.136  36.027  83.677  1.00  0.00     0.006 C 
BRANCH   5   6
ATOM      6  C   UNL     1     -16.387  35.625  82.400  1.00  0.00     0.053 C 
BRANCH   6   7
ATOM      7  C   UNL     1     -17.327  35.343  81.269  1.00  0.00     0.041 C 
ATOM      8  O   UNL     1     -18.083  34.335  81.310  1.00  0.00    -0.550 OA
ATOM      9  O   UNL     1     -17.395  36.211  80.186  1.00  0.00    -0.550 OA
ENDBRANCH   6   7
ENDBRANCH   5   6
ENDBRANCH   4   5
ENDBRANCH   3   4
ENDBRANCH   2   3
ENDBRANCH   1   2
BRANCH   1  10
ATOM     10  C   UNL     1     -20.949  39.620  86.887  1.00  0.00     0.000 C 
BRANCH  10  11
ATOM     11  C   UNL     1     -19.964  40.623  87.517  1.00  0.00    -0.000 C 
BRANCH  11  12
ATOM     12  C   UNL     1     -20.327  41.075  88.944  1.00  0.00    -0.000 C 
BRANCH  12  13
ATOM     13  C   UNL     1     -19.384  40.563  90.053  1.00  0.00    -0.000 C 
BRANCH  13  14
ATOM     14  C   UNL     1     -18.580  39.301  89.696  1.00  0.00    -0.000 C 
BRANCH  14  15
ATOM     15  C   UNL     1     -19.287  38.003  90.112  1.00  0.00    -0.003 C 
ATOM     16  C   UNL     1     -18.760  36.811  89.320  1.00  0.00     0.004 C 
ENDBRANCH  14  15
ENDBRANCH  13  14
ENDBRANCH  12  13
ENDBRANCH  11  12
ENDBRANCH  10  11
ENDBRANCH   1  10
TORSDOF 12
ENDMDL
MODEL 8
REMARK VINA RESULT:    -4.809      8.896     11.978
REMARK INTER + INTRA:          -8.928
REMARK INTER:                  -7.900
REMARK INTRA:                  -1.028
REMARK UNBOUND:                -0.745
REMARK SMILES CCCCCCCCCCCCCC(=O)[O-]
REMARK SMILES IDX 8 1 9 2 10 3 11 4 12 5 13 6 14 7 15 8 16 9 7 10 6 11 5 12
REMARK SMILES IDX 4 13 3 14 2 15 1 16
REMARK H PARENT
REMARK Flexibility Score: inf
ROOT
ATOM      1  C   UNL     1     -23.910  44.821  87.860  1.00  0.00     0.000 C 
ENDROOT
BRANCH   1   2
ATOM      2  C   UNL     1     -25.044  45.725  87.344  1.00  0.00     0.000 C 
BRANCH   2   3
ATOM      3  C   UNL     1     -26.291  45.683  88.242  1.00  0.00     0.000 C 
BRANCH   3   4
ATOM      4  C   UNL     1     -25.952  45.801  89.735  1.00  0.00     0.000 C 
BRANCH   4   5
ATOM      5  C   UNL     1     -27.097  45.255  90.603  1.00  0.00     0.006 C 
BRANCH   5   6
ATOM      6  C   UNL     1     -26.921  43.766  90.928  1.00  0.00     0.053 C 
BRANCH   6   7
ATOM      7  C   UNL     1     -28.109  42.959  90.501  1.00  0.00     0.041 C 
ATOM      8  O   UNL     1     -29.000  42.652  91.336  1.00  0.00    -0.550 OA
ATOM      9  O   UNL     1     -28.249  42.576  89.173  1.00  0.00    -0.550 OA
ENDBRANCH   6   7
ENDBRANCH   5   6
ENDBRANCH   4   5
ENDBRANCH   3   4
ENDBRANCH   2   3
ENDBRANCH   1   2
BRANCH   1  10
ATOM     10  C   UNL     1     -22.516  45.452  87.658  1.00  0.00     0.000 C 
BRANCH  10  11
ATOM     11  C   UNL     1     -22.226  45.855  86.200  1.00  0.00    -0.000 C 
BRANCH  11  12
ATOM     12  C   UNL     1     -20.937  45.255  85.607  1.00  0.00    -0.000 C 
BRANCH  12  13
ATOM     13  C   UNL     1     -20.138  44.346  86.564  1.00  0.00    -0.000 C 
BRANCH  13  14
ATOM     14  C   UNL     1     -19.994  42.883  86.108  1.00  0.00    -0.000 C 
BRANCH  14  15
ATOM     15  C   UNL     1     -20.251  41.876  87.238  1.00  0.00    -0.003 C 
ATOM     16  C   UNL     1     -21.740  41.770  87.552  1.00  0.00     0.004 C 
ENDBRANCH  14  15
ENDBRANCH  13  14
ENDBRANCH  12  13
ENDBRANCH  11  12
ENDBRANCH  10  11
ENDBRANCH   1  10
TORSDOF 12
ENDMDL
MODEL 9
REMARK VINA RESULT:    -4.760      8.287     10.353
REMARK INTER + INTRA:          -8.844
REMARK INTER:                  -7.933
REMARK INTRA:                  -0.911
REMARK UNBOUND:                -0.745
REMARK SMILES CCCCCCCCCCCCCC(=O)[O-]
REMARK SMILES IDX 8 1 9 2 10 3 11 4 12 5 13 6 14 7 15 8 16 9 7 10 6 11 5 12
REMARK SMILES IDX 4 13 3 14 2 15 1 16
REMARK H PARENT
REMARK Flexibility Score: inf
ROOT
ATOM      1  C   UNL     1     -23.949  44.882  88.042  1.00  0.00     0.000 C 
ENDROOT
BRANCH   1   2
ATOM      2  C   UNL     1     -22.498  45.050  87.558  1.00  0.00     0.000 C 
BRANCH   2   3
ATOM      3  C   UNL     1     -22.388  45.949  86.316  1.00  0.00     0.000 C 
BRANCH   3   4
ATOM      4  C   UNL     1     -20.973  45.966  85.719  1.00  0.00     0.000 C 
BRANCH   4   5
ATOM      5  C   UNL     1     -20.634  44.615  85.071  1.00  0.00     0.006 C 
BRANCH   5   6
ATOM      6  C   UNL     1     -19.237  44.116  85.462  1.00  0.00     0.053 C 
BRANCH   6   7
ATOM      7  C   UNL     1     -18.158  44.865  84.741  1.00  0.00     0.041 C 
ATOM      8  O   UNL     1     -18.316  45.203  83.538  1.00  0.00    -0.550 OA
ATOM      9  O   UNL     1     -16.992  45.220  85.408  1.00  0.00    -0.550 OA
ENDBRANCH   6   7
ENDBRANCH   5   6
ENDBRANCH   4   5
ENDBRANCH   3   4
ENDBRANCH   2   3
ENDBRANCH   1   2
BRANCH   1  10
ATOM     10  C   UNL     1     -24.939  45.766  87.253  1.00  0.00     0.000 C 
BRANCH  10  11
ATOM     11  C   UNL     1     -25.856  46.619  88.150  1.00  0.00    -0.000 C 
BRANCH  11  12
ATOM     12  C   UNL     1     -25.609  46.461  89.662  1.00  0.00    -0.000 C 
BRANCH  12  13
ATOM     13  C   UNL     1     -26.842  46.036  90.486  1.00  0.00    -0.000 C 
BRANCH  13  14
ATOM     14  C   UNL     1     -26.826  44.580  90.984  1.00  0.00    -0.000 C 
BRANCH  14  15
ATOM     15  C   UNL     1     -27.174  43.567  89.884  1.00  0.00    -0.003 C 
ATOM     16  C   UNL     1     -28.429  42.777  90.241  1.00  0.00     0.004 C 
ENDBRANCH  14  15
ENDBRANCH  13  14
ENDBRANCH  12  13
ENDBRANCH  11  12
ENDBRANCH  10  11
ENDBRANCH   1  10
TORSDOF 12
ENDMDL
