MODEL 1
REMARK VINA RESULT:    -4.212      0.000      0.000
REMARK INTER + INTRA:          -8.081
REMARK INTER:                  -6.674
REMARK INTRA:                  -1.407
REMARK UNBOUND:                -1.407
REMARK SMILES CCCCCCCCCCCC(=O)[O-]
REMARK SMILES IDX 7 1 8 2 9 3 10 4 11 5 12 6 13 7 14 8 6 9 5 10 4 11 3 12 2 13
REMARK SMILES IDX 1 14
REMARK H PARENT
REMARK Flexibility Score: inf
ROOT
ATOM      1  C   UNL     1     -47.489 -47.757  18.625  1.00  0.00     0.000 C 
ENDROOT
BRANCH   1   2
ATOM      2  C   UNL     1     -48.535 -47.906  19.742  1.00  0.00     0.000 C 
BRANCH   2   3
ATOM      3  C   UNL     1     -49.786 -48.671  19.279  1.00  0.00     0.000 C 
BRANCH   3   4
ATOM      4  C   UNL     1     -50.223 -49.765  20.270  1.00  0.00     0.006 C 
BRANCH   4   5
ATOM      5  C   UNL     1     -51.161 -50.823  19.662  1.00  0.00     0.053 C 
BRANCH   5   6
ATOM      6  C   UNL     1     -52.187 -50.225  18.748  1.00  0.00     0.041 C 
ATOM      7  O   UNL     1     -52.167 -50.488  17.517  1.00  0.00    -0.550 OA
ATOM      8  O   UNL     1     -53.187 -49.408  19.259  1.00  0.00    -0.550 OA
ENDBRANCH   5   6
ENDBRANCH   4   5
ENDBRANCH   3   4
ENDBRANCH   2   3
ENDBRANCH   1   2
BRANCH   1   9
ATOM      9  C   UNL     1     -48.061 -47.100  17.359  1.00  0.00     0.000 C 
BRANCH   9  10
ATOM     10  C   UNL     1     -47.487 -47.752  16.095  1.00  0.00    -0.000 C 
BRANCH  10  11
ATOM     11  C   UNL     1     -47.272 -49.259  16.301  1.00  0.00    -0.000 C 
BRANCH  11  12
ATOM     12  C   UNL     1     -48.400 -50.102  15.670  1.00  0.00    -0.000 C 
BRANCH  12  13
ATOM     13  C   UNL     1     -48.883 -51.255  16.566  1.00  0.00    -0.003 C 
ATOM     14  C   UNL     1     -47.921 -51.566  17.710  1.00  0.00     0.004 C 
ENDBRANCH  12  13
ENDBRANCH  11  12
ENDBRANCH  10  11
ENDBRANCH   9  10
ENDBRANCH   1   9
TORSDOF 10
ENDMDL
MODEL 2
REMARK VINA RESULT:    -4.135      2.884      6.074
REMARK INTER + INTRA:          -7.960
REMARK INTER:                  -7.299
REMARK INTRA:                  -0.660
REMARK UNBOUND:                -1.407
REMARK SMILES CCCCCCCCCCCC(=O)[O-]
REMARK SMILES IDX 7 1 8 2 9 3 10 4 11 5 12 6 13 7 14 8 6 9 5 10 4 11 3 12 2 13
REMARK SMILES IDX 1 14
REMARK H PARENT
REMARK Flexibility Score: inf
ROOT
ATOM      1  C   UNL     1     -51.246 -50.422  18.302  1.00  0.00     0.000 C 
ENDROOT
BRANCH   1   2
ATOM      2  C   UNL     1     -49.977 -50.427  19.170  1.00  0.00     0.000 C 
BRANCH   2   3
ATOM      3  C   UNL     1     -48.935 -49.400  18.696  1.00  0.00     0.000 C 
BRANCH   3   4
ATOM      4  C   UNL     1     -47.710 -50.051  18.029  1.00  0.00     0.006 C 
BRANCH   4   5
ATOM      5  C   UNL     1     -47.559 -49.715  16.535  1.00  0.00     0.053 C 
BRANCH   5   6
ATOM      6  C   UNL     1     -48.444 -50.553  15.663  1.00  0.00     0.041 C 
ATOM      7  O   UNL     1     -48.621 -51.772  15.928  1.00  0.00    -0.550 OA
ATOM      8  O   UNL     1     -49.101 -49.984  14.581  1.00  0.00    -0.550 OA
ENDBRANCH   5   6
ENDBRANCH   4   5
ENDBRANCH   3   4
ENDBRANCH   2   3
ENDBRANCH   1   2
BRANCH   1   9
ATOM      9  C   UNL     1     -52.458 -49.815  19.027  1.00  0.00     0.000 C 
BRANCH   9  10
ATOM     10  C   UNL     1     -52.277 -49.880  20.548  1.00  0.00    -0.000 C 
BRANCH  10  11
ATOM     11  C   UNL     1     -52.776 -48.591  21.219  1.00  0.00    -0.000 C 
BRANCH  11  12
ATOM     12  C   UNL     1     -54.231 -48.719  21.720  1.00  0.00    -0.000 C 
BRANCH  12  13
ATOM     13  C   UNL     1     -55.265 -48.088  20.773  1.00  0.00    -0.003 C 
ATOM     14  C   UNL     1     -56.695 -48.541  21.061  1.00  0.00     0.004 C 
ENDBRANCH  12  13
ENDBRANCH  11  12
ENDBRANCH  10  11
ENDBRANCH   9  10
ENDBRANCH   1   9
TORSDOF 10
ENDMDL
MODEL 3
REMARK VINA RESULT:    -4.056     12.970     14.335
REMARK INTER + INTRA:          -7.834
REMARK INTER:                  -7.172
REMARK INTRA:                  -0.663
REMARK UNBOUND:                -1.407
REMARK SMILES CCCCCCCCCCCC(=O)[O-]
REMARK SMILES IDX 7 1 8 2 9 3 10 4 11 5 12 6 13 7 14 8 6 9 5 10 4 11 3 12 2 13
REMARK SMILES IDX 1 14
REMARK H PARENT
REMARK Flexibility Score: inf
ROOT
ATOM      1  C   UNL     1     -41.521 -49.766  30.315  1.00  0.00     0.000 C 
ENDROOT
BRANCH   1   2
ATOM      2  C   UNL     1     -42.052 -50.771  31.350  1.00  0.00     0.000 C 
BRANCH   2   3
ATOM      3  C   UNL     1     -43.584 -50.903  31.311  1.00  0.00     0.000 C 
BRANCH   3   4
ATOM      4  C   UNL     1     -44.173 -51.449  32.625  1.00  0.00     0.006 C 
BRANCH   4   5
ATOM      5  C   UNL     1     -45.661 -51.831  32.532  1.00  0.00     0.053 C 
BRANCH   5   6
ATOM      6  C   UNL     1     -46.563 -50.635  32.507  1.00  0.00     0.041 C 
ATOM      7  O   UNL     1     -47.082 -50.256  31.424  1.00  0.00    -0.550 OA
ATOM      8  O   UNL     1     -46.861 -49.959  33.683  1.00  0.00    -0.550 OA
ENDBRANCH   5   6
ENDBRANCH   4   5
ENDBRANCH   3   4
ENDBRANCH   2   3
ENDBRANCH   1   2
BRANCH   1   9
ATOM      9  C   UNL     1     -42.635 -49.178  29.433  1.00  0.00     0.000 C 
BRANCH   9  10
ATOM     10  C   UNL     1     -42.154 -48.999  27.989  1.00  0.00    -0.000 C 
BRANCH  10  11
ATOM     11  C   UNL     1     -40.628 -48.830  27.932  1.00  0.00    -0.000 C 
BRANCH  11  12
ATOM     12  C   UNL     1     -40.205 -47.346  27.900  1.00  0.00    -0.000 C 
BRANCH  12  13
ATOM     13  C   UNL     1     -38.847 -47.078  28.570  1.00  0.00    -0.003 C 
ATOM     14  C   UNL     1     -38.082 -48.357  28.904  1.00  0.00     0.004 C 
ENDBRANCH  12  13
ENDBRANCH  11  12
ENDBRANCH  10  11
ENDBRANCH   9  10
ENDBRANCH   1   9
TORSDOF 10
ENDMDL
MODEL 4
REMARK VINA RESULT:    -4.042      1.812      4.643
REMARK INTER + INTRA:          -7.812
REMARK INTER:                  -6.926
REMARK INTRA:                  -0.885
REMARK UNBOUND:                -1.407
REMARK SMILES CCCCCCCCCCCC(=O)[O-]
REMARK SMILES IDX 7 1 8 2 9 3 10 4 11 5 12 6 13 7 14 8 6 9 5 10 4 11 3 12 2 13
REMARK SMILES IDX 1 14
REMARK H PARENT
REMARK Flexibility Score: inf
ROOT
ATOM      1  C   UNL     1     -48.273 -47.759  18.466  1.00  0.00     0.000 C 
ENDROOT
BRANCH   1   2
ATOM      2  C   UNL     1     -47.528 -48.992  17.929  1.00  0.00     0.000 C 
BRANCH   2   3
ATOM      3  C   UNL     1     -47.375 -48.968  16.399  1.00  0.00     0.000 C 
BRANCH   3   4
ATOM      4  C   UNL     1     -47.740 -50.310  15.738  1.00  0.00     0.006 C 
BRANCH   4   5
ATOM      5  C   UNL     1     -48.748 -51.151  16.541  1.00  0.00     0.053 C 
BRANCH   5   6
ATOM      6  C   UNL     1     -50.158 -50.966  16.068  1.00  0.00     0.041 C 
ATOM      7  O   UNL     1     -50.426 -51.027  14.839  1.00  0.00    -0.550 OA
ATOM      8  O   UNL     1     -51.182 -50.764  16.984  1.00  0.00    -0.550 OA
ENDBRANCH   5   6
ENDBRANCH   4   5
ENDBRANCH   3   4
ENDBRANCH   2   3
ENDBRANCH   1   2
BRANCH   1   9
ATOM      9  C   UNL     1     -49.552 -48.128  19.236  1.00  0.00     0.000 C 
BRANCH   9  10
ATOM     10  C   UNL     1     -49.421 -49.510  19.887  1.00  0.00    -0.000 C 
BRANCH  10  11
ATOM     11  C   UNL     1     -50.746 -49.946  20.530  1.00  0.00    -0.000 C 
BRANCH  11  12
ATOM     12  C   UNL     1     -51.708 -48.758  20.747  1.00  0.00    -0.000 C 
BRANCH  12  13
ATOM     13  C   UNL     1     -53.070 -49.168  21.333  1.00  0.00    -0.003 C 
ATOM     14  C   UNL     1     -54.077 -48.021  21.365  1.00  0.00     0.004 C 
ENDBRANCH  12  13
ENDBRANCH  11  12
ENDBRANCH  10  11
ENDBRANCH   9  10
ENDBRANCH   1   9
TORSDOF 10
ENDMDL
MODEL 5
REMARK VINA RESULT:    -4.034      2.072      5.063
REMARK INTER + INTRA:          -7.799
REMARK INTER:                  -6.672
REMARK INTRA:                  -1.127
REMARK UNBOUND:                -1.407
REMARK SMILES CCCCCCCCCCCC(=O)[O-]
REMARK SMILES IDX 7 1 8 2 9 3 10 4 11 5 12 6 13 7 14 8 6 9 5 10 4 11 3 12 2 13
REMARK SMILES IDX 1 14
REMARK H PARENT
REMARK Flexibility Score: inf
ROOT
ATOM      1  C   UNL     1     -49.189 -50.029  19.731  1.00  0.00     0.000 C 
ENDROOT
BRANCH   1   2
ATOM      2  C   UNL     1     -48.718 -48.973  18.718  1.00  0.00     0.000 C 
BRANCH   2   3
ATOM      3  C   UNL     1     -47.355 -49.320  18.096  1.00  0.00     0.000 C 
BRANCH   3   4
ATOM      4  C   UNL     1     -47.423 -49.513  16.570  1.00  0.00     0.006 C 
BRANCH   4   5
ATOM      5  C   UNL     1     -48.090 -50.829  16.134  1.00  0.00     0.053 C 
BRANCH   5   6
ATOM      6  C   UNL     1     -49.371 -50.607  15.389  1.00  0.00     0.041 C 
ATOM      7  O   UNL     1     -49.374 -49.941  14.320  1.00  0.00    -0.550 OA
ATOM      8  O   UNL     1     -50.555 -51.165  15.852  1.00  0.00    -0.550 OA
ENDBRANCH   5   6
ENDBRANCH   4   5
ENDBRANCH   3   4
ENDBRANCH   2   3
ENDBRANCH   1   2
BRANCH   1   9
ATOM      9  C   UNL     1     -50.507 -50.703  19.315  1.00  0.00     0.000 C 
BRANCH   9  10
ATOM     10  C   UNL     1     -51.626 -49.667  19.155  1.00  0.00    -0.000 C 
BRANCH  10  11
ATOM     11  C   UNL     1     -52.594 -49.711  20.347  1.00  0.00    -0.000 C 
BRANCH  11  12
ATOM     12  C   UNL     1     -52.610 -48.385  21.137  1.00  0.00    -0.000 C 
BRANCH  12  13
ATOM     13  C   UNL     1     -51.400 -48.209  22.069  1.00  0.00    -0.003 C 
ATOM     14  C   UNL     1     -50.490 -47.054  21.657  1.00  0.00     0.004 C 
ENDBRANCH  12  13
ENDBRANCH  11  12
ENDBRANCH  10  11
ENDBRANCH   9  10
ENDBRANCH   1   9
TORSDOF 10
ENDMDL
MODEL 6
REMARK VINA RESULT:    -3.999     13.161     14.530
REMARK INTER + INTRA:          -7.743
REMARK INTER:                  -6.917
REMARK INTRA:                  -0.826
REMARK UNBOUND:                -1.407
REMARK SMILES CCCCCCCCCCCC(=O)[O-]
REMARK SMILES IDX 7 1 8 2 9 3 10 4 11 5 12 6 13 7 14 8 6 9 5 10 4 11 3 12 2 13
REMARK SMILES IDX 1 14
REMARK H PARENT
REMARK Flexibility Score: inf
ROOT
ATOM      1  C   UNL     1     -42.659 -48.948  29.179  1.00  0.00     0.000 C 
ENDROOT
BRANCH   1   2
ATOM      2  C   UNL     1     -41.694 -49.855  29.959  1.00  0.00     0.000 C 
BRANCH   2   3
ATOM      3  C   UNL     1     -42.427 -50.939  30.766  1.00  0.00     0.000 C 
BRANCH   3   4
ATOM      4  C   UNL     1     -43.955 -50.894  30.585  1.00  0.00     0.006 C 
BRANCH   4   5
ATOM      5  C   UNL     1     -44.727 -50.523  31.864  1.00  0.00     0.053 C 
BRANCH   5   6
ATOM      6  C   UNL     1     -44.685 -51.608  32.896  1.00  0.00     0.041 C 
ATOM      7  O   UNL     1     -43.923 -51.504  33.893  1.00  0.00    -0.550 OA
ATOM      8  O   UNL     1     -45.512 -52.717  32.779  1.00  0.00    -0.550 OA
ENDBRANCH   5   6
ENDBRANCH   4   5
ENDBRANCH   3   4
ENDBRANCH   2   3
ENDBRANCH   1   2
BRANCH   1   9
ATOM      9  C   UNL     1     -42.270 -48.800  27.699  1.00  0.00     0.000 C 
BRANCH   9  10
ATOM     10  C   UNL     1     -40.763 -48.557  27.550  1.00  0.00    -0.000 C 
BRANCH  10  11
ATOM     11  C   UNL     1     -40.438 -47.057  27.603  1.00  0.00    -0.000 C 
BRANCH  11  12
ATOM     12  C   UNL     1     -39.402 -46.722  28.697  1.00  0.00    -0.000 C 
BRANCH  12  13
ATOM     13  C   UNL     1     -38.604 -47.943  29.184  1.00  0.00    -0.003 C 
ATOM     14  C   UNL     1     -37.154 -47.940  28.708  1.00  0.00     0.004 C 
ENDBRANCH  12  13
ENDBRANCH  11  12
ENDBRANCH  10  11
ENDBRANCH   9  10
ENDBRANCH   1   9
TORSDOF 10
ENDMDL
MODEL 7
REMARK VINA RESULT:    -3.985      2.044      2.991
REMARK INTER + INTRA:          -7.721
REMARK INTER:                  -6.625
REMARK INTRA:                  -1.096
REMARK UNBOUND:                -1.407
REMARK SMILES CCCCCCCCCCCC(=O)[O-]
REMARK SMILES IDX 7 1 8 2 9 3 10 4 11 5 12 6 13 7 14 8 6 9 5 10 4 11 3 12 2 13
REMARK SMILES IDX 1 14
REMARK H PARENT
REMARK Flexibility Score: inf
ROOT
ATOM      1  C   UNL     1     -49.872 -49.179  19.092  1.00  0.00     0.000 C 
ENDROOT
BRANCH   1   2
ATOM      2  C   UNL     1     -50.208 -50.649  19.392  1.00  0.00     0.000 C 
BRANCH   2   3
ATOM      3  C   UNL     1     -51.671 -50.843  19.825  1.00  0.00     0.000 C 
BRANCH   3   4
ATOM      4  C   UNL     1     -52.496 -49.545  19.753  1.00  0.00     0.006 C 
BRANCH   4   5
ATOM      5  C   UNL     1     -53.233 -49.198  21.059  1.00  0.00     0.053 C 
BRANCH   5   6
ATOM      6  C   UNL     1     -52.380 -48.416  22.011  1.00  0.00     0.041 C 
ATOM      7  O   UNL     1     -51.669 -47.466  21.590  1.00  0.00    -0.550 OA
ATOM      8  O   UNL     1     -52.396 -48.711  23.368  1.00  0.00    -0.550 OA
ENDBRANCH   5   6
ENDBRANCH   4   5
ENDBRANCH   3   4
ENDBRANCH   2   3
ENDBRANCH   1   2
BRANCH   1   9
ATOM      9  C   UNL     1     -48.372 -48.873  19.233  1.00  0.00     0.000 C 
BRANCH   9  10
ATOM     10  C   UNL     1     -47.546 -49.721  18.258  1.00  0.00    -0.000 C 
BRANCH  10  11
ATOM     11  C   UNL     1     -47.685 -49.200  16.819  1.00  0.00    -0.000 C 
BRANCH  11  12
ATOM     12  C   UNL     1     -47.688 -50.344  15.782  1.00  0.00    -0.000 C 
BRANCH  12  13
ATOM     13  C   UNL     1     -48.716 -51.447  16.085  1.00  0.00    -0.003 C 
ATOM     14  C   UNL     1     -50.132 -51.083  15.645  1.00  0.00     0.004 C 
ENDBRANCH  12  13
ENDBRANCH  11  12
ENDBRANCH  10  11
ENDBRANCH   9  10
ENDBRANCH   1   9
TORSDOF 10
ENDMDL
MODEL 8
REMARK VINA RESULT:    -3.977     13.647     15.510
REMARK INTER + INTRA:          -7.709
REMARK INTER:                  -6.495
REMARK INTRA:                  -1.215
REMARK UNBOUND:                -1.407
REMARK SMILES CCCCCCCCCCCC(=O)[O-]
REMARK SMILES IDX 7 1 8 2 9 3 10 4 11 5 12 6 13 7 14 8 6 9 5 10 4 11 3 12 2 13
REMARK SMILES IDX 1 14
REMARK H PARENT
REMARK Flexibility Score: inf
ROOT
ATOM      1  C   UNL     1     -45.503 -48.490  31.201  1.00  0.00     0.000 C 
ENDROOT
BRANCH   1   2
ATOM      2  C   UNL     1     -44.411 -49.032  30.264  1.00  0.00     0.000 C 
BRANCH   2   3
ATOM      3  C   UNL     1     -44.359 -50.568  30.245  1.00  0.00     0.000 C 
BRANCH   3   4
ATOM      4  C   UNL     1     -42.929 -51.123  30.374  1.00  0.00     0.006 C 
BRANCH   4   5
ATOM      5  C   UNL     1     -41.918 -50.120  30.957  1.00  0.00     0.053 C 
BRANCH   5   6
ATOM      6  C   UNL     1     -40.970 -49.592  29.924  1.00  0.00     0.041 C 
ATOM      7  O   UNL     1     -39.998 -48.869  30.269  1.00  0.00    -0.550 OA
ATOM      8  O   UNL     1     -41.135 -49.926  28.586  1.00  0.00    -0.550 OA
ENDBRANCH   5   6
ENDBRANCH   4   5
ENDBRANCH   3   4
ENDBRANCH   2   3
ENDBRANCH   1   2
BRANCH   1   9
ATOM      9  C   UNL     1     -46.507 -49.572  31.629  1.00  0.00     0.000 C 
BRANCH   9  10
ATOM     10  C   UNL     1     -46.971 -49.350  33.073  1.00  0.00    -0.000 C 
BRANCH  10  11
ATOM     11  C   UNL     1     -46.045 -50.069  34.067  1.00  0.00    -0.000 C 
BRANCH  11  12
ATOM     12  C   UNL     1     -46.216 -51.603  34.020  1.00  0.00    -0.000 C 
BRANCH  12  13
ATOM     13  C   UNL     1     -44.976 -52.345  33.496  1.00  0.00    -0.003 C 
ATOM     14  C   UNL     1     -43.674 -51.853  34.125  1.00  0.00     0.004 C 
ENDBRANCH  12  13
ENDBRANCH  11  12
ENDBRANCH  10  11
ENDBRANCH   9  10
ENDBRANCH   1   9
TORSDOF 10
ENDMDL
MODEL 9
REMARK VINA RESULT:    -3.971     13.623     15.547
REMARK INTER + INTRA:          -7.700
REMARK INTER:                  -7.081
REMARK INTRA:                  -0.618
REMARK UNBOUND:                -1.407
REMARK SMILES CCCCCCCCCCCC(=O)[O-]
REMARK SMILES IDX 7 1 8 2 9 3 10 4 11 5 12 6 13 7 14 8 6 9 5 10 4 11 3 12 2 13
REMARK SMILES IDX 1 14
REMARK H PARENT
REMARK Flexibility Score: inf
ROOT
ATOM      1  C   UNL     1     -41.895 -50.164  30.872  1.00  0.00     0.000 C 
ENDROOT
BRANCH   1   2
ATOM      2  C   UNL     1     -42.906 -49.419  29.984  1.00  0.00     0.000 C 
BRANCH   2   3
ATOM      3  C   UNL     1     -42.489 -49.403  28.504  1.00  0.00     0.000 C 
BRANCH   3   4
ATOM      4  C   UNL     1     -41.376 -48.381  28.204  1.00  0.00     0.006 C 
BRANCH   4   5
ATOM      5  C   UNL     1     -39.989 -49.012  27.988  1.00  0.00     0.053 C 
BRANCH   5   6
ATOM      6  C   UNL     1     -38.936 -48.401  28.862  1.00  0.00     0.041 C 
ATOM      7  O   UNL     1     -39.266 -47.698  29.853  1.00  0.00    -0.550 OA
ATOM      8  O   UNL     1     -37.592 -48.637  28.606  1.00  0.00    -0.550 OA
ENDBRANCH   5   6
ENDBRANCH   4   5
ENDBRANCH   3   4
ENDBRANCH   2   3
ENDBRANCH   1   2
BRANCH   1   9
ATOM      9  C   UNL     1     -42.573 -51.111  31.875  1.00  0.00     0.000 C 
BRANCH   9  10
ATOM     10  C   UNL     1     -44.100 -51.028  31.762  1.00  0.00    -0.000 C 
BRANCH  10  11
ATOM     11  C   UNL     1     -44.780 -51.824  32.887  1.00  0.00    -0.000 C 
BRANCH  11  12
ATOM     12  C   UNL     1     -46.293 -51.528  32.979  1.00  0.00    -0.000 C 
BRANCH  12  13
ATOM     13  C   UNL     1     -46.673 -50.114  32.511  1.00  0.00    -0.003 C 
ATOM     14  C   UNL     1     -47.034 -49.179  33.664  1.00  0.00     0.004 C 
ENDBRANCH  12  13
ENDBRANCH  11  12
ENDBRANCH  10  11
ENDBRANCH   9  10
ENDBRANCH   1   9
TORSDOF 10
ENDMDL
