MODEL 1
REMARK VINA RESULT:    -6.598      0.000      0.000
REMARK INTER + INTRA:         -10.613
REMARK INTER:                  -9.684
REMARK INTRA:                  -0.929
REMARK UNBOUND:                -0.929
REMARK SMILES O=c1c(O[C@@H]2O[C@@H](CO)[C@H](O)[C@H](O)[C@@H]2O)c(-c2ccc(O)c(O)c2)oc2cc(O)cc(O)c12
REMARK SMILES IDX 4 1 3 2 16 3 25 4 2 5 26 6 1 7 33 8 27 9 31 10 28 11 30 12
REMARK SMILES IDX 17 13 18 14 19 15 20 16 24 17 22 18 21 19 23 21 32 23 29 25
REMARK SMILES IDX 5 27 14 28 6 29 12 30 7 31 10 32 15 33 13 35 8 37 9 38 11 40
REMARK H PARENT 21 20 23 22 32 24 29 26 15 34 13 36 9 39 11 41
REMARK Flexibility Score: inf
ROOT
ATOM      1  O   UNL     1      -9.437  32.464   6.493  1.00  0.00    -0.454 OA
ENDROOT
BRANCH   1   2
ATOM      2  C   UNL     1      -9.762  33.768   6.891  1.00  0.00     0.214 A 
ATOM      3  C   UNL     1     -10.662  33.997   7.943  1.00  0.00     0.180 A 
ATOM      4  O   UNL     1     -11.023  35.236   8.250  1.00  0.00    -0.452 OA
ATOM      5  C   UNL     1      -9.209  34.869   6.221  1.00  0.00     0.239 A 
ATOM      6  C   UNL     1     -10.534  36.309   7.639  1.00  0.00     0.146 A 
ATOM      7  O   UNL     1      -8.425  34.657   5.260  1.00  0.00    -0.285 OA
ATOM      8  C   UNL     1      -9.558  36.184   6.614  1.00  0.00     0.111 A 
ATOM      9  C   UNL     1     -10.999  37.567   8.030  1.00  0.00     0.094 A 
ATOM     10  C   UNL     1      -9.025  37.376   6.034  1.00  0.00     0.134 A 
ATOM     11  C   UNL     1     -10.510  38.722   7.419  1.00  0.00     0.123 A 
ATOM     12  C   UNL     1      -9.532  38.621   6.425  1.00  0.00     0.093 A 
BRANCH   3  13
ATOM     13  C   UNL     1     -11.242  32.893   8.723  1.00  0.00     0.025 A 
ATOM     14  C   UNL     1     -12.399  32.253   8.264  1.00  0.00     0.016 A 
ATOM     15  C   UNL     1     -13.001  31.256   9.033  1.00  0.00     0.051 A 
ATOM     16  C   UNL     1     -12.470  30.896  10.280  1.00  0.00     0.157 A 
ATOM     17  C   UNL     1     -10.706  32.546   9.971  1.00  0.00     0.062 A 
ATOM     18  C   UNL     1     -11.313  31.558  10.758  1.00  0.00     0.158 A 
BRANCH  16  19
ATOM     19  O   UNL     1     -13.123  29.898  11.002  1.00  0.00    -0.504 OA
ATOM     20  H   UNL     1     -12.659  29.264  11.634  1.00  0.00     0.293 HD
ENDBRANCH  16  19
BRANCH  18  21
ATOM     21  O   UNL     1     -10.740  31.271  11.998  1.00  0.00    -0.504 OA
ATOM     22  H   UNL     1     -10.836  30.384  12.472  1.00  0.00     0.293 HD
ENDBRANCH  18  21
ENDBRANCH   3  13
BRANCH  10  23
ATOM     23  O   UNL     1      -7.989  37.392   5.096  1.00  0.00    -0.507 OA
ATOM     24  H   UNL     1      -7.583  38.227   4.703  1.00  0.00     0.293 HD
ENDBRANCH  10  23
BRANCH  11  25
ATOM     25  O   UNL     1     -10.999  39.964   7.815  1.00  0.00    -0.508 OA
ATOM     26  H   UNL     1     -11.647  40.488   7.236  1.00  0.00     0.293 HD
ENDBRANCH  11  25
ENDBRANCH   1   2
BRANCH   1  27
ATOM     27  C   UNL     1      -8.803  31.541   7.386  1.00  0.00     0.339 C 
ATOM     28  C   UNL     1      -9.113  30.070   7.039  1.00  0.00     0.214 C 
ATOM     29  O   UNL     1      -7.403  31.759   7.431  1.00  0.00    -0.332 OA
ATOM     30  C   UNL     1      -8.426  29.618   5.736  1.00  0.00     0.180 C 
ATOM     31  C   UNL     1      -6.774  31.512   6.181  1.00  0.00     0.179 C 
ATOM     32  C   UNL     1      -6.942  30.030   5.749  1.00  0.00     0.177 C 
BRANCH  28  33
ATOM     33  O   UNL     1     -10.493  29.809   7.025  1.00  0.00    -0.384 OA
ATOM     34  H   UNL     1     -10.784  29.721   6.081  1.00  0.00     0.211 HD
ENDBRANCH  28  33
BRANCH  30  35
ATOM     35  O   UNL     1      -9.098  30.081   4.586  1.00  0.00    -0.387 OA
ATOM     36  H   UNL     1      -8.435  30.201   3.862  1.00  0.00     0.211 HD
ENDBRANCH  30  35
BRANCH  31  37
ATOM     37  C   UNL     1      -5.288  31.876   6.332  1.00  0.00     0.191 C 
BRANCH  37  38
ATOM     38  O   UNL     1      -4.878  31.795   7.670  1.00  0.00    -0.394 OA
ATOM     39  H   UNL     1      -4.234  32.534   7.818  1.00  0.00     0.210 HD
ENDBRANCH  37  38
ENDBRANCH  31  37
BRANCH  32  40
ATOM     40  O   UNL     1      -6.398  29.827   4.468  1.00  0.00    -0.387 OA
ATOM     41  H   UNL     1      -6.763  28.972   4.121  1.00  0.00     0.211 HD
ENDBRANCH  32  40
ENDBRANCH   1  27
TORSDOF 12
ENDMDL
MODEL 2
REMARK VINA RESULT:    -6.577      1.293      2.374
REMARK INTER + INTRA:         -10.583
REMARK INTER:                  -8.750
REMARK INTRA:                  -1.833
REMARK UNBOUND:                -0.929
REMARK SMILES O=c1c(O[C@@H]2O[C@@H](CO)[C@H](O)[C@H](O)[C@@H]2O)c(-c2ccc(O)c(O)c2)oc2cc(O)cc(O)c12
REMARK SMILES IDX 4 1 3 2 16 3 25 4 2 5 26 6 1 7 33 8 27 9 31 10 28 11 30 12
REMARK SMILES IDX 17 13 18 14 19 15 20 16 24 17 22 18 21 19 23 21 32 23 29 25
REMARK SMILES IDX 5 27 14 28 6 29 12 30 7 31 10 32 15 33 13 35 8 37 9 38 11 40
REMARK H PARENT 21 20 23 22 32 24 29 26 15 34 13 36 9 39 11 41
REMARK Flexibility Score: inf
ROOT
ATOM      1  O   UNL     1      -9.242  31.910   7.127  1.00  0.00    -0.454 OA
ENDROOT
BRANCH   1   2
ATOM      2  C   UNL     1      -9.633  33.247   7.278  1.00  0.00     0.214 A 
ATOM      3  C   UNL     1     -10.610  33.611   8.216  1.00  0.00     0.180 A 
ATOM      4  O   UNL     1     -11.029  34.868   8.286  1.00  0.00    -0.452 OA
ATOM      5  C   UNL     1      -9.068  34.243   6.468  1.00  0.00     0.239 A 
ATOM      6  C   UNL     1     -10.532  35.843   7.534  1.00  0.00     0.146 A 
ATOM      7  O   UNL     1      -8.213  33.907   5.608  1.00  0.00    -0.285 OA
ATOM      8  C   UNL     1      -9.484  35.590   6.609  1.00  0.00     0.111 A 
ATOM      9  C   UNL     1     -11.060  37.129   7.677  1.00  0.00     0.094 A 
ATOM     10  C   UNL     1      -8.947  36.689   5.871  1.00  0.00     0.134 A 
ATOM     11  C   UNL     1     -10.565  38.184   6.912  1.00  0.00     0.123 A 
ATOM     12  C   UNL     1      -9.518  37.961   6.013  1.00  0.00     0.093 A 
BRANCH   3  13
ATOM     13  C   UNL     1     -11.210  32.629   9.133  1.00  0.00     0.025 A 
ATOM     14  C   UNL     1     -12.452  32.064   8.829  1.00  0.00     0.016 A 
ATOM     15  C   UNL     1     -13.066  31.190   9.727  1.00  0.00     0.051 A 
ATOM     16  C   UNL     1     -12.457  30.882  10.952  1.00  0.00     0.157 A 
ATOM     17  C   UNL     1     -10.595  32.333  10.358  1.00  0.00     0.062 A 
ATOM     18  C   UNL     1     -11.210  31.470  11.274  1.00  0.00     0.158 A 
BRANCH  16  19
ATOM     19  O   UNL     1     -13.125  30.007  11.809  1.00  0.00    -0.504 OA
ATOM     20  H   UNL     1     -13.922  29.451  11.538  1.00  0.00     0.293 HD
ENDBRANCH  16  19
BRANCH  18  21
ATOM     21  O   UNL     1     -10.555  31.229  12.484  1.00  0.00    -0.504 OA
ATOM     22  H   UNL     1     -10.971  31.383  13.390  1.00  0.00     0.293 HD
ENDBRANCH  18  21
ENDBRANCH   3  13
BRANCH  10  23
ATOM     23  O   UNL     1      -7.850  36.592   5.011  1.00  0.00    -0.507 OA
ATOM     24  H   UNL     1      -7.628  37.255   4.285  1.00  0.00     0.293 HD
ENDBRANCH  10  23
BRANCH  11  25
ATOM     25  O   UNL     1     -11.118  39.454   7.059  1.00  0.00    -0.508 OA
ATOM     26  H   UNL     1     -10.893  40.208   6.419  1.00  0.00     0.293 HD
ENDBRANCH  11  25
ENDBRANCH   1   2
BRANCH   1  27
ATOM     27  C   UNL     1      -9.899  31.034   6.203  1.00  0.00     0.339 C 
ATOM     28  C   UNL     1      -8.928  30.417   5.177  1.00  0.00     0.214 C 
ATOM     29  O   UNL     1     -10.616  30.021   6.886  1.00  0.00    -0.332 OA
ATOM     30  C   UNL     1      -7.978  29.385   5.815  1.00  0.00     0.180 C 
ATOM     31  C   UNL     1      -9.762  29.157   7.626  1.00  0.00     0.179 C 
ATOM     32  C   UNL     1      -8.778  28.403   6.693  1.00  0.00     0.177 C 
BRANCH  28  33
ATOM     33  O   UNL     1      -8.229  31.397   4.451  1.00  0.00    -0.384 OA
ATOM     34  H   UNL     1      -7.487  31.733   5.017  1.00  0.00     0.211 HD
ENDBRANCH  28  33
BRANCH  30  35
ATOM     35  O   UNL     1      -6.921  29.992   6.522  1.00  0.00    -0.387 OA
ATOM     36  H   UNL     1      -6.611  29.367   7.223  1.00  0.00     0.211 HD
ENDBRANCH  30  35
BRANCH  31  37
ATOM     37  C   UNL     1     -10.658  28.170   8.394  1.00  0.00     0.191 C 
BRANCH  37  38
ATOM     38  O   UNL     1      -9.987  27.629   9.499  1.00  0.00    -0.394 OA
ATOM     39  H   UNL     1      -9.089  27.354   9.184  1.00  0.00     0.210 HD
ENDBRANCH  37  38
ENDBRANCH  31  37
BRANCH  32  40
ATOM     40  O   UNL     1      -7.880  27.628   7.449  1.00  0.00    -0.387 OA
ATOM     41  H   UNL     1      -8.396  26.885   7.857  1.00  0.00     0.211 HD
ENDBRANCH  32  40
ENDBRANCH   1  27
TORSDOF 12
ENDMDL
MODEL 3
REMARK VINA RESULT:    -6.093      2.050      7.508
REMARK INTER + INTRA:          -9.873
REMARK INTER:                  -8.320
REMARK INTRA:                  -1.552
REMARK UNBOUND:                -0.929
REMARK SMILES O=c1c(O[C@@H]2O[C@@H](CO)[C@H](O)[C@H](O)[C@@H]2O)c(-c2ccc(O)c(O)c2)oc2cc(O)cc(O)c12
REMARK SMILES IDX 4 1 3 2 16 3 25 4 2 5 26 6 1 7 33 8 27 9 31 10 28 11 30 12
REMARK SMILES IDX 17 13 18 14 19 15 20 16 24 17 22 18 21 19 23 21 32 23 29 25
REMARK SMILES IDX 5 27 14 28 6 29 12 30 7 31 10 32 15 33 13 35 8 37 9 38 11 40
REMARK H PARENT 21 20 23 22 32 24 29 26 15 34 13 36 9 39 11 41
REMARK Flexibility Score: inf
ROOT
ATOM      1  O   UNL     1     -10.770  33.439   8.081  1.00  0.00    -0.454 OA
ENDROOT
BRANCH   1   2
ATOM      2  C   UNL     1      -9.958  32.755   7.165  1.00  0.00     0.214 A 
ATOM      3  C   UNL     1      -9.314  33.438   6.122  1.00  0.00     0.180 A 
ATOM      4  O   UNL     1      -8.620  32.763   5.215  1.00  0.00    -0.452 OA
ATOM      5  C   UNL     1      -9.801  31.364   7.262  1.00  0.00     0.239 A 
ATOM      6  C   UNL     1      -8.450  31.447   5.260  1.00  0.00     0.146 A 
ATOM      7  O   UNL     1     -10.404  30.753   8.182  1.00  0.00    -0.285 OA
ATOM      8  C   UNL     1      -8.998  30.676   6.320  1.00  0.00     0.111 A 
ATOM      9  C   UNL     1      -7.715  30.836   4.241  1.00  0.00     0.094 A 
ATOM     10  C   UNL     1      -8.732  29.273   6.348  1.00  0.00     0.134 A 
ATOM     11  C   UNL     1      -7.507  29.457   4.250  1.00  0.00     0.123 A 
ATOM     12  C   UNL     1      -8.018  28.683   5.297  1.00  0.00     0.093 A 
BRANCH   3  13
ATOM     13  C   UNL     1      -9.393  34.901   5.987  1.00  0.00     0.025 A 
ATOM     14  C   UNL     1     -10.532  35.485   5.422  1.00  0.00     0.016 A 
ATOM     15  C   UNL     1     -10.586  36.864   5.219  1.00  0.00     0.051 A 
ATOM     16  C   UNL     1      -9.498  37.680   5.558  1.00  0.00     0.157 A 
ATOM     17  C   UNL     1      -8.296  35.706   6.325  1.00  0.00     0.062 A 
ATOM     18  C   UNL     1      -8.335  37.090   6.110  1.00  0.00     0.158 A 
BRANCH  16  19
ATOM     19  O   UNL     1      -9.613  39.050   5.324  1.00  0.00    -0.504 OA
ATOM     20  H   UNL     1      -9.161  39.531   4.561  1.00  0.00     0.293 HD
ENDBRANCH  16  19
BRANCH  18  21
ATOM     21  O   UNL     1      -7.203  37.834   6.452  1.00  0.00    -0.504 OA
ATOM     22  H   UNL     1      -7.063  38.799   6.190  1.00  0.00     0.293 HD
ENDBRANCH  18  21
ENDBRANCH   3  13
BRANCH  10  23
ATOM     23  O   UNL     1      -9.123  28.424   7.388  1.00  0.00    -0.507 OA
ATOM     24  H   UNL     1      -9.645  28.712   8.200  1.00  0.00     0.293 HD
ENDBRANCH  10  23
BRANCH  11  25
ATOM     25  O   UNL     1      -6.784  28.867   3.216  1.00  0.00    -0.508 OA
ATOM     26  H   UNL     1      -5.783  28.721   3.285  1.00  0.00     0.293 HD
ENDBRANCH  11  25
ENDBRANCH   1   2
BRANCH   1  27
ATOM     27  C   UNL     1     -12.196  33.460   7.951  1.00  0.00     0.339 C 
ATOM     28  C   UNL     1     -12.916  32.981   9.228  1.00  0.00     0.214 C 
ATOM     29  O   UNL     1     -12.653  34.747   7.572  1.00  0.00    -0.332 OA
ATOM     30  C   UNL     1     -12.788  33.989  10.386  1.00  0.00     0.180 C 
ATOM     31  C   UNL     1     -12.386  35.730   8.564  1.00  0.00     0.179 C 
ATOM     32  C   UNL     1     -13.125  35.409   9.890  1.00  0.00     0.177 C 
BRANCH  28  33
ATOM     33  O   UNL     1     -12.516  31.689   9.609  1.00  0.00    -0.384 OA
ATOM     34  H   UNL     1     -12.734  31.566  10.569  1.00  0.00     0.211 HD
ENDBRANCH  28  33
BRANCH  30  35
ATOM     35  O   UNL     1     -11.529  33.929  11.015  1.00  0.00    -0.387 OA
ATOM     36  H   UNL     1     -11.597  34.368  11.899  1.00  0.00     0.211 HD
ENDBRANCH  30  35
BRANCH  31  37
ATOM     37  C   UNL     1     -12.835  37.088   7.998  1.00  0.00     0.191 C 
BRANCH  37  38
ATOM     38  O   UNL     1     -12.038  38.132   8.489  1.00  0.00    -0.394 OA
ATOM     39  H   UNL     1     -12.442  38.978   8.167  1.00  0.00     0.210 HD
ENDBRANCH  37  38
ENDBRANCH  31  37
BRANCH  32  40
ATOM     40  O   UNL     1     -12.773  36.338  10.886  1.00  0.00    -0.387 OA
ATOM     41  H   UNL     1     -11.930  36.777  10.600  1.00  0.00     0.211 HD
ENDBRANCH  32  40
ENDBRANCH   1  27
TORSDOF 12
ENDMDL
MODEL 4
REMARK VINA RESULT:    -6.060      1.790      5.070
REMARK INTER + INTRA:          -9.824
REMARK INTER:                  -9.344
REMARK INTRA:                  -0.480
REMARK UNBOUND:                -0.929
REMARK SMILES O=c1c(O[C@@H]2O[C@@H](CO)[C@H](O)[C@H](O)[C@@H]2O)c(-c2ccc(O)c(O)c2)oc2cc(O)cc(O)c12
REMARK SMILES IDX 4 1 3 2 16 3 25 4 2 5 26 6 1 7 33 8 27 9 31 10 28 11 30 12
REMARK SMILES IDX 17 13 18 14 19 15 20 16 24 17 22 18 21 19 23 21 32 23 29 25
REMARK SMILES IDX 5 27 14 28 6 29 12 30 7 31 10 32 15 33 13 35 8 37 9 38 11 40
REMARK H PARENT 21 20 23 22 32 24 29 26 15 34 13 36 9 39 11 41
REMARK Flexibility Score: inf
ROOT
ATOM      1  O   UNL     1      -9.618  31.380   7.516  1.00  0.00    -0.454 OA
ENDROOT
BRANCH   1   2
ATOM      2  C   UNL     1      -9.340  32.680   7.072  1.00  0.00     0.214 A 
ATOM      3  C   UNL     1      -8.099  32.997   6.499  1.00  0.00     0.180 A 
ATOM      4  O   UNL     1      -7.822  34.249   6.163  1.00  0.00    -0.452 OA
ATOM      5  C   UNL     1     -10.296  33.696   7.221  1.00  0.00     0.239 A 
ATOM      6  C   UNL     1      -8.691  35.246   6.293  1.00  0.00     0.146 A 
ATOM      7  O   UNL     1     -11.396  33.413   7.762  1.00  0.00    -0.285 OA
ATOM      8  C   UNL     1     -10.000  35.012   6.791  1.00  0.00     0.111 A 
ATOM      9  C   UNL     1      -8.287  36.532   5.926  1.00  0.00     0.094 A 
ATOM     10  C   UNL     1     -10.910  36.112   6.852  1.00  0.00     0.134 A 
ATOM     11  C   UNL     1      -9.167  37.608   6.041  1.00  0.00     0.123 A 
ATOM     12  C   UNL     1     -10.468  37.395   6.505  1.00  0.00     0.093 A 
BRANCH   3  13
ATOM     13  C   UNL     1      -7.068  31.973   6.266  1.00  0.00     0.025 A 
ATOM     14  C   UNL     1      -7.312  30.938   5.357  1.00  0.00     0.016 A 
ATOM     15  C   UNL     1      -6.373  29.919   5.185  1.00  0.00     0.051 A 
ATOM     16  C   UNL     1      -5.186  29.908   5.930  1.00  0.00     0.157 A 
ATOM     17  C   UNL     1      -5.887  31.968   7.021  1.00  0.00     0.062 A 
ATOM     18  C   UNL     1      -4.946  30.942   6.867  1.00  0.00     0.158 A 
BRANCH  16  19
ATOM     19  O   UNL     1      -4.292  28.859   5.716  1.00  0.00    -0.504 OA
ATOM     20  H   UNL     1      -4.490  27.895   5.939  1.00  0.00     0.293 HD
ENDBRANCH  16  19
BRANCH  18  21
ATOM     21  O   UNL     1      -3.799  30.986   7.662  1.00  0.00    -0.504 OA
ATOM     22  H   UNL     1      -3.256  30.172   7.914  1.00  0.00     0.293 HD
ENDBRANCH  18  21
ENDBRANCH   3  13
BRANCH  10  23
ATOM     23  O   UNL     1     -12.254  35.996   7.222  1.00  0.00    -0.507 OA
ATOM     24  H   UNL     1     -12.645  35.217   7.727  1.00  0.00     0.293 HD
ENDBRANCH  10  23
BRANCH  11  25
ATOM     25  O   UNL     1      -8.738  38.884   5.683  1.00  0.00    -0.508 OA
ATOM     26  H   UNL     1      -7.917  39.305   6.105  1.00  0.00     0.293 HD
ENDBRANCH  11  25
ENDBRANCH   1   2
BRANCH   1  27
ATOM     27  C   UNL     1     -10.856  30.729   7.209  1.00  0.00     0.339 C 
ATOM     28  C   UNL     1     -10.664  29.455   6.361  1.00  0.00     0.214 C 
ATOM     29  O   UNL     1     -11.584  30.439   8.389  1.00  0.00    -0.332 OA
ATOM     30  C   UNL     1     -10.011  28.312   7.161  1.00  0.00     0.180 C 
ATOM     31  C   UNL     1     -10.910  29.510   9.228  1.00  0.00     0.179 C 
ATOM     32  C   UNL     1     -10.723  28.143   8.518  1.00  0.00     0.177 C 
BRANCH  28  33
ATOM     33  O   UNL     1      -9.981  29.715   5.161  1.00  0.00    -0.384 OA
ATOM     34  H   UNL     1      -9.643  28.854   4.803  1.00  0.00     0.211 HD
ENDBRANCH  28  33
BRANCH  30  35
ATOM     35  O   UNL     1      -8.620  28.483   7.306  1.00  0.00    -0.387 OA
ATOM     36  H   UNL     1      -8.246  27.672   7.730  1.00  0.00     0.211 HD
ENDBRANCH  30  35
BRANCH  31  37
ATOM     37  C   UNL     1     -11.745  29.354  10.510  1.00  0.00     0.191 C 
BRANCH  37  38
ATOM     38  O   UNL     1     -10.964  28.878  11.572  1.00  0.00    -0.394 OA
ATOM     39  H   UNL     1     -11.302  29.313  12.395  1.00  0.00     0.210 HD
ENDBRANCH  37  38
ENDBRANCH  31  37
BRANCH  32  40
ATOM     40  O   UNL     1      -9.970  27.269   9.324  1.00  0.00    -0.387 OA
ATOM     41  H   UNL     1      -9.153  27.024   8.816  1.00  0.00     0.211 HD
ENDBRANCH  32  40
ENDBRANCH   1  27
TORSDOF 12
ENDMDL
MODEL 5
REMARK VINA RESULT:    -5.953      1.792      5.243
REMARK INTER + INTRA:          -9.667
REMARK INTER:                  -9.241
REMARK INTRA:                  -0.425
REMARK UNBOUND:                -0.929
REMARK SMILES O=c1c(O[C@@H]2O[C@@H](CO)[C@H](O)[C@H](O)[C@@H]2O)c(-c2ccc(O)c(O)c2)oc2cc(O)cc(O)c12
REMARK SMILES IDX 4 1 3 2 16 3 25 4 2 5 26 6 1 7 33 8 27 9 31 10 28 11 30 12
REMARK SMILES IDX 17 13 18 14 19 15 20 16 24 17 22 18 21 19 23 21 32 23 29 25
REMARK SMILES IDX 5 27 14 28 6 29 12 30 7 31 10 32 15 33 13 35 8 37 9 38 11 40
REMARK H PARENT 21 20 23 22 32 24 29 26 15 34 13 36 9 39 11 41
REMARK Flexibility Score: inf
ROOT
ATOM      1  O   UNL     1      -9.705  31.330   7.667  1.00  0.00    -0.454 OA
ENDROOT
BRANCH   1   2
ATOM      2  C   UNL     1      -9.416  32.617   7.194  1.00  0.00     0.214 A 
ATOM      3  C   UNL     1      -8.179  32.907   6.599  1.00  0.00     0.180 A 
ATOM      4  O   UNL     1      -7.891  34.149   6.236  1.00  0.00    -0.452 OA
ATOM      5  C   UNL     1     -10.357  33.648   7.335  1.00  0.00     0.239 A 
ATOM      6  C   UNL     1      -8.744  35.159   6.357  1.00  0.00     0.146 A 
ATOM      7  O   UNL     1     -11.454  33.390   7.896  1.00  0.00    -0.285 OA
ATOM      8  C   UNL     1     -10.051  34.952   6.876  1.00  0.00     0.111 A 
ATOM      9  C   UNL     1      -8.329  36.433   5.960  1.00  0.00     0.094 A 
ATOM     10  C   UNL     1     -10.946  36.065   6.928  1.00  0.00     0.134 A 
ATOM     11  C   UNL     1      -9.194  37.522   6.065  1.00  0.00     0.123 A 
ATOM     12  C   UNL     1     -10.492  37.335   6.550  1.00  0.00     0.093 A 
BRANCH   3  13
ATOM     13  C   UNL     1      -7.165  31.866   6.373  1.00  0.00     0.025 A 
ATOM     14  C   UNL     1      -5.869  32.039   6.871  1.00  0.00     0.016 A 
ATOM     15  C   UNL     1      -4.879  31.095   6.597  1.00  0.00     0.051 A 
ATOM     16  C   UNL     1      -5.161  29.973   5.806  1.00  0.00     0.157 A 
ATOM     17  C   UNL     1      -7.457  30.750   5.575  1.00  0.00     0.062 A 
ATOM     18  C   UNL     1      -6.465  29.804   5.281  1.00  0.00     0.158 A 
BRANCH  16  19
ATOM     19  O   UNL     1      -4.126  29.070   5.564  1.00  0.00    -0.504 OA
ATOM     20  H   UNL     1      -3.795  28.397   6.238  1.00  0.00     0.293 HD
ENDBRANCH  16  19
BRANCH  18  21
ATOM     21  O   UNL     1      -6.815  28.726   4.467  1.00  0.00    -0.504 OA
ATOM     22  H   UNL     1      -7.351  28.813   3.615  1.00  0.00     0.293 HD
ENDBRANCH  18  21
ENDBRANCH   3  13
BRANCH  10  23
ATOM     23  O   UNL     1     -12.285  35.973   7.317  1.00  0.00    -0.507 OA
ATOM     24  H   UNL     1     -12.801  35.112   7.401  1.00  0.00     0.293 HD
ENDBRANCH  10  23
BRANCH  11  25
ATOM     25  O   UNL     1      -8.754  38.785   5.677  1.00  0.00    -0.508 OA
ATOM     26  H   UNL     1      -9.369  39.591   5.699  1.00  0.00     0.293 HD
ENDBRANCH  11  25
ENDBRANCH   1   2
BRANCH   1  27
ATOM     27  C   UNL     1     -10.979  30.715   7.443  1.00  0.00     0.339 C 
ATOM     28  C   UNL     1     -10.869  29.390   6.660  1.00  0.00     0.214 C 
ATOM     29  O   UNL     1     -11.670  30.518   8.664  1.00  0.00    -0.332 OA
ATOM     30  C   UNL     1     -10.230  28.266   7.497  1.00  0.00     0.180 C 
ATOM     31  C   UNL     1     -11.000  29.609   9.527  1.00  0.00     0.179 C 
ATOM     32  C   UNL     1     -10.894  28.199   8.887  1.00  0.00     0.177 C 
BRANCH  28  33
ATOM     33  O   UNL     1     -10.224  29.557   5.423  1.00  0.00    -0.384 OA
ATOM     34  H   UNL     1     -10.904  29.824   4.752  1.00  0.00     0.211 HD
ENDBRANCH  28  33
BRANCH  30  35
ATOM     35  O   UNL     1      -8.829  28.388   7.581  1.00  0.00    -0.387 OA
ATOM     36  H   UNL     1      -8.417  27.630   7.097  1.00  0.00     0.211 HD
ENDBRANCH  30  35
BRANCH  31  37
ATOM     37  C   UNL     1     -11.789  29.556  10.845  1.00  0.00     0.191 C 
BRANCH  37  38
ATOM     38  O   UNL     1     -10.974  29.151  11.911  1.00  0.00    -0.394 OA
ATOM     39  H   UNL     1     -10.087  28.933  11.527  1.00  0.00     0.210 HD
ENDBRANCH  37  38
ENDBRANCH  31  37
BRANCH  32  40
ATOM     40  O   UNL     1     -10.144  27.340   9.711  1.00  0.00    -0.387 OA
ATOM     41  H   UNL     1      -9.490  27.898  10.207  1.00  0.00     0.211 HD
ENDBRANCH  32  40
ENDBRANCH   1  27
TORSDOF 12
ENDMDL
MODEL 6
REMARK VINA RESULT:    -5.748     14.797     18.020
REMARK INTER + INTRA:          -9.366
REMARK INTER:                  -7.343
REMARK INTRA:                  -2.023
REMARK UNBOUND:                -0.929
REMARK SMILES O=c1c(O[C@@H]2O[C@@H](CO)[C@H](O)[C@H](O)[C@@H]2O)c(-c2ccc(O)c(O)c2)oc2cc(O)cc(O)c12
REMARK SMILES IDX 4 1 3 2 16 3 25 4 2 5 26 6 1 7 33 8 27 9 31 10 28 11 30 12
REMARK SMILES IDX 17 13 18 14 19 15 20 16 24 17 22 18 21 19 23 21 32 23 29 25
REMARK SMILES IDX 5 27 14 28 6 29 12 30 7 31 10 32 15 33 13 35 8 37 9 38 11 40
REMARK H PARENT 21 20 23 22 32 24 29 26 15 34 13 36 9 39 11 41
REMARK Flexibility Score: inf
ROOT
ATOM      1  O   UNL     1       3.997  44.691   2.343  1.00  0.00    -0.454 OA
ENDROOT
BRANCH   1   2
ATOM      2  C   UNL     1       3.267  44.999   3.498  1.00  0.00     0.214 A 
ATOM      3  C   UNL     1       1.920  44.625   3.622  1.00  0.00     0.180 A 
ATOM      4  O   UNL     1       1.221  45.000   4.685  1.00  0.00    -0.452 OA
ATOM      5  C   UNL     1       3.868  45.716   4.543  1.00  0.00     0.239 A 
ATOM      6  C   UNL     1       1.744  45.687   5.694  1.00  0.00     0.146 A 
ATOM      7  O   UNL     1       5.068  46.075   4.415  1.00  0.00    -0.285 OA
ATOM      8  C   UNL     1       3.118  46.045   5.698  1.00  0.00     0.111 A 
ATOM      9  C   UNL     1       0.911  46.046   6.757  1.00  0.00     0.094 A 
ATOM     10  C   UNL     1       3.639  46.731   6.839  1.00  0.00     0.134 A 
ATOM     11  C   UNL     1       1.418  46.763   7.840  1.00  0.00     0.123 A 
ATOM     12  C   UNL     1       2.773  47.105   7.875  1.00  0.00     0.093 A 
BRANCH   3  13
ATOM     13  C   UNL     1       1.238  43.830   2.589  1.00  0.00     0.025 A 
ATOM     14  C   UNL     1       0.332  44.449   1.722  1.00  0.00     0.016 A 
ATOM     15  C   UNL     1      -0.378  43.691   0.789  1.00  0.00     0.051 A 
ATOM     16  C   UNL     1      -0.209  42.302   0.721  1.00  0.00     0.157 A 
ATOM     17  C   UNL     1       1.410  42.440   2.534  1.00  0.00     0.062 A 
ATOM     18  C   UNL     1       0.691  41.667   1.612  1.00  0.00     0.158 A 
BRANCH  16  19
ATOM     19  O   UNL     1      -0.953  41.601  -0.228  1.00  0.00    -0.504 OA
ATOM     20  H   UNL     1      -1.746  41.018  -0.006  1.00  0.00     0.293 HD
ENDBRANCH  16  19
BRANCH  18  21
ATOM     21  O   UNL     1       0.894  40.286   1.620  1.00  0.00    -0.504 OA
ATOM     22  H   UNL     1       0.186  39.610   1.373  1.00  0.00     0.293 HD
ENDBRANCH  18  21
ENDBRANCH   3  13
BRANCH  10  23
ATOM     23  O   UNL     1       4.990  47.046   7.013  1.00  0.00    -0.507 OA
ATOM     24  H   UNL     1       5.556  47.538   6.340  1.00  0.00     0.293 HD
ENDBRANCH  10  23
BRANCH  11  25
ATOM     25  O   UNL     1       0.566  47.124   8.881  1.00  0.00    -0.508 OA
ATOM     26  H   UNL     1       0.925  47.417   9.783  1.00  0.00     0.293 HD
ENDBRANCH  11  25
ENDBRANCH   1   2
BRANCH   1  27
ATOM     27  C   UNL     1       4.094  45.608   1.247  1.00  0.00     0.339 C 
ATOM     28  C   UNL     1       5.539  45.770   0.733  1.00  0.00     0.214 C 
ATOM     29  O   UNL     1       3.227  45.232   0.191  1.00  0.00    -0.332 OA
ATOM     30  C   UNL     1       6.047  44.510   0.006  1.00  0.00     0.180 C 
ATOM     31  C   UNL     1       3.581  43.979  -0.381  1.00  0.00     0.179 C 
ATOM     32  C   UNL     1       4.997  44.029  -1.014  1.00  0.00     0.177 C 
BRANCH  28  33
ATOM     33  O   UNL     1       6.419  46.184   1.748  1.00  0.00    -0.384 OA
ATOM     34  H   UNL     1       6.373  47.172   1.815  1.00  0.00     0.211 HD
ENDBRANCH  28  33
BRANCH  30  35
ATOM     35  O   UNL     1       6.428  43.490   0.901  1.00  0.00    -0.387 OA
ATOM     36  H   UNL     1       5.832  42.713   0.763  1.00  0.00     0.211 HD
ENDBRANCH  30  35
BRANCH  31  37
ATOM     37  C   UNL     1       2.517  43.638  -1.438  1.00  0.00     0.191 C 
BRANCH  37  38
ATOM     38  O   UNL     1       2.518  42.269  -1.737  1.00  0.00    -0.394 OA
ATOM     39  H   UNL     1       3.179  41.843  -1.135  1.00  0.00     0.210 HD
ENDBRANCH  37  38
ENDBRANCH  31  37
BRANCH  32  40
ATOM     40  O   UNL     1       5.368  42.758  -1.488  1.00  0.00    -0.387 OA
ATOM     41  H   UNL     1       4.656  42.120  -1.221  1.00  0.00     0.211 HD
ENDBRANCH  32  40
ENDBRANCH   1  27
TORSDOF 12
ENDMDL
MODEL 7
REMARK VINA RESULT:    -5.673     16.198     18.893
REMARK INTER + INTRA:          -9.255
REMARK INTER:                  -8.044
REMARK INTRA:                  -1.211
REMARK UNBOUND:                -0.929
REMARK SMILES O=c1c(O[C@@H]2O[C@@H](CO)[C@H](O)[C@H](O)[C@@H]2O)c(-c2ccc(O)c(O)c2)oc2cc(O)cc(O)c12
REMARK SMILES IDX 4 1 3 2 16 3 25 4 2 5 26 6 1 7 33 8 27 9 31 10 28 11 30 12
REMARK SMILES IDX 17 13 18 14 19 15 20 16 24 17 22 18 21 19 23 21 32 23 29 25
REMARK SMILES IDX 5 27 14 28 6 29 12 30 7 31 10 32 15 33 13 35 8 37 9 38 11 40
REMARK H PARENT 21 20 23 22 32 24 29 26 15 34 13 36 9 39 11 41
REMARK Flexibility Score: inf
ROOT
ATOM      1  O   UNL     1       2.142  44.837   1.934  1.00  0.00    -0.454 OA
ENDROOT
BRANCH   1   2
ATOM      2  C   UNL     1       2.904  43.977   1.130  1.00  0.00     0.214 A 
ATOM      3  C   UNL     1       2.391  43.472  -0.074  1.00  0.00     0.180 A 
ATOM      4  O   UNL     1       3.092  42.593  -0.777  1.00  0.00    -0.452 OA
ATOM      5  C   UNL     1       4.188  43.585   1.536  1.00  0.00     0.239 A 
ATOM      6  C   UNL     1       4.307  42.185  -0.430  1.00  0.00     0.146 A 
ATOM      7  O   UNL     1       4.632  44.019   2.631  1.00  0.00    -0.285 OA
ATOM      8  C   UNL     1       4.944  42.698   0.732  1.00  0.00     0.111 A 
ATOM      9  C   UNL     1       4.948  41.240  -1.235  1.00  0.00     0.094 A 
ATOM     10  C   UNL     1       6.275  42.268   1.023  1.00  0.00     0.134 A 
ATOM     11  C   UNL     1       6.226  40.787  -0.911  1.00  0.00     0.123 A 
ATOM     12  C   UNL     1       6.880  41.298   0.214  1.00  0.00     0.093 A 
BRANCH   3  13
ATOM     13  C   UNL     1       1.073  43.878  -0.587  1.00  0.00     0.025 A 
ATOM     14  C   UNL     1      -0.069  43.167  -0.203  1.00  0.00     0.016 A 
ATOM     15  C   UNL     1      -1.314  43.495  -0.743  1.00  0.00     0.051 A 
ATOM     16  C   UNL     1      -1.434  44.523  -1.687  1.00  0.00     0.157 A 
ATOM     17  C   UNL     1       0.966  44.904  -1.535  1.00  0.00     0.062 A 
ATOM     18  C   UNL     1      -0.277  45.231  -2.095  1.00  0.00     0.158 A 
BRANCH  16  19
ATOM     19  O   UNL     1      -2.705  44.797  -2.194  1.00  0.00    -0.504 OA
ATOM     20  H   UNL     1      -2.879  45.137  -3.127  1.00  0.00     0.293 HD
ENDBRANCH  16  19
BRANCH  18  21
ATOM     21  O   UNL     1      -0.315  46.251  -3.047  1.00  0.00    -0.504 OA
ATOM     22  H   UNL     1       0.362  46.355  -3.789  1.00  0.00     0.293 HD
ENDBRANCH  18  21
ENDBRANCH   3  13
BRANCH  10  23
ATOM     23  O   UNL     1       7.049  42.774   2.072  1.00  0.00    -0.507 OA
ATOM     24  H   UNL     1       6.678  43.227   2.892  1.00  0.00     0.293 HD
ENDBRANCH  10  23
BRANCH  11  25
ATOM     25  O   UNL     1       6.840  39.834  -1.720  1.00  0.00    -0.508 OA
ATOM     26  H   UNL     1       6.789  39.885  -2.732  1.00  0.00     0.293 HD
ENDBRANCH  11  25
ENDBRANCH   1   2
BRANCH   1  27
ATOM     27  C   UNL     1       2.383  46.249   1.962  1.00  0.00     0.339 C 
ATOM     28  C   UNL     1       1.087  47.069   2.124  1.00  0.00     0.214 C 
ATOM     29  O   UNL     1       3.316  46.584   2.975  1.00  0.00    -0.332 OA
ATOM     30  C   UNL     1       0.473  46.926   3.529  1.00  0.00     0.180 C 
ATOM     31  C   UNL     1       2.830  46.295   4.279  1.00  0.00     0.179 C 
ATOM     32  C   UNL     1       1.560  47.125   4.604  1.00  0.00     0.177 C 
BRANCH  28  33
ATOM     33  O   UNL     1       0.154  46.791   1.110  1.00  0.00    -0.384 OA
ATOM     34  H   UNL     1      -0.499  46.133   1.462  1.00  0.00     0.211 HD
ENDBRANCH  28  33
BRANCH  30  35
ATOM     35  O   UNL     1      -0.220  45.709   3.691  1.00  0.00    -0.387 OA
ATOM     36  H   UNL     1      -1.168  45.911   3.886  1.00  0.00     0.211 HD
ENDBRANCH  30  35
BRANCH  31  37
ATOM     37  C   UNL     1       3.961  46.607   5.273  1.00  0.00     0.191 C 
BRANCH  37  38
ATOM     38  O   UNL     1       3.717  46.020   6.522  1.00  0.00    -0.394 OA
ATOM     39  H   UNL     1       3.245  46.696   7.071  1.00  0.00     0.210 HD
ENDBRANCH  37  38
ENDBRANCH  31  37
BRANCH  32  40
ATOM     40  O   UNL     1       1.038  46.755   5.857  1.00  0.00    -0.387 OA
ATOM     41  H   UNL     1       0.048  46.784   5.788  1.00  0.00     0.211 HD
ENDBRANCH  32  40
ENDBRANCH   1  27
TORSDOF 12
ENDMDL
MODEL 8
REMARK VINA RESULT:    -5.479     15.467     18.513
REMARK INTER + INTRA:          -8.971
REMARK INTER:                  -7.348
REMARK INTRA:                  -1.622
REMARK UNBOUND:                -0.929
REMARK SMILES O=c1c(O[C@@H]2O[C@@H](CO)[C@H](O)[C@H](O)[C@@H]2O)c(-c2ccc(O)c(O)c2)oc2cc(O)cc(O)c12
REMARK SMILES IDX 4 1 3 2 16 3 25 4 2 5 26 6 1 7 33 8 27 9 31 10 28 11 30 12
REMARK SMILES IDX 17 13 18 14 19 15 20 16 24 17 22 18 21 19 23 21 32 23 29 25
REMARK SMILES IDX 5 27 14 28 6 29 12 30 7 31 10 32 15 33 13 35 8 37 9 38 11 40
REMARK H PARENT 21 20 23 22 32 24 29 26 15 34 13 36 9 39 11 41
REMARK Flexibility Score: inf
ROOT
ATOM      1  O   UNL     1       1.655  44.378   1.428  1.00  0.00    -0.454 OA
ENDROOT
BRANCH   1   2
ATOM      2  C   UNL     1       1.979  44.984   2.650  1.00  0.00     0.214 A 
ATOM      3  C   UNL     1       3.201  45.652   2.822  1.00  0.00     0.180 A 
ATOM      4  O   UNL     1       3.527  46.145   4.009  1.00  0.00    -0.452 OA
ATOM      5  C   UNL     1       1.092  44.906   3.733  1.00  0.00     0.239 A 
ATOM      6  C   UNL     1       2.725  46.088   5.066  1.00  0.00     0.146 A 
ATOM      7  O   UNL     1       0.010  44.281   3.582  1.00  0.00    -0.285 OA
ATOM      8  C   UNL     1       1.435  45.501   4.972  1.00  0.00     0.111 A 
ATOM      9  C   UNL     1       3.178  46.623   6.275  1.00  0.00     0.094 A 
ATOM     10  C   UNL     1       0.593  45.522   6.126  1.00  0.00     0.134 A 
ATOM     11  C   UNL     1       2.367  46.590   7.409  1.00  0.00     0.123 A 
ATOM     12  C   UNL     1       1.085  46.038   7.331  1.00  0.00     0.093 A 
BRANCH   3  13
ATOM     13  C   UNL     1       4.158  45.816   1.717  1.00  0.00     0.025 A 
ATOM     14  C   UNL     1       3.940  46.805   0.751  1.00  0.00     0.016 A 
ATOM     15  C   UNL     1       4.799  46.920  -0.343  1.00  0.00     0.051 A 
ATOM     16  C   UNL     1       5.876  46.038  -0.500  1.00  0.00     0.157 A 
ATOM     17  C   UNL     1       5.229  44.924   1.566  1.00  0.00     0.062 A 
ATOM     18  C   UNL     1       6.088  45.021   0.462  1.00  0.00     0.158 A 
BRANCH  16  19
ATOM     19  O   UNL     1       6.693  46.202  -1.619  1.00  0.00    -0.504 OA
ATOM     20  H   UNL     1       6.400  46.009  -2.565  1.00  0.00     0.293 HD
ENDBRANCH  16  19
BRANCH  18  21
ATOM     21  O   UNL     1       7.125  44.092   0.360  1.00  0.00    -0.504 OA
ATOM     22  H   UNL     1       8.079  44.334   0.134  1.00  0.00     0.293 HD
ENDBRANCH  18  21
ENDBRANCH   3  13
BRANCH  10  23
ATOM     23  O   UNL     1      -0.732  45.074   6.136  1.00  0.00    -0.507 OA
ATOM     24  H   UNL     1      -1.501  45.546   5.688  1.00  0.00     0.293 HD
ENDBRANCH  10  23
BRANCH  11  25
ATOM     25  O   UNL     1       2.845  47.115   8.607  1.00  0.00    -0.508 OA
ATOM     26  H   UNL     1       2.659  46.663   9.496  1.00  0.00     0.293 HD
ENDBRANCH  11  25
ENDBRANCH   1   2
BRANCH   1  27
ATOM     27  C   UNL     1       1.653  42.954   1.273  1.00  0.00     0.339 C 
ATOM     28  C   UNL     1       0.448  42.447   0.454  1.00  0.00     0.214 C 
ATOM     29  O   UNL     1       2.870  42.503   0.703  1.00  0.00    -0.332 OA
ATOM     30  C   UNL     1       0.551  42.827  -1.036  1.00  0.00     0.180 C 
ATOM     31  C   UNL     1       3.063  42.990  -0.619  1.00  0.00     0.179 C 
ATOM     32  C   UNL     1       1.952  42.481  -1.575  1.00  0.00     0.177 C 
BRANCH  28  33
ATOM     33  O   UNL     1      -0.778  42.842   1.016  1.00  0.00    -0.384 OA
ATOM     34  H   UNL     1      -1.157  42.069   1.507  1.00  0.00     0.211 HD
ENDBRANCH  28  33
BRANCH  30  35
ATOM     35  O   UNL     1       0.206  44.173  -1.271  1.00  0.00    -0.387 OA
ATOM     36  H   UNL     1      -0.419  44.209  -2.038  1.00  0.00     0.211 HD
ENDBRANCH  30  35
BRANCH  31  37
ATOM     37  C   UNL     1       4.450  42.518  -1.086  1.00  0.00     0.191 C 
BRANCH  37  38
ATOM     38  O   UNL     1       4.361  41.330  -1.825  1.00  0.00    -0.394 OA
ATOM     39  H   UNL     1       4.091  40.618  -1.192  1.00  0.00     0.210 HD
ENDBRANCH  37  38
ENDBRANCH  31  37
BRANCH  32  40
ATOM     40  O   UNL     1       2.105  43.050  -2.853  1.00  0.00    -0.387 OA
ATOM     41  H   UNL     1       1.238  43.466  -3.100  1.00  0.00     0.211 HD
ENDBRANCH  32  40
ENDBRANCH   1  27
TORSDOF 12
ENDMDL
MODEL 9
REMARK VINA RESULT:    -5.398      1.277      2.471
REMARK INTER + INTRA:          -8.852
REMARK INTER:                  -7.535
REMARK INTRA:                  -1.316
REMARK UNBOUND:                -0.929
REMARK SMILES O=c1c(O[C@@H]2O[C@@H](CO)[C@H](O)[C@H](O)[C@@H]2O)c(-c2ccc(O)c(O)c2)oc2cc(O)cc(O)c12
REMARK SMILES IDX 4 1 3 2 16 3 25 4 2 5 26 6 1 7 33 8 27 9 31 10 28 11 30 12
REMARK SMILES IDX 17 13 18 14 19 15 20 16 24 17 22 18 21 19 23 21 32 23 29 25
REMARK SMILES IDX 5 27 14 28 6 29 12 30 7 31 10 32 15 33 13 35 8 37 9 38 11 40
REMARK H PARENT 21 20 23 22 32 24 29 26 15 34 13 36 9 39 11 41
REMARK Flexibility Score: inf
ROOT
ATOM      1  O   UNL     1      -8.633  33.567   6.892  1.00  0.00    -0.454 OA
ENDROOT
BRANCH   1   2
ATOM      2  C   UNL     1      -9.500  34.631   7.178  1.00  0.00     0.214 A 
ATOM      3  C   UNL     1     -10.632  34.442   7.985  1.00  0.00     0.180 A 
ATOM      4  O   UNL     1     -11.486  35.438   8.175  1.00  0.00    -0.452 OA
ATOM      5  C   UNL     1      -9.261  35.901   6.633  1.00  0.00     0.239 A 
ATOM      6  C   UNL     1     -11.308  36.655   7.674  1.00  0.00     0.146 A 
ATOM      7  O   UNL     1      -8.261  36.058   5.885  1.00  0.00    -0.285 OA
ATOM      8  C   UNL     1     -10.153  36.967   6.907  1.00  0.00     0.111 A 
ATOM      9  C   UNL     1     -12.282  37.626   7.920  1.00  0.00     0.094 A 
ATOM     10  C   UNL     1      -9.986  38.308   6.444  1.00  0.00     0.134 A 
ATOM     11  C   UNL     1     -12.134  38.918   7.417  1.00  0.00     0.123 A 
ATOM     12  C   UNL     1     -10.993  39.252   6.681  1.00  0.00     0.093 A 
BRANCH   3  13
ATOM     13  C   UNL     1     -10.918  33.151   8.630  1.00  0.00     0.025 A 
ATOM     14  C   UNL     1     -11.488  32.114   7.884  1.00  0.00     0.016 A 
ATOM     15  C   UNL     1     -11.835  30.912   8.503  1.00  0.00     0.051 A 
ATOM     16  C   UNL     1     -11.635  30.734   9.879  1.00  0.00     0.157 A 
ATOM     17  C   UNL     1     -10.720  32.986  10.008  1.00  0.00     0.062 A 
ATOM     18  C   UNL     1     -11.079  31.789  10.642  1.00  0.00     0.158 A 
BRANCH  16  19
ATOM     19  O   UNL     1     -12.009  29.512  10.438  1.00  0.00    -0.504 OA
ATOM     20  H   UNL     1     -12.611  28.843   9.982  1.00  0.00     0.293 HD
ENDBRANCH  16  19
BRANCH  18  21
ATOM     21  O   UNL     1     -10.872  31.694  12.020  1.00  0.00    -0.504 OA
ATOM     22  H   UNL     1     -11.365  31.049  12.621  1.00  0.00     0.293 HD
ENDBRANCH  18  21
ENDBRANCH   3  13
BRANCH  10  23
ATOM     23  O   UNL     1      -8.849  38.767   5.772  1.00  0.00    -0.507 OA
ATOM     24  H   UNL     1      -8.863  39.353   4.953  1.00  0.00     0.293 HD
ENDBRANCH  10  23
BRANCH  11  25
ATOM     25  O   UNL     1     -13.125  39.866   7.663  1.00  0.00    -0.508 OA
ATOM     26  H   UNL     1     -13.180  40.727   7.129  1.00  0.00     0.293 HD
ENDBRANCH  11  25
ENDBRANCH   1   2
BRANCH   1  27
ATOM     27  C   UNL     1      -8.273  33.232   5.547  1.00  0.00     0.339 C 
ATOM     28  C   UNL     1      -6.756  33.009   5.376  1.00  0.00     0.214 C 
ATOM     29  O   UNL     1      -8.998  32.102   5.093  1.00  0.00    -0.332 OA
ATOM     30  C   UNL     1      -6.273  31.715   6.058  1.00  0.00     0.180 C 
ATOM     31  C   UNL     1      -8.690  30.927   5.832  1.00  0.00     0.179 C 
ATOM     32  C   UNL     1      -7.195  30.540   5.677  1.00  0.00     0.177 C 
BRANCH  28  33
ATOM     33  O   UNL     1      -6.008  34.128   5.778  1.00  0.00    -0.384 OA
ATOM     34  H   UNL     1      -6.331  34.916   5.271  1.00  0.00     0.211 HD
ENDBRANCH  28  33
BRANCH  30  35
ATOM     35  O   UNL     1      -6.144  31.860   7.454  1.00  0.00    -0.387 OA
ATOM     36  H   UNL     1      -6.894  32.413   7.784  1.00  0.00     0.211 HD
ENDBRANCH  30  35
BRANCH  31  37
ATOM     37  C   UNL     1      -9.605  29.804   5.314  1.00  0.00     0.191 C 
BRANCH  37  38
ATOM     38  O   UNL     1      -9.022  29.131   4.232  1.00  0.00    -0.394 OA
ATOM     39  H   UNL     1      -9.036  28.165   4.453  1.00  0.00     0.210 HD
ENDBRANCH  37  38
ENDBRANCH  31  37
BRANCH  32  40
ATOM     40  O   UNL     1      -6.887  29.434   6.490  1.00  0.00    -0.387 OA
ATOM     41  H   UNL     1      -5.977  29.578   6.858  1.00  0.00     0.211 HD
ENDBRANCH  32  40
ENDBRANCH   1  27
TORSDOF 12
ENDMDL
