MODEL 1
REMARK VINA RESULT:    -0.247      0.000      0.000
REMARK INTER + INTRA:          -2.502
REMARK INTER:                  -0.565
REMARK INTRA:                  -1.936
REMARK UNBOUND:                -1.936
REMARK SMILES CCCCCCCCCCCCCCCCCCCCCCCC(=O)[O-]
REMARK SMILES IDX 13 1 14 2 15 3 16 4 17 5 18 6 19 7 20 8 21 9 22 10 23 11
REMARK SMILES IDX 24 12 25 13 26 14 12 15 11 16 10 17 9 18 8 19 7 20 6 21 5 22
REMARK SMILES IDX 4 23 3 24 2 25 1 26
REMARK H PARENT
REMARK Flexibility Score: inf
ROOT
ATOM      1  C   UNL     1      -5.739  39.366  20.581  1.00  0.00     0.000 C 
ENDROOT
BRANCH   1   2
ATOM      2  C   UNL     1      -5.522  37.913  21.038  1.00  0.00     0.000 C 
BRANCH   2   3
ATOM      3  C   UNL     1      -5.721  36.845  19.946  1.00  0.00     0.000 C 
BRANCH   3   4
ATOM      4  C   UNL     1      -4.452  36.557  19.115  1.00  0.00     0.000 C 
BRANCH   4   5
ATOM      5  C   UNL     1      -4.568  35.266  18.285  1.00  0.00     0.000 C 
BRANCH   5   6
ATOM      6  C   UNL     1      -3.571  35.241  17.114  1.00  0.00     0.000 C 
BRANCH   6   7
ATOM      7  C   UNL     1      -3.660  36.512  16.251  1.00  0.00     0.000 C 
BRANCH   7   8
ATOM      8  C   UNL     1      -2.375  36.770  15.445  1.00  0.00     0.000 C 
BRANCH   8   9
ATOM      9  C   UNL     1      -1.190  37.152  16.345  1.00  0.00     0.000 C 
BRANCH   9  10
ATOM     10  C   UNL     1      -1.627  38.115  17.457  1.00  0.00     0.006 C 
BRANCH  10  11
ATOM     11  C   UNL     1      -0.508  38.309  18.486  1.00  0.00     0.053 C 
BRANCH  11  12
ATOM     12  C   UNL     1      -0.998  37.991  19.864  1.00  0.00     0.041 C 
ATOM     13  O   UNL     1      -2.201  38.204  20.173  1.00  0.00    -0.550 OA
ATOM     14  O   UNL     1      -0.118  37.500  20.820  1.00  0.00    -0.550 OA
ENDBRANCH  11  12
ENDBRANCH  10  11
ENDBRANCH   9  10
ENDBRANCH   8   9
ENDBRANCH   7   8
ENDBRANCH   6   7
ENDBRANCH   5   6
ENDBRANCH   4   5
ENDBRANCH   3   4
ENDBRANCH   2   3
ENDBRANCH   1   2
BRANCH   1  15
ATOM     15  C   UNL     1      -5.014  40.381  21.481  1.00  0.00     0.000 C 
BRANCH  15  16
ATOM     16  C   UNL     1      -5.972  41.339  22.214  1.00  0.00     0.000 C 
BRANCH  16  17
ATOM     17  C   UNL     1      -5.763  41.446  23.737  1.00  0.00     0.000 C 
BRANCH  17  18
ATOM     18  C   UNL     1      -4.952  40.276  24.323  1.00  0.00    -0.000 C 
BRANCH  18  19
ATOM     19  C   UNL     1      -5.805  39.007  24.507  1.00  0.00    -0.000 C 
BRANCH  19  20
ATOM     20  C   UNL     1      -5.096  37.890  25.295  1.00  0.00    -0.000 C 
BRANCH  20  21
ATOM     21  C   UNL     1      -6.085  36.855  25.863  1.00  0.00    -0.000 C 
BRANCH  21  22
ATOM     22  C   UNL     1      -5.995  35.497  25.149  1.00  0.00    -0.000 C 
BRANCH  22  23
ATOM     23  C   UNL     1      -6.125  35.623  23.622  1.00  0.00    -0.000 C 
BRANCH  23  24
ATOM     24  C   UNL     1      -5.133  34.724  22.862  1.00  0.00    -0.000 C 
BRANCH  24  25
ATOM     25  C   UNL     1      -3.870  35.442  22.357  1.00  0.00    -0.003 C 
ATOM     26  C   UNL     1      -2.838  34.487  21.760  1.00  0.00     0.004 C 
ENDBRANCH  24  25
ENDBRANCH  23  24
ENDBRANCH  22  23
ENDBRANCH  21  22
ENDBRANCH  20  21
ENDBRANCH  19  20
ENDBRANCH  18  19
ENDBRANCH  17  18
ENDBRANCH  16  17
ENDBRANCH  15  16
ENDBRANCH   1  15
TORSDOF 22
ENDMDL
MODEL 2
REMARK VINA RESULT:    -0.075      0.972      3.615
REMARK INTER + INTRA:          -2.108
REMARK INTER:                  -0.718
REMARK INTRA:                  -1.391
REMARK UNBOUND:                -1.936
REMARK SMILES CCCCCCCCCCCCCCCCCCCCCCCC(=O)[O-]
REMARK SMILES IDX 13 1 14 2 15 3 16 4 17 5 18 6 19 7 20 8 21 9 22 10 23 11
REMARK SMILES IDX 24 12 25 13 26 14 12 15 11 16 10 17 9 18 8 19 7 20 6 21 5 22
REMARK SMILES IDX 4 23 3 24 2 25 1 26
REMARK H PARENT
REMARK Flexibility Score: inf
ROOT
ATOM      1  C   UNL     1      -3.888  36.277  21.815  1.00  0.00     0.000 C 
ENDROOT
BRANCH   1   2
ATOM      2  C   UNL     1      -3.779  36.203  20.283  1.00  0.00     0.000 C 
BRANCH   2   3
ATOM      3  C   UNL     1      -4.978  36.786  19.512  1.00  0.00     0.000 C 
BRANCH   3   4
ATOM      4  C   UNL     1      -5.616  35.801  18.509  1.00  0.00     0.000 C 
BRANCH   4   5
ATOM      5  C   UNL     1      -4.775  34.526  18.316  1.00  0.00     0.000 C 
BRANCH   5   6
ATOM      6  C   UNL     1      -3.689  34.707  17.243  1.00  0.00     0.000 C 
BRANCH   6   7
ATOM      7  C   UNL     1      -3.609  36.159  16.738  1.00  0.00     0.000 C 
BRANCH   7   8
ATOM      8  C   UNL     1      -2.282  36.465  16.024  1.00  0.00     0.000 C 
BRANCH   8   9
ATOM      9  C   UNL     1      -1.563  37.682  16.626  1.00  0.00     0.000 C 
BRANCH   9  10
ATOM     10  C   UNL     1      -2.416  38.346  17.714  1.00  0.00     0.006 C 
BRANCH  10  11
ATOM     11  C   UNL     1      -1.533  38.954  18.809  1.00  0.00     0.053 C 
BRANCH  11  12
ATOM     12  C   UNL     1      -0.487  37.978  19.246  1.00  0.00     0.041 C 
ATOM     13  O   UNL     1       0.385  37.575  18.431  1.00  0.00    -0.550 OA
ATOM     14  O   UNL     1      -0.500  37.478  20.542  1.00  0.00    -0.550 OA
ENDBRANCH  11  12
ENDBRANCH  10  11
ENDBRANCH   9  10
ENDBRANCH   8   9
ENDBRANCH   7   8
ENDBRANCH   6   7
ENDBRANCH   5   6
ENDBRANCH   4   5
ENDBRANCH   3   4
ENDBRANCH   2   3
ENDBRANCH   1   2
BRANCH   1  15
ATOM     15  C   UNL     1      -5.344  36.208  22.306  1.00  0.00     0.000 C 
BRANCH  15  16
ATOM     16  C   UNL     1      -5.683  34.890  23.027  1.00  0.00     0.000 C 
BRANCH  16  17
ATOM     17  C   UNL     1      -6.106  35.033  24.503  1.00  0.00     0.000 C 
BRANCH  17  18
ATOM     18  C   UNL     1      -6.125  36.493  24.990  1.00  0.00    -0.000 C 
BRANCH  18  19
ATOM     19  C   UNL     1      -4.894  36.838  25.850  1.00  0.00    -0.000 C 
BRANCH  19  20
ATOM     20  C   UNL     1      -4.511  38.329  25.816  1.00  0.00    -0.000 C 
BRANCH  20  21
ATOM     21  C   UNL     1      -5.430  39.149  24.890  1.00  0.00    -0.000 C 
BRANCH  21  22
ATOM     22  C   UNL     1      -4.772  40.451  24.407  1.00  0.00    -0.000 C 
BRANCH  22  23
ATOM     23  C   UNL     1      -5.783  41.425  23.779  1.00  0.00    -0.000 C 
BRANCH  23  24
ATOM     24  C   UNL     1      -5.857  41.304  22.247  1.00  0.00    -0.000 C 
BRANCH  24  25
ATOM     25  C   UNL     1      -5.789  39.863  21.711  1.00  0.00    -0.003 C 
ATOM     26  C   UNL     1      -5.686  39.796  20.188  1.00  0.00     0.004 C 
ENDBRANCH  24  25
ENDBRANCH  23  24
ENDBRANCH  22  23
ENDBRANCH  21  22
ENDBRANCH  20  21
ENDBRANCH  19  20
ENDBRANCH  18  19
ENDBRANCH  17  18
ENDBRANCH  16  17
ENDBRANCH  15  16
ENDBRANCH   1  15
TORSDOF 22
ENDMDL
MODEL 3
REMARK VINA RESULT:     0.054      2.123      4.354
REMARK INTER + INTRA:          -1.813
REMARK INTER:                  -0.971
REMARK INTRA:                  -0.843
REMARK UNBOUND:                -1.936
REMARK SMILES CCCCCCCCCCCCCCCCCCCCCCCC(=O)[O-]
REMARK SMILES IDX 13 1 14 2 15 3 16 4 17 5 18 6 19 7 20 8 21 9 22 10 23 11
REMARK SMILES IDX 24 12 25 13 26 14 12 15 11 16 10 17 9 18 8 19 7 20 6 21 5 22
REMARK SMILES IDX 4 23 3 24 2 25 1 26
REMARK H PARENT
REMARK Flexibility Score: inf
ROOT
ATOM      1  C   UNL     1      -6.090  36.098  24.976  1.00  0.00     0.000 C 
ENDROOT
BRANCH   1   2
ATOM      2  C   UNL     1      -6.124  34.837  24.096  1.00  0.00     0.000 C 
BRANCH   2   3
ATOM      3  C   UNL     1      -6.052  35.094  22.579  1.00  0.00     0.000 C 
BRANCH   3   4
ATOM      4  C   UNL     1      -4.623  35.353  22.056  1.00  0.00     0.000 C 
BRANCH   4   5
ATOM      5  C   UNL     1      -4.482  35.067  20.550  1.00  0.00     0.000 C 
BRANCH   5   6
ATOM      6  C   UNL     1      -5.587  35.751  19.727  1.00  0.00     0.000 C 
BRANCH   6   7
ATOM      7  C   UNL     1      -5.380  35.568  18.214  1.00  0.00     0.000 C 
BRANCH   7   8
ATOM      8  C   UNL     1      -3.971  35.058  17.866  1.00  0.00     0.000 C 
BRANCH   8   9
ATOM      9  C   UNL     1      -3.308  35.887  16.756  1.00  0.00     0.000 C 
BRANCH   9  10
ATOM     10  C   UNL     1      -3.609  37.382  16.928  1.00  0.00     0.006 C 
BRANCH  10  11
ATOM     11  C   UNL     1      -3.093  38.187  15.730  1.00  0.00     0.053 C 
BRANCH  11  12
ATOM     12  C   UNL     1      -2.999  37.320  14.514  1.00  0.00     0.041 C 
ATOM     13  O   UNL     1      -4.043  36.960  13.909  1.00  0.00    -0.550 OA
ATOM     14  O   UNL     1      -1.759  36.873  14.073  1.00  0.00    -0.550 OA
ENDBRANCH  11  12
ENDBRANCH  10  11
ENDBRANCH   9  10
ENDBRANCH   8   9
ENDBRANCH   7   8
ENDBRANCH   6   7
ENDBRANCH   5   6
ENDBRANCH   4   5
ENDBRANCH   3   4
ENDBRANCH   2   3
ENDBRANCH   1   2
BRANCH   1  15
ATOM     15  C   UNL     1      -5.801  37.374  24.166  1.00  0.00     0.000 C 
BRANCH  15  16
ATOM     16  C   UNL     1      -5.192  38.508  25.012  1.00  0.00     0.000 C 
BRANCH  16  17
ATOM     17  C   UNL     1      -4.772  39.766  24.226  1.00  0.00     0.000 C 
BRANCH  17  18
ATOM     18  C   UNL     1      -5.784  40.920  24.341  1.00  0.00    -0.000 C 
BRANCH  18  19
ATOM     19  C   UNL     1      -6.125  41.537  22.971  1.00  0.00    -0.000 C 
BRANCH  19  20
ATOM     20  C   UNL     1      -5.168  41.110  21.843  1.00  0.00    -0.000 C 
BRANCH  20  21
ATOM     21  C   UNL     1      -5.718  39.926  21.025  1.00  0.00    -0.000 C 
BRANCH  21  22
ATOM     22  C   UNL     1      -4.763  38.722  21.011  1.00  0.00    -0.000 C 
BRANCH  22  23
ATOM     23  C   UNL     1      -4.028  38.567  19.670  1.00  0.00    -0.000 C 
BRANCH  23  24
ATOM     24  C   UNL     1      -2.706  37.788  19.800  1.00  0.00    -0.000 C 
BRANCH  24  25
ATOM     25  C   UNL     1      -1.437  38.648  19.667  1.00  0.00    -0.003 C 
ATOM     26  C   UNL     1      -0.445  38.094  18.646  1.00  0.00     0.004 C 
ENDBRANCH  24  25
ENDBRANCH  23  24
ENDBRANCH  22  23
ENDBRANCH  21  22
ENDBRANCH  20  21
ENDBRANCH  19  20
ENDBRANCH  18  19
ENDBRANCH  17  18
ENDBRANCH  16  17
ENDBRANCH  15  16
ENDBRANCH   1  15
TORSDOF 22
ENDMDL
MODEL 4
REMARK VINA RESULT:     0.088      1.754      7.560
REMARK INTER + INTRA:          -1.735
REMARK INTER:                  -0.072
REMARK INTRA:                  -1.663
REMARK UNBOUND:                -1.936
REMARK SMILES CCCCCCCCCCCCCCCCCCCCCCCC(=O)[O-]
REMARK SMILES IDX 13 1 14 2 15 3 16 4 17 5 18 6 19 7 20 8 21 9 22 10 23 11
REMARK SMILES IDX 24 12 25 13 26 14 12 15 11 16 10 17 9 18 8 19 7 20 6 21 5 22
REMARK SMILES IDX 4 23 3 24 2 25 1 26
REMARK H PARENT
REMARK Flexibility Score: inf
ROOT
ATOM      1  C   UNL     1      -4.746  35.142  22.255  1.00  0.00     0.000 C 
ENDROOT
BRANCH   1   2
ATOM      2  C   UNL     1      -5.913  34.567  23.074  1.00  0.00     0.000 C 
BRANCH   2   3
ATOM      3  C   UNL     1      -6.038  35.110  24.510  1.00  0.00     0.000 C 
BRANCH   3   4
ATOM      4  C   UNL     1      -6.069  36.651  24.595  1.00  0.00     0.000 C 
BRANCH   4   5
ATOM      5  C   UNL     1      -5.450  37.185  25.899  1.00  0.00     0.000 C 
BRANCH   5   6
ATOM      6  C   UNL     1      -4.402  38.279  25.635  1.00  0.00     0.000 C 
BRANCH   6   7
ATOM      7  C   UNL     1      -5.020  39.688  25.635  1.00  0.00     0.000 C 
BRANCH   7   8
ATOM      8  C   UNL     1      -4.658  40.493  24.376  1.00  0.00     0.000 C 
BRANCH   8   9
ATOM      9  C   UNL     1      -5.762  41.487  23.983  1.00  0.00     0.000 C 
BRANCH   9  10
ATOM     10  C   UNL     1      -6.112  41.365  22.494  1.00  0.00     0.006 C 
BRANCH  10  11
ATOM     11  C   UNL     1      -5.625  40.028  21.923  1.00  0.00     0.053 C 
BRANCH  11  12
ATOM     12  C   UNL     1      -5.773  40.006  20.435  1.00  0.00     0.041 C 
ATOM     13  O   UNL     1      -6.102  41.052  19.815  1.00  0.00    -0.550 OA
ATOM     14  O   UNL     1      -5.589  38.820  19.735  1.00  0.00    -0.550 OA
ENDBRANCH  11  12
ENDBRANCH  10  11
ENDBRANCH   9  10
ENDBRANCH   8   9
ENDBRANCH   7   8
ENDBRANCH   6   7
ENDBRANCH   5   6
ENDBRANCH   4   5
ENDBRANCH   3   4
ENDBRANCH   2   3
ENDBRANCH   1   2
BRANCH   1  15
ATOM     15  C   UNL     1      -5.060  35.211  20.751  1.00  0.00     0.000 C 
BRANCH  15  16
ATOM     16  C   UNL     1      -4.117  36.148  19.973  1.00  0.00     0.000 C 
BRANCH  16  17
ATOM     17  C   UNL     1      -3.080  36.902  20.829  1.00  0.00     0.000 C 
BRANCH  17  18
ATOM     18  C   UNL     1      -2.579  38.201  20.172  1.00  0.00    -0.000 C 
BRANCH  18  19
ATOM     19  C   UNL     1      -2.596  38.122  18.634  1.00  0.00    -0.000 C 
BRANCH  19  20
ATOM     20  C   UNL     1      -1.194  38.090  17.998  1.00  0.00    -0.000 C 
BRANCH  20  21
ATOM     21  C   UNL     1      -1.111  37.112  16.810  1.00  0.00    -0.000 C 
BRANCH  21  22
ATOM     22  C   UNL     1      -2.493  36.624  16.349  1.00  0.00    -0.000 C 
BRANCH  22  23
ATOM     23  C   UNL     1      -2.489  36.128  14.894  1.00  0.00    -0.000 C 
BRANCH  23  24
ATOM     24  C   UNL     1      -2.698  37.263  13.875  1.00  0.00    -0.000 C 
BRANCH  24  25
ATOM     25  C   UNL     1      -4.062  37.969  13.969  1.00  0.00    -0.003 C 
ATOM     26  C   UNL     1      -4.013  39.254  14.792  1.00  0.00     0.004 C 
ENDBRANCH  24  25
ENDBRANCH  23  24
ENDBRANCH  22  23
ENDBRANCH  21  22
ENDBRANCH  20  21
ENDBRANCH  19  20
ENDBRANCH  18  19
ENDBRANCH  17  18
ENDBRANCH  16  17
ENDBRANCH  15  16
ENDBRANCH   1  15
TORSDOF 22
ENDMDL
MODEL 5
REMARK VINA RESULT:     0.221      1.139      2.356
REMARK INTER + INTRA:          -1.432
REMARK INTER:                  -0.681
REMARK INTRA:                  -0.751
REMARK UNBOUND:                -1.936
REMARK SMILES CCCCCCCCCCCCCCCCCCCCCCCC(=O)[O-]
REMARK SMILES IDX 13 1 14 2 15 3 16 4 17 5 18 6 19 7 20 8 21 9 22 10 23 11
REMARK SMILES IDX 24 12 25 13 26 14 12 15 11 16 10 17 9 18 8 19 7 20 6 21 5 22
REMARK SMILES IDX 4 23 3 24 2 25 1 26
REMARK H PARENT
REMARK Flexibility Score: inf
ROOT
ATOM      1  C   UNL     1      -4.037  36.797  20.667  1.00  0.00     0.000 C 
ENDROOT
BRANCH   1   2
ATOM      2  C   UNL     1      -5.121  35.846  21.202  1.00  0.00     0.000 C 
BRANCH   2   3
ATOM      3  C   UNL     1      -6.121  35.332  20.149  1.00  0.00     0.000 C 
BRANCH   3   4
ATOM      4  C   UNL     1      -5.724  35.666  18.695  1.00  0.00     0.000 C 
BRANCH   4   5
ATOM      5  C   UNL     1      -4.810  34.598  18.070  1.00  0.00     0.000 C 
BRANCH   5   6
ATOM      6  C   UNL     1      -3.693  35.221  17.216  1.00  0.00     0.000 C 
BRANCH   6   7
ATOM      7  C   UNL     1      -3.971  36.698  16.886  1.00  0.00     0.000 C 
BRANCH   7   8
ATOM      8  C   UNL     1      -3.154  37.199  15.683  1.00  0.00     0.000 C 
BRANCH   8   9
ATOM      9  C   UNL     1      -1.726  36.633  15.672  1.00  0.00     0.000 C 
BRANCH   9  10
ATOM     10  C   UNL     1      -0.868  37.274  16.771  1.00  0.00     0.006 C 
BRANCH  10  11
ATOM     11  C   UNL     1      -1.745  37.806  17.911  1.00  0.00     0.053 C 
BRANCH  11  12
ATOM     12  C   UNL     1      -0.901  38.428  18.978  1.00  0.00     0.041 C 
ATOM     13  O   UNL     1      -0.614  39.653  18.925  1.00  0.00    -0.550 OA
ATOM     14  O   UNL     1      -0.394  37.646  20.009  1.00  0.00    -0.550 OA
ENDBRANCH  11  12
ENDBRANCH  10  11
ENDBRANCH   9  10
ENDBRANCH   8   9
ENDBRANCH   7   8
ENDBRANCH   6   7
ENDBRANCH   5   6
ENDBRANCH   4   5
ENDBRANCH   3   4
ENDBRANCH   2   3
ENDBRANCH   1   2
BRANCH   1  15
ATOM     15  C   UNL     1      -4.234  38.245  21.148  1.00  0.00     0.000 C 
BRANCH  15  16
ATOM     16  C   UNL     1      -5.395  38.969  20.441  1.00  0.00     0.000 C 
BRANCH  16  17
ATOM     17  C   UNL     1      -6.040  40.119  21.239  1.00  0.00     0.000 C 
BRANCH  17  18
ATOM     18  C   UNL     1      -5.035  40.892  22.112  1.00  0.00    -0.000 C 
BRANCH  18  19
ATOM     19  C   UNL     1      -5.721  41.641  23.269  1.00  0.00    -0.000 C 
BRANCH  19  20
ATOM     20  C   UNL     1      -5.455  41.023  24.654  1.00  0.00    -0.000 C 
BRANCH  20  21
ATOM     21  C   UNL     1      -5.563  39.486  24.639  1.00  0.00    -0.000 C 
BRANCH  21  22
ATOM     22  C   UNL     1      -4.452  38.807  25.455  1.00  0.00    -0.000 C 
BRANCH  22  23
ATOM     23  C   UNL     1      -4.681  37.296  25.622  1.00  0.00    -0.000 C 
BRANCH  23  24
ATOM     24  C   UNL     1      -6.087  36.853  25.180  1.00  0.00    -0.000 C 
BRANCH  24  25
ATOM     25  C   UNL     1      -6.124  36.032  23.879  1.00  0.00    -0.003 C 
ATOM     26  C   UNL     1      -5.820  34.551  24.098  1.00  0.00     0.004 C 
ENDBRANCH  24  25
ENDBRANCH  23  24
ENDBRANCH  22  23
ENDBRANCH  21  22
ENDBRANCH  20  21
ENDBRANCH  19  20
ENDBRANCH  18  19
ENDBRANCH  17  18
ENDBRANCH  16  17
ENDBRANCH  15  16
ENDBRANCH   1  15
TORSDOF 22
ENDMDL
MODEL 6
REMARK VINA RESULT:     0.467      1.313      6.798
REMARK INTER + INTRA:          -0.870
REMARK INTER:                   0.513
REMARK INTRA:                  -1.383
REMARK UNBOUND:                -1.936
REMARK SMILES CCCCCCCCCCCCCCCCCCCCCCCC(=O)[O-]
REMARK SMILES IDX 13 1 14 2 15 3 16 4 17 5 18 6 19 7 20 8 21 9 22 10 23 11
REMARK SMILES IDX 24 12 25 13 26 14 12 15 11 16 10 17 9 18 8 19 7 20 6 21 5 22
REMARK SMILES IDX 4 23 3 24 2 25 1 26
REMARK H PARENT
REMARK Flexibility Score: inf
ROOT
ATOM      1  C   UNL     1      -6.124  35.892  23.406  1.00  0.00     0.000 C 
ENDROOT
BRANCH   1   2
ATOM      2  C   UNL     1      -5.778  35.995  24.901  1.00  0.00     0.000 C 
BRANCH   2   3
ATOM      3  C   UNL     1      -5.917  37.403  25.511  1.00  0.00     0.000 C 
BRANCH   3   4
ATOM      4  C   UNL     1      -4.589  38.185  25.588  1.00  0.00     0.000 C 
BRANCH   4   5
ATOM      5  C   UNL     1      -4.732  39.643  25.115  1.00  0.00     0.000 C 
BRANCH   5   6
ATOM      6  C   UNL     1      -5.646  39.764  23.884  1.00  0.00     0.000 C 
BRANCH   6   7
ATOM      7  C   UNL     1      -4.845  39.940  22.582  1.00  0.00     0.000 C 
BRANCH   7   8
ATOM      8  C   UNL     1      -5.750  40.094  21.347  1.00  0.00     0.000 C 
BRANCH   8   9
ATOM      9  C   UNL     1      -5.433  39.057  20.259  1.00  0.00     0.000 C 
BRANCH   9  10
ATOM     10  C   UNL     1      -4.050  38.431  20.477  1.00  0.00     0.006 C 
BRANCH  10  11
ATOM     11  C   UNL     1      -3.180  38.571  19.224  1.00  0.00     0.053 C 
BRANCH  11  12
ATOM     12  C   UNL     1      -1.741  38.326  19.551  1.00  0.00     0.041 C 
ATOM     13  O   UNL     1      -0.834  38.910  18.900  1.00  0.00    -0.550 OA
ATOM     14  O   UNL     1      -1.398  37.419  20.547  1.00  0.00    -0.550 OA
ENDBRANCH  11  12
ENDBRANCH  10  11
ENDBRANCH   9  10
ENDBRANCH   8   9
ENDBRANCH   7   8
ENDBRANCH   6   7
ENDBRANCH   5   6
ENDBRANCH   4   5
ENDBRANCH   3   4
ENDBRANCH   2   3
ENDBRANCH   1   2
BRANCH   1  15
ATOM     15  C   UNL     1      -4.963  36.340  22.502  1.00  0.00     0.000 C 
BRANCH  15  16
ATOM     16  C   UNL     1      -3.994  35.198  22.142  1.00  0.00     0.000 C 
BRANCH  16  17
ATOM     17  C   UNL     1      -3.807  34.939  20.634  1.00  0.00     0.000 C 
BRANCH  17  18
ATOM     18  C   UNL     1      -4.966  35.479  19.777  1.00  0.00    -0.000 C 
BRANCH  18  19
ATOM     19  C   UNL     1      -5.008  34.837  18.378  1.00  0.00    -0.000 C 
BRANCH  19  20
ATOM     20  C   UNL     1      -4.521  35.768  17.252  1.00  0.00    -0.000 C 
BRANCH  20  21
ATOM     21  C   UNL     1      -3.124  36.351  17.537  1.00  0.00    -0.000 C 
BRANCH  21  22
ATOM     22  C   UNL     1      -2.089  35.955  16.474  1.00  0.00    -0.000 C 
BRANCH  22  23
ATOM     23  C   UNL     1      -1.620  37.153  15.631  1.00  0.00    -0.000 C 
BRANCH  23  24
ATOM     24  C   UNL     1      -2.056  37.054  14.158  1.00  0.00    -0.000 C 
BRANCH  24  25
ATOM     25  C   UNL     1      -3.484  37.553  13.875  1.00  0.00    -0.003 C 
ATOM     26  C   UNL     1      -3.917  38.684  14.805  1.00  0.00     0.004 C 
ENDBRANCH  24  25
ENDBRANCH  23  24
ENDBRANCH  22  23
ENDBRANCH  21  22
ENDBRANCH  20  21
ENDBRANCH  19  20
ENDBRANCH  18  19
ENDBRANCH  17  18
ENDBRANCH  16  17
ENDBRANCH  15  16
ENDBRANCH   1  15
TORSDOF 22
ENDMDL
MODEL 7
REMARK VINA RESULT:     0.566      1.766      4.901
REMARK INTER + INTRA:          -0.643
REMARK INTER:                   0.200
REMARK INTRA:                  -0.843
REMARK UNBOUND:                -1.936
REMARK SMILES CCCCCCCCCCCCCCCCCCCCCCCC(=O)[O-]
REMARK SMILES IDX 13 1 14 2 15 3 16 4 17 5 18 6 19 7 20 8 21 9 22 10 23 11
REMARK SMILES IDX 24 12 25 13 26 14 12 15 11 16 10 17 9 18 8 19 7 20 6 21 5 22
REMARK SMILES IDX 4 23 3 24 2 25 1 26
REMARK H PARENT
REMARK Flexibility Score: inf
ROOT
ATOM      1  C   UNL     1      -0.528  37.763  19.491  1.00  0.00     0.000 C 
ENDROOT
BRANCH   1   2
ATOM      2  C   UNL     1      -0.092  37.539  18.034  1.00  0.00     0.000 C 
BRANCH   2   3
ATOM      3  C   UNL     1      -1.179  37.807  16.975  1.00  0.00     0.000 C 
BRANCH   3   4
ATOM      4  C   UNL     1      -1.326  36.679  15.932  1.00  0.00     0.000 C 
BRANCH   4   5
ATOM      5  C   UNL     1      -2.599  36.825  15.078  1.00  0.00     0.000 C 
BRANCH   5   6
ATOM      6  C   UNL     1      -3.866  36.443  15.861  1.00  0.00     0.000 C 
BRANCH   6   7
ATOM      7  C   UNL     1      -3.551  36.035  17.311  1.00  0.00     0.000 C 
BRANCH   7   8
ATOM      8  C   UNL     1      -4.661  35.175  17.938  1.00  0.00     0.000 C 
BRANCH   8   9
ATOM      9  C   UNL     1      -5.379  35.896  19.089  1.00  0.00     0.000 C 
BRANCH   9  10
ATOM     10  C   UNL     1      -5.973  34.893  20.086  1.00  0.00     0.006 C 
BRANCH  10  11
ATOM     11  C   UNL     1      -6.125  35.523  21.475  1.00  0.00     0.053 C 
BRANCH  11  12
ATOM     12  C   UNL     1      -5.098  34.977  22.416  1.00  0.00     0.041 C 
ATOM     13  O   UNL     1      -3.917  35.415  22.390  1.00  0.00    -0.550 OA
ATOM     14  O   UNL     1      -5.433  33.953  23.293  1.00  0.00    -0.550 OA
ENDBRANCH  11  12
ENDBRANCH  10  11
ENDBRANCH   9  10
ENDBRANCH   8   9
ENDBRANCH   7   8
ENDBRANCH   6   7
ENDBRANCH   5   6
ENDBRANCH   4   5
ENDBRANCH   3   4
ENDBRANCH   2   3
ENDBRANCH   1   2
BRANCH   1  15
ATOM     15  C   UNL     1      -1.761  38.676  19.603  1.00  0.00     0.000 C 
BRANCH  15  16
ATOM     16  C   UNL     1      -3.008  37.952  20.145  1.00  0.00     0.000 C 
BRANCH  16  17
ATOM     17  C   UNL     1      -4.359  38.587  19.762  1.00  0.00     0.000 C 
BRANCH  17  18
ATOM     18  C   UNL     1      -5.354  38.653  20.935  1.00  0.00    -0.000 C 
BRANCH  18  19
ATOM     19  C   UNL     1      -6.013  40.039  21.066  1.00  0.00    -0.000 C 
BRANCH  19  20
ATOM     20  C   UNL     1      -5.168  41.056  21.855  1.00  0.00    -0.000 C 
BRANCH  20  21
ATOM     21  C   UNL     1      -5.925  41.632  23.066  1.00  0.00    -0.000 C 
BRANCH  21  22
ATOM     22  C   UNL     1      -5.428  41.059  24.402  1.00  0.00    -0.000 C 
BRANCH  22  23
ATOM     23  C   UNL     1      -5.477  39.522  24.439  1.00  0.00    -0.000 C 
BRANCH  23  24
ATOM     24  C   UNL     1      -4.705  38.929  25.632  1.00  0.00    -0.000 C 
BRANCH  24  25
ATOM     25  C   UNL     1      -4.851  37.407  25.801  1.00  0.00    -0.003 C 
ATOM     26  C   UNL     1      -6.004  36.824  24.987  1.00  0.00     0.004 C 
ENDBRANCH  24  25
ENDBRANCH  23  24
ENDBRANCH  22  23
ENDBRANCH  21  22
ENDBRANCH  20  21
ENDBRANCH  19  20
ENDBRANCH  18  19
ENDBRANCH  17  18
ENDBRANCH  16  17
ENDBRANCH  15  16
ENDBRANCH   1  15
TORSDOF 22
ENDMDL
MODEL 8
REMARK VINA RESULT:     0.731      1.910      6.884
REMARK INTER + INTRA:          -0.266
REMARK INTER:                  -0.319
REMARK INTRA:                   0.053
REMARK UNBOUND:                -1.936
REMARK SMILES CCCCCCCCCCCCCCCCCCCCCCCC(=O)[O-]
REMARK SMILES IDX 13 1 14 2 15 3 16 4 17 5 18 6 19 7 20 8 21 9 22 10 23 11
REMARK SMILES IDX 24 12 25 13 26 14 12 15 11 16 10 17 9 18 8 19 7 20 6 21 5 22
REMARK SMILES IDX 4 23 3 24 2 25 1 26
REMARK H PARENT
REMARK Flexibility Score: inf
ROOT
ATOM      1  C   UNL     1      -0.652  37.942  18.751  1.00  0.00     0.000 C 
ENDROOT
BRANCH   1   2
ATOM      2  C   UNL     1      -1.588  38.217  19.940  1.00  0.00     0.000 C 
BRANCH   2   3
ATOM      3  C   UNL     1      -3.061  38.470  19.570  1.00  0.00     0.000 C 
BRANCH   3   4
ATOM      4  C   UNL     1      -3.978  38.718  20.787  1.00  0.00     0.000 C 
BRANCH   4   5
ATOM      5  C   UNL     1      -5.390  39.177  20.381  1.00  0.00     0.000 C 
BRANCH   5   6
ATOM      6  C   UNL     1      -6.038  40.068  21.453  1.00  0.00     0.000 C 
BRANCH   6   7
ATOM      7  C   UNL     1      -5.003  40.628  22.445  1.00  0.00     0.000 C 
BRANCH   7   8
ATOM      8  C   UNL     1      -5.308  40.238  23.901  1.00  0.00     0.000 C 
BRANCH   8   9
ATOM      9  C   UNL     1      -5.605  38.739  24.054  1.00  0.00     0.000 C 
BRANCH   9  10
ATOM     10  C   UNL     1      -5.119  38.214  25.411  1.00  0.00     0.006 C 
BRANCH  10  11
ATOM     11  C   UNL     1      -5.743  36.850  25.727  1.00  0.00     0.053 C 
BRANCH  11  12
ATOM     12  C   UNL     1      -6.019  36.092  24.467  1.00  0.00     0.041 C 
ATOM     13  O   UNL     1      -6.118  34.836  24.491  1.00  0.00    -0.550 OA
ATOM     14  O   UNL     1      -6.124  36.768  23.258  1.00  0.00    -0.550 OA
ENDBRANCH  11  12
ENDBRANCH  10  11
ENDBRANCH   9  10
ENDBRANCH   8   9
ENDBRANCH   7   8
ENDBRANCH   6   7
ENDBRANCH   5   6
ENDBRANCH   4   5
ENDBRANCH   3   4
ENDBRANCH   2   3
ENDBRANCH   1   2
BRANCH   1  15
ATOM     15  C   UNL     1      -1.350  38.140  17.395  1.00  0.00     0.000 C 
BRANCH  15  16
ATOM     16  C   UNL     1      -1.143  36.963  16.424  1.00  0.00     0.000 C 
BRANCH  16  17
ATOM     17  C   UNL     1      -2.012  36.995  15.151  1.00  0.00     0.000 C 
BRANCH  17  18
ATOM     18  C   UNL     1      -3.493  36.675  15.418  1.00  0.00    -0.000 C 
BRANCH  18  19
ATOM     19  C   UNL     1      -3.820  36.634  16.923  1.00  0.00    -0.000 C 
BRANCH  19  20
ATOM     20  C   UNL     1      -3.626  35.247  17.563  1.00  0.00    -0.000 C 
BRANCH  20  21
ATOM     21  C   UNL     1      -4.914  34.721  18.224  1.00  0.00    -0.000 C 
BRANCH  21  22
ATOM     22  C   UNL     1      -5.852  35.851  18.675  1.00  0.00    -0.000 C 
BRANCH  22  23
ATOM     23  C   UNL     1      -6.111  35.834  20.191  1.00  0.00    -0.000 C 
BRANCH  23  24
ATOM     24  C   UNL     1      -5.129  34.926  20.954  1.00  0.00    -0.000 C 
BRANCH  24  25
ATOM     25  C   UNL     1      -3.854  35.630  21.450  1.00  0.00    -0.003 C 
ATOM     26  C   UNL     1      -2.753  34.653  21.858  1.00  0.00     0.004 C 
ENDBRANCH  24  25
ENDBRANCH  23  24
ENDBRANCH  22  23
ENDBRANCH  21  22
ENDBRANCH  20  21
ENDBRANCH  19  20
ENDBRANCH  18  19
ENDBRANCH  17  18
ENDBRANCH  16  17
ENDBRANCH  15  16
ENDBRANCH   1  15
TORSDOF 22
ENDMDL
