MODEL 1
REMARK VINA RESULT:    -2.300      0.000      0.000
REMARK INTER + INTRA:          -3.368
REMARK INTER:                  -3.308
REMARK INTRA:                  -0.060
REMARK UNBOUND:                -0.060
REMARK SMILES O=c1c(O[C@@H]2O[C@@H](CO)[C@H](O)[C@@H](O)[C@@H]2O)c(-c2ccc(O)cc2)oc2cc(O)cc(O)c12
REMARK SMILES IDX 4 1 3 2 16 3 24 4 2 5 25 6 1 7 32 8 26 9 30 10 27 11 29 12
REMARK SMILES IDX 17 13 18 14 19 15 20 16 23 17 22 18 21 19 31 21 28 23 5 25
REMARK SMILES IDX 14 26 6 27 12 28 7 29 10 30 15 31 13 33 8 35 9 36 11 38
REMARK H PARENT 21 20 31 22 28 24 15 32 13 34 9 37 11 39
REMARK Flexibility Score: inf
ROOT
ATOM      1  O   UNL     1       6.807  -4.897   5.719  1.00  0.00    -0.454 OA
ENDROOT
BRANCH   1   2
ATOM      2  C   UNL     1       5.931  -5.984   5.605  1.00  0.00     0.214 A 
ATOM      3  C   UNL     1       4.666  -5.835   5.018  1.00  0.00     0.180 A 
ATOM      4  O   UNL     1       3.876  -6.889   4.867  1.00  0.00    -0.452 OA
ATOM      5  C   UNL     1       6.337  -7.255   6.030  1.00  0.00     0.239 A 
ATOM      6  C   UNL     1       4.219  -8.115   5.242  1.00  0.00     0.146 A 
ATOM      7  O   UNL     1       7.503  -7.395   6.478  1.00  0.00    -0.285 OA
ATOM      8  C   UNL     1       5.466  -8.360   5.875  1.00  0.00     0.111 A 
ATOM      9  C   UNL     1       3.348  -9.172   4.958  1.00  0.00     0.094 A 
ATOM     10  C   UNL     1       5.793  -9.696   6.236  1.00  0.00     0.134 A 
ATOM     11  C   UNL     1       3.710 -10.485   5.260  1.00  0.00     0.123 A 
ATOM     12  C   UNL     1       4.924 -10.743   5.888  1.00  0.00     0.093 A 
BRANCH   3  13
ATOM     13  C   UNL     1       4.215  -4.538   4.500  1.00  0.00     0.021 A 
ATOM     14  C   UNL     1       3.333  -4.506   3.408  1.00  0.00     0.016 A 
ATOM     15  C   UNL     1       2.910  -3.289   2.875  1.00  0.00     0.047 A 
ATOM     16  C   UNL     1       3.343  -2.091   3.447  1.00  0.00     0.115 A 
ATOM     17  C   UNL     1       4.662  -3.339   5.065  1.00  0.00     0.016 A 
ATOM     18  C   UNL     1       4.215  -2.119   4.544  1.00  0.00     0.047 A 
BRANCH  16  19
ATOM     19  O   UNL     1       2.901  -0.880   2.914  1.00  0.00    -0.508 OA
ATOM     20  H   UNL     1       2.171  -0.848   2.214  1.00  0.00     0.293 HD
ENDBRANCH  16  19
ENDBRANCH   3  13
BRANCH  10  21
ATOM     21  O   UNL     1       6.944 -10.039   6.946  1.00  0.00    -0.507 OA
ATOM     22  H   UNL     1       6.937 -10.502   7.846  1.00  0.00     0.293 HD
ENDBRANCH  10  21
BRANCH  11  23
ATOM     23  O   UNL     1       2.875 -11.546   4.927  1.00  0.00    -0.508 OA
ATOM     24  H   UNL     1       3.200 -12.506   4.929  1.00  0.00     0.293 HD
ENDBRANCH  11  23
ENDBRANCH   1   2
BRANCH   1  25
ATOM     25  C   UNL     1       8.143  -4.973   5.217  1.00  0.00     0.339 C 
ATOM     26  C   UNL     1       8.289  -4.083   3.965  1.00  0.00     0.214 C 
ATOM     27  O   UNL     1       9.057  -4.721   6.288  1.00  0.00    -0.332 OA
ATOM     28  C   UNL     1       8.284  -2.580   4.315  1.00  0.00     0.180 C 
ATOM     29  C   UNL     1       9.763  -3.489   6.217  1.00  0.00     0.179 C 
ATOM     30  C   UNL     1       8.887  -2.307   5.712  1.00  0.00     0.177 C 
BRANCH  26  31
ATOM     31  O   UNL     1       7.248  -4.375   3.071  1.00  0.00    -0.384 OA
ATOM     32  H   UNL     1       6.801  -3.512   2.856  1.00  0.00     0.211 HD
ENDBRANCH  26  31
BRANCH  28  33
ATOM     33  O   UNL     1       9.012  -1.862   3.347  1.00  0.00    -0.387 OA
ATOM     34  H   UNL     1       9.879  -2.334   3.222  1.00  0.00     0.211 HD
ENDBRANCH  28  33
BRANCH  29  35
ATOM     35  C   UNL     1      11.119  -3.697   5.492  1.00  0.00     0.191 C 
BRANCH  35  36
ATOM     36  O   UNL     1      11.783  -4.860   5.917  1.00  0.00    -0.394 OA
ATOM     37  H   UNL     1      12.621  -4.565   6.360  1.00  0.00     0.210 HD
ENDBRANCH  35  36
ENDBRANCH  29  35
BRANCH  30  38
ATOM     38  O   UNL     1       7.851  -2.083   6.636  1.00  0.00    -0.387 OA
ATOM     39  H   UNL     1       7.612  -1.111   6.588  1.00  0.00     0.211 HD
ENDBRANCH  30  38
ENDBRANCH   1  25
TORSDOF 11
ENDMDL
MODEL 2
REMARK VINA RESULT:    -2.151      6.356     12.771
REMARK INTER + INTRA:          -3.154
REMARK INTER:                  -2.809
REMARK INTRA:                  -0.345
REMARK UNBOUND:                -0.060
REMARK SMILES O=c1c(O[C@@H]2O[C@@H](CO)[C@H](O)[C@@H](O)[C@@H]2O)c(-c2ccc(O)cc2)oc2cc(O)cc(O)c12
REMARK SMILES IDX 4 1 3 2 16 3 24 4 2 5 25 6 1 7 32 8 26 9 30 10 27 11 29 12
REMARK SMILES IDX 17 13 18 14 19 15 20 16 23 17 22 18 21 19 31 21 28 23 5 25
REMARK SMILES IDX 14 26 6 27 12 28 7 29 10 30 15 31 13 33 8 35 9 36 11 38
REMARK H PARENT 21 20 31 22 28 24 15 32 13 34 9 37 11 39
REMARK Flexibility Score: inf
ROOT
ATOM      1  O   UNL     1       4.568 -16.483   6.597  1.00  0.00    -0.454 OA
ENDROOT
BRANCH   1   2
ATOM      2  C   UNL     1       4.318 -15.105   6.575  1.00  0.00     0.214 A 
ATOM      3  C   UNL     1       4.303 -14.354   7.758  1.00  0.00     0.180 A 
ATOM      4  O   UNL     1       4.122 -13.041   7.709  1.00  0.00    -0.452 OA
ATOM      5  C   UNL     1       4.136 -14.449   5.351  1.00  0.00     0.239 A 
ATOM      6  C   UNL     1       3.957 -12.372   6.575  1.00  0.00     0.146 A 
ATOM      7  O   UNL     1       4.234 -15.116   4.290  1.00  0.00    -0.285 OA
ATOM      8  C   UNL     1       3.925 -13.049   5.328  1.00  0.00     0.111 A 
ATOM      9  C   UNL     1       3.862 -10.977   6.628  1.00  0.00     0.094 A 
ATOM     10  C   UNL     1       3.767 -12.280   4.142  1.00  0.00     0.134 A 
ATOM     11  C   UNL     1       3.772 -10.231   5.452  1.00  0.00     0.123 A 
ATOM     12  C   UNL     1       3.731 -10.879   4.221  1.00  0.00     0.093 A 
BRANCH   3  13
ATOM     13  C   UNL     1       4.550 -14.982   9.062  1.00  0.00     0.021 A 
ATOM     14  C   UNL     1       3.516 -15.703   9.681  1.00  0.00     0.016 A 
ATOM     15  C   UNL     1       3.711 -16.285  10.932  1.00  0.00     0.047 A 
ATOM     16  C   UNL     1       4.950 -16.175  11.566  1.00  0.00     0.115 A 
ATOM     17  C   UNL     1       5.787 -14.857   9.701  1.00  0.00     0.016 A 
ATOM     18  C   UNL     1       5.988 -15.465  10.946  1.00  0.00     0.047 A 
BRANCH  16  19
ATOM     19  O   UNL     1       5.138 -16.775  12.811  1.00  0.00    -0.508 OA
ATOM     20  H   UNL     1       4.847 -16.317  13.666  1.00  0.00     0.293 HD
ENDBRANCH  16  19
ENDBRANCH   3  13
BRANCH  10  21
ATOM     21  O   UNL     1       3.627 -12.846   2.875  1.00  0.00    -0.507 OA
ATOM     22  H   UNL     1       4.248 -13.553   2.499  1.00  0.00     0.293 HD
ENDBRANCH  10  21
BRANCH  11  23
ATOM     23  O   UNL     1       3.737  -8.842   5.493  1.00  0.00    -0.508 OA
ATOM     24  H   UNL     1       4.554  -8.291   5.729  1.00  0.00     0.293 HD
ENDBRANCH  11  23
ENDBRANCH   1   2
BRANCH   1  25
ATOM     25  C   UNL     1       3.521 -17.418   6.865  1.00  0.00     0.339 C 
ATOM     26  C   UNL     1       3.311 -18.340   5.644  1.00  0.00     0.214 C 
ATOM     27  O   UNL     1       3.782 -18.063   8.114  1.00  0.00    -0.332 OA
ATOM     28  C   UNL     1       4.460 -19.357   5.480  1.00  0.00     0.180 C 
ATOM     29  C   UNL     1       4.141 -19.436   8.034  1.00  0.00     0.179 C 
ATOM     30  C   UNL     1       5.082 -19.757   6.837  1.00  0.00     0.177 C 
BRANCH  26  31
ATOM     31  O   UNL     1       3.193 -17.552   4.490  1.00  0.00    -0.384 OA
ATOM     32  H   UNL     1       2.478 -17.964   3.932  1.00  0.00     0.211 HD
ENDBRANCH  26  31
BRANCH  28  33
ATOM     33  O   UNL     1       3.985 -20.512   4.829  1.00  0.00    -0.387 OA
ATOM     34  H   UNL     1       4.623 -21.248   5.034  1.00  0.00     0.211 HD
ENDBRANCH  28  33
BRANCH  29  35
ATOM     35  C   UNL     1       2.875 -20.324   8.167  1.00  0.00     0.191 C 
BRANCH  35  36
ATOM     36  O   UNL     1       2.882 -21.095   9.342  1.00  0.00    -0.394 OA
ATOM     37  H   UNL     1       3.363 -20.563  10.029  1.00  0.00     0.210 HD
ENDBRANCH  35  36
ENDBRANCH  29  35
BRANCH  30  38
ATOM     38  O   UNL     1       6.296 -19.069   7.018  1.00  0.00    -0.387 OA
ATOM     39  H   UNL     1       7.018 -19.758   7.111  1.00  0.00     0.211 HD
ENDBRANCH  30  38
ENDBRANCH   1  25
TORSDOF 11
ENDMDL
MODEL 3
REMARK VINA RESULT:    -1.854      1.605      4.974
REMARK INTER + INTRA:          -2.727
REMARK INTER:                  -3.522
REMARK INTRA:                   0.795
REMARK UNBOUND:                -0.060
REMARK SMILES O=c1c(O[C@@H]2O[C@@H](CO)[C@H](O)[C@@H](O)[C@@H]2O)c(-c2ccc(O)cc2)oc2cc(O)cc(O)c12
REMARK SMILES IDX 4 1 3 2 16 3 24 4 2 5 25 6 1 7 32 8 26 9 30 10 27 11 29 12
REMARK SMILES IDX 17 13 18 14 19 15 20 16 23 17 22 18 21 19 31 21 28 23 5 25
REMARK SMILES IDX 14 26 6 27 12 28 7 29 10 30 15 31 13 33 8 35 9 36 11 38
REMARK H PARENT 21 20 31 22 28 24 15 32 13 34 9 37 11 39
REMARK Flexibility Score: inf
ROOT
ATOM      1  O   UNL     1       6.226  -4.601   4.211  1.00  0.00    -0.454 OA
ENDROOT
BRANCH   1   2
ATOM      2  C   UNL     1       6.254  -5.870   4.802  1.00  0.00     0.214 A 
ATOM      3  C   UNL     1       7.379  -6.312   5.513  1.00  0.00     0.180 A 
ATOM      4  O   UNL     1       7.362  -7.493   6.115  1.00  0.00    -0.452 OA
ATOM      5  C   UNL     1       5.125  -6.695   4.737  1.00  0.00     0.239 A 
ATOM      6  C   UNL     1       6.314  -8.306   6.092  1.00  0.00     0.146 A 
ATOM      7  O   UNL     1       4.092  -6.258   4.170  1.00  0.00    -0.285 OA
ATOM      8  C   UNL     1       5.140  -7.960   5.372  1.00  0.00     0.111 A 
ATOM      9  C   UNL     1       6.369  -9.492   6.833  1.00  0.00     0.094 A 
ATOM     10  C   UNL     1       4.038  -8.859   5.399  1.00  0.00     0.134 A 
ATOM     11  C   UNL     1       5.256 -10.331   6.903  1.00  0.00     0.123 A 
ATOM     12  C   UNL     1       4.101 -10.013   6.196  1.00  0.00     0.093 A 
BRANCH   3  13
ATOM     13  C   UNL     1       8.566  -5.462   5.665  1.00  0.00     0.021 A 
ATOM     14  C   UNL     1       9.837  -6.059   5.694  1.00  0.00     0.016 A 
ATOM     15  C   UNL     1      10.980  -5.281   5.866  1.00  0.00     0.047 A 
ATOM     16  C   UNL     1      10.868  -3.894   5.984  1.00  0.00     0.115 A 
ATOM     17  C   UNL     1       8.450  -4.075   5.798  1.00  0.00     0.016 A 
ATOM     18  C   UNL     1       9.601  -3.293   5.945  1.00  0.00     0.047 A 
BRANCH  16  19
ATOM     19  O   UNL     1      12.021  -3.126   6.142  1.00  0.00    -0.508 OA
ATOM     20  H   UNL     1      11.993  -2.116   6.082  1.00  0.00     0.293 HD
ENDBRANCH  16  19
ENDBRANCH   3  13
BRANCH  10  21
ATOM     21  O   UNL     1       2.875  -8.667   4.654  1.00  0.00    -0.507 OA
ATOM     22  H   UNL     1       2.258  -9.416   4.365  1.00  0.00     0.293 HD
ENDBRANCH  10  21
BRANCH  11  23
ATOM     23  O   UNL     1       5.283 -11.481   7.685  1.00  0.00    -0.508 OA
ATOM     24  H   UNL     1       5.680 -11.488   8.616  1.00  0.00     0.293 HD
ENDBRANCH  11  23
ENDBRANCH   1   2
BRANCH   1  25
ATOM     25  C   UNL     1       5.975  -3.430   4.992  1.00  0.00     0.339 C 
ATOM     26  C   UNL     1       5.854  -2.197   4.070  1.00  0.00     0.214 C 
ATOM     27  O   UNL     1       4.874  -3.682   5.869  1.00  0.00    -0.332 OA
ATOM     28  C   UNL     1       4.534  -2.198   3.269  1.00  0.00     0.180 C 
ATOM     29  C   UNL     1       3.675  -2.981   5.567  1.00  0.00     0.179 C 
ATOM     30  C   UNL     1       3.386  -2.885   4.042  1.00  0.00     0.177 C 
BRANCH  26  31
ATOM     31  O   UNL     1       6.951  -2.168   3.197  1.00  0.00    -0.384 OA
ATOM     32  H   UNL     1       7.329  -1.248   3.240  1.00  0.00     0.211 HD
ENDBRANCH  26  31
BRANCH  28  33
ATOM     33  O   UNL     1       4.161  -0.875   2.963  1.00  0.00    -0.387 OA
ATOM     34  H   UNL     1       4.952  -0.436   2.548  1.00  0.00     0.211 HD
ENDBRANCH  28  33
BRANCH  29  35
ATOM     35  C   UNL     1       3.628  -1.646   6.358  1.00  0.00     0.191 C 
BRANCH  35  36
ATOM     36  O   UNL     1       4.332  -1.717   7.572  1.00  0.00    -0.394 OA
ATOM     37  H   UNL     1       4.841  -0.869   7.657  1.00  0.00     0.210 HD
ENDBRANCH  35  36
ENDBRANCH  29  35
BRANCH  30  38
ATOM     38  O   UNL     1       3.189  -4.183   3.535  1.00  0.00    -0.387 OA
ATOM     39  H   UNL     1       4.094  -4.596   3.413  1.00  0.00     0.211 HD
ENDBRANCH  30  38
ENDBRANCH   1  25
TORSDOF 11
ENDMDL
MODEL 4
REMARK VINA RESULT:     0.232      2.190      6.547
REMARK INTER + INTRA:           0.273
REMARK INTER:                   0.573
REMARK INTRA:                  -0.300
REMARK UNBOUND:                -0.060
REMARK SMILES O=c1c(O[C@@H]2O[C@@H](CO)[C@H](O)[C@@H](O)[C@@H]2O)c(-c2ccc(O)cc2)oc2cc(O)cc(O)c12
REMARK SMILES IDX 4 1 3 2 16 3 24 4 2 5 25 6 1 7 32 8 26 9 30 10 27 11 29 12
REMARK SMILES IDX 17 13 18 14 19 15 20 16 23 17 22 18 21 19 31 21 28 23 5 25
REMARK SMILES IDX 14 26 6 27 12 28 7 29 10 30 15 31 13 33 8 35 9 36 11 38
REMARK H PARENT 21 20 31 22 28 24 15 32 13 34 9 37 11 39
REMARK Flexibility Score: inf
ROOT
ATOM      1  O   UNL     1       6.089  -5.903   6.203  1.00  0.00    -0.454 OA
ENDROOT
BRANCH   1   2
ATOM      2  C   UNL     1       7.302  -5.217   6.069  1.00  0.00     0.214 A 
ATOM      3  C   UNL     1       7.386  -3.840   6.322  1.00  0.00     0.180 A 
ATOM      4  O   UNL     1       8.557  -3.222   6.246  1.00  0.00    -0.452 OA
ATOM      5  C   UNL     1       8.466  -5.918   5.733  1.00  0.00     0.239 A 
ATOM      6  C   UNL     1       9.689  -3.843   5.943  1.00  0.00     0.146 A 
ATOM      7  O   UNL     1       8.397  -7.165   5.590  1.00  0.00    -0.285 OA
ATOM      8  C   UNL     1       9.700  -5.229   5.640  1.00  0.00     0.111 A 
ATOM      9  C   UNL     1      10.883  -3.114   5.976  1.00  0.00     0.094 A 
ATOM     10  C   UNL     1      10.945  -5.850   5.343  1.00  0.00     0.134 A 
ATOM     11  C   UNL     1      12.104  -3.750   5.746  1.00  0.00     0.123 A 
ATOM     12  C   UNL     1      12.132  -5.107   5.438  1.00  0.00     0.093 A 
BRANCH   3  13
ATOM     13  C   UNL     1       6.208  -3.069   6.737  1.00  0.00     0.021 A 
ATOM     14  C   UNL     1       6.225  -2.408   7.976  1.00  0.00     0.016 A 
ATOM     15  C   UNL     1       5.111  -1.692   8.411  1.00  0.00     0.047 A 
ATOM     16  C   UNL     1       3.978  -1.606   7.599  1.00  0.00     0.115 A 
ATOM     17  C   UNL     1       5.069  -2.997   5.929  1.00  0.00     0.016 A 
ATOM     18  C   UNL     1       3.962  -2.256   6.357  1.00  0.00     0.047 A 
BRANCH  16  19
ATOM     19  O   UNL     1       2.875  -0.875   8.039  1.00  0.00    -0.508 OA
ATOM     20  H   UNL     1       2.400  -1.106   8.902  1.00  0.00     0.293 HD
ENDBRANCH  16  19
ENDBRANCH   3  13
BRANCH  10  21
ATOM     21  O   UNL     1      11.061  -7.179   4.939  1.00  0.00    -0.507 OA
ATOM     22  H   UNL     1      11.729  -7.506   4.252  1.00  0.00     0.293 HD
ENDBRANCH  10  21
BRANCH  11  23
ATOM     23  O   UNL     1      13.299  -3.046   5.835  1.00  0.00    -0.508 OA
ATOM     24  H   UNL     1      14.016  -3.112   5.123  1.00  0.00     0.293 HD
ENDBRANCH  11  23
ENDBRANCH   1   2
BRANCH   1  25
ATOM     25  C   UNL     1       5.585  -6.723   5.146  1.00  0.00     0.339 C 
ATOM     26  C   UNL     1       5.045  -8.051   5.720  1.00  0.00     0.214 C 
ATOM     27  O   UNL     1       4.676  -5.954   4.354  1.00  0.00    -0.332 OA
ATOM     28  C   UNL     1       3.718  -7.858   6.483  1.00  0.00     0.180 C 
ATOM     29  C   UNL     1       3.307  -6.325   4.455  1.00  0.00     0.179 C 
ATOM     30  C   UNL     1       2.877  -6.698   5.902  1.00  0.00     0.177 C 
BRANCH  26  31
ATOM     31  O   UNL     1       6.013  -8.612   6.566  1.00  0.00    -0.384 OA
ATOM     32  H   UNL     1       5.525  -9.145   7.250  1.00  0.00     0.211 HD
ENDBRANCH  26  31
BRANCH  28  33
ATOM     33  O   UNL     1       2.964  -9.046   6.436  1.00  0.00    -0.387 OA
ATOM     34  H   UNL     1       2.917  -9.327   5.482  1.00  0.00     0.211 HD
ENDBRANCH  28  33
BRANCH  29  35
ATOM     35  C   UNL     1       2.953  -7.353   3.348  1.00  0.00     0.191 C 
BRANCH  35  36
ATOM     36  O   UNL     1       4.081  -8.047   2.879  1.00  0.00    -0.394 OA
ATOM     37  H   UNL     1       3.941  -8.197   1.908  1.00  0.00     0.210 HD
ENDBRANCH  35  36
ENDBRANCH  29  35
BRANCH  30  38
ATOM     38  O   UNL     1       3.012  -5.564   6.723  1.00  0.00    -0.387 OA
ATOM     39  H   UNL     1       3.176  -4.778   6.122  1.00  0.00     0.211 HD
ENDBRANCH  30  38
ENDBRANCH   1  25
TORSDOF 11
ENDMDL
MODEL 5
REMARK VINA RESULT:     0.573      8.324     12.494
REMARK INTER + INTRA:           0.765
REMARK INTER:                  -0.314
REMARK INTRA:                   1.079
REMARK UNBOUND:                -0.060
REMARK SMILES O=c1c(O[C@@H]2O[C@@H](CO)[C@H](O)[C@@H](O)[C@@H]2O)c(-c2ccc(O)cc2)oc2cc(O)cc(O)c12
REMARK SMILES IDX 4 1 3 2 16 3 24 4 2 5 25 6 1 7 32 8 26 9 30 10 27 11 29 12
REMARK SMILES IDX 17 13 18 14 19 15 20 16 23 17 22 18 21 19 31 21 28 23 5 25
REMARK SMILES IDX 14 26 6 27 12 28 7 29 10 30 15 31 13 33 8 35 9 36 11 38
REMARK H PARENT 21 20 31 22 28 24 15 32 13 34 9 37 11 39
REMARK Flexibility Score: inf
ROOT
ATOM      1  O   UNL     1       4.968 -15.866   6.467  1.00  0.00    -0.454 OA
ENDROOT
BRANCH   1   2
ATOM      2  C   UNL     1       4.812 -16.520   7.695  1.00  0.00     0.214 A 
ATOM      3  C   UNL     1       4.516 -17.889   7.753  1.00  0.00     0.180 A 
ATOM      4  O   UNL     1       4.430 -18.501   8.926  1.00  0.00    -0.452 OA
ATOM      5  C   UNL     1       5.009 -15.817   8.890  1.00  0.00     0.239 A 
ATOM      6  C   UNL     1       4.620 -17.883  10.085  1.00  0.00     0.146 A 
ATOM      7  O   UNL     1       5.357 -14.611   8.828  1.00  0.00    -0.285 OA
ATOM      8  C   UNL     1       4.893 -16.491  10.130  1.00  0.00     0.111 A 
ATOM      9  C   UNL     1       4.594 -18.640  11.261  1.00  0.00     0.094 A 
ATOM     10  C   UNL     1       5.110 -15.883  11.397  1.00  0.00     0.134 A 
ATOM     11  C   UNL     1       4.872 -18.042  12.490  1.00  0.00     0.123 A 
ATOM     12  C   UNL     1       5.133 -16.677  12.555  1.00  0.00     0.093 A 
BRANCH   3  13
ATOM     13  C   UNL     1       4.359 -18.687   6.530  1.00  0.00     0.021 A 
ATOM     14  C   UNL     1       5.271 -19.722   6.267  1.00  0.00     0.016 A 
ATOM     15  C   UNL     1       5.165 -20.477   5.100  1.00  0.00     0.047 A 
ATOM     16  C   UNL     1       4.132 -20.223   4.197  1.00  0.00     0.115 A 
ATOM     17  C   UNL     1       3.332 -18.420   5.620  1.00  0.00     0.016 A 
ATOM     18  C   UNL     1       3.214 -19.196   4.461  1.00  0.00     0.047 A 
BRANCH  16  19
ATOM     19  O   UNL     1       4.029 -20.995   3.040  1.00  0.00    -0.508 OA
ATOM     20  H   UNL     1       3.640 -20.616   2.187  1.00  0.00     0.293 HD
ENDBRANCH  16  19
ENDBRANCH   3  13
BRANCH  10  21
ATOM     21  O   UNL     1       5.291 -14.511  11.568  1.00  0.00    -0.507 OA
ATOM     22  H   UNL     1       6.052 -14.101  12.096  1.00  0.00     0.293 HD
ENDBRANCH  10  21
BRANCH  11  23
ATOM     23  O   UNL     1       4.906 -18.799  13.656  1.00  0.00    -0.508 OA
ATOM     24  H   UNL     1       4.077 -19.245  14.031  1.00  0.00     0.293 HD
ENDBRANCH  11  23
ENDBRANCH   1   2
BRANCH   1  25
ATOM     25  C   UNL     1       3.834 -15.416   5.722  1.00  0.00     0.339 C 
ATOM     26  C   UNL     1       3.132 -14.264   6.474  1.00  0.00     0.214 C 
ATOM     27  O   UNL     1       4.237 -15.147   4.377  1.00  0.00    -0.332 OA
ATOM     28  C   UNL     1       3.947 -12.954   6.422  1.00  0.00     0.180 C 
ATOM     29  C   UNL     1       4.247 -13.777   4.000  1.00  0.00     0.179 C 
ATOM     30  C   UNL     1       4.773 -12.834   5.121  1.00  0.00     0.177 C 
BRANCH  26  31
ATOM     31  O   UNL     1       2.918 -14.649   7.805  1.00  0.00    -0.384 OA
ATOM     32  H   UNL     1       2.813 -13.812   8.334  1.00  0.00     0.211 HD
ENDBRANCH  26  31
BRANCH  28  33
ATOM     33  O   UNL     1       3.081 -11.849   6.524  1.00  0.00    -0.387 OA
ATOM     34  H   UNL     1       3.553 -11.068   6.128  1.00  0.00     0.211 HD
ENDBRANCH  28  33
BRANCH  29  35
ATOM     35  C   UNL     1       2.885 -13.392   3.364  1.00  0.00     0.191 C 
BRANCH  35  36
ATOM     36  O   UNL     1       2.875 -12.074   2.875  1.00  0.00    -0.394 OA
ATOM     37  H   UNL     1       2.147 -11.598   3.353  1.00  0.00     0.210 HD
ENDBRANCH  35  36
ENDBRANCH  29  35
BRANCH  30  38
ATOM     38  O   UNL     1       6.117 -13.152   5.387  1.00  0.00    -0.387 OA
ATOM     39  H   UNL     1       6.122 -13.883   6.072  1.00  0.00     0.211 HD
ENDBRANCH  30  38
ENDBRANCH   1  25
TORSDOF 11
ENDMDL
