MODEL 1
REMARK VINA RESULT:    -2.681      0.000      0.000
REMARK INTER + INTRA:          -7.687
REMARK INTER:                  -5.032
REMARK INTRA:                  -2.655
REMARK UNBOUND:                -2.655
REMARK SMILES CCCCCCCCC=CCCCCCCCC(=O)[O-]
REMARK SMILES IDX 10 1 9 2 11 3 12 4 13 5 14 6 15 7 16 8 17 9 18 10 19 11
REMARK SMILES IDX 20 12 8 13 7 14 6 15 5 16 4 17 3 18 2 19 1 20
REMARK H PARENT
REMARK Flexibility Score: inf
ROOT
ATOM      1  C   UNL     1      19.947  26.869  23.321  1.00  0.00    -0.031 C 
ATOM      2  C   UNL     1      20.343  28.087  22.903  1.00  0.00    -0.031 C 
ENDROOT
BRANCH   1   3
ATOM      3  C   UNL     1      19.839  26.452  24.765  1.00  0.00     0.027 C 
BRANCH   3   4
ATOM      4  C   UNL     1      18.371  26.313  25.182  1.00  0.00     0.004 C 
BRANCH   4   5
ATOM      5  C   UNL     1      17.855  27.614  25.816  1.00  0.00     0.000 C 
BRANCH   5   6
ATOM      6  C   UNL     1      18.866  28.250  26.788  1.00  0.00     0.000 C 
BRANCH   6   7
ATOM      7  C   UNL     1      18.333  28.491  28.212  1.00  0.00     0.000 C 
BRANCH   7   8
ATOM      8  C   UNL     1      16.799  28.526  28.282  1.00  0.00     0.006 C 
BRANCH   8   9
ATOM      9  C   UNL     1      16.323  29.222  29.560  1.00  0.00     0.053 C 
BRANCH   9  10
ATOM     10  C   UNL     1      15.196  30.158  29.260  1.00  0.00     0.041 C 
ATOM     11  O   UNL     1      14.011  29.831  29.533  1.00  0.00    -0.550 OA
ATOM     12  O   UNL     1      15.447  31.370  28.629  1.00  0.00    -0.550 OA
ENDBRANCH   9  10
ENDBRANCH   8   9
ENDBRANCH   7   8
ENDBRANCH   6   7
ENDBRANCH   5   6
ENDBRANCH   4   5
ENDBRANCH   3   4
ENDBRANCH   1   3
BRANCH   2  13
ATOM     13  C   UNL     1      20.825  29.191  23.812  1.00  0.00     0.027 C 
BRANCH  13  14
ATOM     14  C   UNL     1      20.312  30.568  23.362  1.00  0.00     0.004 C 
BRANCH  14  15
ATOM     15  C   UNL     1      18.838  30.523  22.927  1.00  0.00     0.000 C 
BRANCH  15  16
ATOM     16  C   UNL     1      17.987  31.602  23.613  1.00  0.00     0.000 C 
BRANCH  16  17
ATOM     17  C   UNL     1      17.307  31.093  24.895  1.00  0.00    -0.000 C 
BRANCH  17  18
ATOM     18  C   UNL     1      17.540  32.017  26.102  1.00  0.00    -0.000 C 
BRANCH  18  19
ATOM     19  C   UNL     1      18.958  31.903  26.701  1.00  0.00    -0.003 C 
ATOM     20  C   UNL     1      18.983  32.181  28.204  1.00  0.00     0.004 C 
ENDBRANCH  18  19
ENDBRANCH  17  18
ENDBRANCH  16  17
ENDBRANCH  15  16
ENDBRANCH  14  15
ENDBRANCH  13  14
ENDBRANCH   2  13
TORSDOF 15
ENDMDL
MODEL 2
REMARK VINA RESULT:    -2.629     11.311     14.916
REMARK INTER + INTRA:          -7.589
REMARK INTER:                  -4.842
REMARK INTRA:                  -2.748
REMARK UNBOUND:                -2.655
REMARK SMILES CCCCCCCCC=CCCCCCCCC(=O)[O-]
REMARK SMILES IDX 10 1 9 2 11 3 12 4 13 5 14 6 15 7 16 8 17 9 18 10 19 11
REMARK SMILES IDX 20 12 8 13 7 14 6 15 5 16 4 17 3 18 2 19 1 20
REMARK H PARENT
REMARK Flexibility Score: inf
ROOT
ATOM      1  C   UNL     1      16.824  25.903  39.467  1.00  0.00    -0.031 C 
ATOM      2  C   UNL     1      17.483  24.795  39.077  1.00  0.00    -0.031 C 
ENDROOT
BRANCH   1   3
ATOM      3  C   UNL     1      15.507  25.904  40.199  1.00  0.00     0.027 C 
BRANCH   3   4
ATOM      4  C   UNL     1      14.337  25.802  39.214  1.00  0.00     0.004 C 
BRANCH   4   5
ATOM      5  C   UNL     1      14.372  26.954  38.199  1.00  0.00     0.000 C 
BRANCH   5   6
ATOM      6  C   UNL     1      14.239  26.475  36.742  1.00  0.00     0.000 C 
BRANCH   6   7
ATOM      7  C   UNL     1      14.614  25.001  36.506  1.00  0.00     0.000 C 
BRANCH   7   8
ATOM      8  C   UNL     1      15.883  24.832  35.658  1.00  0.00     0.006 C 
BRANCH   8   9
ATOM      9  C   UNL     1      16.351  23.374  35.653  1.00  0.00     0.053 C 
BRANCH   9  10
ATOM     10  C   UNL     1      15.673  22.610  34.561  1.00  0.00     0.041 C 
ATOM     11  O   UNL     1      15.514  21.364  34.664  1.00  0.00    -0.550 OA
ATOM     12  O   UNL     1      15.262  23.262  33.405  1.00  0.00    -0.550 OA
ENDBRANCH   9  10
ENDBRANCH   8   9
ENDBRANCH   7   8
ENDBRANCH   6   7
ENDBRANCH   5   6
ENDBRANCH   4   5
ENDBRANCH   3   4
ENDBRANCH   1   3
BRANCH   2  13
ATOM     13  C   UNL     1      16.961  23.387  39.233  1.00  0.00     0.027 C 
BRANCH  13  14
ATOM     14  C   UNL     1      18.096  22.376  39.450  1.00  0.00     0.004 C 
BRANCH  14  15
ATOM     15  C   UNL     1      19.286  22.993  40.205  1.00  0.00     0.000 C 
BRANCH  15  16
ATOM     16  C   UNL     1      19.424  22.447  41.635  1.00  0.00     0.000 C 
BRANCH  16  17
ATOM     17  C   UNL     1      19.354  23.554  42.700  1.00  0.00    -0.000 C 
BRANCH  17  18
ATOM     18  C   UNL     1      18.004  24.290  42.708  1.00  0.00    -0.000 C 
BRANCH  18  19
ATOM     19  C   UNL     1      18.128  25.802  42.997  1.00  0.00    -0.003 C 
ATOM     20  C   UNL     1      19.225  26.467  42.166  1.00  0.00     0.004 C 
ENDBRANCH  18  19
ENDBRANCH  17  18
ENDBRANCH  16  17
ENDBRANCH  15  16
ENDBRANCH  14  15
ENDBRANCH  13  14
ENDBRANCH   2  13
TORSDOF 15
ENDMDL
MODEL 3
REMARK VINA RESULT:    -2.591     11.098     15.007
REMARK INTER + INTRA:          -7.518
REMARK INTER:                  -5.188
REMARK INTRA:                  -2.330
REMARK UNBOUND:                -2.655
REMARK SMILES CCCCCCCCC=CCCCCCCCC(=O)[O-]
REMARK SMILES IDX 10 1 9 2 11 3 12 4 13 5 14 6 15 7 16 8 17 9 18 10 19 11
REMARK SMILES IDX 20 12 8 13 7 14 6 15 5 16 4 17 3 18 2 19 1 20
REMARK H PARENT
REMARK Flexibility Score: inf
ROOT
ATOM      1  C   UNL     1      17.417  25.047  39.434  1.00  0.00    -0.031 C 
ATOM      2  C   UNL     1      17.885  25.191  40.689  1.00  0.00    -0.031 C 
ENDROOT
BRANCH   1   3
ATOM      3  C   UNL     1      16.102  24.402  39.079  1.00  0.00     0.027 C 
BRANCH   3   4
ATOM      4  C   UNL     1      14.948  25.399  39.230  1.00  0.00     0.004 C 
BRANCH   4   5
ATOM      5  C   UNL     1      14.936  26.404  38.069  1.00  0.00     0.000 C 
BRANCH   5   6
ATOM      6  C   UNL     1      14.493  25.776  36.735  1.00  0.00     0.000 C 
BRANCH   6   7
ATOM      7  C   UNL     1      15.571  25.754  35.638  1.00  0.00     0.000 C 
BRANCH   7   8
ATOM      8  C   UNL     1      16.084  24.339  35.329  1.00  0.00     0.006 C 
BRANCH   8   9
ATOM      9  C   UNL     1      14.923  23.386  35.031  1.00  0.00     0.053 C 
BRANCH   9  10
ATOM     10  C   UNL     1      15.382  22.253  34.171  1.00  0.00     0.041 C 
ATOM     11  O   UNL     1      15.273  22.324  32.918  1.00  0.00    -0.550 OA
ATOM     12  O   UNL     1      15.881  21.094  34.753  1.00  0.00    -0.550 OA
ENDBRANCH   9  10
ENDBRANCH   8   9
ENDBRANCH   7   8
ENDBRANCH   6   7
ENDBRANCH   5   6
ENDBRANCH   4   5
ENDBRANCH   3   4
ENDBRANCH   1   3
BRANCH   2  13
ATOM     13  C   UNL     1      17.208  24.648  41.924  1.00  0.00     0.027 C 
BRANCH  13  14
ATOM     14  C   UNL     1      17.861  23.345  42.409  1.00  0.00     0.004 C 
BRANCH  14  15
ATOM     15  C   UNL     1      19.393  23.458  42.487  1.00  0.00     0.000 C 
BRANCH  15  16
ATOM     16  C   UNL     1      20.107  22.367  41.674  1.00  0.00     0.000 C 
BRANCH  16  17
ATOM     17  C   UNL     1      19.144  21.576  40.773  1.00  0.00    -0.000 C 
BRANCH  17  18
ATOM     18  C   UNL     1      19.467  21.723  39.277  1.00  0.00    -0.000 C 
BRANCH  18  19
ATOM     19  C   UNL     1      18.246  21.508  38.358  1.00  0.00    -0.003 C 
ATOM     20  C   UNL     1      18.449  22.109  36.967  1.00  0.00     0.004 C 
ENDBRANCH  18  19
ENDBRANCH  17  18
ENDBRANCH  16  17
ENDBRANCH  15  16
ENDBRANCH  14  15
ENDBRANCH  13  14
ENDBRANCH   2  13
TORSDOF 15
ENDMDL
MODEL 4
REMARK VINA RESULT:    -2.531     13.634     15.908
REMARK INTER + INTRA:          -7.405
REMARK INTER:                  -4.896
REMARK INTRA:                  -2.509
REMARK UNBOUND:                -2.655
REMARK SMILES CCCCCCCCC=CCCCCCCCC(=O)[O-]
REMARK SMILES IDX 10 1 9 2 11 3 12 4 13 5 14 6 15 7 16 8 17 9 18 10 19 11
REMARK SMILES IDX 20 12 8 13 7 14 6 15 5 16 4 17 3 18 2 19 1 20
REMARK H PARENT
REMARK Flexibility Score: inf
ROOT
ATOM      1  C   UNL     1      19.457  23.186  40.481  1.00  0.00    -0.031 C 
ATOM      2  C   UNL     1      19.047  23.049  39.205  1.00  0.00    -0.031 C 
ENDROOT
BRANCH   1   3
ATOM      3  C   UNL     1      18.935  22.378  41.641  1.00  0.00     0.027 C 
BRANCH   3   4
ATOM      4  C   UNL     1      17.844  23.149  42.392  1.00  0.00     0.004 C 
BRANCH   4   5
ATOM      5  C   UNL     1      18.415  24.421  43.035  1.00  0.00     0.000 C 
BRANCH   5   6
ATOM      6  C   UNL     1      17.659  25.696  42.619  1.00  0.00     0.000 C 
BRANCH   6   7
ATOM      7  C   UNL     1      16.176  25.485  42.264  1.00  0.00     0.000 C 
BRANCH   7   8
ATOM      8  C   UNL     1      15.781  26.129  40.927  1.00  0.00     0.006 C 
BRANCH   8   9
ATOM      9  C   UNL     1      16.280  25.291  39.746  1.00  0.00     0.053 C 
BRANCH   9  10
ATOM     10  C   UNL     1      15.231  25.204  38.684  1.00  0.00     0.041 C 
ATOM     11  O   UNL     1      14.069  25.636  38.905  1.00  0.00    -0.550 OA
ATOM     12  O   UNL     1      15.519  24.597  37.468  1.00  0.00    -0.550 OA
ENDBRANCH   9  10
ENDBRANCH   8   9
ENDBRANCH   7   8
ENDBRANCH   6   7
ENDBRANCH   5   6
ENDBRANCH   4   5
ENDBRANCH   3   4
ENDBRANCH   1   3
BRANCH   2  13
ATOM     13  C   UNL     1      17.938  22.130  38.755  1.00  0.00     0.027 C 
BRANCH  13  14
ATOM     14  C   UNL     1      18.078  21.747  37.274  1.00  0.00     0.004 C 
BRANCH  14  15
ATOM     15  C   UNL     1      18.349  20.244  37.087  1.00  0.00     0.000 C 
BRANCH  15  16
ATOM     16  C   UNL     1      19.846  19.903  37.149  1.00  0.00     0.000 C 
BRANCH  16  17
ATOM     17  C   UNL     1      20.192  18.967  38.319  1.00  0.00    -0.000 C 
BRANCH  17  18
ATOM     18  C   UNL     1      20.716  19.721  39.553  1.00  0.00    -0.000 C 
BRANCH  18  19
ATOM     19  C   UNL     1      21.922  20.635  39.250  1.00  0.00    -0.003 C 
ATOM     20  C   UNL     1      22.614  21.129  40.520  1.00  0.00     0.004 C 
ENDBRANCH  18  19
ENDBRANCH  17  18
ENDBRANCH  16  17
ENDBRANCH  15  16
ENDBRANCH  14  15
ENDBRANCH  13  14
ENDBRANCH   2  13
TORSDOF 15
ENDMDL
MODEL 5
REMARK VINA RESULT:    -2.521     10.565     12.960
REMARK INTER + INTRA:          -7.388
REMARK INTER:                  -4.758
REMARK INTRA:                  -2.629
REMARK UNBOUND:                -2.655
REMARK SMILES CCCCCCCCC=CCCCCCCCC(=O)[O-]
REMARK SMILES IDX 10 1 9 2 11 3 12 4 13 5 14 6 15 7 16 8 17 9 18 10 19 11
REMARK SMILES IDX 20 12 8 13 7 14 6 15 5 16 4 17 3 18 2 19 1 20
REMARK H PARENT
REMARK Flexibility Score: inf
ROOT
ATOM      1  C   UNL     1      13.067  17.791  31.998  1.00  0.00    -0.031 C 
ATOM      2  C   UNL     1      14.381  17.995  31.786  1.00  0.00    -0.031 C 
ENDROOT
BRANCH   1   3
ATOM      3  C   UNL     1      12.178  18.700  32.807  1.00  0.00     0.027 C 
BRANCH   3   4
ATOM      4  C   UNL     1      11.108  19.344  31.919  1.00  0.00     0.004 C 
BRANCH   4   5
ATOM      5  C   UNL     1      10.298  18.274  31.171  1.00  0.00     0.000 C 
BRANCH   5   6
ATOM      6  C   UNL     1       9.614  18.817  29.903  1.00  0.00     0.000 C 
BRANCH   6   7
ATOM      7  C   UNL     1       8.589  19.939  30.147  1.00  0.00     0.000 C 
BRANCH   7   8
ATOM      8  C   UNL     1       8.922  21.231  29.386  1.00  0.00     0.006 C 
BRANCH   8   9
ATOM      9  C   UNL     1       8.439  21.153  27.935  1.00  0.00     0.053 C 
BRANCH   9  10
ATOM     10  C   UNL     1       7.141  21.878  27.773  1.00  0.00     0.041 C 
ATOM     11  O   UNL     1       6.058  21.314  28.079  1.00  0.00    -0.550 OA
ATOM     12  O   UNL     1       7.122  23.159  27.236  1.00  0.00    -0.550 OA
ENDBRANCH   9  10
ENDBRANCH   8   9
ENDBRANCH   7   8
ENDBRANCH   6   7
ENDBRANCH   5   6
ENDBRANCH   4   5
ENDBRANCH   3   4
ENDBRANCH   1   3
BRANCH   2  13
ATOM     13  C   UNL     1      15.185  19.115  32.399  1.00  0.00     0.027 C 
BRANCH  13  14
ATOM     14  C   UNL     1      15.691  20.104  31.338  1.00  0.00     0.004 C 
BRANCH  14  15
ATOM     15  C   UNL     1      14.706  21.263  31.109  1.00  0.00     0.000 C 
BRANCH  15  16
ATOM     16  C   UNL     1      14.326  21.430  29.630  1.00  0.00     0.000 C 
BRANCH  16  17
ATOM     17  C   UNL     1      12.903  20.930  29.326  1.00  0.00    -0.000 C 
BRANCH  17  18
ATOM     18  C   UNL     1      12.889  19.591  28.571  1.00  0.00    -0.000 C 
BRANCH  18  19
ATOM     19  C   UNL     1      12.167  19.659  27.208  1.00  0.00    -0.003 C 
ATOM     20  C   UNL     1      11.934  21.096  26.742  1.00  0.00     0.004 C 
ENDBRANCH  18  19
ENDBRANCH  17  18
ENDBRANCH  16  17
ENDBRANCH  15  16
ENDBRANCH  14  15
ENDBRANCH  13  14
ENDBRANCH   2  13
TORSDOF 15
ENDMDL
MODEL 6
REMARK VINA RESULT:    -2.516     13.231     15.373
REMARK INTER + INTRA:          -7.378
REMARK INTER:                  -4.306
REMARK INTRA:                  -3.072
REMARK UNBOUND:                -2.655
REMARK SMILES CCCCCCCCC=CCCCCCCCC(=O)[O-]
REMARK SMILES IDX 10 1 9 2 11 3 12 4 13 5 14 6 15 7 16 8 17 9 18 10 19 11
REMARK SMILES IDX 20 12 8 13 7 14 6 15 5 16 4 17 3 18 2 19 1 20
REMARK H PARENT
REMARK Flexibility Score: inf
ROOT
ATOM      1  C   UNL     1      19.889  23.116  39.473  1.00  0.00    -0.031 C 
ATOM      2  C   UNL     1      20.307  23.641  40.641  1.00  0.00    -0.031 C 
ENDROOT
BRANCH   1   3
ATOM      3  C   UNL     1      19.081  21.851  39.342  1.00  0.00     0.027 C 
BRANCH   3   4
ATOM      4  C   UNL     1      17.684  22.154  38.787  1.00  0.00     0.004 C 
BRANCH   4   5
ATOM      5  C   UNL     1      17.541  23.645  38.447  1.00  0.00     0.000 C 
BRANCH   5   6
ATOM      6  C   UNL     1      16.145  24.205  38.778  1.00  0.00     0.000 C 
BRANCH   6   7
ATOM      7  C   UNL     1      15.692  25.383  37.898  1.00  0.00     0.000 C 
BRANCH   7   8
ATOM      8  C   UNL     1      14.442  26.092  38.440  1.00  0.00     0.006 C 
BRANCH   8   9
ATOM      9  C   UNL     1      14.180  25.704  39.898  1.00  0.00     0.053 C 
BRANCH   9  10
ATOM     10  C   UNL     1      13.536  26.836  40.634  1.00  0.00     0.041 C 
ATOM     11  O   UNL     1      13.807  27.038  41.848  1.00  0.00    -0.550 OA
ATOM     12  O   UNL     1      12.597  27.636  39.997  1.00  0.00    -0.550 OA
ENDBRANCH   9  10
ENDBRANCH   8   9
ENDBRANCH   7   8
ENDBRANCH   6   7
ENDBRANCH   5   6
ENDBRANCH   4   5
ENDBRANCH   3   4
ENDBRANCH   1   3
BRANCH   2  13
ATOM     13  C   UNL     1      20.107  22.996  41.991  1.00  0.00     0.027 C 
BRANCH  13  14
ATOM     14  C   UNL     1      19.124  23.788  42.865  1.00  0.00     0.004 C 
BRANCH  14  15
ATOM     15  C   UNL     1      17.662  23.568  42.438  1.00  0.00     0.000 C 
BRANCH  15  16
ATOM     16  C   UNL     1      16.859  24.876  42.388  1.00  0.00     0.000 C 
BRANCH  16  17
ATOM     17  C   UNL     1      17.757  26.116  42.238  1.00  0.00    -0.000 C 
BRANCH  17  18
ATOM     18  C   UNL     1      17.465  26.913  40.956  1.00  0.00    -0.000 C 
BRANCH  18  19
ATOM     19  C   UNL     1      18.615  26.868  39.927  1.00  0.00    -0.003 C 
ATOM     20  C   UNL     1      18.679  28.130  39.068  1.00  0.00     0.004 C 
ENDBRANCH  18  19
ENDBRANCH  17  18
ENDBRANCH  16  17
ENDBRANCH  15  16
ENDBRANCH  14  15
ENDBRANCH  13  14
ENDBRANCH   2  13
TORSDOF 15
ENDMDL
MODEL 7
REMARK VINA RESULT:    -2.516     11.526     15.075
REMARK INTER + INTRA:          -7.378
REMARK INTER:                  -4.808
REMARK INTRA:                  -2.570
REMARK UNBOUND:                -2.655
REMARK SMILES CCCCCCCCC=CCCCCCCCC(=O)[O-]
REMARK SMILES IDX 10 1 9 2 11 3 12 4 13 5 14 6 15 7 16 8 17 9 18 10 19 11
REMARK SMILES IDX 20 12 8 13 7 14 6 15 5 16 4 17 3 18 2 19 1 20
REMARK H PARENT
REMARK Flexibility Score: inf
ROOT
ATOM      1  C   UNL     1      18.743  26.322  40.811  1.00  0.00    -0.031 C 
ATOM      2  C   UNL     1      18.755  26.137  39.477  1.00  0.00    -0.031 C 
ENDROOT
BRANCH   1   3
ATOM      3  C   UNL     1      17.520  26.681  41.615  1.00  0.00     0.027 C 
BRANCH   3   4
ATOM      4  C   UNL     1      16.878  25.427  42.219  1.00  0.00     0.004 C 
BRANCH   4   5
ATOM      5  C   UNL     1      17.947  24.490  42.801  1.00  0.00     0.000 C 
BRANCH   5   6
ATOM      6  C   UNL     1      17.978  23.113  42.114  1.00  0.00     0.000 C 
BRANCH   6   7
ATOM      7  C   UNL     1      19.380  22.612  41.725  1.00  0.00     0.000 C 
BRANCH   7   8
ATOM      8  C   UNL     1      19.352  21.552  40.613  1.00  0.00     0.006 C 
BRANCH   8   9
ATOM      9  C   UNL     1      18.400  21.964  39.487  1.00  0.00     0.053 C 
BRANCH   9  10
ATOM     10  C   UNL     1      18.844  21.379  38.184  1.00  0.00     0.041 C 
ATOM     11  O   UNL     1      18.682  22.022  37.113  1.00  0.00    -0.550 OA
ATOM     12  O   UNL     1      19.390  20.102  38.144  1.00  0.00    -0.550 OA
ENDBRANCH   9  10
ENDBRANCH   8   9
ENDBRANCH   7   8
ENDBRANCH   6   7
ENDBRANCH   5   6
ENDBRANCH   4   5
ENDBRANCH   3   4
ENDBRANCH   1   3
BRANCH   2  13
ATOM     13  C   UNL     1      17.567  26.349  38.571  1.00  0.00     0.027 C 
BRANCH  13  14
ATOM     14  C   UNL     1      16.995  25.019  38.056  1.00  0.00     0.004 C 
BRANCH  14  15
ATOM     15  C   UNL     1      15.759  24.572  38.855  1.00  0.00     0.000 C 
BRANCH  15  16
ATOM     16  C   UNL     1      14.809  25.737  39.172  1.00  0.00     0.000 C 
BRANCH  16  17
ATOM     17  C   UNL     1      13.822  26.023  38.029  1.00  0.00    -0.000 C 
BRANCH  17  18
ATOM     18  C   UNL     1      14.176  27.294  37.238  1.00  0.00    -0.000 C 
BRANCH  18  19
ATOM     19  C   UNL     1      14.355  27.049  35.725  1.00  0.00    -0.003 C 
ATOM     20  C   UNL     1      14.518  25.566  35.389  1.00  0.00     0.004 C 
ENDBRANCH  18  19
ENDBRANCH  17  18
ENDBRANCH  16  17
ENDBRANCH  15  16
ENDBRANCH  14  15
ENDBRANCH  13  14
ENDBRANCH   2  13
TORSDOF 15
ENDMDL
MODEL 8
REMARK VINA RESULT:    -2.499     11.569     13.811
REMARK INTER + INTRA:          -7.347
REMARK INTER:                  -4.387
REMARK INTRA:                  -2.959
REMARK UNBOUND:                -2.655
REMARK SMILES CCCCCCCCC=CCCCCCCCC(=O)[O-]
REMARK SMILES IDX 10 1 9 2 11 3 12 4 13 5 14 6 15 7 16 8 17 9 18 10 19 11
REMARK SMILES IDX 20 12 8 13 7 14 6 15 5 16 4 17 3 18 2 19 1 20
REMARK H PARENT
REMARK Flexibility Score: inf
ROOT
ATOM      1  C   UNL     1      12.610  17.357  28.822  1.00  0.00    -0.031 C 
ATOM      2  C   UNL     1      12.583  16.423  29.792  1.00  0.00    -0.031 C 
ENDROOT
BRANCH   1   3
ATOM      3  C   UNL     1      11.474  18.293  28.503  1.00  0.00     0.027 C 
BRANCH   3   4
ATOM      4  C   UNL     1      11.854  19.741  28.832  1.00  0.00     0.004 C 
BRANCH   4   5
ATOM      5  C   UNL     1      10.717  20.449  29.585  1.00  0.00     0.000 C 
BRANCH   5   6
ATOM      6  C   UNL     1       9.483  19.552  29.789  1.00  0.00     0.000 C 
BRANCH   6   7
ATOM      7  C   UNL     1       8.129  20.250  29.569  1.00  0.00     0.000 C 
BRANCH   7   8
ATOM      8  C   UNL     1       8.255  21.578  28.808  1.00  0.00     0.006 C 
BRANCH   8   9
ATOM      9  C   UNL     1       7.788  21.427  27.357  1.00  0.00     0.053 C 
BRANCH   9  10
ATOM     10  C   UNL     1       8.958  21.221  26.449  1.00  0.00     0.041 C 
ATOM     11  O   UNL     1       9.537  22.211  25.928  1.00  0.00    -0.550 OA
ATOM     12  O   UNL     1       9.379  19.935  26.135  1.00  0.00    -0.550 OA
ENDBRANCH   9  10
ENDBRANCH   8   9
ENDBRANCH   7   8
ENDBRANCH   6   7
ENDBRANCH   5   6
ENDBRANCH   4   5
ENDBRANCH   3   4
ENDBRANCH   1   3
BRANCH   2  13
ATOM     13  C   UNL     1      11.380  16.108  30.647  1.00  0.00     0.027 C 
BRANCH  13  14
ATOM     14  C   UNL     1      11.620  16.457  32.124  1.00  0.00     0.004 C 
BRANCH  14  15
ATOM     15  C   UNL     1      10.882  17.739  32.544  1.00  0.00     0.000 C 
BRANCH  15  16
ATOM     16  C   UNL     1      11.819  18.953  32.645  1.00  0.00     0.000 C 
BRANCH  16  17
ATOM     17  C   UNL     1      13.292  18.549  32.825  1.00  0.00    -0.000 C 
BRANCH  17  18
ATOM     18  C   UNL     1      14.204  19.109  31.721  1.00  0.00    -0.000 C 
BRANCH  18  19
ATOM     19  C   UNL     1      14.168  20.648  31.613  1.00  0.00    -0.003 C 
ATOM     20  C   UNL     1      14.863  21.332  32.790  1.00  0.00     0.004 C 
ENDBRANCH  18  19
ENDBRANCH  17  18
ENDBRANCH  16  17
ENDBRANCH  15  16
ENDBRANCH  14  15
ENDBRANCH  13  14
ENDBRANCH   2  13
TORSDOF 15
ENDMDL
MODEL 9
REMARK VINA RESULT:    -2.453     12.967     15.708
REMARK INTER + INTRA:          -7.260
REMARK INTER:                  -4.121
REMARK INTRA:                  -3.140
REMARK UNBOUND:                -2.655
REMARK SMILES CCCCCCCCC=CCCCCCCCC(=O)[O-]
REMARK SMILES IDX 10 1 9 2 11 3 12 4 13 5 14 6 15 7 16 8 17 9 18 10 19 11
REMARK SMILES IDX 20 12 8 13 7 14 6 15 5 16 4 17 3 18 2 19 1 20
REMARK H PARENT
REMARK Flexibility Score: inf
ROOT
ATOM      1  C   UNL     1      19.042  26.870  40.496  1.00  0.00    -0.031 C 
ATOM      2  C   UNL     1      18.731  26.480  41.748  1.00  0.00    -0.031 C 
ENDROOT
BRANCH   1   3
ATOM      3  C   UNL     1      19.933  26.101  39.556  1.00  0.00     0.027 C 
BRANCH   3   4
ATOM      4  C   UNL     1      19.101  25.353  38.508  1.00  0.00     0.004 C 
BRANCH   4   5
ATOM      5  C   UNL     1      17.824  26.134  38.162  1.00  0.00     0.000 C 
BRANCH   5   6
ATOM      6  C   UNL     1      16.582  25.232  38.042  1.00  0.00     0.000 C 
BRANCH   6   7
ATOM      7  C   UNL     1      15.822  24.995  39.358  1.00  0.00     0.000 C 
BRANCH   7   8
ATOM      8  C   UNL     1      15.316  26.294  40.002  1.00  0.00     0.006 C 
BRANCH   8   9
ATOM      9  C   UNL     1      15.108  26.116  41.509  1.00  0.00     0.053 C 
BRANCH   9  10
ATOM     10  C   UNL     1      13.658  26.234  41.856  1.00  0.00     0.041 C 
ATOM     11  O   UNL     1      12.849  26.739  41.033  1.00  0.00    -0.550 OA
ATOM     12  O   UNL     1      13.208  25.836  43.108  1.00  0.00    -0.550 OA
ENDBRANCH   9  10
ENDBRANCH   8   9
ENDBRANCH   7   8
ENDBRANCH   6   7
ENDBRANCH   5   6
ENDBRANCH   4   5
ENDBRANCH   3   4
ENDBRANCH   1   3
BRANCH   2  13
ATOM     13  C   UNL     1      19.300  25.261  42.433  1.00  0.00     0.027 C 
BRANCH  13  14
ATOM     14  C   UNL     1      18.203  24.264  42.831  1.00  0.00     0.004 C 
BRANCH  14  15
ATOM     15  C   UNL     1      17.988  23.181  41.760  1.00  0.00     0.000 C 
BRANCH  15  16
ATOM     16  C   UNL     1      19.305  22.713  41.122  1.00  0.00     0.000 C 
BRANCH  16  17
ATOM     17  C   UNL     1      19.094  21.609  40.073  1.00  0.00    -0.000 C 
BRANCH  17  18
ATOM     18  C   UNL     1      18.020  21.969  39.033  1.00  0.00    -0.000 C 
BRANCH  18  19
ATOM     19  C   UNL     1      18.218  21.266  37.673  1.00  0.00    -0.003 C 
ATOM     20  C   UNL     1      18.060  22.223  36.492  1.00  0.00     0.004 C 
ENDBRANCH  18  19
ENDBRANCH  17  18
ENDBRANCH  16  17
ENDBRANCH  15  16
ENDBRANCH  14  15
ENDBRANCH  13  14
ENDBRANCH   2  13
TORSDOF 15
ENDMDL
