MODEL 1
REMARK VINA RESULT:    -6.995      0.000      0.000
REMARK INTER + INTRA:         -10.563
REMARK INTER:                 -10.266
REMARK INTRA:                  -0.297
REMARK UNBOUND:                -0.297
REMARK SMILES O=c1c(O[C@H]2O[C@H](CO)[C@@H](O)[C@H](O)[C@H]2O)c(-c2ccc(O)c(O)c2)oc2cc(O)cc(O)c12
REMARK SMILES IDX 4 1 3 2 16 3 25 4 2 5 26 6 1 7 33 8 27 9 31 10 28 11 30 12
REMARK SMILES IDX 17 13 18 14 19 15 20 16 24 17 22 18 21 19 23 21 32 23 29 25
REMARK SMILES IDX 5 27 14 28 6 29 12 30 7 31 10 32 15 33 13 35 8 37 9 38 11 40
REMARK H PARENT 21 20 23 22 32 24 29 26 15 34 13 36 9 39 11 41
REMARK Flexibility Score: inf
ROOT
ATOM      1  O   UNL     1     -10.735   7.483   5.157  1.00  0.00    -0.454 OA
ENDROOT
BRANCH   1   2
ATOM      2  C   UNL     1     -11.573   8.571   5.448  1.00  0.00     0.214 A 
ATOM      3  C   UNL     1     -11.020   9.824   5.775  1.00  0.00     0.180 A 
ATOM      4  O   UNL     1     -11.809  10.883   5.927  1.00  0.00    -0.452 OA
ATOM      5  C   UNL     1     -12.970   8.437   5.442  1.00  0.00     0.239 A 
ATOM      6  C   UNL     1     -13.133  10.817   5.848  1.00  0.00     0.146 A 
ATOM      7  O   UNL     1     -13.483   7.296   5.282  1.00  0.00    -0.285 OA
ATOM      8  C   UNL     1     -13.780   9.577   5.633  1.00  0.00     0.111 A 
ATOM      9  C   UNL     1     -13.885  11.988   5.988  1.00  0.00     0.094 A 
ATOM     10  C   UNL     1     -15.194   9.533   5.604  1.00  0.00     0.134 A 
ATOM     11  C   UNL     1     -15.278  11.945   5.919  1.00  0.00     0.123 A 
ATOM     12  C   UNL     1     -15.930  10.718   5.739  1.00  0.00     0.093 A 
BRANCH   3  13
ATOM     13  C   UNL     1      -9.566   9.999   5.937  1.00  0.00     0.025 A 
ATOM     14  C   UNL     1      -8.697   9.641   4.897  1.00  0.00     0.016 A 
ATOM     15  C   UNL     1      -7.315   9.750   5.067  1.00  0.00     0.051 A 
ATOM     16  C   UNL     1      -6.787  10.248   6.266  1.00  0.00     0.157 A 
ATOM     17  C   UNL     1      -9.036  10.513   7.133  1.00  0.00     0.062 A 
ATOM     18  C   UNL     1      -7.654  10.642   7.300  1.00  0.00     0.158 A 
BRANCH  16  19
ATOM     19  O   UNL     1      -5.407  10.356   6.432  1.00  0.00    -0.504 OA
ATOM     20  H   UNL     1      -4.858  11.020   5.900  1.00  0.00     0.293 HD
ENDBRANCH  16  19
BRANCH  18  21
ATOM     21  O   UNL     1      -7.160  11.159   8.499  1.00  0.00    -0.504 OA
ATOM     22  H   UNL     1      -7.191  10.632   9.363  1.00  0.00     0.293 HD
ENDBRANCH  18  21
ENDBRANCH   3  13
BRANCH  10  23
ATOM     23  O   UNL     1     -15.870   8.325   5.436  1.00  0.00    -0.507 OA
ATOM     24  H   UNL     1     -16.671   8.243   4.821  1.00  0.00     0.293 HD
ENDBRANCH  10  23
BRANCH  11  25
ATOM     25  O   UNL     1     -16.008  13.125   6.022  1.00  0.00    -0.508 OA
ATOM     26  H   UNL     1     -16.876  13.253   5.517  1.00  0.00     0.293 HD
ENDBRANCH  11  25
ENDBRANCH   1   2
BRANCH   1  27
ATOM     27  C   UNL     1     -10.531   6.361   6.033  1.00  0.00     0.339 C 
ATOM     28  C   UNL     1     -10.142   5.086   5.233  1.00  0.00     0.214 C 
ATOM     29  O   UNL     1     -11.658   6.219   6.897  1.00  0.00    -0.332 OA
ATOM     30  C   UNL     1     -11.404   4.321   4.812  1.00  0.00     0.180 C 
ATOM     31  C   UNL     1     -11.965   4.884   7.271  1.00  0.00     0.179 C 
ATOM     32  C   UNL     1     -12.304   4.001   6.035  1.00  0.00     0.177 C 
BRANCH  28  33
ATOM     33  O   UNL     1      -9.368   5.428   4.114  1.00  0.00    -0.384 OA
ATOM     34  H   UNL     1      -8.433   5.550   4.429  1.00  0.00     0.211 HD
ENDBRANCH  28  33
BRANCH  30  35
ATOM     35  O   UNL     1     -11.074   3.143   4.117  1.00  0.00    -0.387 OA
ATOM     36  H   UNL     1     -10.083   3.106   4.040  1.00  0.00     0.211 HD
ENDBRANCH  30  35
BRANCH  31  37
ATOM     37  C   UNL     1     -10.894   4.283   8.225  1.00  0.00     0.191 C 
BRANCH  37  38
ATOM     38  O   UNL     1     -10.528   5.221   9.203  1.00  0.00    -0.394 OA
ATOM     39  H   UNL     1     -10.956   4.930  10.051  1.00  0.00     0.210 HD
ENDBRANCH  37  38
ENDBRANCH  31  37
BRANCH  32  40
ATOM     40  O   UNL     1     -13.650   4.208   5.683  1.00  0.00    -0.387 OA
ATOM     41  H   UNL     1     -14.114   4.543   6.496  1.00  0.00     0.211 HD
ENDBRANCH  32  40
ENDBRANCH   1  27
TORSDOF 12
ENDMDL
MODEL 2
REMARK VINA RESULT:    -6.568      1.741      5.874
REMARK INTER + INTRA:          -9.937
REMARK INTER:                  -8.946
REMARK INTRA:                  -0.991
REMARK UNBOUND:                -0.297
REMARK SMILES O=c1c(O[C@H]2O[C@H](CO)[C@@H](O)[C@H](O)[C@H]2O)c(-c2ccc(O)c(O)c2)oc2cc(O)cc(O)c12
REMARK SMILES IDX 4 1 3 2 16 3 25 4 2 5 26 6 1 7 33 8 27 9 31 10 28 11 30 12
REMARK SMILES IDX 17 13 18 14 19 15 20 16 24 17 22 18 21 19 23 21 32 23 29 25
REMARK SMILES IDX 5 27 14 28 6 29 12 30 7 31 10 32 15 33 13 35 8 37 9 38 11 40
REMARK H PARENT 21 20 23 22 32 24 29 26 15 34 13 36 9 39 11 41
REMARK Flexibility Score: inf
ROOT
ATOM      1  O   UNL     1     -11.595  10.048   6.470  1.00  0.00    -0.454 OA
ENDROOT
BRANCH   1   2
ATOM      2  C   UNL     1     -11.385   8.742   5.999  1.00  0.00     0.214 A 
ATOM      3  C   UNL     1     -10.077   8.266   5.788  1.00  0.00     0.180 A 
ATOM      4  O   UNL     1      -9.875   6.993   5.463  1.00  0.00    -0.452 OA
ATOM      5  C   UNL     1     -12.463   7.891   5.710  1.00  0.00     0.239 A 
ATOM      6  C   UNL     1     -10.865   6.131   5.260  1.00  0.00     0.146 A 
ATOM      7  O   UNL     1     -13.640   8.339   5.765  1.00  0.00    -0.285 OA
ATOM      8  C   UNL     1     -12.213   6.551   5.343  1.00  0.00     0.111 A 
ATOM      9  C   UNL     1     -10.560   4.801   4.955  1.00  0.00     0.094 A 
ATOM     10  C   UNL     1     -13.244   5.620   5.071  1.00  0.00     0.134 A 
ATOM     11  C   UNL     1     -11.580   3.877   4.727  1.00  0.00     0.123 A 
ATOM     12  C   UNL     1     -12.918   4.290   4.773  1.00  0.00     0.093 A 
BRANCH   3  13
ATOM     13  C   UNL     1      -8.909   9.151   5.937  1.00  0.00     0.025 A 
ATOM     14  C   UNL     1      -8.064   9.385   4.844  1.00  0.00     0.016 A 
ATOM     15  C   UNL     1      -6.923  10.176   4.995  1.00  0.00     0.051 A 
ATOM     16  C   UNL     1      -6.630  10.768   6.231  1.00  0.00     0.157 A 
ATOM     17  C   UNL     1      -8.624   9.757   7.172  1.00  0.00     0.062 A 
ATOM     18  C   UNL     1      -7.493  10.565   7.322  1.00  0.00     0.158 A 
BRANCH  16  19
ATOM     19  O   UNL     1      -5.491  11.557   6.379  1.00  0.00    -0.504 OA
ATOM     20  H   UNL     1      -5.516  12.439   6.875  1.00  0.00     0.293 HD
ENDBRANCH  16  19
BRANCH  18  21
ATOM     21  O   UNL     1      -7.240  11.155   8.562  1.00  0.00    -0.504 OA
ATOM     22  H   UNL     1      -6.322  11.496   8.816  1.00  0.00     0.293 HD
ENDBRANCH  18  21
ENDBRANCH   3  13
BRANCH  10  23
ATOM     23  O   UNL     1     -14.583   6.005   5.101  1.00  0.00    -0.507 OA
ATOM     24  H   UNL     1     -14.879   6.876   5.524  1.00  0.00     0.293 HD
ENDBRANCH  10  23
BRANCH  11  25
ATOM     25  O   UNL     1     -11.259   2.549   4.462  1.00  0.00    -0.508 OA
ATOM     26  H   UNL     1     -10.362   2.292   4.070  1.00  0.00     0.293 HD
ENDBRANCH  11  25
ENDBRANCH   1   2
BRANCH   1  27
ATOM     27  C   UNL     1     -11.659  11.212   5.628  1.00  0.00     0.339 C 
ATOM     28  C   UNL     1     -13.003  11.971   5.819  1.00  0.00     0.214 C 
ATOM     29  O   UNL     1     -11.352  10.845   4.283  1.00  0.00    -0.332 OA
ATOM     30  C   UNL     1     -14.065  11.416   4.859  1.00  0.00     0.180 C 
ATOM     31  C   UNL     1     -12.023  11.600   3.285  1.00  0.00     0.179 C 
ATOM     32  C   UNL     1     -13.569  11.451   3.389  1.00  0.00     0.177 C 
BRANCH  28  33
ATOM     33  O   UNL     1     -13.434  11.875   7.151  1.00  0.00    -0.384 OA
ATOM     34  H   UNL     1     -12.634  11.995   7.728  1.00  0.00     0.211 HD
ENDBRANCH  28  33
BRANCH  30  35
ATOM     35  O   UNL     1     -15.279  12.113   4.990  1.00  0.00    -0.387 OA
ATOM     36  H   UNL     1     -15.687  12.182   4.085  1.00  0.00     0.211 HD
ENDBRANCH  30  35
BRANCH  31  37
ATOM     37  C   UNL     1     -11.515  13.068   3.222  1.00  0.00     0.191 C 
BRANCH  37  38
ATOM     38  O   UNL     1     -10.118  13.109   3.349  1.00  0.00    -0.394 OA
ATOM     39  H   UNL     1      -9.749  13.157   2.428  1.00  0.00     0.210 HD
ENDBRANCH  37  38
ENDBRANCH  31  37
BRANCH  32  40
ATOM     40  O   UNL     1     -13.955  10.261   2.744  1.00  0.00    -0.387 OA
ATOM     41  H   UNL     1     -14.210   9.616   3.455  1.00  0.00     0.211 HD
ENDBRANCH  32  40
ENDBRANCH   1  27
TORSDOF 12
ENDMDL
MODEL 3
REMARK VINA RESULT:    -5.927      1.613      6.941
REMARK INTER + INTRA:          -8.997
REMARK INTER:                  -8.505
REMARK INTRA:                  -0.492
REMARK UNBOUND:                -0.297
REMARK SMILES O=c1c(O[C@H]2O[C@H](CO)[C@@H](O)[C@H](O)[C@H]2O)c(-c2ccc(O)c(O)c2)oc2cc(O)cc(O)c12
REMARK SMILES IDX 4 1 3 2 16 3 25 4 2 5 26 6 1 7 33 8 27 9 31 10 28 11 30 12
REMARK SMILES IDX 17 13 18 14 19 15 20 16 24 17 22 18 21 19 23 21 32 23 29 25
REMARK SMILES IDX 5 27 14 28 6 29 12 30 7 31 10 32 15 33 13 35 8 37 9 38 11 40
REMARK H PARENT 21 20 23 22 32 24 29 26 15 34 13 36 9 39 11 41
REMARK Flexibility Score: inf
ROOT
ATOM      1  O   UNL     1     -12.727   8.402   5.053  1.00  0.00    -0.454 OA
ENDROOT
BRANCH   1   2
ATOM      2  C   UNL     1     -11.381   8.566   5.416  1.00  0.00     0.214 A 
ATOM      3  C   UNL     1     -10.591   7.446   5.737  1.00  0.00     0.180 A 
ATOM      4  O   UNL     1      -9.288   7.588   5.957  1.00  0.00    -0.452 OA
ATOM      5  C   UNL     1     -10.796   9.840   5.487  1.00  0.00     0.239 A 
ATOM      6  C   UNL     1      -8.677   8.768   5.953  1.00  0.00     0.146 A 
ATOM      7  O   UNL     1     -11.517  10.863   5.334  1.00  0.00    -0.285 OA
ATOM      8  C   UNL     1      -9.414   9.959   5.750  1.00  0.00     0.111 A 
ATOM      9  C   UNL     1      -7.296   8.823   6.162  1.00  0.00     0.094 A 
ATOM     10  C   UNL     1      -8.742  11.203   5.801  1.00  0.00     0.134 A 
ATOM     11  C   UNL     1      -6.631  10.050   6.173  1.00  0.00     0.123 A 
ATOM     12  C   UNL     1      -7.356  11.237   6.005  1.00  0.00     0.093 A 
BRANCH   3  13
ATOM     13  C   UNL     1     -11.177   6.096   5.818  1.00  0.00     0.025 A 
ATOM     14  C   UNL     1     -11.973   5.743   6.916  1.00  0.00     0.016 A 
ATOM     15  C   UNL     1     -12.483   4.448   7.026  1.00  0.00     0.051 A 
ATOM     16  C   UNL     1     -12.229   3.500   6.025  1.00  0.00     0.157 A 
ATOM     17  C   UNL     1     -10.937   5.151   4.807  1.00  0.00     0.062 A 
ATOM     18  C   UNL     1     -11.461   3.858   4.904  1.00  0.00     0.158 A 
BRANCH  16  19
ATOM     19  O   UNL     1     -12.740   2.207   6.138  1.00  0.00    -0.504 OA
ATOM     20  H   UNL     1     -12.263   1.410   5.736  1.00  0.00     0.293 HD
ENDBRANCH  16  19
BRANCH  18  21
ATOM     21  O   UNL     1     -11.206   2.943   3.881  1.00  0.00    -0.504 OA
ATOM     22  H   UNL     1     -11.876   2.764   3.143  1.00  0.00     0.293 HD
ENDBRANCH  18  21
ENDBRANCH   3  13
BRANCH  10  23
ATOM     23  O   UNL     1      -9.438  12.401   5.647  1.00  0.00    -0.507 OA
ATOM     24  H   UNL     1      -9.960  12.610   4.805  1.00  0.00     0.293 HD
ENDBRANCH  10  23
BRANCH  11  25
ATOM     25  O   UNL     1      -5.250  10.082   6.343  1.00  0.00    -0.508 OA
ATOM     26  H   UNL     1      -4.709  10.903   6.102  1.00  0.00     0.293 HD
ENDBRANCH  11  25
ENDBRANCH   1   2
BRANCH   1  27
ATOM     27  C   UNL     1     -13.840   8.813   5.866  1.00  0.00     0.339 C 
ATOM     28  C   UNL     1     -15.010   9.342   4.989  1.00  0.00     0.214 C 
ATOM     29  O   UNL     1     -13.386   9.707   6.881  1.00  0.00    -0.332 OA
ATOM     30  C   UNL     1     -14.845  10.848   4.740  1.00  0.00     0.180 C 
ATOM     31  C   UNL     1     -14.319  10.705   7.266  1.00  0.00     0.179 C 
ATOM     32  C   UNL     1     -14.704  11.628   6.074  1.00  0.00     0.177 C 
BRANCH  28  33
ATOM     33  O   UNL     1     -15.072   8.638   3.778  1.00  0.00    -0.384 OA
ATOM     34  H   UNL     1     -15.976   8.231   3.719  1.00  0.00     0.211 HD
ENDBRANCH  28  33
BRANCH  30  35
ATOM     35  O   UNL     1     -15.914  11.355   3.979  1.00  0.00    -0.387 OA
ATOM     36  H   UNL     1     -16.658  11.564   4.605  1.00  0.00     0.211 HD
ENDBRANCH  30  35
BRANCH  31  37
ATOM     37  C   UNL     1     -15.528  10.106   8.041  1.00  0.00     0.191 C 
BRANCH  37  38
ATOM     38  O   UNL     1     -15.777  10.847   9.206  1.00  0.00    -0.394 OA
ATOM     39  H   UNL     1     -16.722  10.672   9.458  1.00  0.00     0.210 HD
ENDBRANCH  37  38
ENDBRANCH  31  37
BRANCH  32  40
ATOM     40  O   UNL     1     -13.714  12.617   5.927  1.00  0.00    -0.387 OA
ATOM     41  H   UNL     1     -13.711  13.151   6.764  1.00  0.00     0.211 HD
ENDBRANCH  32  40
ENDBRANCH   1  27
TORSDOF 12
ENDMDL
MODEL 4
REMARK VINA RESULT:    -5.231      1.918      7.217
REMARK INTER + INTRA:          -7.975
REMARK INTER:                  -8.079
REMARK INTRA:                   0.104
REMARK UNBOUND:                -0.297
REMARK SMILES O=c1c(O[C@H]2O[C@H](CO)[C@@H](O)[C@H](O)[C@H]2O)c(-c2ccc(O)c(O)c2)oc2cc(O)cc(O)c12
REMARK SMILES IDX 4 1 3 2 16 3 25 4 2 5 26 6 1 7 33 8 27 9 31 10 28 11 30 12
REMARK SMILES IDX 17 13 18 14 19 15 20 16 24 17 22 18 21 19 23 21 32 23 29 25
REMARK SMILES IDX 5 27 14 28 6 29 12 30 7 31 10 32 15 33 13 35 8 37 9 38 11 40
REMARK H PARENT 21 20 23 22 32 24 29 26 15 34 13 36 9 39 11 41
REMARK Flexibility Score: inf
ROOT
ATOM      1  O   UNL     1     -12.549   9.693   5.826  1.00  0.00    -0.454 OA
ENDROOT
BRANCH   1   2
ATOM      2  C   UNL     1     -11.158   9.614   5.993  1.00  0.00     0.214 A 
ATOM      3  C   UNL     1     -10.489   8.389   5.808  1.00  0.00     0.180 A 
ATOM      4  O   UNL     1      -9.161   8.342   5.842  1.00  0.00    -0.452 OA
ATOM      5  C   UNL     1     -10.405  10.739   6.364  1.00  0.00     0.239 A 
ATOM      6  C   UNL     1      -8.404   9.401   6.109  1.00  0.00     0.146 A 
ATOM      7  O   UNL     1     -10.997  11.812   6.663  1.00  0.00    -0.285 OA
ATOM      8  C   UNL     1      -8.997  10.648   6.417  1.00  0.00     0.111 A 
ATOM      9  C   UNL     1      -7.013   9.268   6.092  1.00  0.00     0.094 A 
ATOM     10  C   UNL     1      -8.164  11.744   6.746  1.00  0.00     0.134 A 
ATOM     11  C   UNL     1      -6.195  10.362   6.379  1.00  0.00     0.123 A 
ATOM     12  C   UNL     1      -6.771  11.593   6.716  1.00  0.00     0.093 A 
BRANCH   3  13
ATOM     13  C   UNL     1     -11.233   7.143   5.556  1.00  0.00     0.025 A 
ATOM     14  C   UNL     1     -12.608   7.083   5.821  1.00  0.00     0.016 A 
ATOM     15  C   UNL     1     -13.307   5.887   5.638  1.00  0.00     0.051 A 
ATOM     16  C   UNL     1     -12.646   4.748   5.158  1.00  0.00     0.157 A 
ATOM     17  C   UNL     1     -10.575   6.006   5.059  1.00  0.00     0.062 A 
ATOM     18  C   UNL     1     -11.275   4.812   4.857  1.00  0.00     0.158 A 
BRANCH  16  19
ATOM     19  O   UNL     1     -13.347   3.556   4.976  1.00  0.00    -0.504 OA
ATOM     20  H   UNL     1     -13.931   3.166   5.706  1.00  0.00     0.293 HD
ENDBRANCH  16  19
BRANCH  18  21
ATOM     21  O   UNL     1     -10.592   3.700   4.360  1.00  0.00    -0.504 OA
ATOM     22  H   UNL     1      -9.583   3.630   4.400  1.00  0.00     0.293 HD
ENDBRANCH  18  21
ENDBRANCH   3  13
BRANCH  10  23
ATOM     23  O   UNL     1      -8.709  12.979   7.095  1.00  0.00    -0.507 OA
ATOM     24  H   UNL     1      -9.357  13.467   6.488  1.00  0.00     0.293 HD
ENDBRANCH  10  23
BRANCH  11  25
ATOM     25  O   UNL     1      -4.812  10.221   6.318  1.00  0.00    -0.508 OA
ATOM     26  H   UNL     1      -4.216  10.991   6.043  1.00  0.00     0.293 HD
ENDBRANCH  11  25
ENDBRANCH   1   2
BRANCH   1  27
ATOM     27  C   UNL     1     -13.224  10.768   5.150  1.00  0.00     0.339 C 
ATOM     28  C   UNL     1     -14.701  10.395   4.836  1.00  0.00     0.214 C 
ATOM     29  O   UNL     1     -12.449  11.187   4.027  1.00  0.00    -0.332 OA
ATOM     30  C   UNL     1     -14.791   9.695   3.473  1.00  0.00     0.180 C 
ATOM     31  C   UNL     1     -13.201  11.655   2.918  1.00  0.00     0.179 C 
ATOM     32  C   UNL     1     -14.147  10.556   2.353  1.00  0.00     0.177 C 
BRANCH  28  33
ATOM     33  O   UNL     1     -15.226   9.582   5.852  1.00  0.00    -0.384 OA
ATOM     34  H   UNL     1     -15.518   8.732   5.427  1.00  0.00     0.211 HD
ENDBRANCH  28  33
BRANCH  30  35
ATOM     35  O   UNL     1     -16.125   9.382   3.153  1.00  0.00    -0.387 OA
ATOM     36  H   UNL     1     -16.673  10.197   3.311  1.00  0.00     0.211 HD
ENDBRANCH  30  35
BRANCH  31  37
ATOM     37  C   UNL     1     -13.892  13.017   3.214  1.00  0.00     0.191 C 
BRANCH  37  38
ATOM     38  O   UNL     1     -15.092  13.124   2.496  1.00  0.00    -0.394 OA
ATOM     39  H   UNL     1     -15.494  12.216   2.475  1.00  0.00     0.210 HD
ENDBRANCH  37  38
ENDBRANCH  31  37
BRANCH  32  40
ATOM     40  O   UNL     1     -13.411   9.719   1.495  1.00  0.00    -0.387 OA
ATOM     41  H   UNL     1     -12.597   9.440   1.992  1.00  0.00     0.211 HD
ENDBRANCH  32  40
ENDBRANCH   1  27
TORSDOF 12
ENDMDL
MODEL 5
REMARK VINA RESULT:    -5.226      1.878      2.776
REMARK INTER + INTRA:          -7.967
REMARK INTER:                  -7.443
REMARK INTRA:                  -0.524
REMARK UNBOUND:                -0.297
REMARK SMILES O=c1c(O[C@H]2O[C@H](CO)[C@@H](O)[C@H](O)[C@H]2O)c(-c2ccc(O)c(O)c2)oc2cc(O)cc(O)c12
REMARK SMILES IDX 4 1 3 2 16 3 25 4 2 5 26 6 1 7 33 8 27 9 31 10 28 11 30 12
REMARK SMILES IDX 17 13 18 14 19 15 20 16 24 17 22 18 21 19 23 21 32 23 29 25
REMARK SMILES IDX 5 27 14 28 6 29 12 30 7 31 10 32 15 33 13 35 8 37 9 38 11 40
REMARK H PARENT 21 20 23 22 32 24 29 26 15 34 13 36 9 39 11 41
REMARK Flexibility Score: inf
ROOT
ATOM      1  O   UNL     1     -11.497   7.798   5.809  1.00  0.00    -0.454 OA
ENDROOT
BRANCH   1   2
ATOM      2  C   UNL     1     -12.019   8.889   5.096  1.00  0.00     0.214 A 
ATOM      3  C   UNL     1     -11.193   9.979   4.764  1.00  0.00     0.180 A 
ATOM      4  O   UNL     1     -11.653  10.951   3.982  1.00  0.00    -0.452 OA
ATOM      5  C   UNL     1     -13.369   8.931   4.715  1.00  0.00     0.239 A 
ATOM      6  C   UNL     1     -12.902  10.989   3.531  1.00  0.00     0.146 A 
ATOM      7  O   UNL     1     -14.155   8.030   5.115  1.00  0.00    -0.285 OA
ATOM      8  C   UNL     1     -13.832   9.991   3.906  1.00  0.00     0.111 A 
ATOM      9  C   UNL     1     -13.291  12.032   2.686  1.00  0.00     0.094 A 
ATOM     10  C   UNL     1     -15.168  10.087   3.449  1.00  0.00     0.134 A 
ATOM     11  C   UNL     1     -14.600  12.101   2.206  1.00  0.00     0.123 A 
ATOM     12  C   UNL     1     -15.538  11.137   2.597  1.00  0.00     0.093 A 
BRANCH   3  13
ATOM     13  C   UNL     1      -9.805  10.064   5.252  1.00  0.00     0.025 A 
ATOM     14  C   UNL     1      -8.877   9.075   4.898  1.00  0.00     0.016 A 
ATOM     15  C   UNL     1      -7.577   9.119   5.406  1.00  0.00     0.051 A 
ATOM     16  C   UNL     1      -7.180  10.168   6.246  1.00  0.00     0.157 A 
ATOM     17  C   UNL     1      -9.403  11.124   6.082  1.00  0.00     0.062 A 
ATOM     18  C   UNL     1      -8.096  11.182   6.576  1.00  0.00     0.158 A 
BRANCH  16  19
ATOM     19  O   UNL     1      -5.881  10.209   6.751  1.00  0.00    -0.504 OA
ATOM     20  H   UNL     1      -5.132  10.678   6.254  1.00  0.00     0.293 HD
ENDBRANCH  16  19
BRANCH  18  21
ATOM     21  O   UNL     1      -7.727  12.250   7.396  1.00  0.00    -0.504 OA
ATOM     22  H   UNL     1      -8.330  13.051   7.536  1.00  0.00     0.293 HD
ENDBRANCH  18  21
ENDBRANCH   3  13
BRANCH  10  23
ATOM     23  O   UNL     1     -16.125   9.148   3.830  1.00  0.00    -0.507 OA
ATOM     24  H   UNL     1     -17.108   9.383   3.892  1.00  0.00     0.293 HD
ENDBRANCH  10  23
BRANCH  11  25
ATOM     25  O   UNL     1     -14.960  13.125   1.335  1.00  0.00    -0.508 OA
ATOM     26  H   UNL     1     -14.445  13.294   0.480  1.00  0.00     0.293 HD
ENDBRANCH  11  25
ENDBRANCH   1   2
BRANCH   1  27
ATOM     27  C   UNL     1     -11.938   6.439   5.646  1.00  0.00     0.339 C 
ATOM     28  C   UNL     1     -12.302   5.798   7.016  1.00  0.00     0.214 C 
ATOM     29  O   UNL     1     -10.982   5.717   4.870  1.00  0.00    -0.332 OA
ATOM     30  C   UNL     1     -11.060   5.150   7.643  1.00  0.00     0.180 C 
ATOM     31  C   UNL     1     -10.857   4.342   5.197  1.00  0.00     0.179 C 
ATOM     32  C   UNL     1     -10.401   4.136   6.671  1.00  0.00     0.177 C 
BRANCH  28  33
ATOM     33  O   UNL     1     -12.853   6.761   7.875  1.00  0.00    -0.384 OA
ATOM     34  H   UNL     1     -13.705   6.389   8.226  1.00  0.00     0.211 HD
ENDBRANCH  28  33
BRANCH  30  35
ATOM     35  O   UNL     1     -11.376   4.532   8.867  1.00  0.00    -0.387 OA
ATOM     36  H   UNL     1     -11.813   3.663   8.662  1.00  0.00     0.211 HD
ENDBRANCH  30  35
BRANCH  31  37
ATOM     37  C   UNL     1     -12.116   3.527   4.787  1.00  0.00     0.191 C 
BRANCH  37  38
ATOM     38  O   UNL     1     -11.972   3.024   3.485  1.00  0.00    -0.394 OA
ATOM     39  H   UNL     1     -11.030   3.191   3.218  1.00  0.00     0.210 HD
ENDBRANCH  37  38
ENDBRANCH  31  37
BRANCH  32  40
ATOM     40  O   UNL     1      -9.003   4.275   6.738  1.00  0.00    -0.387 OA
ATOM     41  H   UNL     1      -8.696   3.745   7.521  1.00  0.00     0.211 HD
ENDBRANCH  32  40
ENDBRANCH   1  27
TORSDOF 12
ENDMDL
MODEL 6
REMARK VINA RESULT:    -5.221      1.962      5.955
REMARK INTER + INTRA:          -7.960
REMARK INTER:                  -6.830
REMARK INTRA:                  -1.130
REMARK UNBOUND:                -0.297
REMARK SMILES O=c1c(O[C@H]2O[C@H](CO)[C@@H](O)[C@H](O)[C@H]2O)c(-c2ccc(O)c(O)c2)oc2cc(O)cc(O)c12
REMARK SMILES IDX 4 1 3 2 16 3 25 4 2 5 26 6 1 7 33 8 27 9 31 10 28 11 30 12
REMARK SMILES IDX 17 13 18 14 19 15 20 16 24 17 22 18 21 19 23 21 32 23 29 25
REMARK SMILES IDX 5 27 14 28 6 29 12 30 7 31 10 32 15 33 13 35 8 37 9 38 11 40
REMARK H PARENT 21 20 23 22 32 24 29 26 15 34 13 36 9 39 11 41
REMARK Flexibility Score: inf
ROOT
ATOM      1  O   UNL     1     -11.464   9.055   4.642  1.00  0.00    -0.454 OA
ENDROOT
BRANCH   1   2
ATOM      2  C   UNL     1     -11.268   7.833   5.304  1.00  0.00     0.214 A 
ATOM      3  C   UNL     1     -10.074   7.591   6.009  1.00  0.00     0.180 A 
ATOM      4  O   UNL     1      -9.941   6.488   6.739  1.00  0.00    -0.452 OA
ATOM      5  C   UNL     1     -12.240   6.820   5.266  1.00  0.00     0.239 A 
ATOM      6  C   UNL     1     -10.870   5.541   6.797  1.00  0.00     0.146 A 
ATOM      7  O   UNL     1     -13.256   6.963   4.533  1.00  0.00    -0.285 OA
ATOM      8  C   UNL     1     -12.056   5.649   6.032  1.00  0.00     0.111 A 
ATOM      9  C   UNL     1     -10.661   4.428   7.617  1.00  0.00     0.094 A 
ATOM     10  C   UNL     1     -13.003   4.599   6.076  1.00  0.00     0.134 A 
ATOM     11  C   UNL     1     -11.617   3.413   7.688  1.00  0.00     0.123 A 
ATOM     12  C   UNL     1     -12.779   3.495   6.910  1.00  0.00     0.093 A 
BRANCH   3  13
ATOM     13  C   UNL     1      -8.958   8.553   5.974  1.00  0.00     0.025 A 
ATOM     14  C   UNL     1      -8.254   8.765   4.781  1.00  0.00     0.016 A 
ATOM     15  C   UNL     1      -7.159   9.632   4.756  1.00  0.00     0.051 A 
ATOM     16  C   UNL     1      -6.775  10.320   5.915  1.00  0.00     0.157 A 
ATOM     17  C   UNL     1      -8.583   9.255   7.132  1.00  0.00     0.062 A 
ATOM     18  C   UNL     1      -7.498  10.138   7.106  1.00  0.00     0.158 A 
BRANCH  16  19
ATOM     19  O   UNL     1      -5.682  11.185   5.887  1.00  0.00    -0.504 OA
ATOM     20  H   UNL     1      -5.605  11.966   6.526  1.00  0.00     0.293 HD
ENDBRANCH  16  19
BRANCH  18  21
ATOM     21  O   UNL     1      -7.153  10.822   8.273  1.00  0.00    -0.504 OA
ATOM     22  H   UNL     1      -6.206  11.132   8.452  1.00  0.00     0.293 HD
ENDBRANCH  18  21
ENDBRANCH   3  13
BRANCH  10  23
ATOM     23  O   UNL     1     -14.164   4.648   5.306  1.00  0.00    -0.507 OA
ATOM     24  H   UNL     1     -14.350   3.970   4.577  1.00  0.00     0.293 HD
ENDBRANCH  10  23
BRANCH  11  25
ATOM     25  O   UNL     1     -11.410   2.332   8.539  1.00  0.00    -0.508 OA
ATOM     26  H   UNL     1     -12.162   1.951   9.099  1.00  0.00     0.293 HD
ENDBRANCH  11  25
ENDBRANCH   1   2
BRANCH   1  27
ATOM     27  C   UNL     1     -11.936  10.254   5.278  1.00  0.00     0.339 C 
ATOM     28  C   UNL     1     -13.024  10.956   4.417  1.00  0.00     0.214 C 
ATOM     29  O   UNL     1     -10.824  11.072   5.641  1.00  0.00    -0.332 OA
ATOM     30  C   UNL     1     -12.368  11.931   3.429  1.00  0.00     0.180 C 
ATOM     31  C   UNL     1     -11.064  12.470   5.594  1.00  0.00     0.179 C 
ATOM     32  C   UNL     1     -11.449  12.944   4.163  1.00  0.00     0.177 C 
BRANCH  28  33
ATOM     33  O   UNL     1     -13.801  10.005   3.740  1.00  0.00    -0.384 OA
ATOM     34  H   UNL     1     -13.175   9.349   3.333  1.00  0.00     0.211 HD
ENDBRANCH  28  33
BRANCH  30  35
ATOM     35  O   UNL     1     -13.338  12.605   2.665  1.00  0.00    -0.387 OA
ATOM     36  H   UNL     1     -13.119  13.575   2.686  1.00  0.00     0.211 HD
ENDBRANCH  30  35
BRANCH  31  37
ATOM     37  C   UNL     1     -12.038  12.933   6.715  1.00  0.00     0.191 C 
BRANCH  37  38
ATOM     38  O   UNL     1     -11.569  12.520   7.972  1.00  0.00    -0.394 OA
ATOM     39  H   UNL     1     -11.575  13.324   8.556  1.00  0.00     0.210 HD
ENDBRANCH  37  38
ENDBRANCH  31  37
BRANCH  32  40
ATOM     40  O   UNL     1     -10.273  13.125   3.412  1.00  0.00    -0.387 OA
ATOM     41  H   UNL     1     -10.162  12.315   2.848  1.00  0.00     0.211 HD
ENDBRANCH  32  40
ENDBRANCH   1  27
TORSDOF 12
ENDMDL
MODEL 7
REMARK VINA RESULT:    -5.116      1.791      5.742
REMARK INTER + INTRA:          -7.806
REMARK INTER:                  -6.695
REMARK INTRA:                  -1.111
REMARK UNBOUND:                -0.297
REMARK SMILES O=c1c(O[C@H]2O[C@H](CO)[C@@H](O)[C@H](O)[C@H]2O)c(-c2ccc(O)c(O)c2)oc2cc(O)cc(O)c12
REMARK SMILES IDX 4 1 3 2 16 3 25 4 2 5 26 6 1 7 33 8 27 9 31 10 28 11 30 12
REMARK SMILES IDX 17 13 18 14 19 15 20 16 24 17 22 18 21 19 23 21 32 23 29 25
REMARK SMILES IDX 5 27 14 28 6 29 12 30 7 31 10 32 15 33 13 35 8 37 9 38 11 40
REMARK H PARENT 21 20 23 22 32 24 29 26 15 34 13 36 9 39 11 41
REMARK Flexibility Score: inf
ROOT
ATOM      1  O   UNL     1     -11.710   9.003   4.603  1.00  0.00    -0.454 OA
ENDROOT
BRANCH   1   2
ATOM      2  C   UNL     1     -11.466   7.784   5.256  1.00  0.00     0.214 A 
ATOM      3  C   UNL     1     -10.235   7.559   5.902  1.00  0.00     0.180 A 
ATOM      4  O   UNL     1     -10.052   6.459   6.625  1.00  0.00    -0.452 OA
ATOM      5  C   UNL     1     -12.425   6.759   5.266  1.00  0.00     0.239 A 
ATOM      6  C   UNL     1     -10.965   5.500   6.729  1.00  0.00     0.146 A 
ATOM      7  O   UNL     1     -13.477   6.887   4.584  1.00  0.00    -0.285 OA
ATOM      8  C   UNL     1     -12.188   5.592   6.023  1.00  0.00     0.111 A 
ATOM      9  C   UNL     1     -10.702   4.391   7.539  1.00  0.00     0.094 A 
ATOM     10  C   UNL     1     -13.119   4.529   6.115  1.00  0.00     0.134 A 
ATOM     11  C   UNL     1     -11.640   3.364   7.657  1.00  0.00     0.123 A 
ATOM     12  C   UNL     1     -12.839   3.429   6.937  1.00  0.00     0.093 A 
BRANCH   3  13
ATOM     13  C   UNL     1      -9.135   8.535   5.812  1.00  0.00     0.025 A 
ATOM     14  C   UNL     1      -8.571   8.840   4.566  1.00  0.00     0.016 A 
ATOM     15  C   UNL     1      -7.490   9.720   4.481  1.00  0.00     0.051 A 
ATOM     16  C   UNL     1      -6.981  10.330   5.636  1.00  0.00     0.157 A 
ATOM     17  C   UNL     1      -8.636   9.159   6.967  1.00  0.00     0.062 A 
ATOM     18  C   UNL     1      -7.566  10.056   6.884  1.00  0.00     0.158 A 
BRANCH  16  19
ATOM     19  O   UNL     1      -5.903  11.209   5.548  1.00  0.00    -0.504 OA
ATOM     20  H   UNL     1      -5.561  11.544   4.656  1.00  0.00     0.293 HD
ENDBRANCH  16  19
BRANCH  18  21
ATOM     21  O   UNL     1      -7.096  10.661   8.051  1.00  0.00    -0.504 OA
ATOM     22  H   UNL     1      -7.587  10.579   8.933  1.00  0.00     0.293 HD
ENDBRANCH  18  21
ENDBRANCH   3  13
BRANCH  10  23
ATOM     23  O   UNL     1     -14.316   4.562   5.402  1.00  0.00    -0.507 OA
ATOM     24  H   UNL     1     -15.215   4.514   5.867  1.00  0.00     0.293 HD
ENDBRANCH  10  23
BRANCH  11  25
ATOM     25  O   UNL     1     -11.377   2.287   8.498  1.00  0.00    -0.508 OA
ATOM     26  H   UNL     1     -11.499   1.332   8.184  1.00  0.00     0.293 HD
ENDBRANCH  11  25
ENDBRANCH   1   2
BRANCH   1  27
ATOM     27  C   UNL     1     -12.431  10.102   5.184  1.00  0.00     0.339 C 
ATOM     28  C   UNL     1     -11.813  11.466   4.762  1.00  0.00     0.214 C 
ATOM     29  O   UNL     1     -12.558   9.900   6.591  1.00  0.00    -0.332 OA
ATOM     30  C   UNL     1     -10.712  11.875   5.750  1.00  0.00     0.180 C 
ATOM     31  C   UNL     1     -12.563  11.085   7.372  1.00  0.00     0.179 C 
ATOM     32  C   UNL     1     -11.241  11.891   7.209  1.00  0.00     0.177 C 
BRANCH  28  33
ATOM     33  O   UNL     1     -11.309  11.390   3.455  1.00  0.00    -0.384 OA
ATOM     34  H   UNL     1     -10.876  10.502   3.357  1.00  0.00     0.211 HD
ENDBRANCH  28  33
BRANCH  30  35
ATOM     35  O   UNL     1     -10.164  13.125   5.407  1.00  0.00    -0.387 OA
ATOM     36  H   UNL     1     -10.019  13.131   4.423  1.00  0.00     0.211 HD
ENDBRANCH  30  35
BRANCH  31  37
ATOM     37  C   UNL     1     -13.861  11.917   7.164  1.00  0.00     0.191 C 
BRANCH  37  38
ATOM     38  O   UNL     1     -14.993  11.123   7.400  1.00  0.00    -0.394 OA
ATOM     39  H   UNL     1     -15.582  11.641   8.010  1.00  0.00     0.210 HD
ENDBRANCH  37  38
ENDBRANCH  31  37
BRANCH  32  40
ATOM     40  O   UNL     1     -10.265  11.340   8.059  1.00  0.00    -0.387 OA
ATOM     41  H   UNL     1     -10.205  11.933   8.854  1.00  0.00     0.211 HD
ENDBRANCH  32  40
ENDBRANCH   1  27
TORSDOF 12
ENDMDL
MODEL 8
REMARK VINA RESULT:    -5.025      1.710      6.688
REMARK INTER + INTRA:          -7.673
REMARK INTER:                  -6.261
REMARK INTRA:                  -1.412
REMARK UNBOUND:                -0.297
REMARK SMILES O=c1c(O[C@H]2O[C@H](CO)[C@@H](O)[C@H](O)[C@H]2O)c(-c2ccc(O)c(O)c2)oc2cc(O)cc(O)c12
REMARK SMILES IDX 4 1 3 2 16 3 25 4 2 5 26 6 1 7 33 8 27 9 31 10 28 11 30 12
REMARK SMILES IDX 17 13 18 14 19 15 20 16 24 17 22 18 21 19 23 21 32 23 29 25
REMARK SMILES IDX 5 27 14 28 6 29 12 30 7 31 10 32 15 33 13 35 8 37 9 38 11 40
REMARK H PARENT 21 20 23 22 32 24 29 26 15 34 13 36 9 39 11 41
REMARK Flexibility Score: inf
ROOT
ATOM      1  O   UNL     1     -11.362  10.249   5.203  1.00  0.00    -0.454 OA
ENDROOT
BRANCH   1   2
ATOM      2  C   UNL     1     -11.741   8.945   5.560  1.00  0.00     0.214 A 
ATOM      3  C   UNL     1     -12.954   8.718   6.236  1.00  0.00     0.180 A 
ATOM      4  O   UNL     1     -13.371   7.476   6.461  1.00  0.00    -0.452 OA
ATOM      5  C   UNL     1     -10.917   7.844   5.274  1.00  0.00     0.239 A 
ATOM      6  C   UNL     1     -12.661   6.403   6.133  1.00  0.00     0.146 A 
ATOM      7  O   UNL     1      -9.770   8.037   4.790  1.00  0.00    -0.285 OA
ATOM      8  C   UNL     1     -11.379   6.539   5.550  1.00  0.00     0.111 A 
ATOM      9  C   UNL     1     -13.192   5.132   6.377  1.00  0.00     0.094 A 
ATOM     10  C   UNL     1     -10.627   5.377   5.258  1.00  0.00     0.134 A 
ATOM     11  C   UNL     1     -12.462   3.988   6.051  1.00  0.00     0.123 A 
ATOM     12  C   UNL     1     -11.179   4.112   5.504  1.00  0.00     0.093 A 
BRANCH   3  13
ATOM     13  C   UNL     1     -13.797   9.839   6.690  1.00  0.00     0.025 A 
ATOM     14  C   UNL     1     -14.815  10.330   5.862  1.00  0.00     0.016 A 
ATOM     15  C   UNL     1     -15.578  11.429   6.263  1.00  0.00     0.051 A 
ATOM     16  C   UNL     1     -15.354  12.029   7.510  1.00  0.00     0.157 A 
ATOM     17  C   UNL     1     -13.584  10.430   7.947  1.00  0.00     0.062 A 
ATOM     18  C   UNL     1     -14.358  11.518   8.360  1.00  0.00     0.158 A 
BRANCH  16  19
ATOM     19  O   UNL     1     -16.118  13.125   7.907  1.00  0.00    -0.504 OA
ATOM     20  H   UNL     1     -16.117  13.991   7.383  1.00  0.00     0.293 HD
ENDBRANCH  16  19
BRANCH  18  21
ATOM     21  O   UNL     1     -14.123  12.081   9.616  1.00  0.00    -0.504 OA
ATOM     22  H   UNL     1     -14.807  12.035  10.361  1.00  0.00     0.293 HD
ENDBRANCH  18  21
ENDBRANCH   3  13
BRANCH  10  23
ATOM     23  O   UNL     1      -9.343   5.469   4.722  1.00  0.00    -0.507 OA
ATOM     24  H   UNL     1      -8.990   6.334   4.331  1.00  0.00     0.293 HD
ENDBRANCH  10  23
BRANCH  11  25
ATOM     25  O   UNL     1     -13.022   2.732   6.265  1.00  0.00    -0.508 OA
ATOM     26  H   UNL     1     -13.064   2.041   5.526  1.00  0.00     0.293 HD
ENDBRANCH  11  25
ENDBRANCH   1   2
BRANCH   1  27
ATOM     27  C   UNL     1     -10.467  11.071   5.971  1.00  0.00     0.339 C 
ATOM     28  C   UNL     1      -9.275  11.566   5.104  1.00  0.00     0.214 C 
ATOM     29  O   UNL     1     -10.105  10.390   7.172  1.00  0.00    -0.332 OA
ATOM     30  C   UNL     1      -8.126  10.549   5.154  1.00  0.00     0.180 C 
ATOM     31  C   UNL     1      -8.795  10.661   7.647  1.00  0.00     0.179 C 
ATOM     32  C   UNL     1      -7.707  10.243   6.616  1.00  0.00     0.177 C 
BRANCH  28  33
ATOM     33  O   UNL     1      -9.691  11.787   3.782  1.00  0.00    -0.384 OA
ATOM     34  H   UNL     1     -10.681  11.703   3.767  1.00  0.00     0.211 HD
ENDBRANCH  28  33
BRANCH  30  35
ATOM     35  O   UNL     1      -7.023  10.995   4.404  1.00  0.00    -0.387 OA
ATOM     36  H   UNL     1      -6.291  11.209   5.042  1.00  0.00     0.211 HD
ENDBRANCH  30  35
BRANCH  31  37
ATOM     37  C   UNL     1      -8.658  12.115   8.183  1.00  0.00     0.191 C 
BRANCH  37  38
ATOM     38  O   UNL     1      -7.417  12.657   7.815  1.00  0.00    -0.394 OA
ATOM     39  H   UNL     1      -6.894  12.765   8.652  1.00  0.00     0.210 HD
ENDBRANCH  37  38
ENDBRANCH  31  37
BRANCH  32  40
ATOM     40  O   UNL     1      -7.464   8.863   6.747  1.00  0.00    -0.387 OA
ATOM     41  H   UNL     1      -6.584   8.682   6.322  1.00  0.00     0.211 HD
ENDBRANCH  32  40
ENDBRANCH   1  27
TORSDOF 12
ENDMDL
MODEL 9
REMARK VINA RESULT:    -4.511      1.645      5.594
REMARK INTER + INTRA:          -6.918
REMARK INTER:                  -6.980
REMARK INTRA:                   0.062
REMARK UNBOUND:                -0.297
REMARK SMILES O=c1c(O[C@H]2O[C@H](CO)[C@@H](O)[C@H](O)[C@H]2O)c(-c2ccc(O)c(O)c2)oc2cc(O)cc(O)c12
REMARK SMILES IDX 4 1 3 2 16 3 25 4 2 5 26 6 1 7 33 8 27 9 31 10 28 11 30 12
REMARK SMILES IDX 17 13 18 14 19 15 20 16 24 17 22 18 21 19 23 21 32 23 29 25
REMARK SMILES IDX 5 27 14 28 6 29 12 30 7 31 10 32 15 33 13 35 8 37 9 38 11 40
REMARK H PARENT 21 20 23 22 32 24 29 26 15 34 13 36 9 39 11 41
REMARK Flexibility Score: inf
ROOT
ATOM      1  O   UNL     1     -11.493  10.762   4.963  1.00  0.00    -0.454 OA
ENDROOT
BRANCH   1   2
ATOM      2  C   UNL     1     -11.534   9.387   5.243  1.00  0.00     0.214 A 
ATOM      3  C   UNL     1     -10.389   8.728   5.730  1.00  0.00     0.180 A 
ATOM      4  O   UNL     1     -10.463   7.458   6.113  1.00  0.00    -0.452 OA
ATOM      5  C   UNL     1     -12.700   8.635   5.029  1.00  0.00     0.239 A 
ATOM      6  C   UNL     1     -11.569   6.731   6.004  1.00  0.00     0.146 A 
ATOM      7  O   UNL     1     -13.693   9.175   4.471  1.00  0.00    -0.285 OA
ATOM      8  C   UNL     1     -12.736   7.280   5.423  1.00  0.00     0.111 A 
ATOM      9  C   UNL     1     -11.567   5.410   6.463  1.00  0.00     0.094 A 
ATOM     10  C   UNL     1     -13.883   6.464   5.275  1.00  0.00     0.134 A 
ATOM     11  C   UNL     1     -12.712   4.621   6.352  1.00  0.00     0.123 A 
ATOM     12  C   UNL     1     -13.863   5.145   5.748  1.00  0.00     0.093 A 
BRANCH   3  13
ATOM     13  C   UNL     1      -9.096   9.426   5.845  1.00  0.00     0.025 A 
ATOM     14  C   UNL     1      -8.250   9.520   4.732  1.00  0.00     0.016 A 
ATOM     15  C   UNL     1      -6.999  10.129   4.850  1.00  0.00     0.051 A 
ATOM     16  C   UNL     1      -6.593  10.681   6.074  1.00  0.00     0.157 A 
ATOM     17  C   UNL     1      -8.697   9.993   7.066  1.00  0.00     0.062 A 
ATOM     18  C   UNL     1      -7.452  10.621   7.184  1.00  0.00     0.158 A 
BRANCH  16  19
ATOM     19  O   UNL     1      -5.344  11.289   6.188  1.00  0.00    -0.504 OA
ATOM     20  H   UNL     1      -4.760  11.154   7.005  1.00  0.00     0.293 HD
ENDBRANCH  16  19
BRANCH  18  21
ATOM     21  O   UNL     1      -7.086  11.177   8.411  1.00  0.00    -0.504 OA
ATOM     22  H   UNL     1      -7.474  12.052   8.740  1.00  0.00     0.293 HD
ENDBRANCH  18  21
ENDBRANCH   3  13
BRANCH  10  23
ATOM     23  O   UNL     1     -15.039   6.955   4.670  1.00  0.00    -0.507 OA
ATOM     24  H   UNL     1     -15.916   6.450   4.707  1.00  0.00     0.293 HD
ENDBRANCH  10  23
BRANCH  11  25
ATOM     25  O   UNL     1     -12.704   3.322   6.849  1.00  0.00    -0.508 OA
ATOM     26  H   UNL     1     -12.152   2.594   6.413  1.00  0.00     0.293 HD
ENDBRANCH  11  25
ENDBRANCH   1   2
BRANCH   1  27
ATOM     27  C   UNL     1     -12.339  11.741   5.589  1.00  0.00     0.339 C 
ATOM     28  C   UNL     1     -11.602  12.459   6.755  1.00  0.00     0.214 C 
ATOM     29  O   UNL     1     -13.588  11.142   5.935  1.00  0.00    -0.332 OA
ATOM     30  C   UNL     1     -11.803  11.683   8.065  1.00  0.00     0.180 C 
ATOM     31  C   UNL     1     -14.202  11.661   7.105  1.00  0.00     0.179 C 
ATOM     32  C   UNL     1     -13.309  11.462   8.364  1.00  0.00     0.177 C 
BRANCH  28  33
ATOM     33  O   UNL     1     -10.237  12.596   6.459  1.00  0.00    -0.384 OA
ATOM     34  H   UNL     1      -9.888  13.339   7.020  1.00  0.00     0.211 HD
ENDBRANCH  28  33
BRANCH  30  35
ATOM     35  O   UNL     1     -11.173  12.335   9.140  1.00  0.00    -0.387 OA
ATOM     36  H   UNL     1     -10.401  12.844   8.775  1.00  0.00     0.211 HD
ENDBRANCH  30  35
BRANCH  31  37
ATOM     37  C   UNL     1     -14.718  13.114   6.897  1.00  0.00     0.191 C 
BRANCH  37  38
ATOM     38  O   UNL     1     -15.812  13.124   6.019  1.00  0.00    -0.394 OA
ATOM     39  H   UNL     1     -16.625  13.244   6.577  1.00  0.00     0.210 HD
ENDBRANCH  37  38
ENDBRANCH  31  37
BRANCH  32  40
ATOM     40  O   UNL     1     -13.495  10.156   8.851  1.00  0.00    -0.387 OA
ATOM     41  H   UNL     1     -13.417   9.543   8.074  1.00  0.00     0.211 HD
ENDBRANCH  32  40
ENDBRANCH   1  27
TORSDOF 12
ENDMDL
