MODEL 1
REMARK VINA RESULT:    -3.498      0.000      0.000
REMARK INTER + INTRA:          -8.377
REMARK INTER:                  -6.770
REMARK INTRA:                  -1.606
REMARK UNBOUND:                -1.606
REMARK SMILES CCCCCCCCCCCCCCCCCC(=O)[O-]
REMARK SMILES IDX 10 1 11 2 12 3 13 4 14 5 15 6 16 7 17 8 18 9 19 10 20 11
REMARK SMILES IDX 9 12 8 13 7 14 6 15 5 16 4 17 3 18 2 19 1 20
REMARK H PARENT
REMARK Flexibility Score: inf
ROOT
ATOM      1  C   UNL     1     -12.027  -8.117  -7.041  1.00  0.00     0.000 C 
ENDROOT
BRANCH   1   2
ATOM      2  C   UNL     1     -10.613  -8.634  -7.373  1.00  0.00     0.000 C 
BRANCH   2   3
ATOM      3  C   UNL     1      -9.536  -8.073  -6.430  1.00  0.00     0.000 C 
BRANCH   3   4
ATOM      4  C   UNL     1      -8.416  -9.086  -6.131  1.00  0.00     0.000 C 
BRANCH   4   5
ATOM      5  C   UNL     1      -8.435 -10.365  -6.994  1.00  0.00     0.000 C 
BRANCH   5   6
ATOM      6  C   UNL     1      -7.061 -10.824  -7.516  1.00  0.00     0.000 C 
BRANCH   6   7
ATOM      7  C   UNL     1      -5.922  -9.874  -7.111  1.00  0.00     0.006 C 
BRANCH   7   8
ATOM      8  C   UNL     1      -5.043  -9.480  -8.306  1.00  0.00     0.053 C 
BRANCH   8   9
ATOM      9  C   UNL     1      -3.907 -10.437  -8.502  1.00  0.00     0.041 C 
ATOM     10  O   UNL     1      -3.217 -10.811  -7.519  1.00  0.00    -0.550 OA
ATOM     11  O   UNL     1      -3.630 -10.940  -9.768  1.00  0.00    -0.550 OA
ENDBRANCH   8   9
ENDBRANCH   7   8
ENDBRANCH   6   7
ENDBRANCH   5   6
ENDBRANCH   4   5
ENDBRANCH   3   4
ENDBRANCH   2   3
ENDBRANCH   1   2
BRANCH   1  12
ATOM     12  C   UNL     1     -12.326  -7.952  -5.540  1.00  0.00     0.000 C 
BRANCH  12  13
ATOM     13  C   UNL     1     -13.397  -8.908  -4.980  1.00  0.00    -0.000 C 
BRANCH  13  14
ATOM     14  C   UNL     1     -13.162 -10.389  -5.348  1.00  0.00    -0.000 C 
BRANCH  14  15
ATOM     15  C   UNL     1     -14.312 -10.974  -6.186  1.00  0.00    -0.000 C 
BRANCH  15  16
ATOM     16  C   UNL     1     -15.668 -10.891  -5.468  1.00  0.00    -0.000 C 
BRANCH  16  17
ATOM     17  C   UNL     1     -16.764 -10.257  -6.342  1.00  0.00    -0.000 C 
BRANCH  17  18
ATOM     18  C   UNL     1     -16.617  -8.732  -6.460  1.00  0.00    -0.000 C 
BRANCH  18  19
ATOM     19  C   UNL     1     -16.535  -8.259  -7.918  1.00  0.00    -0.003 C 
ATOM     20  C   UNL     1     -15.470  -7.178  -8.087  1.00  0.00     0.004 C 
ENDBRANCH  18  19
ENDBRANCH  17  18
ENDBRANCH  16  17
ENDBRANCH  15  16
ENDBRANCH  14  15
ENDBRANCH  13  14
ENDBRANCH  12  13
ENDBRANCH   1  12
TORSDOF 16
ENDMDL
MODEL 2
REMARK VINA RESULT:    -3.465      2.155      3.493
REMARK INTER + INTRA:          -8.312
REMARK INTER:                  -7.402
REMARK INTRA:                  -0.910
REMARK UNBOUND:                -1.606
REMARK SMILES CCCCCCCCCCCCCCCCCC(=O)[O-]
REMARK SMILES IDX 10 1 11 2 12 3 13 4 14 5 15 6 16 7 17 8 18 9 19 10 20 11
REMARK SMILES IDX 9 12 8 13 7 14 6 15 5 16 4 17 3 18 2 19 1 20
REMARK H PARENT
REMARK Flexibility Score: inf
ROOT
ATOM      1  C   UNL     1      -8.411  -9.387  -6.506  1.00  0.00     0.000 C 
ENDROOT
BRANCH   1   2
ATOM      2  C   UNL     1      -8.039 -10.872  -6.677  1.00  0.00     0.000 C 
BRANCH   2   3
ATOM      3  C   UNL     1      -7.130 -11.125  -7.892  1.00  0.00     0.000 C 
BRANCH   3   4
ATOM      4  C   UNL     1      -5.636 -10.940  -7.569  1.00  0.00     0.000 C 
BRANCH   4   5
ATOM      5  C   UNL     1      -4.888  -9.925  -8.460  1.00  0.00     0.000 C 
BRANCH   5   6
ATOM      6  C   UNL     1      -4.789  -8.500  -7.888  1.00  0.00     0.000 C 
BRANCH   6   7
ATOM      7  C   UNL     1      -4.855  -8.468  -6.352  1.00  0.00     0.006 C 
BRANCH   7   8
ATOM      8  C   UNL     1      -4.640  -7.055  -5.792  1.00  0.00     0.053 C 
BRANCH   8   9
ATOM      9  C   UNL     1      -3.288  -6.515  -6.146  1.00  0.00     0.041 C 
ATOM     10  O   UNL     1      -3.182  -5.530  -6.921  1.00  0.00    -0.550 OA
ATOM     11  O   UNL     1      -2.145  -7.081  -5.594  1.00  0.00    -0.550 OA
ENDBRANCH   8   9
ENDBRANCH   7   8
ENDBRANCH   6   7
ENDBRANCH   5   6
ENDBRANCH   4   5
ENDBRANCH   3   4
ENDBRANCH   2   3
ENDBRANCH   1   2
BRANCH   1  12
ATOM     12  C   UNL     1      -9.842  -9.126  -6.002  1.00  0.00     0.000 C 
BRANCH  12  13
ATOM     13  C   UNL     1     -10.797  -8.507  -7.041  1.00  0.00    -0.000 C 
BRANCH  13  14
ATOM     14  C   UNL     1     -12.288  -8.613  -6.656  1.00  0.00    -0.000 C 
BRANCH  14  15
ATOM     15  C   UNL     1     -12.826  -7.313  -6.033  1.00  0.00    -0.000 C 
BRANCH  15  16
ATOM     16  C   UNL     1     -14.316  -7.406  -5.666  1.00  0.00    -0.000 C 
BRANCH  16  17
ATOM     17  C   UNL     1     -14.908  -8.800  -5.937  1.00  0.00    -0.000 C 
BRANCH  17  18
ATOM     18  C   UNL     1     -16.396  -8.746  -6.318  1.00  0.00    -0.000 C 
BRANCH  18  19
ATOM     19  C   UNL     1     -16.611  -8.523  -7.822  1.00  0.00    -0.003 C 
ATOM     20  C   UNL     1     -16.262  -7.092  -8.221  1.00  0.00     0.004 C 
ENDBRANCH  18  19
ENDBRANCH  17  18
ENDBRANCH  16  17
ENDBRANCH  15  16
ENDBRANCH  14  15
ENDBRANCH  13  14
ENDBRANCH  12  13
ENDBRANCH   1  12
TORSDOF 16
ENDMDL
MODEL 3
REMARK VINA RESULT:    -3.459      4.512      9.511
REMARK INTER + INTRA:          -8.300
REMARK INTER:                  -6.974
REMARK INTRA:                  -1.326
REMARK UNBOUND:                -1.606
REMARK SMILES CCCCCCCCCCCCCCCCCC(=O)[O-]
REMARK SMILES IDX 10 1 11 2 12 3 13 4 14 5 15 6 16 7 17 8 18 9 19 10 20 11
REMARK SMILES IDX 9 12 8 13 7 14 6 15 5 16 4 17 3 18 2 19 1 20
REMARK H PARENT
REMARK Flexibility Score: inf
ROOT
ATOM      1  C   UNL     1      -8.396  -8.684  -6.409  1.00  0.00     0.000 C 
ENDROOT
BRANCH   1   2
ATOM      2  C   UNL     1      -9.823  -8.161  -6.663  1.00  0.00     0.000 C 
BRANCH   2   3
ATOM      3  C   UNL     1     -10.865  -9.288  -6.756  1.00  0.00     0.000 C 
BRANCH   3   4
ATOM      4  C   UNL     1     -12.197  -8.928  -6.075  1.00  0.00     0.000 C 
BRANCH   4   5
ATOM      5  C   UNL     1     -12.337  -7.457  -5.632  1.00  0.00     0.000 C 
BRANCH   5   6
ATOM      6  C   UNL     1     -13.756  -7.031  -5.213  1.00  0.00     0.000 C 
BRANCH   6   7
ATOM      7  C   UNL     1     -14.817  -8.097  -5.532  1.00  0.00     0.006 C 
BRANCH   7   8
ATOM      8  C   UNL     1     -16.087  -7.486  -6.139  1.00  0.00     0.053 C 
BRANCH   8   9
ATOM      9  C   UNL     1     -16.207  -7.787  -7.602  1.00  0.00     0.041 C 
ATOM     10  O   UNL     1     -15.681  -7.022  -8.451  1.00  0.00    -0.550 OA
ATOM     11  O   UNL     1     -16.873  -8.931  -8.026  1.00  0.00    -0.550 OA
ENDBRANCH   8   9
ENDBRANCH   7   8
ENDBRANCH   6   7
ENDBRANCH   5   6
ENDBRANCH   4   5
ENDBRANCH   3   4
ENDBRANCH   2   3
ENDBRANCH   1   2
BRANCH   1  12
ATOM     12  C   UNL     1      -8.272 -10.215  -6.292  1.00  0.00     0.000 C 
BRANCH  12  13
ATOM     13  C   UNL     1      -7.630 -10.912  -7.508  1.00  0.00    -0.000 C 
BRANCH  13  14
ATOM     14  C   UNL     1      -6.101 -11.088  -7.387  1.00  0.00    -0.000 C 
BRANCH  14  15
ATOM     15  C   UNL     1      -5.325 -10.008  -8.161  1.00  0.00    -0.000 C 
BRANCH  15  16
ATOM     16  C   UNL     1      -4.195  -9.382  -7.330  1.00  0.00    -0.000 C 
BRANCH  16  17
ATOM     17  C   UNL     1      -4.607  -9.121  -5.870  1.00  0.00    -0.000 C 
BRANCH  17  18
ATOM     18  C   UNL     1      -4.868  -7.633  -5.587  1.00  0.00    -0.000 C 
BRANCH  18  19
ATOM     19  C   UNL     1      -3.571  -6.819  -5.476  1.00  0.00    -0.003 C 
ATOM     20  C   UNL     1      -3.364  -5.944  -6.710  1.00  0.00     0.004 C 
ENDBRANCH  18  19
ENDBRANCH  17  18
ENDBRANCH  16  17
ENDBRANCH  15  16
ENDBRANCH  14  15
ENDBRANCH  13  14
ENDBRANCH  12  13
ENDBRANCH   1  12
TORSDOF 16
ENDMDL
MODEL 4
REMARK VINA RESULT:    -3.056      4.240      9.211
REMARK INTER + INTRA:          -7.521
REMARK INTER:                  -6.202
REMARK INTRA:                  -1.319
REMARK UNBOUND:                -1.606
REMARK SMILES CCCCCCCCCCCCCCCCCC(=O)[O-]
REMARK SMILES IDX 10 1 11 2 12 3 13 4 14 5 15 6 16 7 17 8 18 9 19 10 20 11
REMARK SMILES IDX 9 12 8 13 7 14 6 15 5 16 4 17 3 18 2 19 1 20
REMARK H PARENT
REMARK Flexibility Score: inf
ROOT
ATOM      1  C   UNL     1     -11.301  -8.294  -6.560  1.00  0.00     0.000 C 
ENDROOT
BRANCH   1   2
ATOM      2  C   UNL     1     -12.688  -8.918  -6.308  1.00  0.00     0.000 C 
BRANCH   2   3
ATOM      3  C   UNL     1     -12.628 -10.439  -6.091  1.00  0.00     0.000 C 
BRANCH   3   4
ATOM      4  C   UNL     1     -13.973 -11.031  -5.634  1.00  0.00     0.000 C 
BRANCH   4   5
ATOM      5  C   UNL     1     -15.022 -10.002  -5.161  1.00  0.00     0.000 C 
BRANCH   5   6
ATOM      6  C   UNL     1     -16.410 -10.135  -5.814  1.00  0.00     0.000 C 
BRANCH   6   7
ATOM      7  C   UNL     1     -16.560  -9.270  -7.076  1.00  0.00     0.006 C 
BRANCH   7   8
ATOM      8  C   UNL     1     -16.294  -7.785  -6.796  1.00  0.00     0.053 C 
BRANCH   8   9
ATOM      9  C   UNL     1     -15.870  -7.051  -8.031  1.00  0.00     0.041 C 
ATOM     10  O   UNL     1     -16.716  -6.419  -8.715  1.00  0.00    -0.550 OA
ATOM     11  O   UNL     1     -14.533  -7.040  -8.411  1.00  0.00    -0.550 OA
ENDBRANCH   8   9
ENDBRANCH   7   8
ENDBRANCH   6   7
ENDBRANCH   5   6
ENDBRANCH   4   5
ENDBRANCH   3   4
ENDBRANCH   2   3
ENDBRANCH   1   2
BRANCH   1  12
ATOM     12  C   UNL     1     -10.331  -9.167  -7.377  1.00  0.00     0.000 C 
BRANCH  12  13
ATOM     13  C   UNL     1      -8.931  -9.342  -6.756  1.00  0.00    -0.000 C 
BRANCH  13  14
ATOM     14  C   UNL     1      -8.752  -8.610  -5.409  1.00  0.00    -0.000 C 
BRANCH  14  15
ATOM     15  C   UNL     1      -7.312  -8.708  -4.876  1.00  0.00    -0.000 C 
BRANCH  15  16
ATOM     16  C   UNL     1      -6.338  -7.793  -5.633  1.00  0.00    -0.000 C 
BRANCH  16  17
ATOM     17  C   UNL     1      -4.864  -8.162  -5.386  1.00  0.00    -0.000 C 
BRANCH  17  18
ATOM     18  C   UNL     1      -4.210  -8.828  -6.608  1.00  0.00    -0.000 C 
BRANCH  18  19
ATOM     19  C   UNL     1      -5.157  -8.904  -7.814  1.00  0.00    -0.003 C 
ATOM     20  C   UNL     1      -4.597  -9.825  -8.895  1.00  0.00     0.004 C 
ENDBRANCH  18  19
ENDBRANCH  17  18
ENDBRANCH  16  17
ENDBRANCH  15  16
ENDBRANCH  14  15
ENDBRANCH  13  14
ENDBRANCH  12  13
ENDBRANCH   1  12
TORSDOF 16
ENDMDL
MODEL 5
REMARK VINA RESULT:    -3.050      1.462      2.522
REMARK INTER + INTRA:          -7.509
REMARK INTER:                  -6.226
REMARK INTRA:                  -1.283
REMARK UNBOUND:                -1.606
REMARK SMILES CCCCCCCCCCCCCCCCCC(=O)[O-]
REMARK SMILES IDX 10 1 11 2 12 3 13 4 14 5 15 6 16 7 17 8 18 9 19 10 20 11
REMARK SMILES IDX 9 12 8 13 7 14 6 15 5 16 4 17 3 18 2 19 1 20
REMARK H PARENT
REMARK Flexibility Score: inf
ROOT
ATOM      1  C   UNL     1     -10.904  -8.670  -6.602  1.00  0.00     0.000 C 
ENDROOT
BRANCH   1   2
ATOM      2  C   UNL     1     -10.336 -10.083  -6.368  1.00  0.00     0.000 C 
BRANCH   2   3
ATOM      3  C   UNL     1      -9.089 -10.085  -5.468  1.00  0.00     0.000 C 
BRANCH   3   4
ATOM      4  C   UNL     1      -7.829  -9.578  -6.192  1.00  0.00     0.000 C 
BRANCH   4   5
ATOM      5  C   UNL     1      -7.436 -10.362  -7.462  1.00  0.00     0.000 C 
BRANCH   5   6
ATOM      6  C   UNL     1      -6.041 -11.014  -7.424  1.00  0.00     0.000 C 
BRANCH   6   7
ATOM      7  C   UNL     1      -5.060 -10.381  -8.425  1.00  0.00     0.006 C 
BRANCH   7   8
ATOM      8  C   UNL     1      -4.912  -8.868  -8.213  1.00  0.00     0.053 C 
BRANCH   8   9
ATOM      9  C   UNL     1      -4.276  -8.549  -6.895  1.00  0.00     0.041 C 
ATOM     10  O   UNL     1      -4.739  -7.627  -6.174  1.00  0.00    -0.550 OA
ATOM     11  O   UNL     1      -3.189  -9.291  -6.448  1.00  0.00    -0.550 OA
ENDBRANCH   8   9
ENDBRANCH   7   8
ENDBRANCH   6   7
ENDBRANCH   5   6
ENDBRANCH   4   5
ENDBRANCH   3   4
ENDBRANCH   2   3
ENDBRANCH   1   2
BRANCH   1  12
ATOM     12  C   UNL     1     -10.852  -7.735  -5.379  1.00  0.00     0.000 C 
BRANCH  12  13
ATOM     13  C   UNL     1     -12.210  -7.143  -4.954  1.00  0.00    -0.000 C 
BRANCH  13  14
ATOM     14  C   UNL     1     -13.369  -8.161  -4.985  1.00  0.00    -0.000 C 
BRANCH  14  15
ATOM     15  C   UNL     1     -14.731  -7.492  -5.245  1.00  0.00    -0.000 C 
BRANCH  15  16
ATOM     16  C   UNL     1     -15.084  -7.431  -6.739  1.00  0.00    -0.000 C 
BRANCH  16  17
ATOM     17  C   UNL     1     -16.279  -8.329  -7.104  1.00  0.00    -0.000 C 
BRANCH  17  18
ATOM     18  C   UNL     1     -17.086  -8.766  -5.871  1.00  0.00    -0.000 C 
BRANCH  18  19
ATOM     19  C   UNL     1     -17.363 -10.276  -5.853  1.00  0.00    -0.003 C 
ATOM     20  C   UNL     1     -16.183 -11.043  -5.260  1.00  0.00     0.004 C 
ENDBRANCH  18  19
ENDBRANCH  17  18
ENDBRANCH  16  17
ENDBRANCH  15  16
ENDBRANCH  14  15
ENDBRANCH  13  14
ENDBRANCH  12  13
ENDBRANCH   1  12
TORSDOF 16
ENDMDL
MODEL 6
REMARK VINA RESULT:    -2.684      4.335      9.649
REMARK INTER + INTRA:          -6.801
REMARK INTER:                  -5.923
REMARK INTRA:                  -0.878
REMARK UNBOUND:                -1.606
REMARK SMILES CCCCCCCCCCCCCCCCCC(=O)[O-]
REMARK SMILES IDX 10 1 11 2 12 3 13 4 14 5 15 6 16 7 17 8 18 9 19 10 20 11
REMARK SMILES IDX 9 12 8 13 7 14 6 15 5 16 4 17 3 18 2 19 1 20
REMARK H PARENT
REMARK Flexibility Score: inf
ROOT
ATOM      1  C   UNL     1      -8.667  -7.792  -5.751  1.00  0.00     0.000 C 
ENDROOT
BRANCH   1   2
ATOM      2  C   UNL     1     -10.124  -7.452  -5.382  1.00  0.00     0.000 C 
BRANCH   2   3
ATOM      3  C   UNL     1     -11.150  -8.228  -6.224  1.00  0.00     0.000 C 
BRANCH   3   4
ATOM      4  C   UNL     1     -12.443  -8.545  -5.451  1.00  0.00     0.000 C 
BRANCH   4   5
ATOM      5  C   UNL     1     -13.276  -7.317  -5.027  1.00  0.00     0.000 C 
BRANCH   5   6
ATOM      6  C   UNL     1     -14.802  -7.521  -5.053  1.00  0.00     0.000 C 
BRANCH   6   7
ATOM      7  C   UNL     1     -15.253  -8.507  -6.143  1.00  0.00     0.006 C 
BRANCH   7   8
ATOM      8  C   UNL     1     -16.400  -7.944  -6.994  1.00  0.00     0.053 C 
BRANCH   8   9
ATOM      9  C   UNL     1     -15.896  -7.057  -8.091  1.00  0.00     0.041 C 
ATOM     10  O   UNL     1     -16.694  -6.319  -8.726  1.00  0.00    -0.550 OA
ATOM     11  O   UNL     1     -14.540  -7.021  -8.392  1.00  0.00    -0.550 OA
ENDBRANCH   8   9
ENDBRANCH   7   8
ENDBRANCH   6   7
ENDBRANCH   5   6
ENDBRANCH   4   5
ENDBRANCH   3   4
ENDBRANCH   2   3
ENDBRANCH   1   2
BRANCH   1  12
ATOM     12  C   UNL     1      -8.005  -8.872  -4.875  1.00  0.00     0.000 C 
BRANCH  12  13
ATOM     13  C   UNL     1      -6.531  -9.172  -5.211  1.00  0.00    -0.000 C 
BRANCH  13  14
ATOM     14  C   UNL     1      -5.695  -7.911  -5.516  1.00  0.00    -0.000 C 
BRANCH  14  15
ATOM     15  C   UNL     1      -4.413  -8.234  -6.304  1.00  0.00    -0.000 C 
BRANCH  15  16
ATOM     16  C   UNL     1      -3.614  -9.391  -5.684  1.00  0.00    -0.000 C 
BRANCH  16  17
ATOM     17  C   UNL     1      -3.577 -10.637  -6.586  1.00  0.00    -0.000 C 
BRANCH  17  18
ATOM     18  C   UNL     1      -3.354 -10.287  -8.066  1.00  0.00    -0.000 C 
BRANCH  18  19
ATOM     19  C   UNL     1      -4.652 -10.339  -8.885  1.00  0.00    -0.003 C 
ATOM     20  C   UNL     1      -5.774 -11.009  -8.096  1.00  0.00     0.004 C 
ENDBRANCH  18  19
ENDBRANCH  17  18
ENDBRANCH  16  17
ENDBRANCH  15  16
ENDBRANCH  14  15
ENDBRANCH  13  14
ENDBRANCH  12  13
ENDBRANCH   1  12
TORSDOF 16
ENDMDL
MODEL 7
REMARK VINA RESULT:    -2.405      1.500      2.874
REMARK INTER + INTRA:          -6.261
REMARK INTER:                  -4.827
REMARK INTRA:                  -1.433
REMARK UNBOUND:                -1.606
REMARK SMILES CCCCCCCCCCCCCCCCCC(=O)[O-]
REMARK SMILES IDX 10 1 11 2 12 3 13 4 14 5 15 6 16 7 17 8 18 9 19 10 20 11
REMARK SMILES IDX 9 12 8 13 7 14 6 15 5 16 4 17 3 18 2 19 1 20
REMARK H PARENT
REMARK Flexibility Score: inf
ROOT
ATOM      1  C   UNL     1     -12.892  -7.401  -7.345  1.00  0.00     0.000 C 
ENDROOT
BRANCH   1   2
ATOM      2  C   UNL     1     -11.758  -8.397  -7.657  1.00  0.00     0.000 C 
BRANCH   2   3
ATOM      3  C   UNL     1     -10.701  -8.467  -6.542  1.00  0.00     0.000 C 
BRANCH   3   4
ATOM      4  C   UNL     1      -9.828  -9.732  -6.624  1.00  0.00     0.000 C 
BRANCH   4   5
ATOM      5  C   UNL     1      -8.325  -9.516  -6.346  1.00  0.00     0.000 C 
BRANCH   5   6
ATOM      6  C   UNL     1      -7.984  -8.248  -5.543  1.00  0.00     0.000 C 
BRANCH   6   7
ATOM      7  C   UNL     1      -6.559  -7.738  -5.812  1.00  0.00     0.006 C 
BRANCH   7   8
ATOM      8  C   UNL     1      -5.555  -8.886  -5.982  1.00  0.00     0.053 C 
BRANCH   8   9
ATOM      9  C   UNL     1      -4.422  -8.507  -6.886  1.00  0.00     0.041 C 
ATOM     10  O   UNL     1      -3.963  -9.340  -7.710  1.00  0.00    -0.550 OA
ATOM     11  O   UNL     1      -3.892  -7.223  -6.840  1.00  0.00    -0.550 OA
ENDBRANCH   8   9
ENDBRANCH   7   8
ENDBRANCH   6   7
ENDBRANCH   5   6
ENDBRANCH   4   5
ENDBRANCH   3   4
ENDBRANCH   2   3
ENDBRANCH   1   2
BRANCH   1  12
ATOM     12  C   UNL     1     -13.803  -7.796  -6.168  1.00  0.00     0.000 C 
BRANCH  12  13
ATOM     13  C   UNL     1     -15.135  -7.025  -6.088  1.00  0.00    -0.000 C 
BRANCH  13  14
ATOM     14  C   UNL     1     -15.934  -7.025  -7.408  1.00  0.00    -0.000 C 
BRANCH  14  15
ATOM     15  C   UNL     1     -16.138  -8.443  -7.970  1.00  0.00    -0.000 C 
BRANCH  15  16
ATOM     16  C   UNL     1     -17.108  -9.281  -7.122  1.00  0.00    -0.000 C 
BRANCH  16  17
ATOM     17  C   UNL     1     -16.486 -10.604  -6.642  1.00  0.00    -0.000 C 
BRANCH  17  18
ATOM     18  C   UNL     1     -16.125 -10.580  -5.149  1.00  0.00    -0.000 C 
BRANCH  18  19
ATOM     19  C   UNL     1     -14.660 -10.957  -4.891  1.00  0.00    -0.003 C 
ATOM     20  C   UNL     1     -13.897 -11.125  -6.202  1.00  0.00     0.004 C 
ENDBRANCH  18  19
ENDBRANCH  17  18
ENDBRANCH  16  17
ENDBRANCH  15  16
ENDBRANCH  14  15
ENDBRANCH  13  14
ENDBRANCH  12  13
ENDBRANCH   1  12
TORSDOF 16
ENDMDL
MODEL 8
REMARK VINA RESULT:    -2.348      1.916      2.291
REMARK INTER + INTRA:          -6.150
REMARK INTER:                  -5.281
REMARK INTRA:                  -0.870
REMARK UNBOUND:                -1.606
REMARK SMILES CCCCCCCCCCCCCCCCCC(=O)[O-]
REMARK SMILES IDX 10 1 11 2 12 3 13 4 14 5 15 6 16 7 17 8 18 9 19 10 20 11
REMARK SMILES IDX 9 12 8 13 7 14 6 15 5 16 4 17 3 18 2 19 1 20
REMARK H PARENT
REMARK Flexibility Score: inf
ROOT
ATOM      1  C   UNL     1     -12.168  -8.139  -7.291  1.00  0.00     0.000 C 
ENDROOT
BRANCH   1   2
ATOM      2  C   UNL     1     -11.059  -9.187  -7.071  1.00  0.00     0.000 C 
BRANCH   2   3
ATOM      3  C   UNL     1      -9.654  -8.565  -7.004  1.00  0.00     0.000 C 
BRANCH   3   4
ATOM      4  C   UNL     1      -8.602  -9.527  -6.423  1.00  0.00     0.000 C 
BRANCH   4   5
ATOM      5  C   UNL     1      -7.896 -10.433  -7.453  1.00  0.00     0.000 C 
BRANCH   5   6
ATOM      6  C   UNL     1      -6.358 -10.383  -7.425  1.00  0.00     0.000 C 
BRANCH   6   7
ATOM      7  C   UNL     1      -5.783 -10.508  -6.004  1.00  0.00     0.006 C 
BRANCH   7   8
ATOM      8  C   UNL     1      -4.541  -9.630  -5.802  1.00  0.00     0.053 C 
BRANCH   8   9
ATOM      9  C   UNL     1      -4.838  -8.180  -6.035  1.00  0.00     0.041 C 
ATOM     10  O   UNL     1      -5.758  -7.611  -5.392  1.00  0.00    -0.550 OA
ATOM     11  O   UNL     1      -4.078  -7.449  -6.941  1.00  0.00    -0.550 OA
ENDBRANCH   8   9
ENDBRANCH   7   8
ENDBRANCH   6   7
ENDBRANCH   5   6
ENDBRANCH   4   5
ENDBRANCH   3   4
ENDBRANCH   2   3
ENDBRANCH   1   2
BRANCH   1  12
ATOM     12  C   UNL     1     -12.663  -7.434  -6.014  1.00  0.00     0.000 C 
BRANCH  12  13
ATOM     13  C   UNL     1     -13.916  -8.058  -5.370  1.00  0.00    -0.000 C 
BRANCH  13  14
ATOM     14  C   UNL     1     -13.719  -9.520  -4.914  1.00  0.00    -0.000 C 
BRANCH  14  15
ATOM     15  C   UNL     1     -14.818 -10.454  -5.449  1.00  0.00    -0.000 C 
BRANCH  15  16
ATOM     16  C   UNL     1     -15.741  -9.761  -6.463  1.00  0.00    -0.000 C 
BRANCH  16  17
ATOM     17  C   UNL     1     -17.024  -9.210  -5.817  1.00  0.00    -0.000 C 
BRANCH  17  18
ATOM     18  C   UNL     1     -17.287  -7.741  -6.184  1.00  0.00    -0.000 C 
BRANCH  18  19
ATOM     19  C   UNL     1     -17.105  -6.794  -4.988  1.00  0.00    -0.003 C 
ATOM     20  C   UNL     1     -18.276  -5.821  -4.875  1.00  0.00     0.004 C 
ENDBRANCH  18  19
ENDBRANCH  17  18
ENDBRANCH  16  17
ENDBRANCH  15  16
ENDBRANCH  14  15
ENDBRANCH  13  14
ENDBRANCH  12  13
ENDBRANCH   1  12
TORSDOF 16
ENDMDL
