MODEL 1
REMARK VINA RESULT:     1.655      0.000      0.000
REMARK INTER + INTRA:           1.537
REMARK INTER:                   1.800
REMARK INTRA:                  -0.263
REMARK UNBOUND:                -0.263
REMARK SMILES C[C@H]1[C@H](C)CC[C@@]2(C(=O)[O-])CC[C@]3(C)C(=CC[C@H]4[C@@]5(C)CC[C@H](O)C(C)(C)[C@H]5CC[C@]43C)[C@@H]12
REMARK SMILES IDX 7 1 6 2 11 3 33 4 5 5 12 6 15 7 2 8 3 9 13 10 16 11 1 12
REMARK SMILES IDX 4 13 14 14 31 15 17 16 18 17 30 18 32 19 19 20 29 21 28 22
REMARK SMILES IDX 21 23 20 24 25 25 22 26 23 27 26 28 27 29 8 30 9 31 10 32
REMARK SMILES IDX 24 33
REMARK H PARENT 24 34
REMARK Flexibility Score: inf
ROOT
ATOM      1  C   UNL     1      43.444  27.678  -5.115  1.00  0.00     0.017 C 
ATOM      2  C   UNL     1      44.039  27.200  -6.486  1.00  0.00     0.014 C 
ATOM      3  C   UNL     1      43.119  26.407  -4.244  1.00  0.00     0.014 C 
ATOM      4  C   UNL     1      44.443  28.660  -4.374  1.00  0.00     0.030 C 
ATOM      5  C   UNL     1      44.928  28.265  -7.123  1.00  0.00     0.004 C 
ATOM      6  C   UNL     1      43.325  26.508  -2.709  1.00  0.00     0.013 C 
ATOM      7  C   UNL     1      44.218  28.783  -2.851  1.00  0.00    -0.063 C 
ATOM      8  C   UNL     1      45.949  28.379  -4.743  1.00  0.00    -0.003 C 
ATOM      9  C   UNL     1      46.208  28.459  -6.289  1.00  0.00    -0.011 C 
ATOM     10  C   UNL     1      43.186  27.932  -2.086  1.00  0.00    -0.006 C 
ATOM     11  C   UNL     1      45.048  29.601  -2.193  1.00  0.00    -0.027 C 
ATOM     12  C   UNL     1      46.491  27.069  -4.140  1.00  0.00     0.008 C 
ATOM     13  C   UNL     1      46.890  29.780  -6.682  1.00  0.00     0.008 C 
ATOM     14  C   UNL     1      41.739  28.456  -2.372  1.00  0.00     0.017 C 
ATOM     15  C   UNL     1      43.432  27.948  -0.468  1.00  0.00    -0.020 C 
ATOM     16  C   UNL     1      45.554  29.308  -0.822  1.00  0.00     0.032 C 
ATOM     17  C   UNL     1      44.963  28.030  -0.143  1.00  0.00     0.006 C 
ATOM     18  C   UNL     1      42.772  29.197   0.233  1.00  0.00     0.008 C 
ATOM     19  C   UNL     1      42.776  26.653   0.120  1.00  0.00     0.012 C 
ATOM     20  C   UNL     1      45.328  27.926   1.428  1.00  0.00    -0.025 C 
ATOM     21  C   UNL     1      43.421  29.698   1.558  1.00  0.00     0.005 C 
ATOM     22  C   UNL     1      44.218  28.624   2.348  1.00  0.00     0.003 C 
ATOM     23  C   UNL     1      46.751  28.549   1.681  1.00  0.00     0.010 C 
ATOM     24  C   UNL     1      45.436  26.405   1.798  1.00  0.00     0.012 C 
ATOM     25  C   UNL     1      44.681  29.067   3.816  1.00  0.00    -0.006 C 
ATOM     26  C   UNL     1      47.123  28.750   3.145  1.00  0.00     0.033 C 
ATOM     27  C   UNL     1      46.114  29.678   3.814  1.00  0.00     0.120 C 
ATOM     28  C   UNL     1      44.614  27.847   4.783  1.00  0.00     0.014 C 
ATOM     29  C   UNL     1      43.719  30.125   4.428  1.00  0.00     0.014 C 
ENDROOT
BRANCH   1  30
ATOM     30  C   UNL     1      42.141  28.405  -5.477  1.00  0.00     0.048 C 
ATOM     31  O   UNL     1      41.054  27.782  -5.625  1.00  0.00    -0.550 OA
ATOM     32  O   UNL     1      42.120  29.794  -5.566  1.00  0.00    -0.550 OA
ENDBRANCH   1  30
BRANCH  27  33
ATOM     33  O   UNL     1      46.562  29.941   5.123  1.00  0.00    -0.393 OA
ATOM     34  H   UNL     1      46.277  29.183   5.696  1.00  0.00     0.210 HD
ENDBRANCH  27  33
TORSDOF 2
ENDMDL
MODEL 2
REMARK VINA RESULT:     3.435      2.047      3.833
REMARK INTER + INTRA:           3.474
REMARK INTER:                   3.751
REMARK INTRA:                  -0.278
REMARK UNBOUND:                -0.263
REMARK SMILES C[C@H]1[C@H](C)CC[C@@]2(C(=O)[O-])CC[C@]3(C)C(=CC[C@H]4[C@@]5(C)CC[C@H](O)C(C)(C)[C@H]5CC[C@]43C)[C@@H]12
REMARK SMILES IDX 7 1 6 2 11 3 33 4 5 5 12 6 15 7 2 8 3 9 13 10 16 11 1 12
REMARK SMILES IDX 4 13 14 14 31 15 17 16 18 17 30 18 32 19 19 20 29 21 28 22
REMARK SMILES IDX 21 23 20 24 25 25 22 26 23 27 26 28 27 29 8 30 9 31 10 32
REMARK SMILES IDX 24 33
REMARK H PARENT 24 34
REMARK Flexibility Score: inf
ROOT
ATOM      1  C   UNL     1      44.773  29.015  -5.523  1.00  0.00     0.017 C 
ATOM      2  C   UNL     1      43.851  29.722  -6.578  1.00  0.00     0.014 C 
ATOM      3  C   UNL     1      45.500  30.125  -4.676  1.00  0.00     0.014 C 
ATOM      4  C   UNL     1      43.935  28.029  -4.608  1.00  0.00     0.030 C 
ATOM      5  C   UNL     1      42.688  28.831  -7.006  1.00  0.00     0.004 C 
ATOM      6  C   UNL     1      45.761  29.835  -3.173  1.00  0.00     0.013 C 
ATOM      7  C   UNL     1      44.598  27.682  -3.256  1.00  0.00    -0.063 C 
ATOM      8  C   UNL     1      42.435  28.482  -4.450  1.00  0.00    -0.003 C 
ATOM      9  C   UNL     1      41.709  28.633  -5.833  1.00  0.00    -0.011 C 
ATOM     10  C   UNL     1      45.909  28.333  -2.775  1.00  0.00    -0.006 C 
ATOM     11  C   UNL     1      43.914  26.856  -2.455  1.00  0.00    -0.027 C 
ATOM     12  C   UNL     1      42.266  29.739  -3.576  1.00  0.00     0.008 C 
ATOM     13  C   UNL     1      40.784  27.439  -6.123  1.00  0.00     0.008 C 
ATOM     14  C   UNL     1      47.125  27.734  -3.557  1.00  0.00     0.017 C 
ATOM     15  C   UNL     1      46.167  28.120  -1.174  1.00  0.00    -0.020 C 
ATOM     16  C   UNL     1      43.889  27.002  -0.973  1.00  0.00     0.032 C 
ATOM     17  C   UNL     1      44.810  28.123  -0.389  1.00  0.00     0.006 C 
ATOM     18  C   UNL     1      46.853  26.737  -0.849  1.00  0.00     0.008 C 
ATOM     19  C   UNL     1      47.124  29.264  -0.695  1.00  0.00     0.012 C 
ATOM     20  C   UNL     1      44.957  28.044   1.218  1.00  0.00    -0.025 C 
ATOM     21  C   UNL     1      46.582  26.117   0.555  1.00  0.00     0.005 C 
ATOM     22  C   UNL     1      46.201  27.138   1.662  1.00  0.00     0.003 C 
ATOM     23  C   UNL     1      43.613  27.513   1.844  1.00  0.00     0.010 C 
ATOM     24  C   UNL     1      45.152  29.505   1.757  1.00  0.00     0.012 C 
ATOM     25  C   UNL     1      46.157  26.541   3.148  1.00  0.00    -0.006 C 
ATOM     26  C   UNL     1      43.684  27.148   3.322  1.00  0.00     0.033 C 
ATOM     27  C   UNL     1      44.728  26.058   3.538  1.00  0.00     0.120 C 
ATOM     28  C   UNL     1      46.663  27.609   4.163  1.00  0.00     0.014 C 
ATOM     29  C   UNL     1      47.123  25.333   3.312  1.00  0.00     0.014 C 
ENDROOT
BRANCH   1  30
ATOM     30  C   UNL     1      45.806  28.238  -6.352  1.00  0.00     0.048 C 
ATOM     31  O   UNL     1      45.666  27.010  -6.603  1.00  0.00    -0.550 OA
ATOM     32  O   UNL     1      46.886  28.906  -6.921  1.00  0.00    -0.550 OA
ENDBRANCH   1  30
BRANCH  27  33
ATOM     33  O   UNL     1      44.672  25.659   4.888  1.00  0.00    -0.393 OA
ATOM     34  H   UNL     1      44.915  24.698   4.928  1.00  0.00     0.210 HD
ENDBRANCH  27  33
TORSDOF 2
ENDMDL
