MODEL 1
REMARK VINA RESULT:    -4.331      0.000      0.000
REMARK INTER + INTRA:          -7.309
REMARK INTER:                  -6.862
REMARK INTRA:                  -0.447
REMARK UNBOUND:                -0.447
REMARK SMILES CCCCCCCCCCCC(=O)[O-]
REMARK SMILES IDX 7 1 8 2 9 3 10 4 11 5 12 6 13 7 14 8 6 9 5 10 4 11 3 12 2 13
REMARK SMILES IDX 1 14
REMARK H PARENT
REMARK Flexibility Score: inf
ROOT
ATOM      1  C   UNL     1       3.869 -36.718  19.302  1.00  0.00     0.000 C 
ENDROOT
BRANCH   1   2
ATOM      2  C   UNL     1       5.262 -36.341  19.844  1.00  0.00     0.000 C 
BRANCH   2   3
ATOM      3  C   UNL     1       5.300 -34.971  20.555  1.00  0.00     0.000 C 
BRANCH   3   4
ATOM      4  C   UNL     1       6.118 -35.012  21.858  1.00  0.00     0.006 C 
BRANCH   4   5
ATOM      5  C   UNL     1       5.314 -34.506  23.063  1.00  0.00     0.053 C 
BRANCH   5   6
ATOM      6  C   UNL     1       5.771 -35.144  24.339  1.00  0.00     0.041 C 
ATOM      7  O   UNL     1       6.125 -34.431  25.314  1.00  0.00    -0.550 OA
ATOM      8  O   UNL     1       5.775 -36.528  24.461  1.00  0.00    -0.550 OA
ENDBRANCH   5   6
ENDBRANCH   4   5
ENDBRANCH   3   4
ENDBRANCH   2   3
ENDBRANCH   1   2
BRANCH   1   9
ATOM      9  C   UNL     1       3.691 -36.527  17.786  1.00  0.00     0.000 C 
BRANCH   9  10
ATOM     10  C   UNL     1       2.228 -36.517  17.302  1.00  0.00    -0.000 C 
BRANCH  10  11
ATOM     11  C   UNL     1       2.019 -35.759  15.973  1.00  0.00    -0.000 C 
BRANCH  11  12
ATOM     12  C   UNL     1       3.349 -35.447  15.265  1.00  0.00    -0.000 C 
BRANCH  12  13
ATOM     13  C   UNL     1       3.486 -36.178  13.920  1.00  0.00    -0.003 C 
ATOM     14  C   UNL     1       4.502 -37.319  13.971  1.00  0.00     0.004 C 
ENDBRANCH  12  13
ENDBRANCH  11  12
ENDBRANCH  10  11
ENDBRANCH   9  10
ENDBRANCH   1   9
TORSDOF 10
ENDMDL
MODEL 2
REMARK VINA RESULT:    -4.191      4.090      8.084
REMARK INTER + INTRA:          -7.089
REMARK INTER:                  -6.645
REMARK INTRA:                  -0.443
REMARK UNBOUND:                -0.447
REMARK SMILES CCCCCCCCCCCC(=O)[O-]
REMARK SMILES IDX 7 1 8 2 9 3 10 4 11 5 12 6 13 7 14 8 6 9 5 10 4 11 3 12 2 13
REMARK SMILES IDX 1 14
REMARK H PARENT
REMARK Flexibility Score: inf
ROOT
ATOM      1  C   UNL     1       4.973 -35.052  20.059  1.00  0.00     0.000 C 
ENDROOT
BRANCH   1   2
ATOM      2  C   UNL     1       4.382 -36.471  20.174  1.00  0.00     0.000 C 
BRANCH   2   3
ATOM      3  C   UNL     1       3.470 -36.861  18.990  1.00  0.00     0.000 C 
BRANCH   3   4
ATOM      4  C   UNL     1       3.856 -36.131  17.692  1.00  0.00     0.006 C 
BRANCH   4   5
ATOM      5  C   UNL     1       2.801 -36.309  16.592  1.00  0.00     0.053 C 
BRANCH   5   6
ATOM      6  C   UNL     1       3.424 -36.343  15.230  1.00  0.00     0.041 C 
ATOM      7  O   UNL     1       3.442 -35.308  14.514  1.00  0.00    -0.550 OA
ATOM      8  O   UNL     1       4.012 -37.512  14.764  1.00  0.00    -0.550 OA
ENDBRANCH   5   6
ENDBRANCH   4   5
ENDBRANCH   3   4
ENDBRANCH   2   3
ENDBRANCH   1   2
BRANCH   1   9
ATOM      9  C   UNL     1       6.120 -34.747  21.037  1.00  0.00     0.000 C 
BRANCH   9  10
ATOM     10  C   UNL     1       5.999 -35.433  22.411  1.00  0.00    -0.000 C 
BRANCH  10  11
ATOM     11  C   UNL     1       5.704 -34.456  23.569  1.00  0.00    -0.000 C 
BRANCH  11  12
ATOM     12  C   UNL     1       5.888 -35.112  24.948  1.00  0.00    -0.000 C 
BRANCH  12  13
ATOM     13  C   UNL     1       5.372 -36.560  24.986  1.00  0.00    -0.003 C 
ATOM     14  C   UNL     1       5.859 -37.327  26.215  1.00  0.00     0.004 C 
ENDBRANCH  12  13
ENDBRANCH  11  12
ENDBRANCH  10  11
ENDBRANCH   9  10
ENDBRANCH   1   9
TORSDOF 10
ENDMDL
MODEL 3
REMARK VINA RESULT:    -4.001      1.033      1.589
REMARK INTER + INTRA:          -6.787
REMARK INTER:                  -6.411
REMARK INTRA:                  -0.376
REMARK UNBOUND:                -0.447
REMARK SMILES CCCCCCCCCCCC(=O)[O-]
REMARK SMILES IDX 7 1 8 2 9 3 10 4 11 5 12 6 13 7 14 8 6 9 5 10 4 11 3 12 2 13
REMARK SMILES IDX 1 14
REMARK H PARENT
REMARK Flexibility Score: inf
ROOT
ATOM      1  C   UNL     1       5.176 -36.407  20.273  1.00  0.00     0.000 C 
ENDROOT
BRANCH   1   2
ATOM      2  C   UNL     1       5.164 -34.916  20.660  1.00  0.00     0.000 C 
BRANCH   2   3
ATOM      3  C   UNL     1       5.038 -34.672  22.180  1.00  0.00     0.000 C 
BRANCH   3   4
ATOM      4  C   UNL     1       6.066 -35.483  22.988  1.00  0.00     0.006 C 
BRANCH   4   5
ATOM      5  C   UNL     1       5.840 -35.360  24.501  1.00  0.00     0.053 C 
BRANCH   5   6
ATOM      6  C   UNL     1       5.758 -36.704  25.158  1.00  0.00     0.041 C 
ATOM      7  O   UNL     1       6.044 -36.833  26.377  1.00  0.00    -0.550 OA
ATOM      8  O   UNL     1       5.334 -37.809  24.430  1.00  0.00    -0.550 OA
ENDBRANCH   5   6
ENDBRANCH   4   5
ENDBRANCH   3   4
ENDBRANCH   2   3
ENDBRANCH   1   2
BRANCH   1   9
ATOM      9  C   UNL     1       4.103 -36.820  19.250  1.00  0.00     0.000 C 
BRANCH   9  10
ATOM     10  C   UNL     1       4.097 -35.994  17.950  1.00  0.00    -0.000 C 
BRANCH  10  11
ATOM     11  C   UNL     1       3.153 -36.554  16.864  1.00  0.00    -0.000 C 
BRANCH  11  12
ATOM     12  C   UNL     1       2.774 -35.492  15.817  1.00  0.00    -0.000 C 
BRANCH  12  13
ATOM     13  C   UNL     1       3.180 -35.899  14.391  1.00  0.00    -0.003 C 
ATOM     14  C   UNL     1       4.140 -37.089  14.368  1.00  0.00     0.004 C 
ENDBRANCH  12  13
ENDBRANCH  11  12
ENDBRANCH  10  11
ENDBRANCH   9  10
ENDBRANCH   1   9
TORSDOF 10
ENDMDL
MODEL 4
REMARK VINA RESULT:    -2.888      2.978      5.320
REMARK INTER + INTRA:          -5.023
REMARK INTER:                  -4.190
REMARK INTRA:                  -0.833
REMARK UNBOUND:                -0.447
REMARK SMILES CCCCCCCCCCCC(=O)[O-]
REMARK SMILES IDX 7 1 8 2 9 3 10 4 11 5 12 6 13 7 14 8 6 9 5 10 4 11 3 12 2 13
REMARK SMILES IDX 1 14
REMARK H PARENT
REMARK Flexibility Score: inf
ROOT
ATOM      1  C   UNL     1       5.460 -34.859  24.463  1.00  0.00     0.000 C 
ENDROOT
BRANCH   1   2
ATOM      2  C   UNL     1       6.052 -36.167  25.025  1.00  0.00     0.000 C 
BRANCH   2   3
ATOM      3  C   UNL     1       4.990 -37.243  25.338  1.00  0.00     0.000 C 
BRANCH   3   4
ATOM      4  C   UNL     1       5.239 -38.550  24.566  1.00  0.00     0.006 C 
BRANCH   4   5
ATOM      5  C   UNL     1       5.612 -38.296  23.099  1.00  0.00     0.053 C 
BRANCH   5   6
ATOM      6  C   UNL     1       5.818 -39.577  22.351  1.00  0.00     0.041 C 
ATOM      7  O   UNL     1       6.124 -39.557  21.131  1.00  0.00    -0.550 OA
ATOM      8  O   UNL     1       5.703 -40.794  23.012  1.00  0.00    -0.550 OA
ENDBRANCH   5   6
ENDBRANCH   4   5
ENDBRANCH   3   4
ENDBRANCH   2   3
ENDBRANCH   1   2
BRANCH   1   9
ATOM      9  C   UNL     1       6.004 -34.441  23.086  1.00  0.00     0.000 C 
BRANCH   9  10
ATOM     10  C   UNL     1       5.073 -34.756  21.900  1.00  0.00    -0.000 C 
BRANCH  10  11
ATOM     11  C   UNL     1       5.824 -35.054  20.584  1.00  0.00    -0.000 C 
BRANCH  11  12
ATOM     12  C   UNL     1       5.402 -36.396  19.963  1.00  0.00    -0.000 C 
BRANCH  12  13
ATOM     13  C   UNL     1       3.900 -36.452  19.643  1.00  0.00    -0.003 C 
ATOM     14  C   UNL     1       3.622 -36.661  18.154  1.00  0.00     0.004 C 
ENDBRANCH  12  13
ENDBRANCH  11  12
ENDBRANCH  10  11
ENDBRANCH   9  10
ENDBRANCH   1   9
TORSDOF 10
ENDMDL
MODEL 5
REMARK VINA RESULT:    -2.783      3.462      7.203
REMARK INTER + INTRA:          -4.856
REMARK INTER:                  -4.093
REMARK INTRA:                  -0.763
REMARK UNBOUND:                -0.447
REMARK SMILES CCCCCCCCCCCC(=O)[O-]
REMARK SMILES IDX 7 1 8 2 9 3 10 4 11 5 12 6 13 7 14 8 6 9 5 10 4 11 3 12 2 13
REMARK SMILES IDX 1 14
REMARK H PARENT
REMARK Flexibility Score: inf
ROOT
ATOM      1  C   UNL     1       6.053 -34.223  23.601  1.00  0.00     0.000 C 
ENDROOT
BRANCH   1   2
ATOM      2  C   UNL     1       5.252 -34.973  22.519  1.00  0.00     0.000 C 
BRANCH   2   3
ATOM      3  C   UNL     1       6.071 -35.289  21.249  1.00  0.00     0.000 C 
BRANCH   3   4
ATOM      4  C   UNL     1       5.373 -36.320  20.345  1.00  0.00     0.006 C 
BRANCH   4   5
ATOM      5  C   UNL     1       4.494 -35.653  19.278  1.00  0.00     0.053 C 
BRANCH   5   6
ATOM      6  C   UNL     1       3.497 -36.613  18.705  1.00  0.00     0.041 C 
ATOM      7  O   UNL     1       2.646 -37.165  19.450  1.00  0.00    -0.550 OA
ATOM      8  O   UNL     1       3.489 -36.874  17.340  1.00  0.00    -0.550 OA
ENDBRANCH   5   6
ENDBRANCH   4   5
ENDBRANCH   3   4
ENDBRANCH   2   3
ENDBRANCH   1   2
BRANCH   1   9
ATOM      9  C   UNL     1       6.085 -34.911  24.976  1.00  0.00     0.000 C 
BRANCH   9  10
ATOM     10  C   UNL     1       5.028 -36.015  25.173  1.00  0.00    -0.000 C 
BRANCH  10  11
ATOM     11  C   UNL     1       5.620 -37.367  25.626  1.00  0.00    -0.000 C 
BRANCH  11  12
ATOM     12  C   UNL     1       5.149 -38.535  24.742  1.00  0.00    -0.000 C 
BRANCH  12  13
ATOM     13  C   UNL     1       5.487 -38.324  23.258  1.00  0.00    -0.003 C 
ATOM     14  C   UNL     1       5.661 -39.641  22.501  1.00  0.00     0.004 C 
ENDBRANCH  12  13
ENDBRANCH  11  12
ENDBRANCH  10  11
ENDBRANCH   9  10
ENDBRANCH   1   9
TORSDOF 10
ENDMDL
MODEL 6
REMARK VINA RESULT:    -2.580      1.929      2.589
REMARK INTER + INTRA:          -4.535
REMARK INTER:                  -3.983
REMARK INTRA:                  -0.552
REMARK UNBOUND:                -0.447
REMARK SMILES CCCCCCCCCCCC(=O)[O-]
REMARK SMILES IDX 7 1 8 2 9 3 10 4 11 5 12 6 13 7 14 8 6 9 5 10 4 11 3 12 2 13
REMARK SMILES IDX 1 14
REMARK H PARENT
REMARK Flexibility Score: inf
ROOT
ATOM      1  C   UNL     1       4.432 -35.395  18.920  1.00  0.00     0.000 C 
ENDROOT
BRANCH   1   2
ATOM      2  C   UNL     1       5.697 -35.399  19.801  1.00  0.00     0.000 C 
BRANCH   2   3
ATOM      3  C   UNL     1       5.406 -35.185  21.303  1.00  0.00     0.000 C 
BRANCH   3   4
ATOM      4  C   UNL     1       5.793 -36.408  22.153  1.00  0.00     0.006 C 
BRANCH   4   5
ATOM      5  C   UNL     1       5.732 -37.714  21.349  1.00  0.00     0.053 C 
BRANCH   5   6
ATOM      6  C   UNL     1       5.737 -38.914  22.246  1.00  0.00     0.041 C 
ATOM      7  O   UNL     1       6.119 -40.031  21.809  1.00  0.00    -0.550 OA
ATOM      8  O   UNL     1       5.349 -38.791  23.574  1.00  0.00    -0.550 OA
ENDBRANCH   5   6
ENDBRANCH   4   5
ENDBRANCH   3   4
ENDBRANCH   2   3
ENDBRANCH   1   2
BRANCH   1   9
ATOM      9  C   UNL     1       3.966 -36.784  18.450  1.00  0.00     0.000 C 
BRANCH   9  10
ATOM     10  C   UNL     1       2.478 -36.870  18.061  1.00  0.00    -0.000 C 
BRANCH  10  11
ATOM     11  C   UNL     1       2.081 -35.918  16.912  1.00  0.00    -0.000 C 
BRANCH  11  12
ATOM     12  C   UNL     1       2.498 -36.461  15.534  1.00  0.00    -0.000 C 
BRANCH  12  13
ATOM     13  C   UNL     1       3.722 -35.733  14.959  1.00  0.00    -0.003 C 
ATOM     14  C   UNL     1       4.434 -36.543  13.875  1.00  0.00     0.004 C 
ENDBRANCH  12  13
ENDBRANCH  11  12
ENDBRANCH  10  11
ENDBRANCH   9  10
ENDBRANCH   1   9
TORSDOF 10
ENDMDL
MODEL 7
REMARK VINA RESULT:    -2.301      1.767      2.296
REMARK INTER + INTRA:          -4.093
REMARK INTER:                  -3.669
REMARK INTRA:                  -0.424
REMARK UNBOUND:                -0.447
REMARK SMILES CCCCCCCCCCCC(=O)[O-]
REMARK SMILES IDX 7 1 8 2 9 3 10 4 11 5 12 6 13 7 14 8 6 9 5 10 4 11 3 12 2 13
REMARK SMILES IDX 1 14
REMARK H PARENT
REMARK Flexibility Score: inf
ROOT
ATOM      1  C   UNL     1       4.456 -36.976  19.882  1.00  0.00     0.000 C 
ENDROOT
BRANCH   1   2
ATOM      2  C   UNL     1       5.725 -37.673  20.410  1.00  0.00     0.000 C 
BRANCH   2   3
ATOM      3  C   UNL     1       5.521 -38.387  21.764  1.00  0.00     0.000 C 
BRANCH   3   4
ATOM      4  C   UNL     1       5.642 -37.423  22.957  1.00  0.00     0.006 C 
BRANCH   4   5
ATOM      5  C   UNL     1       5.269 -38.095  24.285  1.00  0.00     0.053 C 
BRANCH   5   6
ATOM      6  C   UNL     1       5.480 -37.175  25.448  1.00  0.00     0.041 C 
ATOM      7  O   UNL     1       5.658 -37.642  26.603  1.00  0.00    -0.550 OA
ATOM      8  O   UNL     1       5.513 -35.800  25.250  1.00  0.00    -0.550 OA
ENDBRANCH   5   6
ENDBRANCH   4   5
ENDBRANCH   3   4
ENDBRANCH   2   3
ENDBRANCH   1   2
BRANCH   1   9
ATOM      9  C   UNL     1       4.692 -35.591  19.254  1.00  0.00     0.000 C 
BRANCH   9  10
ATOM     10  C   UNL     1       4.244 -35.461  17.785  1.00  0.00    -0.000 C 
BRANCH  10  11
ATOM     11  C   UNL     1       3.232 -36.541  17.347  1.00  0.00    -0.000 C 
BRANCH  11  12
ATOM     12  C   UNL     1       2.504 -36.164  16.046  1.00  0.00    -0.000 C 
BRANCH  12  13
ATOM     13  C   UNL     1       3.464 -35.655  14.959  1.00  0.00    -0.003 C 
ATOM     14  C   UNL     1       4.111 -36.790  14.166  1.00  0.00     0.004 C 
ENDBRANCH  12  13
ENDBRANCH  11  12
ENDBRANCH  10  11
ENDBRANCH   9  10
ENDBRANCH   1   9
TORSDOF 10
ENDMDL
MODEL 8
REMARK VINA RESULT:    -2.266      4.356      8.209
REMARK INTER + INTRA:          -4.038
REMARK INTER:                  -3.623
REMARK INTRA:                  -0.414
REMARK UNBOUND:                -0.447
REMARK SMILES CCCCCCCCCCCC(=O)[O-]
REMARK SMILES IDX 7 1 8 2 9 3 10 4 11 5 12 6 13 7 14 8 6 9 5 10 4 11 3 12 2 13
REMARK SMILES IDX 1 14
REMARK H PARENT
REMARK Flexibility Score: inf
ROOT
ATOM      1  C   UNL     1       5.379 -36.018  20.801  1.00  0.00     0.000 C 
ENDROOT
BRANCH   1   2
ATOM      2  C   UNL     1       4.788 -35.370  19.534  1.00  0.00     0.000 C 
BRANCH   2   3
ATOM      3  C   UNL     1       4.047 -36.366  18.616  1.00  0.00     0.000 C 
BRANCH   3   4
ATOM      4  C   UNL     1       3.828 -35.804  17.201  1.00  0.00     0.006 C 
BRANCH   4   5
ATOM      5  C   UNL     1       3.154 -36.822  16.271  1.00  0.00     0.053 C 
BRANCH   5   6
ATOM      6  C   UNL     1       3.592 -36.646  14.849  1.00  0.00     0.041 C 
ATOM      7  O   UNL     1       4.328 -37.507  14.301  1.00  0.00    -0.550 OA
ATOM      8  O   UNL     1       3.160 -35.545  14.120  1.00  0.00    -0.550 OA
ENDBRANCH   5   6
ENDBRANCH   4   5
ENDBRANCH   3   4
ENDBRANCH   2   3
ENDBRANCH   1   2
BRANCH   1   9
ATOM      9  C   UNL     1       5.673 -37.523  20.681  1.00  0.00     0.000 C 
BRANCH   9  10
ATOM     10  C   UNL     1       5.546 -38.314  21.998  1.00  0.00    -0.000 C 
BRANCH  10  11
ATOM     11  C   UNL     1       5.764 -37.455  23.261  1.00  0.00    -0.000 C 
BRANCH  11  12
ATOM     12  C   UNL     1       5.249 -38.149  24.534  1.00  0.00    -0.000 C 
BRANCH  12  13
ATOM     13  C   UNL     1       5.485 -37.310  25.800  1.00  0.00    -0.003 C 
ATOM     14  C   UNL     1       5.193 -35.825  25.586  1.00  0.00     0.004 C 
ENDBRANCH  12  13
ENDBRANCH  11  12
ENDBRANCH  10  11
ENDBRANCH   9  10
ENDBRANCH   1   9
TORSDOF 10
ENDMDL
