MODEL 1
REMARK VINA RESULT:    -3.580      0.000      0.000
REMARK INTER + INTRA:          -7.233
REMARK INTER:                  -6.092
REMARK INTRA:                  -1.141
REMARK UNBOUND:                -1.141
REMARK SMILES CCCCCCCCCCCCCC(=O)[O-]
REMARK SMILES IDX 8 1 9 2 10 3 11 4 12 5 13 6 14 7 15 8 16 9 7 10 6 11 5 12
REMARK SMILES IDX 4 13 3 14 2 15 1 16
REMARK H PARENT
REMARK Flexibility Score: inf
ROOT
ATOM      1  C   UNL     1       8.502  -5.971  -7.131  1.00  0.00     0.000 C 
ENDROOT
BRANCH   1   2
ATOM      2  C   UNL     1       8.974  -7.402  -7.455  1.00  0.00     0.000 C 
BRANCH   2   3
ATOM      3  C   UNL     1       9.823  -8.044  -6.336  1.00  0.00     0.000 C 
BRANCH   3   4
ATOM      4  C   UNL     1      11.332  -7.877  -6.578  1.00  0.00     0.000 C 
BRANCH   4   5
ATOM      5  C   UNL     1      12.031  -7.079  -5.461  1.00  0.00     0.006 C 
BRANCH   5   6
ATOM      6  C   UNL     1      12.082  -5.561  -5.704  1.00  0.00     0.053 C 
BRANCH   6   7
ATOM      7  C   UNL     1      11.225  -4.808  -4.734  1.00  0.00     0.041 C 
ATOM      8  O   UNL     1      11.239  -3.549  -4.721  1.00  0.00    -0.550 OA
ATOM      9  O   UNL     1      10.385  -5.496  -3.868  1.00  0.00    -0.550 OA
ENDBRANCH   6   7
ENDBRANCH   5   6
ENDBRANCH   4   5
ENDBRANCH   3   4
ENDBRANCH   2   3
ENDBRANCH   1   2
BRANCH   1  10
ATOM     10  C   UNL     1       9.215  -4.856  -7.918  1.00  0.00     0.000 C 
BRANCH  10  11
ATOM     11  C   UNL     1       8.868  -4.800  -9.417  1.00  0.00    -0.000 C 
BRANCH  11  12
ATOM     12  C   UNL     1       7.853  -3.694  -9.754  1.00  0.00    -0.000 C 
BRANCH  12  13
ATOM     13  C   UNL     1       6.457  -4.252 -10.075  1.00  0.00    -0.000 C 
BRANCH  13  14
ATOM     14  C   UNL     1       5.449  -4.006  -8.943  1.00  0.00    -0.000 C 
BRANCH  14  15
ATOM     15  C   UNL     1       4.150  -3.399  -9.488  1.00  0.00    -0.003 C 
ATOM     16  C   UNL     1       3.224  -4.480 -10.037  1.00  0.00     0.004 C 
ENDBRANCH  14  15
ENDBRANCH  13  14
ENDBRANCH  12  13
ENDBRANCH  11  12
ENDBRANCH  10  11
ENDBRANCH   1  10
TORSDOF 12
ENDMDL
MODEL 2
REMARK VINA RESULT:    -3.502      1.312      2.269
REMARK INTER + INTRA:          -7.099
REMARK INTER:                  -5.477
REMARK INTRA:                  -1.622
REMARK UNBOUND:                -1.141
REMARK SMILES CCCCCCCCCCCCCC(=O)[O-]
REMARK SMILES IDX 8 1 9 2 10 3 11 4 12 5 13 6 14 7 15 8 16 9 7 10 6 11 5 12
REMARK SMILES IDX 4 13 3 14 2 15 1 16
REMARK H PARENT
REMARK Flexibility Score: inf
ROOT
ATOM      1  C   UNL     1       9.000  -8.011  -8.355  1.00  0.00     0.000 C 
ENDROOT
BRANCH   1   2
ATOM      2  C   UNL     1       9.189  -7.716  -6.854  1.00  0.00     0.000 C 
BRANCH   2   3
ATOM      3  C   UNL     1       8.538  -6.393  -6.395  1.00  0.00     0.000 C 
BRANCH   3   4
ATOM      4  C   UNL     1       9.477  -5.188  -6.567  1.00  0.00     0.000 C 
BRANCH   4   5
ATOM      5  C   UNL     1      10.954  -5.541  -6.312  1.00  0.00     0.006 C 
BRANCH   5   6
ATOM      6  C   UNL     1      11.278  -5.891  -4.850  1.00  0.00     0.053 C 
BRANCH   6   7
ATOM      7  C   UNL     1      11.258  -4.684  -3.965  1.00  0.00     0.041 C 
ATOM      8  O   UNL     1      11.476  -3.541  -4.446  1.00  0.00    -0.550 OA
ATOM      9  O   UNL     1      10.966  -4.817  -2.613  1.00  0.00    -0.550 OA
ENDBRANCH   6   7
ENDBRANCH   5   6
ENDBRANCH   4   5
ENDBRANCH   3   4
ENDBRANCH   2   3
ENDBRANCH   1   2
BRANCH   1  10
ATOM     10  C   UNL     1      10.265  -7.840  -9.216  1.00  0.00     0.000 C 
BRANCH  10  11
ATOM     11  C   UNL     1      10.365  -6.495  -9.959  1.00  0.00    -0.000 C 
BRANCH  11  12
ATOM     12  C   UNL     1       9.001  -5.802 -10.125  1.00  0.00    -0.000 C 
BRANCH  12  13
ATOM     13  C   UNL     1       9.112  -4.269 -10.107  1.00  0.00    -0.000 C 
BRANCH  13  14
ATOM     14  C   UNL     1       7.786  -3.587  -9.740  1.00  0.00    -0.000 C 
BRANCH  14  15
ATOM     15  C   UNL     1       6.793  -4.597  -9.153  1.00  0.00    -0.003 C 
ATOM     16  C   UNL     1       5.501  -3.912  -8.718  1.00  0.00     0.004 C 
ENDBRANCH  14  15
ENDBRANCH  13  14
ENDBRANCH  12  13
ENDBRANCH  11  12
ENDBRANCH  10  11
ENDBRANCH   1  10
TORSDOF 12
ENDMDL
MODEL 3
REMARK VINA RESULT:    -3.457      3.286      7.026
REMARK INTER + INTRA:          -7.024
REMARK INTER:                  -5.943
REMARK INTRA:                  -1.080
REMARK UNBOUND:                -1.141
REMARK SMILES CCCCCCCCCCCCCC(=O)[O-]
REMARK SMILES IDX 8 1 9 2 10 3 11 4 12 5 13 6 14 7 15 8 16 9 7 10 6 11 5 12
REMARK SMILES IDX 4 13 3 14 2 15 1 16
REMARK H PARENT
REMARK Flexibility Score: inf
ROOT
ATOM      1  C   UNL     1       8.750  -5.049  -7.493  1.00  0.00     0.000 C 
ENDROOT
BRANCH   1   2
ATOM      2  C   UNL     1       9.624  -5.211  -8.752  1.00  0.00     0.000 C 
BRANCH   2   3
ATOM      3  C   UNL     1       8.863  -4.960 -10.072  1.00  0.00     0.000 C 
BRANCH   3   4
ATOM      4  C   UNL     1       7.871  -3.790  -9.962  1.00  0.00     0.000 C 
BRANCH   4   5
ATOM      5  C   UNL     1       6.403  -4.236 -10.096  1.00  0.00     0.006 C 
BRANCH   5   6
ATOM      6  C   UNL     1       5.534  -3.935  -8.864  1.00  0.00     0.053 C 
BRANCH   6   7
ATOM      7  C   UNL     1       4.200  -3.371  -9.241  1.00  0.00     0.041 C 
ATOM      8  O   UNL     1       3.501  -3.933 -10.125  1.00  0.00    -0.550 OA
ATOM      9  O   UNL     1       3.713  -2.243  -8.592  1.00  0.00    -0.550 OA
ENDBRANCH   6   7
ENDBRANCH   5   6
ENDBRANCH   4   5
ENDBRANCH   3   4
ENDBRANCH   2   3
ENDBRANCH   1   2
BRANCH   1  10
ATOM     10  C   UNL     1       8.501  -6.346  -6.702  1.00  0.00     0.000 C 
BRANCH  10  11
ATOM     11  C   UNL     1       9.692  -7.323  -6.672  1.00  0.00    -0.000 C 
BRANCH  11  12
ATOM     12  C   UNL     1      10.691  -7.012  -5.545  1.00  0.00    -0.000 C 
BRANCH  12  13
ATOM     13  C   UNL     1      11.891  -6.185  -6.032  1.00  0.00    -0.000 C 
BRANCH  13  14
ATOM     14  C   UNL     1      12.119  -4.922  -5.188  1.00  0.00    -0.000 C 
BRANCH  14  15
ATOM     15  C   UNL     1      10.981  -4.726  -4.178  1.00  0.00    -0.003 C 
ATOM     16  C   UNL     1      11.457  -4.993  -2.753  1.00  0.00     0.004 C 
ENDBRANCH  14  15
ENDBRANCH  13  14
ENDBRANCH  12  13
ENDBRANCH  11  12
ENDBRANCH  10  11
ENDBRANCH   1  10
TORSDOF 12
ENDMDL
MODEL 4
REMARK VINA RESULT:    -3.230      1.155      1.447
REMARK INTER + INTRA:          -6.637
REMARK INTER:                  -5.769
REMARK INTRA:                  -0.868
REMARK UNBOUND:                -1.141
REMARK SMILES CCCCCCCCCCCCCC(=O)[O-]
REMARK SMILES IDX 8 1 9 2 10 3 11 4 12 5 13 6 14 7 15 8 16 9 7 10 6 11 5 12
REMARK SMILES IDX 4 13 3 14 2 15 1 16
REMARK H PARENT
REMARK Flexibility Score: inf
ROOT
ATOM      1  C   UNL     1       8.240  -6.029  -6.519  1.00  0.00     0.000 C 
ENDROOT
BRANCH   1   2
ATOM      2  C   UNL     1       9.133  -7.192  -6.994  1.00  0.00     0.000 C 
BRANCH   2   3
ATOM      3  C   UNL     1      10.442  -7.338  -6.189  1.00  0.00     0.000 C 
BRANCH   3   4
ATOM      4  C   UNL     1      11.506  -6.311  -6.610  1.00  0.00     0.000 C 
BRANCH   4   5
ATOM      5  C   UNL     1      12.124  -5.566  -5.413  1.00  0.00     0.006 C 
BRANCH   5   6
ATOM      6  C   UNL     1      11.098  -5.044  -4.393  1.00  0.00     0.053 C 
BRANCH   6   7
ATOM      7  C   UNL     1      11.286  -5.659  -3.041  1.00  0.00     0.041 C 
ATOM      8  O   UNL     1      11.675  -4.954  -2.073  1.00  0.00    -0.550 OA
ATOM      9  O   UNL     1      11.000  -7.003  -2.843  1.00  0.00    -0.550 OA
ENDBRANCH   6   7
ENDBRANCH   5   6
ENDBRANCH   4   5
ENDBRANCH   3   4
ENDBRANCH   2   3
ENDBRANCH   1   2
BRANCH   1  10
ATOM     10  C   UNL     1       8.145  -4.841  -7.494  1.00  0.00     0.000 C 
BRANCH  10  11
ATOM     11  C   UNL     1       9.167  -4.867  -8.645  1.00  0.00    -0.000 C 
BRANCH  11  12
ATOM     12  C   UNL     1       8.556  -4.453  -9.995  1.00  0.00    -0.000 C 
BRANCH  12  13
ATOM     13  C   UNL     1       7.328  -3.544  -9.833  1.00  0.00    -0.000 C 
BRANCH  13  14
ATOM     14  C   UNL     1       6.009  -4.278 -10.116  1.00  0.00    -0.000 C 
BRANCH  14  15
ATOM     15  C   UNL     1       4.921  -3.853  -9.122  1.00  0.00    -0.003 C 
ATOM     16  C   UNL     1       3.539  -3.893  -9.768  1.00  0.00     0.004 C 
ENDBRANCH  14  15
ENDBRANCH  13  14
ENDBRANCH  12  13
ENDBRANCH  11  12
ENDBRANCH  10  11
ENDBRANCH   1  10
TORSDOF 12
ENDMDL
MODEL 5
REMARK VINA RESULT:    -2.826      1.696      3.421
REMARK INTER + INTRA:          -5.949
REMARK INTER:                  -4.713
REMARK INTRA:                  -1.236
REMARK UNBOUND:                -1.141
REMARK SMILES CCCCCCCCCCCCCC(=O)[O-]
REMARK SMILES IDX 8 1 9 2 10 3 11 4 12 5 13 6 14 7 15 8 16 9 7 10 6 11 5 12
REMARK SMILES IDX 4 13 3 14 2 15 1 16
REMARK H PARENT
REMARK Flexibility Score: inf
ROOT
ATOM      1  C   UNL     1       8.406  -5.123  -7.013  1.00  0.00     0.000 C 
ENDROOT
BRANCH   1   2
ATOM      2  C   UNL     1       8.324  -6.544  -6.422  1.00  0.00     0.000 C 
BRANCH   2   3
ATOM      3  C   UNL     1       9.452  -7.482  -6.903  1.00  0.00     0.000 C 
BRANCH   3   4
ATOM      4  C   UNL     1      10.308  -8.011  -5.741  1.00  0.00     0.000 C 
BRANCH   4   5
ATOM      5  C   UNL     1      11.607  -7.208  -5.541  1.00  0.00     0.006 C 
BRANCH   5   6
ATOM      6  C   UNL     1      11.845  -6.738  -4.096  1.00  0.00     0.053 C 
BRANCH   6   7
ATOM      7  C   UNL     1      11.204  -5.413  -3.823  1.00  0.00     0.041 C 
ATOM      8  O   UNL     1      10.676  -5.183  -2.704  1.00  0.00    -0.550 OA
ATOM      9  O   UNL     1      11.220  -4.420  -4.794  1.00  0.00    -0.550 OA
ENDBRANCH   6   7
ENDBRANCH   5   6
ENDBRANCH   4   5
ENDBRANCH   3   4
ENDBRANCH   2   3
ENDBRANCH   1   2
BRANCH   1  10
ATOM     10  C   UNL     1       7.138  -4.649  -7.748  1.00  0.00     0.000 C 
BRANCH  10  11
ATOM     11  C   UNL     1       7.164  -4.848  -9.275  1.00  0.00    -0.000 C 
BRANCH  11  12
ATOM     12  C   UNL     1       7.586  -3.579 -10.035  1.00  0.00    -0.000 C 
BRANCH  12  13
ATOM     13  C   UNL     1       9.113  -3.425 -10.125  1.00  0.00    -0.000 C 
BRANCH  13  14
ATOM     14  C   UNL     1       9.843  -4.776 -10.125  1.00  0.00    -0.000 C 
BRANCH  14  15
ATOM     15  C   UNL     1      11.340  -4.590  -9.849  1.00  0.00    -0.003 C 
ATOM     16  C   UNL     1      11.828  -5.562  -8.778  1.00  0.00     0.004 C 
ENDBRANCH  14  15
ENDBRANCH  13  14
ENDBRANCH  12  13
ENDBRANCH  11  12
ENDBRANCH  10  11
ENDBRANCH   1  10
TORSDOF 12
ENDMDL
MODEL 6
REMARK VINA RESULT:    -2.679      2.729      6.773
REMARK INTER + INTRA:          -5.700
REMARK INTER:                  -4.698
REMARK INTRA:                  -1.002
REMARK UNBOUND:                -1.141
REMARK SMILES CCCCCCCCCCCCCC(=O)[O-]
REMARK SMILES IDX 8 1 9 2 10 3 11 4 12 5 13 6 14 7 15 8 16 9 7 10 6 11 5 12
REMARK SMILES IDX 4 13 3 14 2 15 1 16
REMARK H PARENT
REMARK Flexibility Score: inf
ROOT
ATOM      1  C   UNL     1      10.008  -6.261  -6.573  1.00  0.00     0.000 C 
ENDROOT
BRANCH   1   2
ATOM      2  C   UNL     1       9.702  -6.815  -7.978  1.00  0.00     0.000 C 
BRANCH   2   3
ATOM      3  C   UNL     1      10.570  -6.193  -9.093  1.00  0.00     0.000 C 
BRANCH   3   4
ATOM      4  C   UNL     1       9.838  -5.070  -9.847  1.00  0.00     0.000 C 
BRANCH   4   5
ATOM      5  C   UNL     1       8.359  -5.399 -10.120  1.00  0.00     0.006 C 
BRANCH   5   6
ATOM      6  C   UNL     1       7.410  -4.195 -10.003  1.00  0.00     0.053 C 
BRANCH   6   7
ATOM      7  C   UNL     1       6.603  -4.236  -8.742  1.00  0.00     0.041 C 
ATOM      8  O   UNL     1       7.163  -4.466  -7.638  1.00  0.00    -0.550 OA
ATOM      9  O   UNL     1       5.237  -3.986  -8.783  1.00  0.00    -0.550 OA
ENDBRANCH   6   7
ENDBRANCH   5   6
ENDBRANCH   4   5
ENDBRANCH   3   4
ENDBRANCH   2   3
ENDBRANCH   1   2
BRANCH   1  10
ATOM     10  C   UNL     1      11.219  -6.903  -5.871  1.00  0.00     0.000 C 
BRANCH  10  11
ATOM     11  C   UNL     1      10.901  -7.576  -4.522  1.00  0.00    -0.000 C 
BRANCH  11  12
ATOM     12  C   UNL     1      12.125  -7.660  -3.594  1.00  0.00    -0.000 C 
BRANCH  12  13
ATOM     13  C   UNL     1      12.012  -6.722  -2.382  1.00  0.00    -0.000 C 
BRANCH  13  14
ATOM     14  C   UNL     1      11.053  -5.549  -2.632  1.00  0.00    -0.000 C 
BRANCH  14  15
ATOM     15  C   UNL     1      11.826  -4.236  -2.804  1.00  0.00    -0.003 C 
ATOM     16  C   UNL     1      11.751  -3.737  -4.245  1.00  0.00     0.004 C 
ENDBRANCH  14  15
ENDBRANCH  13  14
ENDBRANCH  12  13
ENDBRANCH  11  12
ENDBRANCH  10  11
ENDBRANCH   1  10
TORSDOF 12
ENDMDL
MODEL 7
REMARK VINA RESULT:    -2.468     14.389     15.903
REMARK INTER + INTRA:          -5.341
REMARK INTER:                  -4.310
REMARK INTRA:                  -1.031
REMARK UNBOUND:                -1.141
REMARK SMILES CCCCCCCCCCCCCC(=O)[O-]
REMARK SMILES IDX 8 1 9 2 10 3 11 4 12 5 13 6 14 7 15 8 16 9 7 10 6 11 5 12
REMARK SMILES IDX 4 13 3 14 2 15 1 16
REMARK H PARENT
REMARK Flexibility Score: inf
ROOT
ATOM      1  C   UNL     1      -6.267  -4.522  -8.687  1.00  0.00     0.000 C 
ENDROOT
BRANCH   1   2
ATOM      2  C   UNL     1      -6.286  -5.766  -9.595  1.00  0.00     0.000 C 
BRANCH   2   3
ATOM      3  C   UNL     1      -7.581  -6.598  -9.480  1.00  0.00     0.000 C 
BRANCH   3   4
ATOM      4  C   UNL     1      -7.501  -7.654  -8.365  1.00  0.00     0.000 C 
BRANCH   4   5
ATOM      5  C   UNL     1      -6.119  -7.705  -7.689  1.00  0.00     0.006 C 
BRANCH   5   6
ATOM      6  C   UNL     1      -6.166  -7.788  -6.154  1.00  0.00     0.053 C 
BRANCH   6   7
ATOM      7  C   UNL     1      -5.062  -7.006  -5.514  1.00  0.00     0.041 C 
ATOM      8  O   UNL     1      -4.644  -7.318  -4.368  1.00  0.00    -0.550 OA
ATOM      9  O   UNL     1      -4.470  -5.951  -6.198  1.00  0.00    -0.550 OA
ENDBRANCH   6   7
ENDBRANCH   5   6
ENDBRANCH   4   5
ENDBRANCH   3   4
ENDBRANCH   2   3
ENDBRANCH   1   2
BRANCH   1  10
ATOM     10  C   UNL     1      -5.919  -3.201  -9.398  1.00  0.00     0.000 C 
BRANCH  10  11
ATOM     11  C   UNL     1      -7.030  -2.135  -9.362  1.00  0.00    -0.000 C 
BRANCH  11  12
ATOM     12  C   UNL     1      -8.091  -2.415  -8.284  1.00  0.00    -0.000 C 
BRANCH  12  13
ATOM     13  C   UNL     1      -7.928  -1.517  -7.047  1.00  0.00    -0.000 C 
BRANCH  13  14
ATOM     14  C   UNL     1      -8.125  -2.284  -5.731  1.00  0.00    -0.000 C 
BRANCH  14  15
ATOM     15  C   UNL     1      -7.392  -3.630  -5.766  1.00  0.00    -0.003 C 
ATOM     16  C   UNL     1      -8.081  -4.657  -4.872  1.00  0.00     0.004 C 
ENDBRANCH  14  15
ENDBRANCH  13  14
ENDBRANCH  12  13
ENDBRANCH  11  12
ENDBRANCH  10  11
ENDBRANCH   1  10
TORSDOF 12
ENDMDL
MODEL 8
REMARK VINA RESULT:    -2.330      1.990      3.159
REMARK INTER + INTRA:          -5.106
REMARK INTER:                  -4.174
REMARK INTRA:                  -0.932
REMARK UNBOUND:                -1.141
REMARK SMILES CCCCCCCCCCCCCC(=O)[O-]
REMARK SMILES IDX 8 1 9 2 10 3 11 4 12 5 13 6 14 7 15 8 16 9 7 10 6 11 5 12
REMARK SMILES IDX 4 13 3 14 2 15 1 16
REMARK H PARENT
REMARK Flexibility Score: inf
ROOT
ATOM      1  C   UNL     1      10.012  -7.722  -6.355  1.00  0.00     0.000 C 
ENDROOT
BRANCH   1   2
ATOM      2  C   UNL     1      11.494  -7.350  -6.555  1.00  0.00     0.000 C 
BRANCH   2   3
ATOM      3  C   UNL     1      11.703  -6.016  -7.305  1.00  0.00     0.000 C 
BRANCH   3   4
ATOM      4  C   UNL     1      11.560  -4.796  -6.379  1.00  0.00     0.000 C 
BRANCH   4   5
ATOM      5  C   UNL     1      12.109  -5.053  -4.964  1.00  0.00     0.006 C 
BRANCH   5   6
ATOM      6  C   UNL     1      11.032  -5.116  -3.868  1.00  0.00     0.053 C 
BRANCH   6   7
ATOM      7  C   UNL     1      11.439  -6.001  -2.730  1.00  0.00     0.041 C 
ATOM      8  O   UNL     1      12.125  -5.539  -1.781  1.00  0.00    -0.550 OA
ATOM      9  O   UNL     1      11.031  -7.329  -2.702  1.00  0.00    -0.550 OA
ENDBRANCH   6   7
ENDBRANCH   5   6
ENDBRANCH   4   5
ENDBRANCH   3   4
ENDBRANCH   2   3
ENDBRANCH   1   2
BRANCH   1  10
ATOM     10  C   UNL     1       9.248  -8.068  -7.646  1.00  0.00     0.000 C 
BRANCH  10  11
ATOM     11  C   UNL     1      10.099  -8.035  -8.929  1.00  0.00    -0.000 C 
BRANCH  11  12
ATOM     12  C   UNL     1       9.473  -7.171 -10.038  1.00  0.00    -0.000 C 
BRANCH  12  13
ATOM     13  C   UNL     1       9.260  -5.713  -9.601  1.00  0.00    -0.000 C 
BRANCH  13  14
ATOM     14  C   UNL     1       7.878  -5.174  -9.998  1.00  0.00    -0.000 C 
BRANCH  14  15
ATOM     15  C   UNL     1       7.229  -4.418  -8.833  1.00  0.00    -0.003 C 
ATOM     16  C   UNL     1       7.908  -4.758  -7.509  1.00  0.00     0.004 C 
ENDBRANCH  14  15
ENDBRANCH  13  14
ENDBRANCH  12  13
ENDBRANCH  11  12
ENDBRANCH  10  11
ENDBRANCH   1  10
TORSDOF 12
ENDMDL
MODEL 9
REMARK VINA RESULT:    -2.325     13.858     16.673
REMARK INTER + INTRA:          -5.098
REMARK INTER:                  -3.790
REMARK INTRA:                  -1.308
REMARK UNBOUND:                -1.141
REMARK SMILES CCCCCCCCCCCCCC(=O)[O-]
REMARK SMILES IDX 8 1 9 2 10 3 11 4 12 5 13 6 14 7 15 8 16 9 7 10 6 11 5 12
REMARK SMILES IDX 4 13 3 14 2 15 1 16
REMARK H PARENT
REMARK Flexibility Score: inf
ROOT
ATOM      1  C   UNL     1      -7.790  -4.518  -5.003  1.00  0.00     0.000 C 
ENDROOT
BRANCH   1   2
ATOM      2  C   UNL     1      -8.100  -3.482  -6.102  1.00  0.00     0.000 C 
BRANCH   2   3
ATOM      3  C   UNL     1      -7.397  -2.124  -5.890  1.00  0.00     0.000 C 
BRANCH   3   4
ATOM      4  C   UNL     1      -7.464  -1.230  -7.139  1.00  0.00     0.000 C 
BRANCH   4   5
ATOM      5  C   UNL     1      -8.124  -1.930  -8.341  1.00  0.00     0.006 C 
BRANCH   5   6
ATOM      6  C   UNL     1      -7.288  -1.898  -9.631  1.00  0.00     0.053 C 
BRANCH   6   7
ATOM      7  C   UNL     1      -6.188  -2.914  -9.613  1.00  0.00     0.041 C 
ATOM      8  O   UNL     1      -6.453  -4.134  -9.455  1.00  0.00    -0.550 OA
ATOM      9  O   UNL     1      -4.871  -2.515  -9.805  1.00  0.00    -0.550 OA
ENDBRANCH   6   7
ENDBRANCH   5   6
ENDBRANCH   4   5
ENDBRANCH   3   4
ENDBRANCH   2   3
ENDBRANCH   1   2
BRANCH   1  10
ATOM     10  C   UNL     1      -8.049  -5.984  -5.399  1.00  0.00     0.000 C 
BRANCH  10  11
ATOM     11  C   UNL     1      -8.120  -6.240  -6.917  1.00  0.00    -0.000 C 
BRANCH  11  12
ATOM     12  C   UNL     1      -7.560  -7.616  -7.316  1.00  0.00    -0.000 C 
BRANCH  12  13
ATOM     13  C   UNL     1      -6.111  -7.822  -6.847  1.00  0.00    -0.000 C 
BRANCH  13  14
ATOM     14  C   UNL     1      -5.163  -6.728  -7.360  1.00  0.00    -0.000 C 
BRANCH  14  15
ATOM     15  C   UNL     1      -4.267  -6.205  -6.231  1.00  0.00    -0.003 C 
ATOM     16  C   UNL     1      -4.702  -6.761  -4.878  1.00  0.00     0.004 C 
ENDBRANCH  14  15
ENDBRANCH  13  14
ENDBRANCH  12  13
ENDBRANCH  11  12
ENDBRANCH  10  11
ENDBRANCH   1  10
TORSDOF 12
ENDMDL
