MODEL 1
REMARK VINA RESULT:    -4.393      0.000      0.000
REMARK INTER + INTRA:         -16.457
REMARK INTER:                 -11.583
REMARK INTRA:                  -4.874
REMARK UNBOUND:                -4.874
REMARK SMILES CCCCCCCCCCCCCCCCCCCCCCCCCCCCCC(=O)[O-]
REMARK SMILES IDX 16 1 17 2 18 3 19 4 20 5 21 6 22 7 23 8 24 9 25 10 26 11
REMARK SMILES IDX 27 12 28 13 29 14 30 15 31 16 32 17 15 18 14 19 13 20 12 21
REMARK SMILES IDX 11 22 10 23 9 24 8 25 7 26 6 27 5 28 4 29 3 30 2 31 1 32
REMARK H PARENT
REMARK Flexibility Score: inf
ROOT
ATOM      1  C   UNL     1      13.802  35.320  67.381  1.00  0.00     0.000 C 
ENDROOT
BRANCH   1   2
ATOM      2  C   UNL     1      13.733  33.785  67.473  1.00  0.00     0.000 C 
BRANCH   2   3
ATOM      3  C   UNL     1      13.031  33.290  68.750  1.00  0.00     0.000 C 
BRANCH   3   4
ATOM      4  C   UNL     1      11.803  32.417  68.443  1.00  0.00     0.000 C 
BRANCH   4   5
ATOM      5  C   UNL     1      11.561  32.245  66.933  1.00  0.00     0.000 C 
BRANCH   5   6
ATOM      6  C   UNL     1      10.938  30.880  66.593  1.00  0.00     0.000 C 
BRANCH   6   7
ATOM      7  C   UNL     1      10.803  29.968  67.826  1.00  0.00     0.000 C 
BRANCH   7   8
ATOM      8  C   UNL     1      11.731  28.743  67.764  1.00  0.00     0.000 C 
BRANCH   8   9
ATOM      9  C   UNL     1      13.187  29.006  68.192  1.00  0.00     0.000 C 
BRANCH   9  10
ATOM     10  C   UNL     1      14.213  29.038  67.042  1.00  0.00     0.000 C 
BRANCH  10  11
ATOM     11  C   UNL     1      14.747  30.438  66.686  1.00  0.00     0.000 C 
BRANCH  11  12
ATOM     12  C   UNL     1      14.671  30.745  65.179  1.00  0.00     0.000 C 
BRANCH  12  13
ATOM     13  C   UNL     1      15.857  30.163  64.395  1.00  0.00     0.006 C 
BRANCH  13  14
ATOM     14  C   UNL     1      15.429  29.506  63.075  1.00  0.00     0.053 C 
BRANCH  14  15
ATOM     15  C   UNL     1      16.070  30.187  61.904  1.00  0.00     0.041 C 
ATOM     16  O   UNL     1      17.162  30.799  62.048  1.00  0.00    -0.550 OA
ATOM     17  O   UNL     1      15.436  30.194  60.668  1.00  0.00    -0.550 OA
ENDBRANCH  14  15
ENDBRANCH  13  14
ENDBRANCH  12  13
ENDBRANCH  11  12
ENDBRANCH  10  11
ENDBRANCH   9  10
ENDBRANCH   8   9
ENDBRANCH   7   8
ENDBRANCH   6   7
ENDBRANCH   5   6
ENDBRANCH   4   5
ENDBRANCH   3   4
ENDBRANCH   2   3
ENDBRANCH   1   2
BRANCH   1  18
ATOM     18  C   UNL     1      15.088  35.888  66.743  1.00  0.00     0.000 C 
BRANCH  18  19
ATOM     19  C   UNL     1      16.287  34.922  66.723  1.00  0.00     0.000 C 
BRANCH  19  20
ATOM     20  C   UNL     1      17.508  35.504  65.997  1.00  0.00     0.000 C 
BRANCH  20  21
ATOM     21  C   UNL     1      18.401  34.380  65.447  1.00  0.00     0.000 C 
BRANCH  21  22
ATOM     22  C   UNL     1      19.602  34.065  66.358  1.00  0.00     0.000 C 
BRANCH  22  23
ATOM     23  C   UNL     1      19.408  32.857  67.296  1.00  0.00     0.000 C 
BRANCH  23  24
ATOM     24  C   UNL     1      18.269  31.929  66.849  1.00  0.00    -0.000 C 
BRANCH  24  25
ATOM     25  C   UNL     1      18.664  30.451  67.006  1.00  0.00    -0.000 C 
BRANCH  25  26
ATOM     26  C   UNL     1      19.262  30.146  68.390  1.00  0.00    -0.000 C 
BRANCH  26  27
ATOM     27  C   UNL     1      18.925  28.726  68.878  1.00  0.00    -0.000 C 
BRANCH  27  28
ATOM     28  C   UNL     1      18.744  28.661  70.410  1.00  0.00    -0.000 C 
BRANCH  28  29
ATOM     29  C   UNL     1      17.783  29.727  70.967  1.00  0.00    -0.000 C 
BRANCH  29  30
ATOM     30  C   UNL     1      16.308  29.317  70.866  1.00  0.00    -0.000 C 
BRANCH  30  31
ATOM     31  C   UNL     1      15.403  30.547  70.741  1.00  0.00    -0.003 C 
ATOM     32  C   UNL     1      15.920  31.507  69.675  1.00  0.00     0.004 C 
ENDBRANCH  30  31
ENDBRANCH  29  30
ENDBRANCH  28  29
ENDBRANCH  27  28
ENDBRANCH  26  27
ENDBRANCH  25  26
ENDBRANCH  24  25
ENDBRANCH  23  24
ENDBRANCH  22  23
ENDBRANCH  21  22
ENDBRANCH  20  21
ENDBRANCH  19  20
ENDBRANCH  18  19
ENDBRANCH   1  18
TORSDOF 28
ENDMDL
MODEL 2
REMARK VINA RESULT:    -4.360      3.144      7.919
REMARK INTER + INTRA:         -16.371
REMARK INTER:                 -11.954
REMARK INTRA:                  -4.417
REMARK UNBOUND:                -4.874
REMARK SMILES CCCCCCCCCCCCCCCCCCCCCCCCCCCCCC(=O)[O-]
REMARK SMILES IDX 16 1 17 2 18 3 19 4 20 5 21 6 22 7 23 8 24 9 25 10 26 11
REMARK SMILES IDX 27 12 28 13 29 14 30 15 31 16 32 17 15 18 14 19 13 20 12 21
REMARK SMILES IDX 11 22 10 23 9 24 8 25 7 26 6 27 5 28 4 29 3 30 2 31 1 32
REMARK H PARENT
REMARK Flexibility Score: inf
ROOT
ATOM      1  C   UNL     1      15.643  33.538  67.293  1.00  0.00     0.000 C 
ENDROOT
BRANCH   1   2
ATOM      2  C   UNL     1      15.728  32.335  68.251  1.00  0.00     0.000 C 
BRANCH   2   3
ATOM      3  C   UNL     1      15.578  30.982  67.532  1.00  0.00     0.000 C 
BRANCH   3   4
ATOM      4  C   UNL     1      15.292  29.829  68.507  1.00  0.00     0.000 C 
BRANCH   4   5
ATOM      5  C   UNL     1      14.898  30.323  69.910  1.00  0.00     0.000 C 
BRANCH   5   6
ATOM      6  C   UNL     1      15.213  29.288  71.005  1.00  0.00     0.000 C 
BRANCH   6   7
ATOM      7  C   UNL     1      16.589  29.516  71.654  1.00  0.00     0.000 C 
BRANCH   7   8
ATOM      8  C   UNL     1      17.100  30.957  71.475  1.00  0.00     0.000 C 
BRANCH   8   9
ATOM      9  C   UNL     1      18.469  31.080  70.779  1.00  0.00     0.000 C 
BRANCH   9  10
ATOM     10  C   UNL     1      18.823  29.928  69.819  1.00  0.00     0.000 C 
BRANCH  10  11
ATOM     11  C   UNL     1      19.750  30.315  68.652  1.00  0.00     0.000 C 
BRANCH  11  12
ATOM     12  C   UNL     1      19.117  30.059  67.272  1.00  0.00     0.000 C 
BRANCH  12  13
ATOM     13  C   UNL     1      19.235  31.268  66.332  1.00  0.00     0.006 C 
BRANCH  13  14
ATOM     14  C   UNL     1      19.293  32.603  67.089  1.00  0.00     0.053 C 
BRANCH  14  15
ATOM     15  C   UNL     1      19.623  33.732  66.160  1.00  0.00     0.041 C 
ATOM     16  O   UNL     1      18.752  34.170  65.361  1.00  0.00    -0.550 OA
ATOM     17  O   UNL     1      20.905  34.265  66.139  1.00  0.00    -0.550 OA
ENDBRANCH  14  15
ENDBRANCH  13  14
ENDBRANCH  12  13
ENDBRANCH  11  12
ENDBRANCH  10  11
ENDBRANCH   9  10
ENDBRANCH   8   9
ENDBRANCH   7   8
ENDBRANCH   6   7
ENDBRANCH   5   6
ENDBRANCH   4   5
ENDBRANCH   3   4
ENDBRANCH   2   3
ENDBRANCH   1   2
BRANCH   1  18
ATOM     18  C   UNL     1      14.256  34.209  67.194  1.00  0.00     0.000 C 
BRANCH  18  19
ATOM     19  C   UNL     1      13.206  33.685  68.190  1.00  0.00     0.000 C 
BRANCH  19  20
ATOM     20  C   UNL     1      12.142  32.802  67.522  1.00  0.00     0.000 C 
BRANCH  20  21
ATOM     21  C   UNL     1      11.682  31.688  68.476  1.00  0.00     0.000 C 
BRANCH  21  22
ATOM     22  C   UNL     1      11.785  30.283  67.855  1.00  0.00     0.000 C 
BRANCH  22  23
ATOM     23  C   UNL     1      10.434  29.608  67.545  1.00  0.00     0.000 C 
BRANCH  23  24
ATOM     24  C   UNL     1       9.752  30.180  66.293  1.00  0.00    -0.000 C 
BRANCH  24  25
ATOM     25  C   UNL     1       8.530  31.034  66.668  1.00  0.00    -0.000 C 
BRANCH  25  26
ATOM     26  C   UNL     1       8.346  32.241  65.733  1.00  0.00    -0.000 C 
BRANCH  26  27
ATOM     27  C   UNL     1       8.385  33.582  66.487  1.00  0.00    -0.000 C 
BRANCH  27  28
ATOM     28  C   UNL     1       7.719  34.723  65.687  1.00  0.00    -0.000 C 
BRANCH  28  29
ATOM     29  C   UNL     1       6.855  35.662  66.547  1.00  0.00    -0.000 C 
BRANCH  29  30
ATOM     30  C   UNL     1       6.442  35.037  67.887  1.00  0.00    -0.000 C 
BRANCH  30  31
ATOM     31  C   UNL     1       5.928  36.107  68.856  1.00  0.00    -0.003 C 
ATOM     32  C   UNL     1       6.578  37.459  68.581  1.00  0.00     0.004 C 
ENDBRANCH  30  31
ENDBRANCH  29  30
ENDBRANCH  28  29
ENDBRANCH  27  28
ENDBRANCH  26  27
ENDBRANCH  25  26
ENDBRANCH  24  25
ENDBRANCH  23  24
ENDBRANCH  22  23
ENDBRANCH  21  22
ENDBRANCH  20  21
ENDBRANCH  19  20
ENDBRANCH  18  19
ENDBRANCH   1  18
TORSDOF 28
ENDMDL
MODEL 3
REMARK VINA RESULT:    -4.318      1.424      6.934
REMARK INTER + INTRA:         -16.261
REMARK INTER:                 -10.906
REMARK INTRA:                  -5.356
REMARK UNBOUND:                -4.874
REMARK SMILES CCCCCCCCCCCCCCCCCCCCCCCCCCCCCC(=O)[O-]
REMARK SMILES IDX 16 1 17 2 18 3 19 4 20 5 21 6 22 7 23 8 24 9 25 10 26 11
REMARK SMILES IDX 27 12 28 13 29 14 30 15 31 16 32 17 15 18 14 19 13 20 12 21
REMARK SMILES IDX 11 22 10 23 9 24 8 25 7 26 6 27 5 28 4 29 3 30 2 31 1 32
REMARK H PARENT
REMARK Flexibility Score: inf
ROOT
ATOM      1  C   UNL     1      19.239  30.922  69.928  1.00  0.00     0.000 C 
ENDROOT
BRANCH   1   2
ATOM      2  C   UNL     1      19.591  31.513  68.551  1.00  0.00     0.000 C 
BRANCH   2   3
ATOM      3  C   UNL     1      19.284  30.553  67.388  1.00  0.00     0.000 C 
BRANCH   3   4
ATOM      4  C   UNL     1      19.295  31.261  66.024  1.00  0.00     0.000 C 
BRANCH   4   5
ATOM      5  C   UNL     1      19.611  32.763  66.139  1.00  0.00     0.000 C 
BRANCH   5   6
ATOM      6  C   UNL     1      18.612  33.632  65.355  1.00  0.00     0.000 C 
BRANCH   6   7
ATOM      7  C   UNL     1      18.262  34.938  66.091  1.00  0.00     0.000 C 
BRANCH   7   8
ATOM      8  C   UNL     1      16.809  35.385  65.852  1.00  0.00     0.000 C 
BRANCH   8   9
ATOM      9  C   UNL     1      15.862  35.190  67.052  1.00  0.00     0.000 C 
BRANCH   9  10
ATOM     10  C   UNL     1      15.103  33.849  67.075  1.00  0.00     0.000 C 
BRANCH  10  11
ATOM     11  C   UNL     1      15.709  32.775  67.997  1.00  0.00     0.000 C 
BRANCH  11  12
ATOM     12  C   UNL     1      15.829  31.398  67.317  1.00  0.00     0.000 C 
BRANCH  12  13
ATOM     13  C   UNL     1      15.597  31.464  65.800  1.00  0.00     0.006 C 
BRANCH  13  14
ATOM     14  C   UNL     1      15.541  30.075  65.149  1.00  0.00     0.053 C 
BRANCH  14  15
ATOM     15  C   UNL     1      15.864  30.153  63.688  1.00  0.00     0.041 C 
ATOM     16  O   UNL     1      15.054  29.700  62.835  1.00  0.00    -0.550 OA
ATOM     17  O   UNL     1      17.080  30.678  63.269  1.00  0.00    -0.550 OA
ENDBRANCH  14  15
ENDBRANCH  13  14
ENDBRANCH  12  13
ENDBRANCH  11  12
ENDBRANCH  10  11
ENDBRANCH   9  10
ENDBRANCH   8   9
ENDBRANCH   7   8
ENDBRANCH   6   7
ENDBRANCH   5   6
ENDBRANCH   4   5
ENDBRANCH   3   4
ENDBRANCH   2   3
ENDBRANCH   1   2
BRANCH   1  18
ATOM     18  C   UNL     1      17.928  30.108  69.983  1.00  0.00     0.000 C 
BRANCH  18  19
ATOM     19  C   UNL     1      16.913  30.577  71.042  1.00  0.00     0.000 C 
BRANCH  19  20
ATOM     20  C   UNL     1      16.162  29.412  71.703  1.00  0.00     0.000 C 
BRANCH  20  21
ATOM     21  C   UNL     1      14.775  29.230  71.068  1.00  0.00     0.000 C 
BRANCH  21  22
ATOM     22  C   UNL     1      14.731  28.090  70.033  1.00  0.00     0.000 C 
BRANCH  22  23
ATOM     23  C   UNL     1      14.338  28.520  68.606  1.00  0.00     0.000 C 
BRANCH  23  24
ATOM     24  C   UNL     1      12.830  28.773  68.452  1.00  0.00    -0.000 C 
BRANCH  24  25
ATOM     25  C   UNL     1      12.556  29.880  67.420  1.00  0.00    -0.000 C 
BRANCH  25  26
ATOM     26  C   UNL     1      12.218  31.228  68.079  1.00  0.00    -0.000 C 
BRANCH  26  27
ATOM     27  C   UNL     1      11.943  32.336  67.047  1.00  0.00    -0.000 C 
BRANCH  27  28
ATOM     28  C   UNL     1      10.432  32.568  66.826  1.00  0.00    -0.000 C 
BRANCH  28  29
ATOM     29  C   UNL     1       9.721  31.396  66.127  1.00  0.00    -0.000 C 
BRANCH  29  30
ATOM     30  C   UNL     1       8.468  30.922  66.876  1.00  0.00    -0.000 C 
BRANCH  30  31
ATOM     31  C   UNL     1       8.632  29.479  67.363  1.00  0.00    -0.003 C 
ATOM     32  C   UNL     1       8.992  29.434  68.844  1.00  0.00     0.004 C 
ENDBRANCH  30  31
ENDBRANCH  29  30
ENDBRANCH  28  29
ENDBRANCH  27  28
ENDBRANCH  26  27
ENDBRANCH  25  26
ENDBRANCH  24  25
ENDBRANCH  23  24
ENDBRANCH  22  23
ENDBRANCH  21  22
ENDBRANCH  20  21
ENDBRANCH  19  20
ENDBRANCH  18  19
ENDBRANCH   1  18
TORSDOF 28
ENDMDL
MODEL 4
REMARK VINA RESULT:    -4.241      3.674      6.158
REMARK INTER + INTRA:         -16.058
REMARK INTER:                 -11.095
REMARK INTRA:                  -4.962
REMARK UNBOUND:                -4.874
REMARK SMILES CCCCCCCCCCCCCCCCCCCCCCCCCCCCCC(=O)[O-]
REMARK SMILES IDX 16 1 17 2 18 3 19 4 20 5 21 6 22 7 23 8 24 9 25 10 26 11
REMARK SMILES IDX 27 12 28 13 29 14 30 15 31 16 32 17 15 18 14 19 13 20 12 21
REMARK SMILES IDX 11 22 10 23 9 24 8 25 7 26 6 27 5 28 4 29 3 30 2 31 1 32
REMARK H PARENT
REMARK Flexibility Score: inf
ROOT
ATOM      1  C   UNL     1      14.626  32.824  68.094  1.00  0.00     0.000 C 
ENDROOT
BRANCH   1   2
ATOM      2  C   UNL     1      13.749  33.326  66.932  1.00  0.00     0.000 C 
BRANCH   2   3
ATOM      3  C   UNL     1      13.461  32.238  65.883  1.00  0.00     0.000 C 
BRANCH   3   4
ATOM      4  C   UNL     1      12.026  31.696  65.978  1.00  0.00     0.000 C 
BRANCH   4   5
ATOM      5  C   UNL     1      11.222  32.345  67.119  1.00  0.00     0.000 C 
BRANCH   5   6
ATOM      6  C   UNL     1      10.801  31.325  68.192  1.00  0.00     0.000 C 
BRANCH   6   7
ATOM      7  C   UNL     1      11.119  29.875  67.785  1.00  0.00     0.000 C 
BRANCH   7   8
ATOM      8  C   UNL     1       9.947  28.913  68.048  1.00  0.00     0.000 C 
BRANCH   8   9
ATOM      9  C   UNL     1       9.353  28.251  66.790  1.00  0.00     0.000 C 
BRANCH   9  10
ATOM     10  C   UNL     1       8.909  29.228  65.683  1.00  0.00     0.000 C 
BRANCH  10  11
ATOM     11  C   UNL     1       7.757  30.171  66.073  1.00  0.00     0.000 C 
BRANCH  11  12
ATOM     12  C   UNL     1       7.933  31.596  65.515  1.00  0.00     0.000 C 
BRANCH  12  13
ATOM     13  C   UNL     1       7.588  32.682  66.545  1.00  0.00     0.006 C 
BRANCH  13  14
ATOM     14  C   UNL     1       7.998  34.088  66.083  1.00  0.00     0.053 C 
BRANCH  14  15
ATOM     15  C   UNL     1       6.996  35.111  66.523  1.00  0.00     0.041 C 
ATOM     16  O   UNL     1       6.261  35.684  65.674  1.00  0.00    -0.550 OA
ATOM     17  O   UNL     1       6.909  35.472  67.862  1.00  0.00    -0.550 OA
ENDBRANCH  14  15
ENDBRANCH  13  14
ENDBRANCH  12  13
ENDBRANCH  11  12
ENDBRANCH  10  11
ENDBRANCH   9  10
ENDBRANCH   8   9
ENDBRANCH   7   8
ENDBRANCH   6   7
ENDBRANCH   5   6
ENDBRANCH   4   5
ENDBRANCH   3   4
ENDBRANCH   2   3
ENDBRANCH   1   2
BRANCH   1  18
ATOM     18  C   UNL     1      15.850  31.979  67.681  1.00  0.00     0.000 C 
BRANCH  18  19
ATOM     19  C   UNL     1      15.770  30.488  68.058  1.00  0.00     0.000 C 
BRANCH  19  20
ATOM     20  C   UNL     1      14.486  30.137  68.824  1.00  0.00     0.000 C 
BRANCH  20  21
ATOM     21  C   UNL     1      14.800  29.828  70.297  1.00  0.00     0.000 C 
BRANCH  21  22
ATOM     22  C   UNL     1      15.771  28.645  70.470  1.00  0.00     0.000 C 
BRANCH  22  23
ATOM     23  C   UNL     1      17.056  28.968  71.260  1.00  0.00     0.000 C 
BRANCH  23  24
ATOM     24  C   UNL     1      17.216  30.467  71.555  1.00  0.00    -0.000 C 
BRANCH  24  25
ATOM     25  C   UNL     1      18.301  31.095  70.664  1.00  0.00    -0.000 C 
BRANCH  25  26
ATOM     26  C   UNL     1      19.239  30.042  70.049  1.00  0.00    -0.000 C 
BRANCH  26  27
ATOM     27  C   UNL     1      19.504  30.290  68.553  1.00  0.00    -0.000 C 
BRANCH  27  28
ATOM     28  C   UNL     1      19.464  31.790  68.192  1.00  0.00    -0.000 C 
BRANCH  28  29
ATOM     29  C   UNL     1      19.394  32.063  66.679  1.00  0.00    -0.000 C 
BRANCH  29  30
ATOM     30  C   UNL     1      19.247  30.783  65.845  1.00  0.00    -0.000 C 
BRANCH  30  31
ATOM     31  C   UNL     1      18.575  31.078  64.500  1.00  0.00    -0.003 C 
ATOM     32  C   UNL     1      17.109  30.655  64.511  1.00  0.00     0.004 C 
ENDBRANCH  30  31
ENDBRANCH  29  30
ENDBRANCH  28  29
ENDBRANCH  27  28
ENDBRANCH  26  27
ENDBRANCH  25  26
ENDBRANCH  24  25
ENDBRANCH  23  24
ENDBRANCH  22  23
ENDBRANCH  21  22
ENDBRANCH  20  21
ENDBRANCH  19  20
ENDBRANCH  18  19
ENDBRANCH   1  18
TORSDOF 28
ENDMDL
MODEL 5
REMARK VINA RESULT:    -4.234      3.508      5.282
REMARK INTER + INTRA:         -16.039
REMARK INTER:                 -12.225
REMARK INTRA:                  -3.813
REMARK UNBOUND:                -4.874
REMARK SMILES CCCCCCCCCCCCCCCCCCCCCCCCCCCCCC(=O)[O-]
REMARK SMILES IDX 16 1 17 2 18 3 19 4 20 5 21 6 22 7 23 8 24 9 25 10 26 11
REMARK SMILES IDX 27 12 28 13 29 14 30 15 31 16 32 17 15 18 14 19 13 20 12 21
REMARK SMILES IDX 11 22 10 23 9 24 8 25 7 26 6 27 5 28 4 29 3 30 2 31 1 32
REMARK H PARENT
REMARK Flexibility Score: inf
ROOT
ATOM      1  C   UNL     1      15.600  36.155  65.945  1.00  0.00     0.000 C 
ENDROOT
BRANCH   1   2
ATOM      2  C   UNL     1      15.078  36.436  67.366  1.00  0.00     0.000 C 
BRANCH   2   3
ATOM      3  C   UNL     1      13.776  35.683  67.689  1.00  0.00     0.000 C 
BRANCH   3   4
ATOM      4  C   UNL     1      13.998  34.170  67.849  1.00  0.00     0.000 C 
BRANCH   4   5
ATOM      5  C   UNL     1      12.813  33.467  68.535  1.00  0.00     0.000 C 
BRANCH   5   6
ATOM      6  C   UNL     1      11.931  32.697  67.536  1.00  0.00     0.000 C 
BRANCH   6   7
ATOM      7  C   UNL     1      11.343  31.409  68.140  1.00  0.00     0.000 C 
BRANCH   7   8
ATOM      8  C   UNL     1      11.187  30.284  67.101  1.00  0.00     0.000 C 
BRANCH   8   9
ATOM      9  C   UNL     1       9.734  29.857  66.817  1.00  0.00     0.000 C 
BRANCH   9  10
ATOM     10  C   UNL     1       9.009  30.682  65.735  1.00  0.00     0.000 C 
BRANCH  10  11
ATOM     11  C   UNL     1       7.985  31.699  66.272  1.00  0.00     0.000 C 
BRANCH  11  12
ATOM     12  C   UNL     1       8.528  33.140  66.300  1.00  0.00     0.000 C 
BRANCH  12  13
ATOM     13  C   UNL     1       7.417  34.189  66.462  1.00  0.00     0.006 C 
BRANCH  13  14
ATOM     14  C   UNL     1       7.485  35.292  65.397  1.00  0.00     0.053 C 
BRANCH  14  15
ATOM     15  C   UNL     1       6.444  35.082  64.339  1.00  0.00     0.041 C 
ATOM     16  O   UNL     1       6.018  33.922  64.092  1.00  0.00    -0.550 OA
ATOM     17  O   UNL     1       5.984  36.157  63.589  1.00  0.00    -0.550 OA
ENDBRANCH  14  15
ENDBRANCH  13  14
ENDBRANCH  12  13
ENDBRANCH  11  12
ENDBRANCH  10  11
ENDBRANCH   9  10
ENDBRANCH   8   9
ENDBRANCH   7   8
ENDBRANCH   6   7
ENDBRANCH   5   6
ENDBRANCH   4   5
ENDBRANCH   3   4
ENDBRANCH   2   3
ENDBRANCH   1   2
BRANCH   1  18
ATOM     18  C   UNL     1      17.059  35.658  65.862  1.00  0.00     0.000 C 
BRANCH  18  19
ATOM     19  C   UNL     1      17.346  34.349  66.620  1.00  0.00     0.000 C 
BRANCH  19  20
ATOM     20  C   UNL     1      18.798  33.875  66.458  1.00  0.00     0.000 C 
BRANCH  20  21
ATOM     21  C   UNL     1      18.846  32.481  65.814  1.00  0.00     0.000 C 
BRANCH  21  22
ATOM     22  C   UNL     1      19.397  31.398  66.760  1.00  0.00     0.000 C 
BRANCH  22  23
ATOM     23  C   UNL     1      19.158  31.662  68.260  1.00  0.00     0.000 C 
BRANCH  23  24
ATOM     24  C   UNL     1      20.075  30.827  69.167  1.00  0.00    -0.000 C 
BRANCH  24  25
ATOM     25  C   UNL     1      19.442  30.614  70.552  1.00  0.00    -0.000 C 
BRANCH  25  26
ATOM     26  C   UNL     1      18.075  29.912  70.471  1.00  0.00    -0.000 C 
BRANCH  26  27
ATOM     27  C   UNL     1      16.972  30.682  71.219  1.00  0.00    -0.000 C 
BRANCH  27  28
ATOM     28  C   UNL     1      15.587  30.016  71.066  1.00  0.00    -0.000 C 
BRANCH  28  29
ATOM     29  C   UNL     1      14.677  30.707  70.036  1.00  0.00    -0.000 C 
BRANCH  29  30
ATOM     30  C   UNL     1      14.837  30.141  68.618  1.00  0.00    -0.000 C 
BRANCH  30  31
ATOM     31  C   UNL     1      15.663  31.087  67.739  1.00  0.00    -0.003 C 
ATOM     32  C   UNL     1      15.554  30.706  66.266  1.00  0.00     0.004 C 
ENDBRANCH  30  31
ENDBRANCH  29  30
ENDBRANCH  28  29
ENDBRANCH  27  28
ENDBRANCH  26  27
ENDBRANCH  25  26
ENDBRANCH  24  25
ENDBRANCH  23  24
ENDBRANCH  22  23
ENDBRANCH  21  22
ENDBRANCH  20  21
ENDBRANCH  19  20
ENDBRANCH  18  19
ENDBRANCH   1  18
TORSDOF 28
ENDMDL
MODEL 6
REMARK VINA RESULT:    -4.198      3.151      5.411
REMARK INTER + INTRA:         -15.945
REMARK INTER:                 -10.913
REMARK INTRA:                  -5.032
REMARK UNBOUND:                -4.874
REMARK SMILES CCCCCCCCCCCCCCCCCCCCCCCCCCCCCC(=O)[O-]
REMARK SMILES IDX 16 1 17 2 18 3 19 4 20 5 21 6 22 7 23 8 24 9 25 10 26 11
REMARK SMILES IDX 27 12 28 13 29 14 30 15 31 16 32 17 15 18 14 19 13 20 12 21
REMARK SMILES IDX 11 22 10 23 9 24 8 25 7 26 6 27 5 28 4 29 3 30 2 31 1 32
REMARK H PARENT
REMARK Flexibility Score: inf
ROOT
ATOM      1  C   UNL     1      15.057  34.686  66.668  1.00  0.00     0.000 C 
ENDROOT
BRANCH   1   2
ATOM      2  C   UNL     1      14.008  35.118  67.708  1.00  0.00     0.000 C 
BRANCH   2   3
ATOM      3  C   UNL     1      12.765  34.211  67.721  1.00  0.00     0.000 C 
BRANCH   3   4
ATOM      4  C   UNL     1      12.713  33.306  68.962  1.00  0.00     0.000 C 
BRANCH   4   5
ATOM      5  C   UNL     1      12.044  31.949  68.678  1.00  0.00     0.000 C 
BRANCH   5   6
ATOM      6  C   UNL     1      12.021  31.612  67.177  1.00  0.00     0.000 C 
BRANCH   6   7
ATOM      7  C   UNL     1      12.161  30.102  66.909  1.00  0.00     0.000 C 
BRANCH   7   8
ATOM      8  C   UNL     1      11.748  29.244  68.117  1.00  0.00     0.000 C 
BRANCH   8   9
ATOM      9  C   UNL     1      10.485  28.386  67.905  1.00  0.00     0.000 C 
BRANCH   9  10
ATOM     10  C   UNL     1       9.195  28.955  68.526  1.00  0.00     0.000 C 
BRANCH  10  11
ATOM     11  C   UNL     1       8.777  30.341  68.001  1.00  0.00     0.000 C 
BRANCH  11  12
ATOM     12  C   UNL     1       7.959  30.268  66.699  1.00  0.00     0.000 C 
BRANCH  12  13
ATOM     13  C   UNL     1       8.281  31.417  65.731  1.00  0.00     0.006 C 
BRANCH  13  14
ATOM     14  C   UNL     1       8.724  32.695  66.456  1.00  0.00     0.053 C 
BRANCH  14  15
ATOM     15  C   UNL     1       7.711  33.786  66.288  1.00  0.00     0.041 C 
ATOM     16  O   UNL     1       7.841  34.635  65.365  1.00  0.00    -0.550 OA
ATOM     17  O   UNL     1       6.652  33.899  67.180  1.00  0.00    -0.550 OA
ENDBRANCH  14  15
ENDBRANCH  13  14
ENDBRANCH  12  13
ENDBRANCH  11  12
ENDBRANCH  10  11
ENDBRANCH   9  10
ENDBRANCH   8   9
ENDBRANCH   7   8
ENDBRANCH   6   7
ENDBRANCH   5   6
ENDBRANCH   4   5
ENDBRANCH   3   4
ENDBRANCH   2   3
ENDBRANCH   1   2
BRANCH   1  18
ATOM     18  C   UNL     1      15.957  33.503  67.087  1.00  0.00     0.000 C 
BRANCH  18  19
ATOM     19  C   UNL     1      15.499  32.124  66.580  1.00  0.00     0.000 C 
BRANCH  19  20
ATOM     20  C   UNL     1      15.611  31.029  67.651  1.00  0.00     0.000 C 
BRANCH  20  21
ATOM     21  C   UNL     1      15.914  31.644  69.026  1.00  0.00     0.000 C 
BRANCH  21  22
ATOM     22  C   UNL     1      15.424  30.771  70.197  1.00  0.00     0.000 C 
BRANCH  22  23
ATOM     23  C   UNL     1      16.451  30.562  71.328  1.00  0.00     0.000 C 
BRANCH  23  24
ATOM     24  C   UNL     1      17.750  29.901  70.841  1.00  0.00    -0.000 C 
BRANCH  24  25
ATOM     25  C   UNL     1      18.915  30.904  70.839  1.00  0.00    -0.000 C 
BRANCH  25  26
ATOM     26  C   UNL     1      19.993  30.550  69.800  1.00  0.00    -0.000 C 
BRANCH  26  27
ATOM     27  C   UNL     1      19.628  29.306  68.971  1.00  0.00    -0.000 C 
BRANCH  27  28
ATOM     28  C   UNL     1      19.879  29.514  67.462  1.00  0.00    -0.000 C 
BRANCH  28  29
ATOM     29  C   UNL     1      18.865  30.456  66.789  1.00  0.00    -0.000 C 
BRANCH  29  30
ATOM     30  C   UNL     1      19.347  30.986  65.431  1.00  0.00    -0.000 C 
BRANCH  30  31
ATOM     31  C   UNL     1      19.075  32.488  65.299  1.00  0.00    -0.003 C 
ATOM     32  C   UNL     1      19.592  33.251  66.515  1.00  0.00     0.004 C 
ENDBRANCH  30  31
ENDBRANCH  29  30
ENDBRANCH  28  29
ENDBRANCH  27  28
ENDBRANCH  26  27
ENDBRANCH  25  26
ENDBRANCH  24  25
ENDBRANCH  23  24
ENDBRANCH  22  23
ENDBRANCH  21  22
ENDBRANCH  20  21
ENDBRANCH  19  20
ENDBRANCH  18  19
ENDBRANCH   1  18
TORSDOF 28
ENDMDL
MODEL 7
REMARK VINA RESULT:    -4.162      3.183      6.475
REMARK INTER + INTRA:         -15.848
REMARK INTER:                 -12.197
REMARK INTRA:                  -3.652
REMARK UNBOUND:                -4.874
REMARK SMILES CCCCCCCCCCCCCCCCCCCCCCCCCCCCCC(=O)[O-]
REMARK SMILES IDX 16 1 17 2 18 3 19 4 20 5 21 6 22 7 23 8 24 9 25 10 26 11
REMARK SMILES IDX 27 12 28 13 29 14 30 15 31 16 32 17 15 18 14 19 13 20 12 21
REMARK SMILES IDX 11 22 10 23 9 24 8 25 7 26 6 27 5 28 4 29 3 30 2 31 1 32
REMARK H PARENT
REMARK Flexibility Score: inf
ROOT
ATOM      1  C   UNL     1      14.005  34.735  68.028  1.00  0.00     0.000 C 
ENDROOT
BRANCH   1   2
ATOM      2  C   UNL     1      14.562  33.299  68.052  1.00  0.00     0.000 C 
BRANCH   2   3
ATOM      3  C   UNL     1      13.726  32.317  67.213  1.00  0.00     0.000 C 
BRANCH   3   4
ATOM      4  C   UNL     1      13.701  30.904  67.818  1.00  0.00     0.000 C 
BRANCH   4   5
ATOM      5  C   UNL     1      14.133  30.884  69.295  1.00  0.00     0.000 C 
BRANCH   5   6
ATOM      6  C   UNL     1      14.987  29.651  69.638  1.00  0.00     0.000 C 
BRANCH   6   7
ATOM      7  C   UNL     1      15.151  29.451  71.156  1.00  0.00     0.000 C 
BRANCH   7   8
ATOM      8  C   UNL     1      16.604  29.639  71.626  1.00  0.00     0.000 C 
BRANCH   8   9
ATOM      9  C   UNL     1      17.273  30.948  71.166  1.00  0.00     0.000 C 
BRANCH   9  10
ATOM     10  C   UNL     1      18.773  30.834  70.828  1.00  0.00     0.000 C 
BRANCH  10  11
ATOM     11  C   UNL     1      19.139  31.173  69.372  1.00  0.00     0.000 C 
BRANCH  11  12
ATOM     12  C   UNL     1      17.966  30.971  68.395  1.00  0.00     0.000 C 
BRANCH  12  13
ATOM     13  C   UNL     1      17.955  32.006  67.259  1.00  0.00     0.006 C 
BRANCH  13  14
ATOM     14  C   UNL     1      17.437  31.426  65.935  1.00  0.00     0.053 C 
BRANCH  14  15
ATOM     15  C   UNL     1      18.573  31.081  65.021  1.00  0.00     0.041 C 
ATOM     16  O   UNL     1      18.556  31.461  63.819  1.00  0.00    -0.550 OA
ATOM     17  O   UNL     1      19.624  30.296  65.478  1.00  0.00    -0.550 OA
ENDBRANCH  14  15
ENDBRANCH  13  14
ENDBRANCH  12  13
ENDBRANCH  11  12
ENDBRANCH  10  11
ENDBRANCH   9  10
ENDBRANCH   8   9
ENDBRANCH   7   8
ENDBRANCH   6   7
ENDBRANCH   5   6
ENDBRANCH   4   5
ENDBRANCH   3   4
ENDBRANCH   2   3
ENDBRANCH   1   2
BRANCH   1  18
ATOM     18  C   UNL     1      14.749  35.718  67.098  1.00  0.00     0.000 C 
BRANCH  18  19
ATOM     19  C   UNL     1      15.810  35.075  66.185  1.00  0.00     0.000 C 
BRANCH  19  20
ATOM     20  C   UNL     1      17.196  35.719  66.340  1.00  0.00     0.000 C 
BRANCH  20  21
ATOM     21  C   UNL     1      18.199  35.091  65.360  1.00  0.00     0.000 C 
BRANCH  21  22
ATOM     22  C   UNL     1      19.652  35.529  65.623  1.00  0.00     0.000 C 
BRANCH  22  23
ATOM     23  C   UNL     1      20.569  34.432  66.201  1.00  0.00     0.000 C 
BRANCH  23  24
ATOM     24  C   UNL     1      21.568  34.971  67.236  1.00  0.00    -0.000 C 
BRANCH  24  25
ATOM     25  C   UNL     1      22.755  35.668  66.552  1.00  0.00    -0.000 C 
BRANCH  25  26
ATOM     26  C   UNL     1      22.620  37.200  66.556  1.00  0.00    -0.000 C 
BRANCH  26  27
ATOM     27  C   UNL     1      22.024  37.737  67.870  1.00  0.00    -0.000 C 
BRANCH  27  28
ATOM     28  C   UNL     1      21.180  39.011  67.652  1.00  0.00    -0.000 C 
BRANCH  28  29
ATOM     29  C   UNL     1      21.756  39.963  66.589  1.00  0.00    -0.000 C 
BRANCH  29  30
ATOM     30  C   UNL     1      20.753  41.031  66.134  1.00  0.00    -0.000 C 
BRANCH  30  31
ATOM     31  C   UNL     1      21.025  41.461  64.688  1.00  0.00    -0.003 C 
ATOM     32  C   UNL     1      22.026  40.527  64.015  1.00  0.00     0.004 C 
ENDBRANCH  30  31
ENDBRANCH  29  30
ENDBRANCH  28  29
ENDBRANCH  27  28
ENDBRANCH  26  27
ENDBRANCH  25  26
ENDBRANCH  24  25
ENDBRANCH  23  24
ENDBRANCH  22  23
ENDBRANCH  21  22
ENDBRANCH  20  21
ENDBRANCH  19  20
ENDBRANCH  18  19
ENDBRANCH   1  18
TORSDOF 28
ENDMDL
MODEL 8
REMARK VINA RESULT:    -4.152      2.486      6.334
REMARK INTER + INTRA:         -15.823
REMARK INTER:                 -12.187
REMARK INTRA:                  -3.636
REMARK UNBOUND:                -4.874
REMARK SMILES CCCCCCCCCCCCCCCCCCCCCCCCCCCCCC(=O)[O-]
REMARK SMILES IDX 16 1 17 2 18 3 19 4 20 5 21 6 22 7 23 8 24 9 25 10 26 11
REMARK SMILES IDX 27 12 28 13 29 14 30 15 31 16 32 17 15 18 14 19 13 20 12 21
REMARK SMILES IDX 11 22 10 23 9 24 8 25 7 26 6 27 5 28 4 29 3 30 2 31 1 32
REMARK H PARENT
REMARK Flexibility Score: inf
ROOT
ATOM      1  C   UNL     1      15.505  31.465  68.353  1.00  0.00     0.000 C 
ENDROOT
BRANCH   1   2
ATOM      2  C   UNL     1      15.446  29.927  68.317  1.00  0.00     0.000 C 
BRANCH   2   3
ATOM      3  C   UNL     1      14.394  29.343  69.276  1.00  0.00     0.000 C 
BRANCH   3   4
ATOM      4  C   UNL     1      14.947  28.180  70.115  1.00  0.00     0.000 C 
BRANCH   4   5
ATOM      5  C   UNL     1      14.613  28.316  71.611  1.00  0.00     0.000 C 
BRANCH   5   6
ATOM      6  C   UNL     1      15.872  28.490  72.478  1.00  0.00     0.000 C 
BRANCH   6   7
ATOM      7  C   UNL     1      17.093  28.950  71.661  1.00  0.00     0.000 C 
BRANCH   7   8
ATOM      8  C   UNL     1      17.201  30.483  71.568  1.00  0.00     0.000 C 
BRANCH   8   9
ATOM      9  C   UNL     1      18.295  31.001  70.615  1.00  0.00     0.000 C 
BRANCH   9  10
ATOM     10  C   UNL     1      19.331  29.949  70.173  1.00  0.00     0.000 C 
BRANCH  10  11
ATOM     11  C   UNL     1      18.949  29.150  68.914  1.00  0.00     0.000 C 
BRANCH  11  12
ATOM     12  C   UNL     1      19.709  29.612  67.657  1.00  0.00     0.000 C 
BRANCH  12  13
ATOM     13  C   UNL     1      19.011  30.776  66.936  1.00  0.00     0.006 C 
BRANCH  13  14
ATOM     14  C   UNL     1      19.362  30.843  65.443  1.00  0.00     0.053 C 
BRANCH  14  15
ATOM     15  C   UNL     1      18.122  30.889  64.602  1.00  0.00     0.041 C 
ATOM     16  O   UNL     1      18.190  31.235  63.392  1.00  0.00    -0.550 OA
ATOM     17  O   UNL     1      16.885  30.602  65.166  1.00  0.00    -0.550 OA
ENDBRANCH  14  15
ENDBRANCH  13  14
ENDBRANCH  12  13
ENDBRANCH  11  12
ENDBRANCH  10  11
ENDBRANCH   9  10
ENDBRANCH   8   9
ENDBRANCH   7   8
ENDBRANCH   6   7
ENDBRANCH   5   6
ENDBRANCH   4   5
ENDBRANCH   3   4
ENDBRANCH   2   3
ENDBRANCH   1   2
BRANCH   1  18
ATOM     18  C   UNL     1      14.159  32.174  68.618  1.00  0.00     0.000 C 
BRANCH  18  19
ATOM     19  C   UNL     1      13.628  33.022  67.448  1.00  0.00     0.000 C 
BRANCH  19  20
ATOM     20  C   UNL     1      13.585  34.522  67.773  1.00  0.00     0.000 C 
BRANCH  20  21
ATOM     21  C   UNL     1      14.988  35.141  67.672  1.00  0.00     0.000 C 
BRANCH  21  22
ATOM     22  C   UNL     1      15.747  34.708  66.404  1.00  0.00     0.000 C 
BRANCH  22  23
ATOM     23  C   UNL     1      17.214  34.292  66.633  1.00  0.00     0.000 C 
BRANCH  23  24
ATOM     24  C   UNL     1      18.181  34.931  65.624  1.00  0.00    -0.000 C 
BRANCH  24  25
ATOM     25  C   UNL     1      19.633  34.507  65.902  1.00  0.00    -0.000 C 
BRANCH  25  26
ATOM     26  C   UNL     1      20.603  35.701  65.912  1.00  0.00    -0.000 C 
BRANCH  26  27
ATOM     27  C   UNL     1      21.835  35.453  66.800  1.00  0.00    -0.000 C 
BRANCH  27  28
ATOM     28  C   UNL     1      22.874  36.590  66.689  1.00  0.00    -0.000 C 
BRANCH  28  29
ATOM     29  C   UNL     1      22.253  37.975  66.437  1.00  0.00    -0.000 C 
BRANCH  29  30
ATOM     30  C   UNL     1      21.829  38.687  67.729  1.00  0.00    -0.000 C 
BRANCH  30  31
ATOM     31  C   UNL     1      20.604  39.576  67.490  1.00  0.00    -0.003 C 
ATOM     32  C   UNL     1      20.714  40.322  66.164  1.00  0.00     0.004 C 
ENDBRANCH  30  31
ENDBRANCH  29  30
ENDBRANCH  28  29
ENDBRANCH  27  28
ENDBRANCH  26  27
ENDBRANCH  25  26
ENDBRANCH  24  25
ENDBRANCH  23  24
ENDBRANCH  22  23
ENDBRANCH  21  22
ENDBRANCH  20  21
ENDBRANCH  19  20
ENDBRANCH  18  19
ENDBRANCH   1  18
TORSDOF 28
ENDMDL
MODEL 9
REMARK VINA RESULT:    -4.140     11.725     14.516
REMARK INTER + INTRA:         -15.790
REMARK INTER:                 -10.207
REMARK INTRA:                  -5.583
REMARK UNBOUND:                -4.874
REMARK SMILES CCCCCCCCCCCCCCCCCCCCCCCCCCCCCC(=O)[O-]
REMARK SMILES IDX 16 1 17 2 18 3 19 4 20 5 21 6 22 7 23 8 24 9 25 10 26 11
REMARK SMILES IDX 27 12 28 13 29 14 30 15 31 16 32 17 15 18 14 19 13 20 12 21
REMARK SMILES IDX 11 22 10 23 9 24 8 25 7 26 6 27 5 28 4 29 3 30 2 31 1 32
REMARK H PARENT
REMARK Flexibility Score: inf
ROOT
ATOM      1  C   UNL     1      16.015  44.522  65.068  1.00  0.00     0.000 C 
ENDROOT
BRANCH   1   2
ATOM      2  C   UNL     1      17.501  44.217  64.804  1.00  0.00     0.000 C 
BRANCH   2   3
ATOM      3  C   UNL     1      17.996  42.957  65.537  1.00  0.00     0.000 C 
BRANCH   3   4
ATOM      4  C   UNL     1      17.643  42.973  67.033  1.00  0.00     0.000 C 
BRANCH   4   5
ATOM      5  C   UNL     1      18.889  42.935  67.936  1.00  0.00     0.000 C 
BRANCH   5   6
ATOM      6  C   UNL     1      18.997  44.178  68.836  1.00  0.00     0.000 C 
BRANCH   6   7
ATOM      7  C   UNL     1      18.607  45.474  68.103  1.00  0.00     0.000 C 
BRANCH   7   8
ATOM      8  C   UNL     1      19.798  46.429  67.911  1.00  0.00     0.000 C 
BRANCH   8   9
ATOM      9  C   UNL     1      21.184  45.801  68.157  1.00  0.00     0.000 C 
BRANCH   9  10
ATOM     10  C   UNL     1      21.744  44.973  66.984  1.00  0.00     0.000 C 
BRANCH  10  11
ATOM     11  C   UNL     1      21.252  45.404  65.591  1.00  0.00     0.000 C 
BRANCH  11  12
ATOM     12  C   UNL     1      21.219  44.243  64.580  1.00  0.00     0.000 C 
BRANCH  12  13
ATOM     13  C   UNL     1      22.082  43.049  65.019  1.00  0.00     0.006 C 
BRANCH  13  14
ATOM     14  C   UNL     1      21.311  41.722  64.997  1.00  0.00     0.053 C 
BRANCH  14  15
ATOM     15  C   UNL     1      22.039  40.667  65.773  1.00  0.00     0.041 C 
ATOM     16  O   UNL     1      21.796  40.503  66.999  1.00  0.00    -0.550 OA
ATOM     17  O   UNL     1      23.022  39.901  65.159  1.00  0.00    -0.550 OA
ENDBRANCH  14  15
ENDBRANCH  13  14
ENDBRANCH  12  13
ENDBRANCH  11  12
ENDBRANCH  10  11
ENDBRANCH   9  10
ENDBRANCH   8   9
ENDBRANCH   7   8
ENDBRANCH   6   7
ENDBRANCH   5   6
ENDBRANCH   4   5
ENDBRANCH   3   4
ENDBRANCH   2   3
ENDBRANCH   1   2
BRANCH   1  18
ATOM     18  C   UNL     1      15.353  45.500  64.074  1.00  0.00     0.000 C 
BRANCH  18  19
ATOM     19  C   UNL     1      16.250  45.946  62.904  1.00  0.00     0.000 C 
BRANCH  19  20
ATOM     20  C   UNL     1      15.466  46.150  61.599  1.00  0.00     0.000 C 
BRANCH  20  21
ATOM     21  C   UNL     1      14.193  45.289  61.590  1.00  0.00     0.000 C 
BRANCH  21  22
ATOM     22  C   UNL     1      13.979  44.546  60.258  1.00  0.00     0.000 C 
BRANCH  22  23
ATOM     23  C   UNL     1      14.866  43.302  60.056  1.00  0.00     0.000 C 
BRANCH  23  24
ATOM     24  C   UNL     1      15.113  42.525  61.358  1.00  0.00    -0.000 C 
BRANCH  24  25
ATOM     25  C   UNL     1      16.607  42.510  61.721  1.00  0.00    -0.000 C 
BRANCH  25  26
ATOM     26  C   UNL     1      17.475  43.221  60.669  1.00  0.00    -0.000 C 
BRANCH  26  27
ATOM     27  C   UNL     1      18.905  43.491  61.169  1.00  0.00    -0.000 C 
BRANCH  27  28
ATOM     28  C   UNL     1      19.572  42.224  61.748  1.00  0.00    -0.000 C 
BRANCH  28  29
ATOM     29  C   UNL     1      20.723  41.679  60.884  1.00  0.00    -0.000 C 
BRANCH  29  30
ATOM     30  C   UNL     1      22.106  42.125  61.377  1.00  0.00    -0.000 C 
BRANCH  30  31
ATOM     31  C   UNL     1      22.646  43.281  60.528  1.00  0.00    -0.003 C 
ATOM     32  C   UNL     1      22.765  44.560  61.349  1.00  0.00     0.004 C 
ENDBRANCH  30  31
ENDBRANCH  29  30
ENDBRANCH  28  29
ENDBRANCH  27  28
ENDBRANCH  26  27
ENDBRANCH  25  26
ENDBRANCH  24  25
ENDBRANCH  23  24
ENDBRANCH  22  23
ENDBRANCH  21  22
ENDBRANCH  20  21
ENDBRANCH  19  20
ENDBRANCH  18  19
ENDBRANCH   1  18
TORSDOF 28
ENDMDL
