MODEL 1
REMARK VINA RESULT:    -3.757      0.000      0.000
REMARK INTER + INTRA:          -4.825
REMARK INTER:                  -4.526
REMARK INTRA:                  -0.299
REMARK UNBOUND:                -0.299
REMARK SMILES O=c1c(O)c(-c2ccc(O)c(O)c2)oc2cc(O)cc(O)c12
REMARK SMILES IDX 5 1 3 2 2 3 1 4 22 5 20 6 19 7 17 8 16 9 15 10 14 11 6 12
REMARK SMILES IDX 7 13 8 14 9 15 13 16 11 17 10 18 12 20 4 22 21 24 18 26
REMARK H PARENT 10 19 12 21 4 23 21 25 18 27
REMARK Flexibility Score: inf
ROOT
ATOM      1  C   UNL     1      23.512  50.676  87.707  1.00  0.00     0.180 A 
ATOM      2  C   UNL     1      24.763  51.021  87.168  1.00  0.00     0.208 A 
ATOM      3  C   UNL     1      25.123  52.377  87.093  1.00  0.00     0.238 A 
ATOM      4  O   UNL     1      26.273  52.674  86.678  1.00  0.00    -0.285 OA
ATOM      5  C   UNL     1      24.206  53.372  87.508  1.00  0.00     0.111 A 
ATOM      6  C   UNL     1      24.447  54.779  87.435  1.00  0.00     0.134 A 
ATOM      7  C   UNL     1      23.508  55.668  87.973  1.00  0.00     0.093 A 
ATOM      8  C   UNL     1      22.311  55.209  88.520  1.00  0.00     0.123 A 
ATOM      9  C   UNL     1      22.041  53.840  88.546  1.00  0.00     0.094 A 
ATOM     10  C   UNL     1      22.974  52.926  88.053  1.00  0.00     0.146 A 
ATOM     11  O   UNL     1      22.686  51.631  88.117  1.00  0.00    -0.452 OA
ENDROOT
BRANCH   1  12
ATOM     12  C   UNL     1      23.068  49.269  87.831  1.00  0.00     0.025 A 
ATOM     13  C   UNL     1      23.536  48.443  88.866  1.00  0.00     0.016 A 
ATOM     14  C   UNL     1      23.084  47.127  88.975  1.00  0.00     0.051 A 
ATOM     15  C   UNL     1      22.150  46.613  88.070  1.00  0.00     0.157 A 
ATOM     16  C   UNL     1      22.114  48.764  86.934  1.00  0.00     0.062 A 
ATOM     17  C   UNL     1      21.655  47.445  87.037  1.00  0.00     0.158 A 
BRANCH  15  18
ATOM     18  O   UNL     1      21.741  45.288  88.232  1.00  0.00    -0.504 OA
ATOM     19  H   UNL     1      21.024  44.846  87.676  1.00  0.00     0.293 HD
ENDBRANCH  15  18
BRANCH  17  20
ATOM     20  O   UNL     1      20.714  47.007  86.103  1.00  0.00    -0.504 OA
ATOM     21  H   UNL     1      19.792  46.672  86.343  1.00  0.00     0.293 HD
ENDBRANCH  17  20
ENDBRANCH   1  12
BRANCH   2  22
ATOM     22  O   UNL     1      25.624  50.027  86.694  1.00  0.00    -0.502 OA
ATOM     23  H   UNL     1      25.854  49.928  85.712  1.00  0.00     0.293 HD
ENDBRANCH   2  22
BRANCH   6  24
ATOM     24  O   UNL     1      25.568  55.351  86.828  1.00  0.00    -0.507 OA
ATOM     25  H   UNL     1      26.469  55.462  87.267  1.00  0.00     0.293 HD
ENDBRANCH   6  24
BRANCH   8  26
ATOM     26  O   UNL     1      21.392  56.124  89.031  1.00  0.00    -0.508 OA
ATOM     27  H   UNL     1      20.395  55.951  88.991  1.00  0.00     0.293 HD
ENDBRANCH   8  26
TORSDOF 6
ENDMDL
MODEL 2
REMARK VINA RESULT:    -3.746      3.670      5.780
REMARK INTER + INTRA:          -4.811
REMARK INTER:                  -4.525
REMARK INTRA:                  -0.286
REMARK UNBOUND:                -0.299
REMARK SMILES O=c1c(O)c(-c2ccc(O)c(O)c2)oc2cc(O)cc(O)c12
REMARK SMILES IDX 5 1 3 2 2 3 1 4 22 5 20 6 19 7 17 8 16 9 15 10 14 11 6 12
REMARK SMILES IDX 7 13 8 14 9 15 13 16 11 17 10 18 12 20 4 22 21 24 18 26
REMARK H PARENT 10 19 12 21 4 23 21 25 18 27
REMARK Flexibility Score: inf
ROOT
ATOM      1  C   UNL     1      22.362  47.940  87.721  1.00  0.00     0.180 A 
ATOM      2  C   UNL     1      21.367  46.964  87.901  1.00  0.00     0.208 A 
ATOM      3  C   UNL     1      20.061  47.371  88.220  1.00  0.00     0.238 A 
ATOM      4  O   UNL     1      19.161  46.497  88.307  1.00  0.00    -0.285 OA
ATOM      5  C   UNL     1      19.780  48.746  88.411  1.00  0.00     0.111 A 
ATOM      6  C   UNL     1      18.503  49.269  88.780  1.00  0.00     0.134 A 
ATOM      7  C   UNL     1      18.316  50.656  88.837  1.00  0.00     0.093 A 
ATOM      8  C   UNL     1      19.371  51.536  88.601  1.00  0.00     0.123 A 
ATOM      9  C   UNL     1      20.636  51.034  88.293  1.00  0.00     0.094 A 
ATOM     10  C   UNL     1      20.845  49.657  88.191  1.00  0.00     0.146 A 
ATOM     11  O   UNL     1      22.059  49.224  87.874  1.00  0.00    -0.452 OA
ENDROOT
BRANCH   1  12
ATOM     12  C   UNL     1      23.757  47.589  87.369  1.00  0.00     0.025 A 
ATOM     13  C   UNL     1      24.245  47.752  86.063  1.00  0.00     0.016 A 
ATOM     14  C   UNL     1      25.571  47.436  85.762  1.00  0.00     0.051 A 
ATOM     15  C   UNL     1      26.438  46.968  86.755  1.00  0.00     0.157 A 
ATOM     16  C   UNL     1      24.630  47.140  88.372  1.00  0.00     0.062 A 
ATOM     17  C   UNL     1      25.962  46.822  88.079  1.00  0.00     0.158 A 
BRANCH  15  18
ATOM     18  O   UNL     1      27.751  46.666  86.387  1.00  0.00    -0.504 OA
ATOM     19  H   UNL     1      28.028  45.807  85.935  1.00  0.00     0.293 HD
ENDBRANCH  15  18
BRANCH  17  20
ATOM     20  O   UNL     1      26.769  46.370  89.125  1.00  0.00    -0.504 OA
ATOM     21  H   UNL     1      26.414  46.017  90.002  1.00  0.00     0.293 HD
ENDBRANCH  17  20
ENDBRANCH   1  12
BRANCH   2  22
ATOM     22  O   UNL     1      21.683  45.607  87.783  1.00  0.00    -0.502 OA
ATOM     23  H   UNL     1      22.456  45.183  88.281  1.00  0.00     0.293 HD
ENDBRANCH   2  22
BRANCH   6  24
ATOM     24  O   UNL     1      17.403  48.479  89.125  1.00  0.00    -0.507 OA
ATOM     25  H   UNL     1      17.176  47.590  88.707  1.00  0.00     0.293 HD
ENDBRANCH   6  24
BRANCH   8  26
ATOM     26  O   UNL     1      19.152  52.910  88.683  1.00  0.00    -0.508 OA
ATOM     27  H   UNL     1      19.887  53.576  88.477  1.00  0.00     0.293 HD
ENDBRANCH   8  26
TORSDOF 6
ENDMDL
MODEL 3
REMARK VINA RESULT:    -3.710      2.991      6.010
REMARK INTER + INTRA:          -4.768
REMARK INTER:                  -4.519
REMARK INTRA:                  -0.249
REMARK UNBOUND:                -0.299
REMARK SMILES O=c1c(O)c(-c2ccc(O)c(O)c2)oc2cc(O)cc(O)c12
REMARK SMILES IDX 5 1 3 2 2 3 1 4 22 5 20 6 19 7 17 8 16 9 15 10 14 11 6 12
REMARK SMILES IDX 7 13 8 14 9 15 13 16 11 17 10 18 12 20 4 22 21 24 18 26
REMARK H PARENT 10 19 12 21 4 23 21 25 18 27
REMARK Flexibility Score: inf
ROOT
ATOM      1  C   UNL     1      23.463  49.627  87.395  1.00  0.00     0.180 A 
ATOM      2  C   UNL     1      23.686  48.349  87.935  1.00  0.00     0.208 A 
ATOM      3  C   UNL     1      24.796  47.608  87.498  1.00  0.00     0.238 A 
ATOM      4  O   UNL     1      25.031  46.497  88.039  1.00  0.00    -0.285 OA
ATOM      5  C   UNL     1      25.638  48.132  86.487  1.00  0.00     0.111 A 
ATOM      6  C   UNL     1      26.766  47.449  85.936  1.00  0.00     0.134 A 
ATOM      7  C   UNL     1      27.589  48.109  85.014  1.00  0.00     0.093 A 
ATOM      8  C   UNL     1      27.291  49.398  84.576  1.00  0.00     0.123 A 
ATOM      9  C   UNL     1      26.161  50.054  85.066  1.00  0.00     0.094 A 
ATOM     10  C   UNL     1      25.342  49.437  86.015  1.00  0.00     0.146 A 
ATOM     11  O   UNL     1      24.290  50.104  86.471  1.00  0.00    -0.452 OA
ENDROOT
BRANCH   1  12
ATOM     12  C   UNL     1      22.323  50.473  87.815  1.00  0.00     0.025 A 
ATOM     13  C   UNL     1      22.513  51.612  88.614  1.00  0.00     0.016 A 
ATOM     14  C   UNL     1      21.425  52.407  88.977  1.00  0.00     0.051 A 
ATOM     15  C   UNL     1      20.133  52.094  88.542  1.00  0.00     0.157 A 
ATOM     16  C   UNL     1      21.032  50.168  87.359  1.00  0.00     0.062 A 
ATOM     17  C   UNL     1      19.934  50.960  87.718  1.00  0.00     0.158 A 
BRANCH  15  18
ATOM     18  O   UNL     1      19.087  52.927  88.944  1.00  0.00    -0.504 OA
ATOM     19  H   UNL     1      19.146  53.935  88.970  1.00  0.00     0.293 HD
ENDBRANCH  15  18
BRANCH  17  20
ATOM     20  O   UNL     1      18.677  50.590  87.237  1.00  0.00    -0.504 OA
ATOM     21  H   UNL     1      18.126  51.151  86.603  1.00  0.00     0.293 HD
ENDBRANCH  17  20
ENDBRANCH   1  12
BRANCH   2  22
ATOM     22  O   UNL     1      22.800  47.819  88.876  1.00  0.00    -0.502 OA
ATOM     23  H   UNL     1      23.050  47.693  89.850  1.00  0.00     0.293 HD
ENDBRANCH   2  22
BRANCH   6  24
ATOM     24  O   UNL     1      27.105  46.127  86.236  1.00  0.00    -0.507 OA
ATOM     25  H   UNL     1      27.576  45.494  85.608  1.00  0.00     0.293 HD
ENDBRANCH   6  24
BRANCH   8  26
ATOM     26  O   UNL     1      28.124  50.018  83.646  1.00  0.00    -0.508 OA
ATOM     27  H   UNL     1      28.633  50.864  83.871  1.00  0.00     0.293 HD
ENDBRANCH   8  26
TORSDOF 6
ENDMDL
MODEL 4
REMARK VINA RESULT:    -3.691      3.744      5.758
REMARK INTER + INTRA:          -4.745
REMARK INTER:                  -4.505
REMARK INTRA:                  -0.240
REMARK UNBOUND:                -0.299
REMARK SMILES O=c1c(O)c(-c2ccc(O)c(O)c2)oc2cc(O)cc(O)c12
REMARK SMILES IDX 5 1 3 2 2 3 1 4 22 5 20 6 19 7 17 8 16 9 15 10 14 11 6 12
REMARK SMILES IDX 7 13 8 14 9 15 13 16 11 17 10 18 12 20 4 22 21 24 18 26
REMARK H PARENT 10 19 12 21 4 23 21 25 18 27
REMARK Flexibility Score: inf
ROOT
ATOM      1  C   UNL     1      22.327  47.689  88.243  1.00  0.00     0.180 A 
ATOM      2  C   UNL     1      21.291  46.740  88.273  1.00  0.00     0.208 A 
ATOM      3  C   UNL     1      19.965  47.181  88.411  1.00  0.00     0.238 A 
ATOM      4  O   UNL     1      19.038  46.332  88.363  1.00  0.00    -0.285 OA
ATOM      5  C   UNL     1      19.696  48.562  88.573  1.00  0.00     0.111 A 
ATOM      6  C   UNL     1      18.395  49.119  88.767  1.00  0.00     0.134 A 
ATOM      7  C   UNL     1      18.239  50.510  88.809  1.00  0.00     0.093 A 
ATOM      8  C   UNL     1      19.340  51.362  88.731  1.00  0.00     0.123 A 
ATOM      9  C   UNL     1      20.622  50.827  88.597  1.00  0.00     0.094 A 
ATOM     10  C   UNL     1      20.806  49.445  88.513  1.00  0.00     0.146 A 
ATOM     11  O   UNL     1      22.040  48.980  88.364  1.00  0.00    -0.452 OA
ENDROOT
BRANCH   1  12
ATOM     12  C   UNL     1      23.748  47.301  88.085  1.00  0.00     0.025 A 
ATOM     13  C   UNL     1      24.455  46.677  89.125  1.00  0.00     0.016 A 
ATOM     14  C   UNL     1      25.786  46.299  88.944  1.00  0.00     0.051 A 
ATOM     15  C   UNL     1      26.433  46.522  87.724  1.00  0.00     0.157 A 
ATOM     16  C   UNL     1      24.387  47.506  86.853  1.00  0.00     0.062 A 
ATOM     17  C   UNL     1      25.722  47.131  86.662  1.00  0.00     0.158 A 
BRANCH  15  18
ATOM     18  O   UNL     1      27.767  46.124  87.609  1.00  0.00    -0.504 OA
ATOM     19  H   UNL     1      28.123  45.552  86.857  1.00  0.00     0.293 HD
ENDBRANCH  15  18
BRANCH  17  20
ATOM     20  O   UNL     1      26.297  47.376  85.414  1.00  0.00    -0.504 OA
ATOM     21  H   UNL     1      25.975  46.960  84.552  1.00  0.00     0.293 HD
ENDBRANCH  17  20
ENDBRANCH   1  12
BRANCH   2  22
ATOM     22  O   UNL     1      21.584  45.376  88.188  1.00  0.00    -0.502 OA
ATOM     23  H   UNL     1      22.046  44.870  88.934  1.00  0.00     0.293 HD
ENDBRANCH   2  22
BRANCH   6  24
ATOM     24  O   UNL     1      17.237  48.358  88.947  1.00  0.00    -0.507 OA
ATOM     25  H   UNL     1      16.611  48.435  89.734  1.00  0.00     0.293 HD
ENDBRANCH   6  24
BRANCH   8  26
ATOM     26  O   UNL     1      19.148  52.741  88.794  1.00  0.00    -0.508 OA
ATOM     27  H   UNL     1      19.926  53.378  88.916  1.00  0.00     0.293 HD
ENDBRANCH   8  26
TORSDOF 6
ENDMDL
MODEL 5
REMARK VINA RESULT:    -3.658      2.932      4.850
REMARK INTER + INTRA:          -4.706
REMARK INTER:                  -4.497
REMARK INTRA:                  -0.209
REMARK UNBOUND:                -0.299
REMARK SMILES O=c1c(O)c(-c2ccc(O)c(O)c2)oc2cc(O)cc(O)c12
REMARK SMILES IDX 5 1 3 2 2 3 1 4 22 5 20 6 19 7 17 8 16 9 15 10 14 11 6 12
REMARK SMILES IDX 7 13 8 14 9 15 13 16 11 17 10 18 12 20 4 22 21 24 18 26
REMARK H PARENT 10 19 12 21 4 23 21 25 18 27
REMARK Flexibility Score: inf
ROOT
ATOM      1  C   UNL     1      22.864  49.418  86.971  1.00  0.00     0.180 A 
ATOM      2  C   UNL     1      23.304  48.245  86.335  1.00  0.00     0.208 A 
ATOM      3  C   UNL     1      24.622  48.184  85.853  1.00  0.00     0.238 A 
ATOM      4  O   UNL     1      25.032  47.105  85.352  1.00  0.00    -0.285 OA
ATOM      5  C   UNL     1      25.465  49.317  85.962  1.00  0.00     0.111 A 
ATOM      6  C   UNL     1      26.804  49.383  85.468  1.00  0.00     0.134 A 
ATOM      7  C   UNL     1      27.579  50.520  85.728  1.00  0.00     0.093 A 
ATOM      8  C   UNL     1      27.047  51.616  86.405  1.00  0.00     0.123 A 
ATOM      9  C   UNL     1      25.723  51.584  86.844  1.00  0.00     0.094 A 
ATOM     10  C   UNL     1      24.936  50.449  86.634  1.00  0.00     0.146 A 
ATOM     11  O   UNL     1      23.688  50.452  87.087  1.00  0.00    -0.452 OA
ENDROOT
BRANCH   1  12
ATOM     12  C   UNL     1      21.494  49.552  87.517  1.00  0.00     0.025 A 
ATOM     13  C   UNL     1      21.065  48.786  88.613  1.00  0.00     0.016 A 
ATOM     14  C   UNL     1      19.777  48.948  89.125  1.00  0.00     0.051 A 
ATOM     15  C   UNL     1      18.898  49.883  88.568  1.00  0.00     0.157 A 
ATOM     16  C   UNL     1      20.623  50.507  86.971  1.00  0.00     0.062 A 
ATOM     17  C   UNL     1      19.329  50.676  87.478  1.00  0.00     0.158 A 
BRANCH  15  18
ATOM     18  O   UNL     1      17.622  49.993  89.125  1.00  0.00    -0.504 OA
ATOM     19  H   UNL     1      16.853  49.380  88.898  1.00  0.00     0.293 HD
ENDBRANCH  15  18
BRANCH  17  20
ATOM     20  O   UNL     1      18.513  51.636  86.877  1.00  0.00    -0.504 OA
ATOM     21  H   UNL     1      18.016  52.354  87.385  1.00  0.00     0.293 HD
ENDBRANCH  17  20
ENDBRANCH   1  12
BRANCH   2  22
ATOM     22  O   UNL     1      22.433  47.165  86.169  1.00  0.00    -0.502 OA
ATOM     23  H   UNL     1      21.454  47.209  86.428  1.00  0.00     0.293 HD
ENDBRANCH   2  22
BRANCH   6  24
ATOM     24  O   UNL     1      27.406  48.382  84.702  1.00  0.00    -0.507 OA
ATOM     25  H   UNL     1      27.220  48.210  83.726  1.00  0.00     0.293 HD
ENDBRANCH   6  24
BRANCH   8  26
ATOM     26  O   UNL     1      27.843  52.738  86.631  1.00  0.00    -0.508 OA
ATOM     27  H   UNL     1      27.556  53.660  86.327  1.00  0.00     0.293 HD
ENDBRANCH   8  26
TORSDOF 6
ENDMDL
MODEL 6
REMARK VINA RESULT:    -3.544      4.191      6.100
REMARK INTER + INTRA:          -4.567
REMARK INTER:                  -4.523
REMARK INTRA:                  -0.044
REMARK UNBOUND:                -0.299
REMARK SMILES O=c1c(O)c(-c2ccc(O)c(O)c2)oc2cc(O)cc(O)c12
REMARK SMILES IDX 5 1 3 2 2 3 1 4 22 5 20 6 19 7 17 8 16 9 15 10 14 11 6 12
REMARK SMILES IDX 7 13 8 14 9 15 13 16 11 17 10 18 12 20 4 22 21 24 18 26
REMARK H PARENT 10 19 12 21 4 23 21 25 18 27
REMARK Flexibility Score: inf
ROOT
ATOM      1  C   UNL     1      22.042  47.927  87.566  1.00  0.00     0.180 A 
ATOM      2  C   UNL     1      22.519  48.709  86.500  1.00  0.00     0.208 A 
ATOM      3  C   UNL     1      23.875  48.619  86.143  1.00  0.00     0.238 A 
ATOM      4  O   UNL     1      24.279  49.265  85.141  1.00  0.00    -0.285 OA
ATOM      5  C   UNL     1      24.747  47.792  86.891  1.00  0.00     0.111 A 
ATOM      6  C   UNL     1      26.148  47.658  86.647  1.00  0.00     0.134 A 
ATOM      7  C   UNL     1      26.892  46.729  87.385  1.00  0.00     0.093 A 
ATOM      8  C   UNL     1      26.302  45.977  88.399  1.00  0.00     0.123 A 
ATOM      9  C   UNL     1      24.946  46.138  88.683  1.00  0.00     0.094 A 
ATOM     10  C   UNL     1      24.169  47.029  87.939  1.00  0.00     0.146 A 
ATOM     11  O   UNL     1      22.878  47.136  88.228  1.00  0.00    -0.452 OA
ENDROOT
BRANCH   1  12
ATOM     12  C   UNL     1      20.624  47.957  87.992  1.00  0.00     0.025 A 
ATOM     13  C   UNL     1      19.982  49.163  88.315  1.00  0.00     0.016 A 
ATOM     14  C   UNL     1      18.638  49.167  88.690  1.00  0.00     0.051 A 
ATOM     15  C   UNL     1      17.904  47.977  88.737  1.00  0.00     0.157 A 
ATOM     16  C   UNL     1      19.886  46.764  88.017  1.00  0.00     0.062 A 
ATOM     17  C   UNL     1      18.536  46.759  88.392  1.00  0.00     0.158 A 
BRANCH  15  18
ATOM     18  O   UNL     1      16.565  48.049  89.125  1.00  0.00    -0.504 OA
ATOM     19  H   UNL     1      16.259  48.253  90.065  1.00  0.00     0.293 HD
ENDBRANCH  15  18
BRANCH  17  20
ATOM     20  O   UNL     1      17.868  45.533  88.406  1.00  0.00    -0.504 OA
ATOM     21  H   UNL     1      16.897  45.416  88.155  1.00  0.00     0.293 HD
ENDBRANCH  17  20
ENDBRANCH   1  12
BRANCH   2  22
ATOM     22  O   UNL     1      21.659  49.576  85.822  1.00  0.00    -0.502 OA
ATOM     23  H   UNL     1      21.996  50.322  85.225  1.00  0.00     0.293 HD
ENDBRANCH   2  22
BRANCH   6  24
ATOM     24  O   UNL     1      26.858  48.426  85.719  1.00  0.00    -0.507 OA
ATOM     25  H   UNL     1      26.605  48.540  84.750  1.00  0.00     0.293 HD
ENDBRANCH   6  24
BRANCH   8  26
ATOM     26  O   UNL     1      27.077  45.073  89.125  1.00  0.00    -0.508 OA
ATOM     27  H   UNL     1      27.530  44.285  88.678  1.00  0.00     0.293 HD
ENDBRANCH   8  26
TORSDOF 6
ENDMDL
MODEL 7
REMARK VINA RESULT:    -3.517      3.978      5.678
REMARK INTER + INTRA:          -4.535
REMARK INTER:                  -4.487
REMARK INTRA:                  -0.048
REMARK UNBOUND:                -0.299
REMARK SMILES O=c1c(O)c(-c2ccc(O)c(O)c2)oc2cc(O)cc(O)c12
REMARK SMILES IDX 5 1 3 2 2 3 1 4 22 5 20 6 19 7 17 8 16 9 15 10 14 11 6 12
REMARK SMILES IDX 7 13 8 14 9 15 13 16 11 17 10 18 12 20 4 22 21 24 18 26
REMARK H PARENT 10 19 12 21 4 23 21 25 18 27
REMARK Flexibility Score: inf
ROOT
ATOM      1  C   UNL     1      23.093  47.852  87.688  1.00  0.00     0.180 A 
ATOM      2  C   UNL     1      23.881  46.817  88.220  1.00  0.00     0.208 A 
ATOM      3  C   UNL     1      25.220  46.701  87.811  1.00  0.00     0.238 A 
ATOM      4  O   UNL     1      25.940  45.819  88.346  1.00  0.00    -0.285 OA
ATOM      5  C   UNL     1      25.738  47.587  86.835  1.00  0.00     0.111 A 
ATOM      6  C   UNL     1      27.067  47.533  86.314  1.00  0.00     0.134 A 
ATOM      7  C   UNL     1      27.501  48.528  85.428  1.00  0.00     0.093 A 
ATOM      8  C   UNL     1      26.639  49.534  84.996  1.00  0.00     0.123 A 
ATOM      9  C   UNL     1      25.322  49.564  85.456  1.00  0.00     0.094 A 
ATOM     10  C   UNL     1      24.871  48.609  86.369  1.00  0.00     0.146 A 
ATOM     11  O   UNL     1      23.617  48.687  86.798  1.00  0.00    -0.452 OA
ENDROOT
BRANCH   1  12
ATOM     12  C   UNL     1      21.678  48.048  88.080  1.00  0.00     0.025 A 
ATOM     13  C   UNL     1      21.219  49.280  88.571  1.00  0.00     0.016 A 
ATOM     14  C   UNL     1      19.876  49.447  88.911  1.00  0.00     0.051 A 
ATOM     15  C   UNL     1      18.964  48.397  88.757  1.00  0.00     0.157 A 
ATOM     16  C   UNL     1      20.762  47.000  87.904  1.00  0.00     0.062 A 
ATOM     17  C   UNL     1      19.412  47.158  88.243  1.00  0.00     0.158 A 
BRANCH  15  18
ATOM     18  O   UNL     1      17.635  48.628  89.120  1.00  0.00    -0.504 OA
ATOM     19  H   UNL     1      16.869  48.667  88.464  1.00  0.00     0.293 HD
ENDBRANCH  15  18
BRANCH  17  20
ATOM     20  O   UNL     1      18.560  46.069  88.051  1.00  0.00    -0.504 OA
ATOM     21  H   UNL     1      18.522  45.523  87.202  1.00  0.00     0.293 HD
ENDBRANCH  17  20
ENDBRANCH   1  12
BRANCH   2  22
ATOM     22  O   UNL     1      23.329  45.907  89.125  1.00  0.00    -0.502 OA
ATOM     23  H   UNL     1      23.324  44.908  88.957  1.00  0.00     0.293 HD
ENDBRANCH   2  22
BRANCH   6  24
ATOM     24  O   UNL     1      27.983  46.520  86.609  1.00  0.00    -0.507 OA
ATOM     25  H   UNL     1      28.752  46.607  87.255  1.00  0.00     0.293 HD
ENDBRANCH   6  24
BRANCH   8  26
ATOM     26  O   UNL     1      27.101  50.497  84.101  1.00  0.00    -0.508 OA
ATOM     27  H   UNL     1      26.492  51.223  83.743  1.00  0.00     0.293 HD
ENDBRANCH   8  26
TORSDOF 6
ENDMDL
