MODEL 1
REMARK VINA RESULT:    -4.842      0.000      0.000
REMARK INTER + INTRA:         -15.392
REMARK INTER:                 -12.201
REMARK INTRA:                  -3.191
REMARK UNBOUND:                -3.191
REMARK SMILES CCCCCCCCCCCCCCCCCCCCCCCCCCCC(=O)[O-]
REMARK SMILES IDX 15 1 16 2 17 3 18 4 19 5 20 6 21 7 22 8 23 9 24 10 25 11
REMARK SMILES IDX 26 12 27 13 28 14 29 15 30 16 14 17 13 18 12 19 11 20 10 21
REMARK SMILES IDX 9 22 8 23 7 24 6 25 5 26 4 27 3 28 2 29 1 30
REMARK H PARENT
REMARK Flexibility Score: inf
ROOT
ATOM      1  C   UNL     1      21.749   6.553   6.574  1.00  0.00     0.000 C 
ENDROOT
BRANCH   1   2
ATOM      2  C   UNL     1      21.903   7.742   7.536  1.00  0.00     0.000 C 
BRANCH   2   3
ATOM      3  C   UNL     1      20.561   8.420   7.864  1.00  0.00     0.000 C 
BRANCH   3   4
ATOM      4  C   UNL     1      20.738   9.905   8.248  1.00  0.00     0.000 C 
BRANCH   4   5
ATOM      5  C   UNL     1      20.008  10.881   7.309  1.00  0.00     0.000 C 
BRANCH   5   6
ATOM      6  C   UNL     1      19.344  10.182   6.115  1.00  0.00     0.000 C 
BRANCH   6   7
ATOM      7  C   UNL     1      17.870  10.588   5.989  1.00  0.00     0.000 C 
BRANCH   7   8
ATOM      8  C   UNL     1      16.992   9.789   6.964  1.00  0.00     0.000 C 
BRANCH   8   9
ATOM      9  C   UNL     1      16.593   8.412   6.408  1.00  0.00     0.000 C 
BRANCH   9  10
ATOM     10  C   UNL     1      17.091   7.250   7.281  1.00  0.00     0.000 C 
BRANCH  10  11
ATOM     11  C   UNL     1      17.932   6.267   6.458  1.00  0.00     0.000 C 
BRANCH  11  12
ATOM     12  C   UNL     1      17.696   6.464   4.956  1.00  0.00     0.006 C 
BRANCH  12  13
ATOM     13  C   UNL     1      18.959   6.988   4.265  1.00  0.00     0.053 C 
BRANCH  13  14
ATOM     14  C   UNL     1      18.611   7.646   2.968  1.00  0.00     0.041 C 
ATOM     15  O   UNL     1      18.665   8.899   2.860  1.00  0.00    -0.550 OA
ATOM     16  O   UNL     1      18.175   6.880   1.895  1.00  0.00    -0.550 OA
ENDBRANCH  13  14
ENDBRANCH  12  13
ENDBRANCH  11  12
ENDBRANCH  10  11
ENDBRANCH   9  10
ENDBRANCH   8   9
ENDBRANCH   7   8
ENDBRANCH   6   7
ENDBRANCH   5   6
ENDBRANCH   4   5
ENDBRANCH   3   4
ENDBRANCH   2   3
ENDBRANCH   1   2
BRANCH   1  17
ATOM     17  C   UNL     1      23.067   6.184   5.876  1.00  0.00     0.000 C 
BRANCH  17  18
ATOM     18  C   UNL     1      22.814   5.669   4.450  1.00  0.00     0.000 C 
BRANCH  18  19
ATOM     19  C   UNL     1      24.110   5.225   3.748  1.00  0.00     0.000 C 
BRANCH  19  20
ATOM     20  C   UNL     1      23.975   5.221   2.215  1.00  0.00     0.000 C 
BRANCH  20  21
ATOM     21  C   UNL     1      24.776   4.087   1.555  1.00  0.00     0.000 C 
BRANCH  21  22
ATOM     22  C   UNL     1      24.091   2.716   1.701  1.00  0.00    -0.000 C 
BRANCH  22  23
ATOM     23  C   UNL     1      25.066   1.549   1.469  1.00  0.00    -0.000 C 
BRANCH  23  24
ATOM     24  C   UNL     1      25.679   1.028   2.780  1.00  0.00    -0.000 C 
BRANCH  24  25
ATOM     25  C   UNL     1      27.091   1.582   3.044  1.00  0.00    -0.000 C 
BRANCH  25  26
ATOM     26  C   UNL     1      27.148   2.803   3.980  1.00  0.00    -0.000 C 
BRANCH  26  27
ATOM     27  C   UNL     1      27.790   4.037   3.326  1.00  0.00    -0.000 C 
BRANCH  27  28
ATOM     28  C   UNL     1      29.287   4.117   3.657  1.00  0.00    -0.000 C 
BRANCH  28  29
ATOM     29  C   UNL     1      30.166   4.209   2.399  1.00  0.00    -0.003 C 
ATOM     30  C   UNL     1      31.613   4.591   2.714  1.00  0.00     0.004 C 
ENDBRANCH  28  29
ENDBRANCH  27  28
ENDBRANCH  26  27
ENDBRANCH  25  26
ENDBRANCH  24  25
ENDBRANCH  23  24
ENDBRANCH  22  23
ENDBRANCH  21  22
ENDBRANCH  20  21
ENDBRANCH  19  20
ENDBRANCH  18  19
ENDBRANCH  17  18
ENDBRANCH   1  17
TORSDOF 26
ENDMDL
MODEL 2
REMARK VINA RESULT:    -4.739      1.504      3.000
REMARK INTER + INTRA:         -15.132
REMARK INTER:                 -10.819
REMARK INTRA:                  -4.313
REMARK UNBOUND:                -3.191
REMARK SMILES CCCCCCCCCCCCCCCCCCCCCCCCCCCC(=O)[O-]
REMARK SMILES IDX 15 1 16 2 17 3 18 4 19 5 20 6 21 7 22 8 23 9 24 10 25 11
REMARK SMILES IDX 26 12 27 13 28 14 29 15 30 16 14 17 13 18 12 19 11 20 10 21
REMARK SMILES IDX 9 22 8 23 7 24 6 25 5 26 4 27 3 28 2 29 1 30
REMARK H PARENT
REMARK Flexibility Score: inf
ROOT
ATOM      1  C   UNL     1      23.836   6.106   5.532  1.00  0.00     0.000 C 
ENDROOT
BRANCH   1   2
ATOM      2  C   UNL     1      22.949   6.400   6.753  1.00  0.00     0.000 C 
BRANCH   2   3
ATOM      3  C   UNL     1      21.481   6.662   6.372  1.00  0.00     0.000 C 
BRANCH   3   4
ATOM      4  C   UNL     1      20.619   7.028   7.600  1.00  0.00     0.000 C 
BRANCH   4   5
ATOM      5  C   UNL     1      20.590   8.533   7.914  1.00  0.00     0.000 C 
BRANCH   5   6
ATOM      6  C   UNL     1      19.943   9.365   6.799  1.00  0.00     0.000 C 
BRANCH   6   7
ATOM      7  C   UNL     1      18.830  10.263   7.356  1.00  0.00     0.000 C 
BRANCH   7   8
ATOM      8  C   UNL     1      17.526   9.474   7.542  1.00  0.00     0.000 C 
BRANCH   8   9
ATOM      9  C   UNL     1      16.551   9.656   6.368  1.00  0.00     0.000 C 
BRANCH   9  10
ATOM     10  C   UNL     1      16.238   8.338   5.643  1.00  0.00     0.000 C 
BRANCH  10  11
ATOM     11  C   UNL     1      16.939   7.157   6.326  1.00  0.00     0.000 C 
BRANCH  11  12
ATOM     12  C   UNL     1      17.529   6.192   5.290  1.00  0.00     0.006 C 
BRANCH  12  13
ATOM     13  C   UNL     1      18.444   6.931   4.309  1.00  0.00     0.053 C 
BRANCH  13  14
ATOM     14  C   UNL     1      17.884   6.872   2.924  1.00  0.00     0.041 C 
ATOM     15  O   UNL     1      18.436   7.512   1.990  1.00  0.00    -0.550 OA
ATOM     16  O   UNL     1      16.722   6.155   2.674  1.00  0.00    -0.550 OA
ENDBRANCH  13  14
ENDBRANCH  12  13
ENDBRANCH  11  12
ENDBRANCH  10  11
ENDBRANCH   9  10
ENDBRANCH   8   9
ENDBRANCH   7   8
ENDBRANCH   6   7
ENDBRANCH   5   6
ENDBRANCH   4   5
ENDBRANCH   3   4
ENDBRANCH   2   3
ENDBRANCH   1   2
BRANCH   1  17
ATOM     17  C   UNL     1      23.043   5.523   4.353  1.00  0.00     0.000 C 
BRANCH  17  18
ATOM     18  C   UNL     1      23.886   4.507   3.565  1.00  0.00     0.000 C 
BRANCH  18  19
ATOM     19  C   UNL     1      24.267   5.021   2.165  1.00  0.00     0.000 C 
BRANCH  19  20
ATOM     20  C   UNL     1      24.882   3.920   1.284  1.00  0.00     0.000 C 
BRANCH  20  21
ATOM     21  C   UNL     1      24.715   2.516   1.889  1.00  0.00     0.000 C 
BRANCH  21  22
ATOM     22  C   UNL     1      26.059   1.789   2.076  1.00  0.00    -0.000 C 
BRANCH  22  23
ATOM     23  C   UNL     1      27.255   2.756   2.046  1.00  0.00    -0.000 C 
BRANCH  23  24
ATOM     24  C   UNL     1      27.813   3.041   3.450  1.00  0.00    -0.000 C 
BRANCH  24  25
ATOM     25  C   UNL     1      27.711   4.525   3.847  1.00  0.00    -0.000 C 
BRANCH  25  26
ATOM     26  C   UNL     1      27.239   4.782   5.290  1.00  0.00    -0.000 C 
BRANCH  26  27
ATOM     27  C   UNL     1      27.111   3.496   6.122  1.00  0.00    -0.000 C 
BRANCH  27  28
ATOM     28  C   UNL     1      25.806   3.494   6.932  1.00  0.00    -0.000 C 
BRANCH  28  29
ATOM     29  C   UNL     1      24.874   2.334   6.549  1.00  0.00    -0.003 C 
ATOM     30  C   UNL     1      23.402   2.639   6.828  1.00  0.00     0.004 C 
ENDBRANCH  28  29
ENDBRANCH  27  28
ENDBRANCH  26  27
ENDBRANCH  25  26
ENDBRANCH  24  25
ENDBRANCH  23  24
ENDBRANCH  22  23
ENDBRANCH  21  22
ENDBRANCH  20  21
ENDBRANCH  19  20
ENDBRANCH  18  19
ENDBRANCH  17  18
ENDBRANCH   1  17
TORSDOF 26
ENDMDL
MODEL 3
REMARK VINA RESULT:    -4.693      1.442      2.122
REMARK INTER + INTRA:         -15.018
REMARK INTER:                 -11.441
REMARK INTRA:                  -3.577
REMARK UNBOUND:                -3.191
REMARK SMILES CCCCCCCCCCCCCCCCCCCCCCCCCCCC(=O)[O-]
REMARK SMILES IDX 15 1 16 2 17 3 18 4 19 5 20 6 21 7 22 8 23 9 24 10 25 11
REMARK SMILES IDX 26 12 27 13 28 14 29 15 30 16 14 17 13 18 12 19 11 20 10 21
REMARK SMILES IDX 9 22 8 23 7 24 6 25 5 26 4 27 3 28 2 29 1 30
REMARK H PARENT
REMARK Flexibility Score: inf
ROOT
ATOM      1  C   UNL     1      21.926   6.611   7.089  1.00  0.00     0.000 C 
ENDROOT
BRANCH   1   2
ATOM      2  C   UNL     1      21.134   7.708   7.819  1.00  0.00     0.000 C 
BRANCH   2   3
ATOM      3  C   UNL     1      20.250   8.535   6.868  1.00  0.00     0.000 C 
BRANCH   3   4
ATOM      4  C   UNL     1      19.920   9.928   7.446  1.00  0.00     0.000 C 
BRANCH   4   5
ATOM      5  C   UNL     1      19.251  10.878   6.438  1.00  0.00     0.000 C 
BRANCH   5   6
ATOM      6  C   UNL     1      18.839  10.177   5.137  1.00  0.00     0.000 C 
BRANCH   6   7
ATOM      7  C   UNL     1      17.334  10.333   4.880  1.00  0.00     0.000 C 
BRANCH   7   8
ATOM      8  C   UNL     1      16.513   9.705   6.016  1.00  0.00     0.000 C 
BRANCH   8   9
ATOM      9  C   UNL     1      16.119   8.248   5.726  1.00  0.00     0.000 C 
BRANCH   9  10
ATOM     10  C   UNL     1      16.743   7.254   6.719  1.00  0.00     0.000 C 
BRANCH  10  11
ATOM     11  C   UNL     1      17.691   6.285   6.002  1.00  0.00     0.000 C 
BRANCH  11  12
ATOM     12  C   UNL     1      17.452   6.300   4.487  1.00  0.00     0.006 C 
BRANCH  12  13
ATOM     13  C   UNL     1      18.734   6.665   3.731  1.00  0.00     0.053 C 
BRANCH  13  14
ATOM     14  C   UNL     1      18.408   7.200   2.374  1.00  0.00     0.041 C 
ATOM     15  O   UNL     1      18.530   8.430   2.133  1.00  0.00    -0.550 OA
ATOM     16  O   UNL     1      17.914   6.351   1.392  1.00  0.00    -0.550 OA
ENDBRANCH  13  14
ENDBRANCH  12  13
ENDBRANCH  11  12
ENDBRANCH  10  11
ENDBRANCH   9  10
ENDBRANCH   8   9
ENDBRANCH   7   8
ENDBRANCH   6   7
ENDBRANCH   5   6
ENDBRANCH   4   5
ENDBRANCH   3   4
ENDBRANCH   2   3
ENDBRANCH   1   2
BRANCH   1  17
ATOM     17  C   UNL     1      23.302   6.357   7.723  1.00  0.00     0.000 C 
BRANCH  17  18
ATOM     18  C   UNL     1      24.220   5.580   6.764  1.00  0.00     0.000 C 
BRANCH  18  19
ATOM     19  C   UNL     1      23.967   5.939   5.289  1.00  0.00     0.000 C 
BRANCH  19  20
ATOM     20  C   UNL     1      23.873   4.694   4.390  1.00  0.00     0.000 C 
BRANCH  20  21
ATOM     21  C   UNL     1      23.963   5.038   2.894  1.00  0.00     0.000 C 
BRANCH  21  22
ATOM     22  C   UNL     1      25.389   4.880   2.335  1.00  0.00    -0.000 C 
BRANCH  22  23
ATOM     23  C   UNL     1      25.817   3.405   2.237  1.00  0.00    -0.000 C 
BRANCH  23  24
ATOM     24  C   UNL     1      26.958   3.061   3.208  1.00  0.00    -0.000 C 
BRANCH  24  25
ATOM     25  C   UNL     1      28.292   3.732   2.831  1.00  0.00    -0.000 C 
BRANCH  25  26
ATOM     26  C   UNL     1      29.357   3.737   3.942  1.00  0.00    -0.000 C 
BRANCH  26  27
ATOM     27  C   UNL     1      29.664   5.144   4.478  1.00  0.00    -0.000 C 
BRANCH  27  28
ATOM     28  C   UNL     1      28.434   6.056   4.365  1.00  0.00    -0.000 C 
BRANCH  28  29
ATOM     29  C   UNL     1      27.687   6.210   5.700  1.00  0.00    -0.003 C 
ATOM     30  C   UNL     1      27.275   7.654   5.985  1.00  0.00     0.004 C 
ENDBRANCH  28  29
ENDBRANCH  27  28
ENDBRANCH  26  27
ENDBRANCH  25  26
ENDBRANCH  24  25
ENDBRANCH  23  24
ENDBRANCH  22  23
ENDBRANCH  21  22
ENDBRANCH  20  21
ENDBRANCH  19  20
ENDBRANCH  18  19
ENDBRANCH  17  18
ENDBRANCH   1  17
TORSDOF 26
ENDMDL
MODEL 4
REMARK VINA RESULT:    -4.660      1.685      2.825
REMARK INTER + INTRA:         -14.935
REMARK INTER:                 -10.959
REMARK INTRA:                  -3.976
REMARK UNBOUND:                -3.191
REMARK SMILES CCCCCCCCCCCCCCCCCCCCCCCCCCCC(=O)[O-]
REMARK SMILES IDX 15 1 16 2 17 3 18 4 19 5 20 6 21 7 22 8 23 9 24 10 25 11
REMARK SMILES IDX 26 12 27 13 28 14 29 15 30 16 14 17 13 18 12 19 11 20 10 21
REMARK SMILES IDX 9 22 8 23 7 24 6 25 5 26 4 27 3 28 2 29 1 30
REMARK H PARENT
REMARK Flexibility Score: inf
ROOT
ATOM      1  C   UNL     1      23.719   4.504   5.698  1.00  0.00     0.000 C 
ENDROOT
BRANCH   1   2
ATOM      2  C   UNL     1      23.750   5.295   7.016  1.00  0.00     0.000 C 
BRANCH   2   3
ATOM      3  C   UNL     1      23.024   6.649   6.915  1.00  0.00     0.000 C 
BRANCH   3   4
ATOM      4  C   UNL     1      22.654   7.215   8.303  1.00  0.00     0.000 C 
BRANCH   4   5
ATOM      5  C   UNL     1      21.618   8.351   8.256  1.00  0.00     0.000 C 
BRANCH   5   6
ATOM      6  C   UNL     1      20.515   8.112   7.216  1.00  0.00     0.000 C 
BRANCH   6   7
ATOM      7  C   UNL     1      19.304   9.017   7.481  1.00  0.00     0.000 C 
BRANCH   7   8
ATOM      8  C   UNL     1      18.061   8.186   7.834  1.00  0.00     0.000 C 
BRANCH   8   9
ATOM      9  C   UNL     1      18.218   6.702   7.466  1.00  0.00     0.000 C 
BRANCH   9  10
ATOM     10  C   UNL     1      17.476   6.328   6.173  1.00  0.00     0.000 C 
BRANCH  10  11
ATOM     11  C   UNL     1      16.349   7.325   5.879  1.00  0.00     0.000 C 
BRANCH  11  12
ATOM     12  C   UNL     1      16.423   7.830   4.433  1.00  0.00     0.006 C 
BRANCH  12  13
ATOM     13  C   UNL     1      17.814   8.388   4.116  1.00  0.00     0.053 C 
BRANCH  13  14
ATOM     14  C   UNL     1      18.256   7.952   2.756  1.00  0.00     0.041 C 
ATOM     15  O   UNL     1      18.322   6.727   2.474  1.00  0.00    -0.550 OA
ATOM     16  O   UNL     1      18.647   8.897   1.817  1.00  0.00    -0.550 OA
ENDBRANCH  13  14
ENDBRANCH  12  13
ENDBRANCH  11  12
ENDBRANCH  10  11
ENDBRANCH   9  10
ENDBRANCH   8   9
ENDBRANCH   7   8
ENDBRANCH   6   7
ENDBRANCH   5   6
ENDBRANCH   4   5
ENDBRANCH   3   4
ENDBRANCH   2   3
ENDBRANCH   1   2
BRANCH   1  17
ATOM     17  C   UNL     1      23.555   5.411   4.470  1.00  0.00     0.000 C 
BRANCH  17  18
ATOM     18  C   UNL     1      23.402   4.583   3.184  1.00  0.00     0.000 C 
BRANCH  18  19
ATOM     19  C   UNL     1      24.255   5.131   2.027  1.00  0.00     0.000 C 
BRANCH  19  20
ATOM     20  C   UNL     1      25.061   4.029   1.317  1.00  0.00     0.000 C 
BRANCH  20  21
ATOM     21  C   UNL     1      24.875   2.649   1.970  1.00  0.00     0.000 C 
BRANCH  21  22
ATOM     22  C   UNL     1      26.163   1.805   1.946  1.00  0.00    -0.000 C 
BRANCH  22  23
ATOM     23  C   UNL     1      26.410   1.081   3.281  1.00  0.00    -0.000 C 
BRANCH  23  24
ATOM     24  C   UNL     1      26.341   2.034   4.486  1.00  0.00    -0.000 C 
BRANCH  24  25
ATOM     25  C   UNL     1      27.504   3.043   4.521  1.00  0.00    -0.000 C 
BRANCH  25  26
ATOM     26  C   UNL     1      27.200   4.361   5.256  1.00  0.00    -0.000 C 
BRANCH  26  27
ATOM     27  C   UNL     1      27.140   5.577   4.317  1.00  0.00    -0.000 C 
BRANCH  27  28
ATOM     28  C   UNL     1      27.709   6.828   5.002  1.00  0.00    -0.000 C 
BRANCH  28  29
ATOM     29  C   UNL     1      27.247   6.965   6.461  1.00  0.00    -0.003 C 
ATOM     30  C   UNL     1      26.340   8.175   6.684  1.00  0.00     0.004 C 
ENDBRANCH  28  29
ENDBRANCH  27  28
ENDBRANCH  26  27
ENDBRANCH  25  26
ENDBRANCH  24  25
ENDBRANCH  23  24
ENDBRANCH  22  23
ENDBRANCH  21  22
ENDBRANCH  20  21
ENDBRANCH  19  20
ENDBRANCH  18  19
ENDBRANCH  17  18
ENDBRANCH   1  17
TORSDOF 26
ENDMDL
MODEL 5
REMARK VINA RESULT:    -4.590      1.961      3.902
REMARK INTER + INTRA:         -14.758
REMARK INTER:                 -10.861
REMARK INTRA:                  -3.897
REMARK UNBOUND:                -3.191
REMARK SMILES CCCCCCCCCCCCCCCCCCCCCCCCCCCC(=O)[O-]
REMARK SMILES IDX 15 1 16 2 17 3 18 4 19 5 20 6 21 7 22 8 23 9 24 10 25 11
REMARK SMILES IDX 26 12 27 13 28 14 29 15 30 16 14 17 13 18 12 19 11 20 10 21
REMARK SMILES IDX 9 22 8 23 7 24 6 25 5 26 4 27 3 28 2 29 1 30
REMARK H PARENT
REMARK Flexibility Score: inf
ROOT
ATOM      1  C   UNL     1      23.190   5.058   6.827  1.00  0.00     0.000 C 
ENDROOT
BRANCH   1   2
ATOM      2  C   UNL     1      22.290   6.234   6.413  1.00  0.00     0.000 C 
BRANCH   2   3
ATOM      3  C   UNL     1      21.446   6.777   7.579  1.00  0.00     0.000 C 
BRANCH   3   4
ATOM      4  C   UNL     1      20.635   8.028   7.176  1.00  0.00     0.000 C 
BRANCH   4   5
ATOM      5  C   UNL     1      20.853   9.236   8.102  1.00  0.00     0.000 C 
BRANCH   5   6
ATOM      6  C   UNL     1      20.251  10.534   7.546  1.00  0.00     0.000 C 
BRANCH   6   7
ATOM      7  C   UNL     1      19.273  10.240   6.401  1.00  0.00     0.000 C 
BRANCH   7   8
ATOM      8  C   UNL     1      17.833  10.599   6.800  1.00  0.00     0.000 C 
BRANCH   8   9
ATOM      9  C   UNL     1      16.892   9.385   6.772  1.00  0.00     0.000 C 
BRANCH   9  10
ATOM     10  C   UNL     1      17.262   8.320   7.817  1.00  0.00     0.000 C 
BRANCH  10  11
ATOM     11  C   UNL     1      17.080   6.907   7.249  1.00  0.00     0.000 C 
BRANCH  11  12
ATOM     12  C   UNL     1      16.508   6.955   5.827  1.00  0.00     0.006 C 
BRANCH  12  13
ATOM     13  C   UNL     1      17.391   6.170   4.852  1.00  0.00     0.053 C 
BRANCH  13  14
ATOM     14  C   UNL     1      18.372   7.079   4.186  1.00  0.00     0.041 C 
ATOM     15  O   UNL     1      17.998   8.196   3.739  1.00  0.00    -0.550 OA
ATOM     16  O   UNL     1      19.688   6.671   4.007  1.00  0.00    -0.550 OA
ENDBRANCH  13  14
ENDBRANCH  12  13
ENDBRANCH  11  12
ENDBRANCH  10  11
ENDBRANCH   9  10
ENDBRANCH   8   9
ENDBRANCH   7   8
ENDBRANCH   6   7
ENDBRANCH   5   6
ENDBRANCH   4   5
ENDBRANCH   3   4
ENDBRANCH   2   3
ENDBRANCH   1   2
BRANCH   1  17
ATOM     17  C   UNL     1      24.652   5.479   7.036  1.00  0.00     0.000 C 
BRANCH  17  18
ATOM     18  C   UNL     1      25.051   6.603   6.066  1.00  0.00     0.000 C 
BRANCH  18  19
ATOM     19  C   UNL     1      26.088   7.563   6.674  1.00  0.00     0.000 C 
BRANCH  19  20
ATOM     20  C   UNL     1      27.355   7.683   5.810  1.00  0.00     0.000 C 
BRANCH  20  21
ATOM     21  C   UNL     1      28.646   7.620   6.642  1.00  0.00     0.000 C 
BRANCH  21  22
ATOM     22  C   UNL     1      29.827   7.017   5.859  1.00  0.00    -0.000 C 
BRANCH  22  23
ATOM     23  C   UNL     1      29.466   6.725   4.392  1.00  0.00    -0.000 C 
BRANCH  23  24
ATOM     24  C   UNL     1      29.731   5.260   4.004  1.00  0.00    -0.000 C 
BRANCH  24  25
ATOM     25  C   UNL     1      28.444   4.483   3.674  1.00  0.00    -0.000 C 
BRANCH  25  26
ATOM     26  C   UNL     1      27.652   3.985   4.896  1.00  0.00    -0.000 C 
BRANCH  26  27
ATOM     27  C   UNL     1      26.256   3.451   4.535  1.00  0.00    -0.000 C 
BRANCH  27  28
ATOM     28  C   UNL     1      25.699   4.166   3.296  1.00  0.00    -0.000 C 
BRANCH  28  29
ATOM     29  C   UNL     1      24.230   3.809   3.018  1.00  0.00    -0.003 C 
ATOM     30  C   UNL     1      23.306   5.026   3.060  1.00  0.00     0.004 C 
ENDBRANCH  28  29
ENDBRANCH  27  28
ENDBRANCH  26  27
ENDBRANCH  25  26
ENDBRANCH  24  25
ENDBRANCH  23  24
ENDBRANCH  22  23
ENDBRANCH  21  22
ENDBRANCH  20  21
ENDBRANCH  19  20
ENDBRANCH  18  19
ENDBRANCH  17  18
ENDBRANCH   1  17
TORSDOF 26
ENDMDL
MODEL 6
REMARK VINA RESULT:    -4.519      2.787     10.074
REMARK INTER + INTRA:         -14.579
REMARK INTER:                 -11.060
REMARK INTRA:                  -3.520
REMARK UNBOUND:                -3.191
REMARK SMILES CCCCCCCCCCCCCCCCCCCCCCCCCCCC(=O)[O-]
REMARK SMILES IDX 15 1 16 2 17 3 18 4 19 5 20 6 21 7 22 8 23 9 24 10 25 11
REMARK SMILES IDX 26 12 27 13 28 14 29 15 30 16 14 17 13 18 12 19 11 20 10 21
REMARK SMILES IDX 9 22 8 23 7 24 6 25 5 26 4 27 3 28 2 29 1 30
REMARK H PARENT
REMARK Flexibility Score: inf
ROOT
ATOM      1  C   UNL     1      23.737   4.418   5.709  1.00  0.00     0.000 C 
ENDROOT
BRANCH   1   2
ATOM      2  C   UNL     1      24.148   5.306   4.524  1.00  0.00     0.000 C 
BRANCH   2   3
ATOM      3  C   UNL     1      23.533   4.842   3.192  1.00  0.00     0.000 C 
BRANCH   3   4
ATOM      4  C   UNL     1      24.486   5.075   1.999  1.00  0.00     0.000 C 
BRANCH   4   5
ATOM      5  C   UNL     1      24.586   3.877   1.039  1.00  0.00     0.000 C 
BRANCH   5   6
ATOM      6  C   UNL     1      24.026   2.580   1.638  1.00  0.00     0.000 C 
BRANCH   6   7
ATOM      7  C   UNL     1      24.937   1.388   1.320  1.00  0.00     0.000 C 
BRANCH   7   8
ATOM      8  C   UNL     1      25.525   0.785   2.605  1.00  0.00     0.000 C 
BRANCH   8   9
ATOM      9  C   UNL     1      25.463   1.755   3.796  1.00  0.00     0.000 C 
BRANCH   9  10
ATOM     10  C   UNL     1      26.855   2.169   4.299  1.00  0.00     0.000 C 
BRANCH  10  11
ATOM     11  C   UNL     1      27.467   3.245   3.394  1.00  0.00     0.000 C 
BRANCH  11  12
ATOM     12  C   UNL     1      28.923   3.529   3.783  1.00  0.00     0.006 C 
BRANCH  12  13
ATOM     13  C   UNL     1      29.195   5.035   3.835  1.00  0.00     0.053 C 
BRANCH  13  14
ATOM     14  C   UNL     1      28.360   5.682   4.893  1.00  0.00     0.041 C 
ATOM     15  O   UNL     1      28.431   5.286   6.086  1.00  0.00    -0.550 OA
ATOM     16  O   UNL     1      27.461   6.684   4.552  1.00  0.00    -0.550 OA
ENDBRANCH  13  14
ENDBRANCH  12  13
ENDBRANCH  11  12
ENDBRANCH  10  11
ENDBRANCH   9  10
ENDBRANCH   8   9
ENDBRANCH   7   8
ENDBRANCH   6   7
ENDBRANCH   5   6
ENDBRANCH   4   5
ENDBRANCH   3   4
ENDBRANCH   2   3
ENDBRANCH   1   2
BRANCH   1  17
ATOM     17  C   UNL     1      23.139   5.224   6.872  1.00  0.00     0.000 C 
BRANCH  17  18
ATOM     18  C   UNL     1      22.449   6.501   6.365  1.00  0.00     0.000 C 
BRANCH  18  19
ATOM     19  C   UNL     1      21.863   7.346   7.509  1.00  0.00     0.000 C 
BRANCH  19  20
ATOM     20  C   UNL     1      20.392   7.727   7.264  1.00  0.00     0.000 C 
BRANCH  20  21
ATOM     21  C   UNL     1      20.142   9.237   7.408  1.00  0.00     0.000 C 
BRANCH  21  22
ATOM     22  C   UNL     1      19.015   9.741   6.488  1.00  0.00    -0.000 C 
BRANCH  22  23
ATOM     23  C   UNL     1      17.623   9.305   6.977  1.00  0.00    -0.000 C 
BRANCH  23  24
ATOM     24  C   UNL     1      16.622   9.138   5.821  1.00  0.00    -0.000 C 
BRANCH  24  25
ATOM     25  C   UNL     1      16.171   7.679   5.624  1.00  0.00    -0.000 C 
BRANCH  25  26
ATOM     26  C   UNL     1      17.282   6.625   5.784  1.00  0.00    -0.000 C 
BRANCH  26  27
ATOM     27  C   UNL     1      18.210   6.534   4.562  1.00  0.00    -0.000 C 
BRANCH  27  28
ATOM     28  C   UNL     1      17.401   6.562   3.257  1.00  0.00    -0.000 C 
BRANCH  28  29
ATOM     29  C   UNL     1      18.049   7.447   2.180  1.00  0.00    -0.003 C 
ATOM     30  C   UNL     1      18.568   8.773   2.735  1.00  0.00     0.004 C 
ENDBRANCH  28  29
ENDBRANCH  27  28
ENDBRANCH  26  27
ENDBRANCH  25  26
ENDBRANCH  24  25
ENDBRANCH  23  24
ENDBRANCH  22  23
ENDBRANCH  21  22
ENDBRANCH  20  21
ENDBRANCH  19  20
ENDBRANCH  18  19
ENDBRANCH  17  18
ENDBRANCH   1  17
TORSDOF 26
ENDMDL
MODEL 7
REMARK VINA RESULT:    -4.519      1.837      2.863
REMARK INTER + INTRA:         -14.578
REMARK INTER:                 -11.016
REMARK INTRA:                  -3.562
REMARK UNBOUND:                -3.191
REMARK SMILES CCCCCCCCCCCCCCCCCCCCCCCCCCCC(=O)[O-]
REMARK SMILES IDX 15 1 16 2 17 3 18 4 19 5 20 6 21 7 22 8 23 9 24 10 25 11
REMARK SMILES IDX 26 12 27 13 28 14 29 15 30 16 14 17 13 18 12 19 11 20 10 21
REMARK SMILES IDX 9 22 8 23 7 24 6 25 5 26 4 27 3 28 2 29 1 30
REMARK H PARENT
REMARK Flexibility Score: inf
ROOT
ATOM      1  C   UNL     1      23.085   5.738   7.014  1.00  0.00     0.000 C 
ENDROOT
BRANCH   1   2
ATOM      2  C   UNL     1      21.927   6.633   6.543  1.00  0.00     0.000 C 
BRANCH   2   3
ATOM      3  C   UNL     1      21.434   7.594   7.640  1.00  0.00     0.000 C 
BRANCH   3   4
ATOM      4  C   UNL     1      20.263   8.476   7.156  1.00  0.00     0.000 C 
BRANCH   4   5
ATOM      5  C   UNL     1      20.244   9.883   7.779  1.00  0.00     0.000 C 
BRANCH   5   6
ATOM      6  C   UNL     1      19.658  10.946   6.842  1.00  0.00     0.000 C 
BRANCH   6   7
ATOM      7  C   UNL     1      19.004  10.298   5.614  1.00  0.00     0.000 C 
BRANCH   7   8
ATOM      8  C   UNL     1      17.498  10.596   5.569  1.00  0.00     0.000 C 
BRANCH   8   9
ATOM      9  C   UNL     1      16.678   9.633   6.442  1.00  0.00     0.000 C 
BRANCH   9  10
ATOM     10  C   UNL     1      16.255   8.362   5.689  1.00  0.00     0.000 C 
BRANCH  10  11
ATOM     11  C   UNL     1      17.005   7.134   6.220  1.00  0.00     0.000 C 
BRANCH  11  12
ATOM     12  C   UNL     1      17.443   6.217   5.071  1.00  0.00     0.006 C 
BRANCH  12  13
ATOM     13  C   UNL     1      18.759   6.699   4.454  1.00  0.00     0.053 C 
BRANCH  13  14
ATOM     14  C   UNL     1      18.554   7.098   3.028  1.00  0.00     0.041 C 
ATOM     15  O   UNL     1      18.661   6.242   2.110  1.00  0.00    -0.550 OA
ATOM     16  O   UNL     1      18.299   8.425   2.706  1.00  0.00    -0.550 OA
ENDBRANCH  13  14
ENDBRANCH  12  13
ENDBRANCH  11  12
ENDBRANCH  10  11
ENDBRANCH   9  10
ENDBRANCH   8   9
ENDBRANCH   7   8
ENDBRANCH   6   7
ENDBRANCH   5   6
ENDBRANCH   4   5
ENDBRANCH   3   4
ENDBRANCH   2   3
ENDBRANCH   1   2
BRANCH   1  17
ATOM     17  C   UNL     1      23.039   5.459   8.523  1.00  0.00     0.000 C 
BRANCH  17  18
ATOM     18  C   UNL     1      22.655   3.997   8.806  1.00  0.00     0.000 C 
BRANCH  18  19
ATOM     19  C   UNL     1      23.013   3.060   7.640  1.00  0.00     0.000 C 
BRANCH  19  20
ATOM     20  C   UNL     1      24.412   2.438   7.794  1.00  0.00     0.000 C 
BRANCH  20  21
ATOM     21  C   UNL     1      25.246   2.534   6.506  1.00  0.00     0.000 C 
BRANCH  21  22
ATOM     22  C   UNL     1      24.700   1.640   5.378  1.00  0.00    -0.000 C 
BRANCH  22  23
ATOM     23  C   UNL     1      24.308   2.449   4.130  1.00  0.00    -0.000 C 
BRANCH  23  24
ATOM     24  C   UNL     1      24.962   1.903   2.849  1.00  0.00    -0.000 C 
BRANCH  24  25
ATOM     25  C   UNL     1      25.035   2.948   1.720  1.00  0.00    -0.000 C 
BRANCH  25  26
ATOM     26  C   UNL     1      26.339   3.766   1.673  1.00  0.00    -0.000 C 
BRANCH  26  27
ATOM     27  C   UNL     1      27.405   3.260   2.658  1.00  0.00    -0.000 C 
BRANCH  27  28
ATOM     28  C   UNL     1      27.765   4.346   3.682  1.00  0.00    -0.000 C 
BRANCH  28  29
ATOM     29  C   UNL     1      26.634   5.368   3.883  1.00  0.00    -0.003 C 
ATOM     30  C   UNL     1      26.501   5.827   5.335  1.00  0.00     0.004 C 
ENDBRANCH  28  29
ENDBRANCH  27  28
ENDBRANCH  26  27
ENDBRANCH  25  26
ENDBRANCH  24  25
ENDBRANCH  23  24
ENDBRANCH  22  23
ENDBRANCH  21  22
ENDBRANCH  20  21
ENDBRANCH  19  20
ENDBRANCH  18  19
ENDBRANCH  17  18
ENDBRANCH   1  17
TORSDOF 26
ENDMDL
MODEL 8
REMARK VINA RESULT:    -4.505      9.395     13.900
REMARK INTER + INTRA:         -14.544
REMARK INTER:                  -8.830
REMARK INTRA:                  -5.714
REMARK UNBOUND:                -3.191
REMARK SMILES CCCCCCCCCCCCCCCCCCCCCCCCCCCC(=O)[O-]
REMARK SMILES IDX 15 1 16 2 17 3 18 4 19 5 20 6 21 7 22 8 23 9 24 10 25 11
REMARK SMILES IDX 26 12 27 13 28 14 29 15 30 16 14 17 13 18 12 19 11 20 10 21
REMARK SMILES IDX 9 22 8 23 7 24 6 25 5 26 4 27 3 28 2 29 1 30
REMARK H PARENT
REMARK Flexibility Score: inf
ROOT
ATOM      1  C   UNL     1      17.478  -5.734  -5.131  1.00  0.00     0.000 C 
ENDROOT
BRANCH   1   2
ATOM      2  C   UNL     1      17.469  -5.379  -3.635  1.00  0.00     0.000 C 
BRANCH   2   3
ATOM      3  C   UNL     1      16.713  -4.071  -3.339  1.00  0.00     0.000 C 
BRANCH   3   4
ATOM      4  C   UNL     1      16.966  -3.567  -1.902  1.00  0.00     0.000 C 
BRANCH   4   5
ATOM      5  C   UNL     1      17.644  -2.187  -1.837  1.00  0.00     0.000 C 
BRANCH   5   6
ATOM      6  C   UNL     1      18.967  -2.207  -1.059  1.00  0.00     0.000 C 
BRANCH   6   7
ATOM      7  C   UNL     1      19.301  -3.624  -0.576  1.00  0.00     0.000 C 
BRANCH   7   8
ATOM      8  C   UNL     1      20.786  -3.744  -0.203  1.00  0.00     0.000 C 
BRANCH   8   9
ATOM      9  C   UNL     1      21.502  -2.384  -0.178  1.00  0.00     0.000 C 
BRANCH   9  10
ATOM     10  C   UNL     1      22.657  -2.302  -1.189  1.00  0.00     0.000 C 
BRANCH  10  11
ATOM     11  C   UNL     1      22.794  -0.881  -1.751  1.00  0.00     0.000 C 
BRANCH  11  12
ATOM     12  C   UNL     1      21.915   0.106  -0.974  1.00  0.00     0.006 C 
BRANCH  12  13
ATOM     13  C   UNL     1      21.974   1.504  -1.596  1.00  0.00     0.053 C 
BRANCH  13  14
ATOM     14  C   UNL     1      20.602   1.973  -1.962  1.00  0.00     0.041 C 
ATOM     15  O   UNL     1      19.598   1.261  -1.695  1.00  0.00    -0.550 OA
ATOM     16  O   UNL     1      20.436   3.169  -2.648  1.00  0.00    -0.550 OA
ENDBRANCH  13  14
ENDBRANCH  12  13
ENDBRANCH  11  12
ENDBRANCH  10  11
ENDBRANCH   9  10
ENDBRANCH   8   9
ENDBRANCH   7   8
ENDBRANCH   6   7
ENDBRANCH   5   6
ENDBRANCH   4   5
ENDBRANCH   3   4
ENDBRANCH   2   3
ENDBRANCH   1   2
BRANCH   1  17
ATOM     17  C   UNL     1      17.699  -7.233  -5.380  1.00  0.00     0.000 C 
BRANCH  17  18
ATOM     18  C   UNL     1      18.432  -7.473  -6.709  1.00  0.00     0.000 C 
BRANCH  18  19
ATOM     19  C   UNL     1      19.064  -6.188  -7.273  1.00  0.00     0.000 C 
BRANCH  19  20
ATOM     20  C   UNL     1      20.593  -6.294  -7.404  1.00  0.00     0.000 C 
BRANCH  20  21
ATOM     21  C   UNL     1      21.152  -7.580  -6.774  1.00  0.00     0.000 C 
BRANCH  21  22
ATOM     22  C   UNL     1      22.015  -7.302  -5.529  1.00  0.00    -0.000 C 
BRANCH  22  23
ATOM     23  C   UNL     1      22.058  -5.807  -5.170  1.00  0.00    -0.000 C 
BRANCH  23  24
ATOM     24  C   UNL     1      21.203  -5.476  -3.935  1.00  0.00    -0.000 C 
BRANCH  24  25
ATOM     25  C   UNL     1      20.769  -3.999  -3.883  1.00  0.00    -0.000 C 
BRANCH  25  26
ATOM     26  C   UNL     1      20.452  -3.365  -5.250  1.00  0.00    -0.000 C 
BRANCH  26  27
ATOM     27  C   UNL     1      19.418  -2.231  -5.164  1.00  0.00    -0.000 C 
BRANCH  27  28
ATOM     28  C   UNL     1      19.993  -1.019  -4.417  1.00  0.00    -0.000 C 
BRANCH  28  29
ATOM     29  C   UNL     1      21.282  -0.485  -5.061  1.00  0.00    -0.003 C 
ATOM     30  C   UNL     1      21.144   0.956  -5.556  1.00  0.00     0.004 C 
ENDBRANCH  28  29
ENDBRANCH  27  28
ENDBRANCH  26  27
ENDBRANCH  25  26
ENDBRANCH  24  25
ENDBRANCH  23  24
ENDBRANCH  22  23
ENDBRANCH  21  22
ENDBRANCH  20  21
ENDBRANCH  19  20
ENDBRANCH  18  19
ENDBRANCH  17  18
ENDBRANCH   1  17
TORSDOF 26
ENDMDL
MODEL 9
REMARK VINA RESULT:    -4.471      9.007     12.624
REMARK INTER + INTRA:         -14.459
REMARK INTER:                  -8.314
REMARK INTRA:                  -6.144
REMARK UNBOUND:                -3.191
REMARK SMILES CCCCCCCCCCCCCCCCCCCCCCCCCCCC(=O)[O-]
REMARK SMILES IDX 15 1 16 2 17 3 18 4 19 5 20 6 21 7 22 8 23 9 24 10 25 11
REMARK SMILES IDX 26 12 27 13 28 14 29 15 30 16 14 17 13 18 12 19 11 20 10 21
REMARK SMILES IDX 9 22 8 23 7 24 6 25 5 26 4 27 3 28 2 29 1 30
REMARK H PARENT
REMARK Flexibility Score: inf
ROOT
ATOM      1  C   UNL     1      22.341  -0.111  -0.627  1.00  0.00     0.000 C 
ENDROOT
BRANCH   1   2
ATOM      2  C   UNL     1      22.553   1.346  -1.071  1.00  0.00     0.000 C 
BRANCH   2   3
ATOM      3  C   UNL     1      22.378   1.536  -2.588  1.00  0.00     0.000 C 
BRANCH   3   4
ATOM      4  C   UNL     1      21.133   2.384  -2.927  1.00  0.00     0.000 C 
BRANCH   4   5
ATOM      5  C   UNL     1      20.160   2.559  -1.748  1.00  0.00     0.000 C 
BRANCH   5   6
ATOM      6  C   UNL     1      18.804   1.879  -1.983  1.00  0.00     0.000 C 
BRANCH   6   7
ATOM      7  C   UNL     1      18.445   1.869  -3.475  1.00  0.00     0.000 C 
BRANCH   7   8
ATOM      8  C   UNL     1      17.755   0.553  -3.867  1.00  0.00     0.000 C 
BRANCH   8   9
ATOM      9  C   UNL     1      18.758  -0.565  -4.197  1.00  0.00     0.000 C 
BRANCH   9  10
ATOM     10  C   UNL     1      19.574  -0.276  -5.466  1.00  0.00     0.000 C 
BRANCH  10  11
ATOM     11  C   UNL     1      21.058  -0.596  -5.248  1.00  0.00     0.000 C 
BRANCH  11  12
ATOM     12  C   UNL     1      21.879  -0.282  -6.505  1.00  0.00     0.006 C 
BRANCH  12  13
ATOM     13  C   UNL     1      22.969   0.753  -6.205  1.00  0.00     0.053 C 
BRANCH  13  14
ATOM     14  C   UNL     1      22.599   2.083  -6.779  1.00  0.00     0.041 C 
ATOM     15  O   UNL     1      21.424   2.295  -7.180  1.00  0.00    -0.550 OA
ATOM     16  O   UNL     1      23.565   3.071  -6.923  1.00  0.00    -0.550 OA
ENDBRANCH  13  14
ENDBRANCH  12  13
ENDBRANCH  11  12
ENDBRANCH  10  11
ENDBRANCH   9  10
ENDBRANCH   8   9
ENDBRANCH   7   8
ENDBRANCH   6   7
ENDBRANCH   5   6
ENDBRANCH   4   5
ENDBRANCH   3   4
ENDBRANCH   2   3
ENDBRANCH   1   2
BRANCH   1  17
ATOM     17  C   UNL     1      22.255  -1.083  -1.813  1.00  0.00     0.000 C 
BRANCH  17  18
ATOM     18  C   UNL     1      21.000  -1.965  -1.718  1.00  0.00     0.000 C 
BRANCH  18  19
ATOM     19  C   UNL     1      19.931  -1.367  -0.786  1.00  0.00     0.000 C 
BRANCH  19  20
ATOM     20  C   UNL     1      18.562  -2.052  -0.947  1.00  0.00     0.000 C 
BRANCH  20  21
ATOM     21  C   UNL     1      18.684  -3.563  -1.200  1.00  0.00     0.000 C 
BRANCH  21  22
ATOM     22  C   UNL     1      17.394  -4.174  -1.778  1.00  0.00    -0.000 C 
BRANCH  22  23
ATOM     23  C   UNL     1      16.408  -3.099  -2.266  1.00  0.00    -0.000 C 
BRANCH  23  24
ATOM     24  C   UNL     1      16.145  -3.188  -3.778  1.00  0.00    -0.000 C 
BRANCH  24  25
ATOM     25  C   UNL     1      17.078  -4.184  -4.492  1.00  0.00    -0.000 C 
BRANCH  25  26
ATOM     26  C   UNL     1      17.612  -3.712  -5.858  1.00  0.00    -0.000 C 
BRANCH  26  27
ATOM     27  C   UNL     1      19.113  -3.986  -6.047  1.00  0.00    -0.000 C 
BRANCH  27  28
ATOM     28  C   UNL     1      19.847  -3.968  -4.698  1.00  0.00    -0.000 C 
BRANCH  28  29
ATOM     29  C   UNL     1      21.064  -4.907  -4.676  1.00  0.00    -0.003 C 
ATOM     30  C   UNL     1      21.465  -5.324  -3.261  1.00  0.00     0.004 C 
ENDBRANCH  28  29
ENDBRANCH  27  28
ENDBRANCH  26  27
ENDBRANCH  25  26
ENDBRANCH  24  25
ENDBRANCH  23  24
ENDBRANCH  22  23
ENDBRANCH  21  22
ENDBRANCH  20  21
ENDBRANCH  19  20
ENDBRANCH  18  19
ENDBRANCH  17  18
ENDBRANCH   1  17
TORSDOF 26
ENDMDL
