MODEL 1
REMARK VINA RESULT:    -4.489      0.000      0.000
REMARK INTER + INTRA:         -10.116
REMARK INTER:                  -8.164
REMARK INTRA:                  -1.953
REMARK UNBOUND:                -1.953
REMARK SMILES CCCCCCCCCCCCCCCC(=O)[O-]
REMARK SMILES IDX 9 1 10 2 11 3 12 4 13 5 14 6 15 7 16 8 17 9 18 10 8 11 7 12
REMARK SMILES IDX 6 13 5 14 4 15 3 16 2 17 1 18
REMARK H PARENT
REMARK Flexibility Score: inf
ROOT
ATOM      1  C   UNL     1       5.749  -5.479  32.228  1.00  0.00     0.000 C 
ENDROOT
BRANCH   1   2
ATOM      2  C   UNL     1       7.135  -5.370  32.876  1.00  0.00     0.000 C 
BRANCH   2   3
ATOM      3  C   UNL     1       8.218  -5.965  31.965  1.00  0.00     0.000 C 
BRANCH   3   4
ATOM      4  C   UNL     1       7.682  -6.341  30.575  1.00  0.00     0.000 C 
BRANCH   4   5
ATOM      5  C   UNL     1       8.790  -6.416  29.512  1.00  0.00     0.000 C 
BRANCH   5   6
ATOM      6  C   UNL     1       8.468  -5.505  28.318  1.00  0.00     0.006 C 
BRANCH   6   7
ATOM      7  C   UNL     1       6.973  -5.177  28.224  1.00  0.00     0.053 C 
BRANCH   7   8
ATOM      8  C   UNL     1       6.621  -4.567  26.902  1.00  0.00     0.041 C 
ATOM      9  O   UNL     1       7.106  -3.453  26.567  1.00  0.00    -0.550 OA
ATOM     10  O   UNL     1       5.732  -5.213  26.053  1.00  0.00    -0.550 OA
ENDBRANCH   7   8
ENDBRANCH   6   7
ENDBRANCH   5   6
ENDBRANCH   4   5
ENDBRANCH   3   4
ENDBRANCH   2   3
ENDBRANCH   1   2
BRANCH   1  11
ATOM     11  C   UNL     1       4.782  -6.268  33.124  1.00  0.00     0.000 C 
BRANCH  11  12
ATOM     12  C   UNL     1       4.130  -7.454  32.397  1.00  0.00    -0.000 C 
BRANCH  12  13
ATOM     13  C   UNL     1       4.998  -7.991  31.245  1.00  0.00    -0.000 C 
BRANCH  13  14
ATOM     14  C   UNL     1       4.187  -8.251  29.966  1.00  0.00    -0.000 C 
BRANCH  14  15
ATOM     15  C   UNL     1       5.075  -8.437  28.726  1.00  0.00    -0.000 C 
BRANCH  15  16
ATOM     16  C   UNL     1       6.243  -9.388  29.026  1.00  0.00    -0.000 C 
BRANCH  16  17
ATOM     17  C   UNL     1       7.038  -9.765  27.767  1.00  0.00    -0.003 C 
ATOM     18  C   UNL     1       7.121  -8.621  26.756  1.00  0.00     0.004 C 
ENDBRANCH  16  17
ENDBRANCH  15  16
ENDBRANCH  14  15
ENDBRANCH  13  14
ENDBRANCH  12  13
ENDBRANCH  11  12
ENDBRANCH   1  11
TORSDOF 14
ENDMDL
MODEL 2
REMARK VINA RESULT:    -4.454      1.013      4.130
REMARK INTER + INTRA:         -10.051
REMARK INTER:                  -8.085
REMARK INTRA:                  -1.966
REMARK UNBOUND:                -1.953
REMARK SMILES CCCCCCCCCCCCCCCC(=O)[O-]
REMARK SMILES IDX 9 1 10 2 11 3 12 4 13 5 14 6 15 7 16 8 17 9 18 10 8 11 7 12
REMARK SMILES IDX 6 13 5 14 4 15 3 16 2 17 1 18
REMARK H PARENT
REMARK Flexibility Score: inf
ROOT
ATOM      1  C   UNL     1       6.294  -8.842  27.345  1.00  0.00     0.000 C 
ENDROOT
BRANCH   1   2
ATOM      2  C   UNL     1       7.782  -9.200  27.432  1.00  0.00     0.000 C 
BRANCH   2   3
ATOM      3  C   UNL     1       8.657  -7.939  27.382  1.00  0.00     0.000 C 
BRANCH   3   4
ATOM      4  C   UNL     1       8.453  -7.028  28.602  1.00  0.00     0.000 C 
BRANCH   4   5
ATOM      5  C   UNL     1       8.833  -5.566  28.321  1.00  0.00     0.000 C 
BRANCH   5   6
ATOM      6  C   UNL     1       7.625  -4.637  28.514  1.00  0.00     0.006 C 
BRANCH   6   7
ATOM      7  C   UNL     1       6.384  -5.132  27.761  1.00  0.00     0.053 C 
BRANCH   7   8
ATOM      8  C   UNL     1       6.470  -4.835  26.295  1.00  0.00     0.041 C 
ATOM      9  O   UNL     1       5.854  -5.552  25.464  1.00  0.00    -0.550 OA
ATOM     10  O   UNL     1       7.258  -3.783  25.845  1.00  0.00    -0.550 OA
ENDBRANCH   7   8
ENDBRANCH   6   7
ENDBRANCH   5   6
ENDBRANCH   4   5
ENDBRANCH   3   4
ENDBRANCH   2   3
ENDBRANCH   1   2
BRANCH   1  11
ATOM     11  C   UNL     1       5.414 -10.057  27.679  1.00  0.00     0.000 C 
BRANCH  11  12
ATOM     12  C   UNL     1       4.874 -10.022  29.118  1.00  0.00    -0.000 C 
BRANCH  12  13
ATOM     13  C   UNL     1       4.548  -8.594  29.592  1.00  0.00    -0.000 C 
BRANCH  13  14
ATOM     14  C   UNL     1       5.279  -8.224  30.893  1.00  0.00    -0.000 C 
BRANCH  14  15
ATOM     15  C   UNL     1       5.712  -6.751  30.933  1.00  0.00    -0.000 C 
BRANCH  15  16
ATOM     16  C   UNL     1       5.420  -6.131  32.308  1.00  0.00    -0.000 C 
BRANCH  16  17
ATOM     17  C   UNL     1       6.682  -5.577  32.987  1.00  0.00    -0.003 C 
ATOM     18  C   UNL     1       7.929  -5.708  32.112  1.00  0.00     0.004 C 
ENDBRANCH  16  17
ENDBRANCH  15  16
ENDBRANCH  14  15
ENDBRANCH  13  14
ENDBRANCH  12  13
ENDBRANCH  11  12
ENDBRANCH   1  11
TORSDOF 14
ENDMDL
MODEL 3
REMARK VINA RESULT:    -4.416      2.443      5.599
REMARK INTER + INTRA:          -9.983
REMARK INTER:                  -8.182
REMARK INTRA:                  -1.801
REMARK UNBOUND:                -1.953
REMARK SMILES CCCCCCCCCCCCCCCC(=O)[O-]
REMARK SMILES IDX 9 1 10 2 11 3 12 4 13 5 14 6 15 7 16 8 17 9 18 10 8 11 7 12
REMARK SMILES IDX 6 13 5 14 4 15 3 16 2 17 1 18
REMARK H PARENT
REMARK Flexibility Score: inf
ROOT
ATOM      1  C   UNL     1       7.292  -8.172  26.847  1.00  0.00     0.000 C 
ENDROOT
BRANCH   1   2
ATOM      2  C   UNL     1       6.868  -9.636  27.009  1.00  0.00     0.000 C 
BRANCH   2   3
ATOM      3  C   UNL     1       5.660  -9.759  27.950  1.00  0.00     0.000 C 
BRANCH   3   4
ATOM      4  C   UNL     1       6.033  -9.540  29.424  1.00  0.00     0.000 C 
BRANCH   4   5
ATOM      5  C   UNL     1       5.387  -8.279  30.018  1.00  0.00     0.000 C 
BRANCH   5   6
ATOM      6  C   UNL     1       6.122  -7.834  31.292  1.00  0.00     0.006 C 
BRANCH   6   7
ATOM      7  C   UNL     1       6.054  -6.317  31.502  1.00  0.00     0.053 C 
BRANCH   7   8
ATOM      8  C   UNL     1       7.309  -5.787  32.125  1.00  0.00     0.041 C 
ATOM      9  O   UNL     1       8.404  -6.385  31.956  1.00  0.00    -0.550 OA
ATOM     10  O   UNL     1       7.263  -4.648  32.919  1.00  0.00    -0.550 OA
ENDBRANCH   7   8
ENDBRANCH   6   7
ENDBRANCH   5   6
ENDBRANCH   4   5
ENDBRANCH   3   4
ENDBRANCH   2   3
ENDBRANCH   1   2
BRANCH   1  11
ATOM     11  C   UNL     1       8.665  -7.922  27.491  1.00  0.00     0.000 C 
BRANCH  11  12
ATOM     12  C   UNL     1       8.617  -6.856  28.597  1.00  0.00    -0.000 C 
BRANCH  12  13
ATOM     13  C   UNL     1       8.713  -5.423  28.042  1.00  0.00    -0.000 C 
BRANCH  13  14
ATOM     14  C   UNL     1       7.502  -4.559  28.429  1.00  0.00    -0.000 C 
BRANCH  14  15
ATOM     15  C   UNL     1       7.122  -3.546  27.339  1.00  0.00    -0.000 C 
BRANCH  15  16
ATOM     16  C   UNL     1       7.081  -4.216  25.957  1.00  0.00    -0.000 C 
BRANCH  16  17
ATOM     17  C   UNL     1       5.859  -5.129  25.778  1.00  0.00    -0.003 C 
ATOM     18  C   UNL     1       5.480  -5.329  24.310  1.00  0.00     0.004 C 
ENDBRANCH  16  17
ENDBRANCH  15  16
ENDBRANCH  14  15
ENDBRANCH  13  14
ENDBRANCH  12  13
ENDBRANCH  11  12
ENDBRANCH   1  11
TORSDOF 14
ENDMDL
MODEL 4
REMARK VINA RESULT:    -4.358     12.305     15.233
REMARK INTER + INTRA:          -9.878
REMARK INTER:                  -7.931
REMARK INTRA:                  -1.948
REMARK UNBOUND:                -1.953
REMARK SMILES CCCCCCCCCCCCCCCC(=O)[O-]
REMARK SMILES IDX 9 1 10 2 11 3 12 4 13 5 14 6 15 7 16 8 17 9 18 10 8 11 7 12
REMARK SMILES IDX 6 13 5 14 4 15 3 16 2 17 1 18
REMARK H PARENT
REMARK Flexibility Score: inf
ROOT
ATOM      1  C   UNL     1      12.288  -8.082  17.090  1.00  0.00     0.000 C 
ENDROOT
BRANCH   1   2
ATOM      2  C   UNL     1      12.343  -6.575  17.369  1.00  0.00     0.000 C 
BRANCH   2   3
ATOM      3  C   UNL     1      13.700  -5.987  16.956  1.00  0.00     0.000 C 
BRANCH   3   4
ATOM      4  C   UNL     1      14.372  -5.194  18.087  1.00  0.00     0.000 C 
BRANCH   4   5
ATOM      5  C   UNL     1      15.172  -6.090  19.046  1.00  0.00     0.000 C 
BRANCH   5   6
ATOM      6  C   UNL     1      14.670  -5.935  20.489  1.00  0.00     0.006 C 
BRANCH   6   7
ATOM      7  C   UNL     1      14.669  -7.267  21.250  1.00  0.00     0.053 C 
BRANCH   7   8
ATOM      8  C   UNL     1      15.746  -7.313  22.289  1.00  0.00     0.041 C 
ATOM      9  O   UNL     1      15.462  -7.580  23.487  1.00  0.00    -0.550 OA
ATOM     10  O   UNL     1      17.060  -7.028  21.942  1.00  0.00    -0.550 OA
ENDBRANCH   7   8
ENDBRANCH   6   7
ENDBRANCH   5   6
ENDBRANCH   4   5
ENDBRANCH   3   4
ENDBRANCH   2   3
ENDBRANCH   1   2
BRANCH   1  11
ATOM     11  C   UNL     1      13.193  -8.855  18.062  1.00  0.00     0.000 C 
BRANCH  11  12
ATOM     12  C   UNL     1      14.227  -9.735  17.341  1.00  0.00    -0.000 C 
BRANCH  12  13
ATOM     13  C   UNL     1      14.103  -9.656  15.809  1.00  0.00    -0.000 C 
BRANCH  13  14
ATOM     14  C   UNL     1      15.456  -9.822  15.099  1.00  0.00    -0.000 C 
BRANCH  14  15
ATOM     15  C   UNL     1      15.509  -9.100  13.744  1.00  0.00    -0.000 C 
BRANCH  15  16
ATOM     16  C   UNL     1      15.354  -7.582  13.925  1.00  0.00    -0.000 C 
BRANCH  16  17
ATOM     17  C   UNL     1      14.329  -6.972  12.957  1.00  0.00    -0.003 C 
ATOM     18  C   UNL     1      12.911  -6.964  13.527  1.00  0.00     0.004 C 
ENDBRANCH  16  17
ENDBRANCH  15  16
ENDBRANCH  14  15
ENDBRANCH  13  14
ENDBRANCH  12  13
ENDBRANCH  11  12
ENDBRANCH   1  11
TORSDOF 14
ENDMDL
MODEL 5
REMARK VINA RESULT:    -4.330      1.585      4.162
REMARK INTER + INTRA:          -9.826
REMARK INTER:                  -7.847
REMARK INTRA:                  -1.979
REMARK UNBOUND:                -1.953
REMARK SMILES CCCCCCCCCCCCCCCC(=O)[O-]
REMARK SMILES IDX 9 1 10 2 11 3 12 4 13 5 14 6 15 7 16 8 17 9 18 10 8 11 7 12
REMARK SMILES IDX 6 13 5 14 4 15 3 16 2 17 1 18
REMARK H PARENT
REMARK Flexibility Score: inf
ROOT
ATOM      1  C   UNL     1       5.315  -5.951  32.323  1.00  0.00     0.000 C 
ENDROOT
BRANCH   1   2
ATOM      2  C   UNL     1       5.225  -7.472  32.145  1.00  0.00     0.000 C 
BRANCH   2   3
ATOM      3  C   UNL     1       4.870  -7.836  30.696  1.00  0.00     0.000 C 
BRANCH   3   4
ATOM      4  C   UNL     1       5.775  -8.938  30.123  1.00  0.00     0.000 C 
BRANCH   4   5
ATOM      5  C   UNL     1       5.108  -9.719  28.980  1.00  0.00     0.000 C 
BRANCH   5   6
ATOM      6  C   UNL     1       6.086  -9.929  27.814  1.00  0.00     0.006 C 
BRANCH   6   7
ATOM      7  C   UNL     1       5.453  -9.598  26.457  1.00  0.00     0.053 C 
BRANCH   7   8
ATOM      8  C   UNL     1       6.375  -8.791  25.597  1.00  0.00     0.041 C 
ATOM      9  O   UNL     1       5.955  -7.763  25.004  1.00  0.00    -0.550 OA
ATOM     10  O   UNL     1       7.694  -9.193  25.424  1.00  0.00    -0.550 OA
ENDBRANCH   7   8
ENDBRANCH   6   7
ENDBRANCH   5   6
ENDBRANCH   4   5
ENDBRANCH   3   4
ENDBRANCH   2   3
ENDBRANCH   1   2
BRANCH   1  11
ATOM     11  C   UNL     1       6.723  -5.532  32.776  1.00  0.00     0.000 C 
BRANCH  11  12
ATOM     12  C   UNL     1       7.826  -6.031  31.829  1.00  0.00    -0.000 C 
BRANCH  12  13
ATOM     13  C   UNL     1       7.683  -5.465  30.405  1.00  0.00    -0.000 C 
BRANCH  13  14
ATOM     14  C   UNL     1       8.538  -6.225  29.379  1.00  0.00    -0.000 C 
BRANCH  14  15
ATOM     15  C   UNL     1       7.735  -6.671  28.148  1.00  0.00    -0.000 C 
BRANCH  15  16
ATOM     16  C   UNL     1       6.582  -5.696  27.863  1.00  0.00    -0.000 C 
BRANCH  16  17
ATOM     17  C   UNL     1       6.891  -4.736  26.705  1.00  0.00    -0.003 C 
ATOM     18  C   UNL     1       7.153  -3.306  27.176  1.00  0.00     0.004 C 
ENDBRANCH  16  17
ENDBRANCH  15  16
ENDBRANCH  14  15
ENDBRANCH  13  14
ENDBRANCH  12  13
ENDBRANCH  11  12
ENDBRANCH   1  11
TORSDOF 14
ENDMDL
MODEL 6
REMARK VINA RESULT:    -4.315      1.620      4.051
REMARK INTER + INTRA:          -9.799
REMARK INTER:                  -7.542
REMARK INTRA:                  -2.256
REMARK UNBOUND:                -1.953
REMARK SMILES CCCCCCCCCCCCCCCC(=O)[O-]
REMARK SMILES IDX 9 1 10 2 11 3 12 4 13 5 14 6 15 7 16 8 17 9 18 10 8 11 7 12
REMARK SMILES IDX 6 13 5 14 4 15 3 16 2 17 1 18
REMARK H PARENT
REMARK Flexibility Score: inf
ROOT
ATOM      1  C   UNL     1       4.674  -8.459  29.483  1.00  0.00     0.000 C 
ENDROOT
BRANCH   1   2
ATOM      2  C   UNL     1       5.604  -9.670  29.349  1.00  0.00     0.000 C 
BRANCH   2   3
ATOM      3  C   UNL     1       6.568  -9.497  28.166  1.00  0.00     0.000 C 
BRANCH   3   4
ATOM      4  C   UNL     1       5.969  -8.649  27.033  1.00  0.00     0.000 C 
BRANCH   4   5
ATOM      5  C   UNL     1       7.032  -8.145  26.044  1.00  0.00     0.000 C 
BRANCH   5   6
ATOM      6  C   UNL     1       6.389  -7.722  24.715  1.00  0.00     0.006 C 
BRANCH   6   7
ATOM      7  C   UNL     1       5.086  -6.939  24.922  1.00  0.00     0.053 C 
BRANCH   7   8
ATOM      8  C   UNL     1       5.158  -5.573  24.314  1.00  0.00     0.041 C 
ATOM      9  O   UNL     1       6.102  -4.794  24.610  1.00  0.00    -0.550 OA
ATOM     10  O   UNL     1       4.163  -5.147  23.443  1.00  0.00    -0.550 OA
ENDBRANCH   7   8
ENDBRANCH   6   7
ENDBRANCH   5   6
ENDBRANCH   4   5
ENDBRANCH   3   4
ENDBRANCH   2   3
ENDBRANCH   1   2
BRANCH   1  11
ATOM     11  C   UNL     1       4.701  -7.898  30.913  1.00  0.00     0.000 C 
BRANCH  11  12
ATOM     12  C   UNL     1       6.127  -7.761  31.471  1.00  0.00    -0.000 C 
BRANCH  12  13
ATOM     13  C   UNL     1       6.461  -6.317  31.888  1.00  0.00    -0.000 C 
BRANCH  13  14
ATOM     14  C   UNL     1       7.576  -5.699  31.030  1.00  0.00    -0.000 C 
BRANCH  14  15
ATOM     15  C   UNL     1       7.877  -6.517  29.765  1.00  0.00    -0.000 C 
BRANCH  15  16
ATOM     16  C   UNL     1       8.280  -5.598  28.602  1.00  0.00    -0.000 C 
BRANCH  16  17
ATOM     17  C   UNL     1       7.182  -4.587  28.239  1.00  0.00    -0.003 C 
ATOM     18  C   UNL     1       5.803  -5.233  28.107  1.00  0.00     0.004 C 
ENDBRANCH  16  17
ENDBRANCH  15  16
ENDBRANCH  14  15
ENDBRANCH  13  14
ENDBRANCH  12  13
ENDBRANCH  11  12
ENDBRANCH   1  11
TORSDOF 14
ENDMDL
MODEL 7
REMARK VINA RESULT:    -4.292      2.496      5.642
REMARK INTER + INTRA:          -9.757
REMARK INTER:                  -7.424
REMARK INTRA:                  -2.333
REMARK UNBOUND:                -1.953
REMARK SMILES CCCCCCCCCCCCCCCC(=O)[O-]
REMARK SMILES IDX 9 1 10 2 11 3 12 4 13 5 14 6 15 7 16 8 17 9 18 10 8 11 7 12
REMARK SMILES IDX 6 13 5 14 4 15 3 16 2 17 1 18
REMARK H PARENT
REMARK Flexibility Score: inf
ROOT
ATOM      1  C   UNL     1       4.829  -8.328  26.028  1.00  0.00     0.000 C 
ENDROOT
BRANCH   1   2
ATOM      2  C   UNL     1       4.336  -9.172  27.209  1.00  0.00     0.000 C 
BRANCH   2   3
ATOM      3  C   UNL     1       3.631  -8.296  28.255  1.00  0.00     0.000 C 
BRANCH   3   4
ATOM      4  C   UNL     1       4.034  -8.652  29.695  1.00  0.00     0.000 C 
BRANCH   4   5
ATOM      5  C   UNL     1       5.492  -8.287  30.010  1.00  0.00     0.000 C 
BRANCH   5   6
ATOM      6  C   UNL     1       5.637  -7.808  31.463  1.00  0.00     0.006 C 
BRANCH   6   7
ATOM      7  C   UNL     1       6.837  -6.871  31.649  1.00  0.00     0.053 C 
BRANCH   7   8
ATOM      8  C   UNL     1       6.467  -5.642  32.420  1.00  0.00     0.041 C 
ATOM      9  O   UNL     1       5.265  -5.420  32.722  1.00  0.00    -0.550 OA
ATOM     10  O   UNL     1       7.446  -4.724  32.776  1.00  0.00    -0.550 OA
ENDBRANCH   7   8
ENDBRANCH   6   7
ENDBRANCH   5   6
ENDBRANCH   4   5
ENDBRANCH   3   4
ENDBRANCH   2   3
ENDBRANCH   1   2
BRANCH   1  11
ATOM     11  C   UNL     1       6.301  -8.633  25.708  1.00  0.00     0.000 C 
BRANCH  11  12
ATOM     12  C   UNL     1       6.868  -9.781  26.559  1.00  0.00    -0.000 C 
BRANCH  12  13
ATOM     13  C   UNL     1       7.956  -9.308  27.540  1.00  0.00    -0.000 C 
BRANCH  13  14
ATOM     14  C   UNL     1       8.509  -7.919  27.181  1.00  0.00    -0.000 C 
BRANCH  14  15
ATOM     15  C   UNL     1       8.603  -6.985  28.397  1.00  0.00    -0.000 C 
BRANCH  15  16
ATOM     16  C   UNL     1       8.354  -5.525  27.987  1.00  0.00    -0.000 C 
BRANCH  16  17
ATOM     17  C   UNL     1       7.090  -4.937  28.630  1.00  0.00    -0.003 C 
ATOM     18  C   UNL     1       5.820  -5.259  27.841  1.00  0.00     0.004 C 
ENDBRANCH  16  17
ENDBRANCH  15  16
ENDBRANCH  14  15
ENDBRANCH  13  14
ENDBRANCH  12  13
ENDBRANCH  11  12
ENDBRANCH   1  11
TORSDOF 14
ENDMDL
MODEL 8
REMARK VINA RESULT:    -4.262     12.441     15.266
REMARK INTER + INTRA:          -9.703
REMARK INTER:                  -8.085
REMARK INTRA:                  -1.618
REMARK UNBOUND:                -1.953
REMARK SMILES CCCCCCCCCCCCCCCC(=O)[O-]
REMARK SMILES IDX 9 1 10 2 11 3 12 4 13 5 14 6 15 7 16 8 17 9 18 10 8 11 7 12
REMARK SMILES IDX 6 13 5 14 4 15 3 16 2 17 1 18
REMARK H PARENT
REMARK Flexibility Score: inf
ROOT
ATOM      1  C   UNL     1      13.891  -6.567  16.989  1.00  0.00     0.000 C 
ENDROOT
BRANCH   1   2
ATOM      2  C   UNL     1      13.659  -5.567  18.128  1.00  0.00     0.000 C 
BRANCH   2   3
ATOM      3  C   UNL     1      14.765  -5.675  19.189  1.00  0.00     0.000 C 
BRANCH   3   4
ATOM      4  C   UNL     1      14.230  -5.522  20.621  1.00  0.00     0.000 C 
BRANCH   4   5
ATOM      5  C   UNL     1      14.744  -6.617  21.567  1.00  0.00     0.000 C 
BRANCH   5   6
ATOM      6  C   UNL     1      16.050  -7.231  21.039  1.00  0.00     0.006 C 
BRANCH   6   7
ATOM      7  C   UNL     1      16.547  -8.385  21.918  1.00  0.00     0.053 C 
BRANCH   7   8
ATOM      8  C   UNL     1      17.180  -7.888  23.181  1.00  0.00     0.041 C 
ATOM      9  O   UNL     1      18.375  -7.490  23.179  1.00  0.00    -0.550 OA
ATOM     10  O   UNL     1      16.460  -7.894  24.368  1.00  0.00    -0.550 OA
ENDBRANCH   7   8
ENDBRANCH   6   7
ENDBRANCH   5   6
ENDBRANCH   4   5
ENDBRANCH   3   4
ENDBRANCH   2   3
ENDBRANCH   1   2
BRANCH   1  11
ATOM     11  C   UNL     1      15.064  -7.506  17.310  1.00  0.00     0.000 C 
BRANCH  11  12
ATOM     12  C   UNL     1      14.632  -8.976  17.440  1.00  0.00    -0.000 C 
BRANCH  12  13
ATOM     13  C   UNL     1      14.316  -9.621  16.078  1.00  0.00    -0.000 C 
BRANCH  13  14
ATOM     14  C   UNL     1      15.492  -9.525  15.093  1.00  0.00    -0.000 C 
BRANCH  14  15
ATOM     15  C   UNL     1      15.061  -9.052  13.696  1.00  0.00    -0.000 C 
BRANCH  15  16
ATOM     16  C   UNL     1      15.519  -7.608  13.441  1.00  0.00    -0.000 C 
BRANCH  16  17
ATOM     17  C   UNL     1      14.379  -6.704  12.950  1.00  0.00    -0.003 C 
ATOM     18  C   UNL     1      13.023  -7.086  13.545  1.00  0.00     0.004 C 
ENDBRANCH  16  17
ENDBRANCH  15  16
ENDBRANCH  14  15
ENDBRANCH  13  14
ENDBRANCH  12  13
ENDBRANCH  11  12
ENDBRANCH   1  11
TORSDOF 14
ENDMDL
MODEL 9
REMARK VINA RESULT:    -4.246      2.415      4.562
REMARK INTER + INTRA:          -9.675
REMARK INTER:                  -7.133
REMARK INTRA:                  -2.542
REMARK UNBOUND:                -1.953
REMARK SMILES CCCCCCCCCCCCCCCC(=O)[O-]
REMARK SMILES IDX 9 1 10 2 11 3 12 4 13 5 14 6 15 7 16 8 17 9 18 10 8 11 7 12
REMARK SMILES IDX 6 13 5 14 4 15 3 16 2 17 1 18
REMARK H PARENT
REMARK Flexibility Score: inf
ROOT
ATOM      1  C   UNL     1       8.702  -5.377  28.279  1.00  0.00     0.000 C 
ENDROOT
BRANCH   1   2
ATOM      2  C   UNL     1       8.678  -6.404  29.417  1.00  0.00     0.000 C 
BRANCH   2   3
ATOM      3  C   UNL     1       7.630  -6.030  30.475  1.00  0.00     0.000 C 
BRANCH   3   4
ATOM      4  C   UNL     1       6.657  -7.179  30.779  1.00  0.00     0.000 C 
BRANCH   4   5
ATOM      5  C   UNL     1       6.042  -7.786  29.508  1.00  0.00     0.000 C 
BRANCH   5   6
ATOM      6  C   UNL     1       5.656  -9.256  29.734  1.00  0.00     0.006 C 
BRANCH   6   7
ATOM      7  C   UNL     1       4.340  -9.625  29.038  1.00  0.00     0.053 C 
BRANCH   7   8
ATOM      8  C   UNL     1       3.287  -8.582  29.254  1.00  0.00     0.041 C 
ATOM      9  O   UNL     1       2.732  -8.463  30.378  1.00  0.00    -0.550 OA
ATOM     10  O   UNL     1       2.894  -7.763  28.203  1.00  0.00    -0.550 OA
ENDBRANCH   7   8
ENDBRANCH   6   7
ENDBRANCH   5   6
ENDBRANCH   4   5
ENDBRANCH   3   4
ENDBRANCH   2   3
ENDBRANCH   1   2
BRANCH   1  11
ATOM     11  C   UNL     1       7.425  -4.523  28.280  1.00  0.00     0.000 C 
BRANCH  11  12
ATOM     12  C   UNL     1       6.770  -4.429  26.893  1.00  0.00    -0.000 C 
BRANCH  12  13
ATOM     13  C   UNL     1       5.772  -5.571  26.632  1.00  0.00    -0.000 C 
BRANCH  13  14
ATOM     14  C   UNL     1       6.350  -6.662  25.716  1.00  0.00    -0.000 C 
BRANCH  14  15
ATOM     15  C   UNL     1       5.691  -8.032  25.934  1.00  0.00    -0.000 C 
BRANCH  15  16
ATOM     16  C   UNL     1       6.752  -9.135  26.069  1.00  0.00    -0.000 C 
BRANCH  16  17
ATOM     17  C   UNL     1       8.121  -8.590  26.501  1.00  0.00    -0.003 C 
ATOM     18  C   UNL     1       8.954  -9.622  27.262  1.00  0.00     0.004 C 
ENDBRANCH  16  17
ENDBRANCH  15  16
ENDBRANCH  14  15
ENDBRANCH  13  14
ENDBRANCH  12  13
ENDBRANCH  11  12
ENDBRANCH   1  11
TORSDOF 14
ENDMDL
