MODEL 1
REMARK VINA RESULT:    -3.359      0.000      0.000
REMARK INTER + INTRA:          -6.129
REMARK INTER:                  -5.322
REMARK INTRA:                  -0.807
REMARK UNBOUND:                -0.807
REMARK SMILES CCCCCCCCCCCC(=O)[O-]
REMARK SMILES IDX 7 1 8 2 9 3 10 4 11 5 12 6 13 7 14 8 6 9 5 10 4 11 3 12 2 13
REMARK SMILES IDX 1 14
REMARK H PARENT
REMARK Flexibility Score: inf
ROOT
ATOM      1  C   UNL     1       9.593 -34.185  14.365  1.00  0.00     0.000 C 
ENDROOT
BRANCH   1   2
ATOM      2  C   UNL     1       8.074 -34.011  14.173  1.00  0.00     0.000 C 
BRANCH   2   3
ATOM      3  C   UNL     1       7.324 -33.438  15.391  1.00  0.00     0.000 C 
BRANCH   3   4
ATOM      4  C   UNL     1       8.037 -32.240  16.053  1.00  0.00     0.006 C 
BRANCH   4   5
ATOM      5  C   UNL     1       8.488 -32.544  17.488  1.00  0.00     0.053 C 
BRANCH   5   6
ATOM      6  C   UNL     1       9.276 -31.399  18.042  1.00  0.00     0.041 C 
ATOM      7  O   UNL     1      10.162 -30.842  17.342  1.00  0.00    -0.550 OA
ATOM      8  O   UNL     1       8.998 -30.914  19.314  1.00  0.00    -0.550 OA
ENDBRANCH   5   6
ENDBRANCH   4   5
ENDBRANCH   3   4
ENDBRANCH   2   3
ENDBRANCH   1   2
BRANCH   1   9
ATOM      9  C   UNL     1      10.429 -34.075  13.077  1.00  0.00     0.000 C 
BRANCH   9  10
ATOM     10  C   UNL     1      11.564 -33.046  13.185  1.00  0.00    -0.000 C 
BRANCH  10  11
ATOM     11  C   UNL     1      11.110 -31.810  13.976  1.00  0.00    -0.000 C 
BRANCH  11  12
ATOM     12  C   UNL     1      12.277 -31.075  14.662  1.00  0.00    -0.000 C 
BRANCH  12  13
ATOM     13  C   UNL     1      13.659 -31.328  14.036  1.00  0.00    -0.003 C 
ATOM     14  C   UNL     1      14.385 -30.039  13.648  1.00  0.00     0.004 C 
ENDBRANCH  12  13
ENDBRANCH  11  12
ENDBRANCH  10  11
ENDBRANCH   9  10
ENDBRANCH   1   9
TORSDOF 10
ENDMDL
MODEL 2
REMARK VINA RESULT:    -3.323      0.863      1.520
REMARK INTER + INTRA:          -6.073
REMARK INTER:                  -5.239
REMARK INTRA:                  -0.834
REMARK UNBOUND:                -0.807
REMARK SMILES CCCCCCCCCCCC(=O)[O-]
REMARK SMILES IDX 7 1 8 2 9 3 10 4 11 5 12 6 13 7 14 8 6 9 5 10 4 11 3 12 2 13
REMARK SMILES IDX 1 14
REMARK H PARENT
REMARK Flexibility Score: inf
ROOT
ATOM      1  C   UNL     1       8.242 -32.735  12.936  1.00  0.00     0.000 C 
ENDROOT
BRANCH   1   2
ATOM      2  C   UNL     1       6.976 -32.674  13.812  1.00  0.00     0.000 C 
BRANCH   2   3
ATOM      3  C   UNL     1       7.185 -33.059  15.288  1.00  0.00     0.000 C 
BRANCH   3   4
ATOM      4  C   UNL     1       8.172 -32.138  16.037  1.00  0.00     0.006 C 
BRANCH   4   5
ATOM      5  C   UNL     1       8.370 -32.556  17.500  1.00  0.00     0.053 C 
BRANCH   5   6
ATOM      6  C   UNL     1       9.234 -31.564  18.215  1.00  0.00     0.041 C 
ATOM      7  O   UNL     1       9.213 -31.495  19.471  1.00  0.00    -0.550 OA
ATOM      8  O   UNL     1      10.099 -30.750  17.494  1.00  0.00    -0.550 OA
ENDBRANCH   5   6
ENDBRANCH   4   5
ENDBRANCH   3   4
ENDBRANCH   2   3
ENDBRANCH   1   2
BRANCH   1   9
ATOM      9  C   UNL     1       8.983 -34.085  12.952  1.00  0.00     0.000 C 
BRANCH   9  10
ATOM     10  C   UNL     1      10.333 -34.020  13.680  1.00  0.00    -0.000 C 
BRANCH  10  11
ATOM     11  C   UNL     1      11.137 -32.790  13.236  1.00  0.00    -0.000 C 
BRANCH  11  12
ATOM     12  C   UNL     1      11.278 -31.732  14.346  1.00  0.00    -0.000 C 
BRANCH  12  13
ATOM     13  C   UNL     1      12.604 -30.952  14.334  1.00  0.00    -0.003 C 
ATOM     14  C   UNL     1      13.774 -31.769  13.787  1.00  0.00     0.004 C 
ENDBRANCH  12  13
ENDBRANCH  11  12
ENDBRANCH  10  11
ENDBRANCH   9  10
ENDBRANCH   1   9
TORSDOF 10
ENDMDL
MODEL 3
REMARK VINA RESULT:    -3.255      2.656      5.021
REMARK INTER + INTRA:          -5.965
REMARK INTER:                  -5.026
REMARK INTRA:                  -0.939
REMARK UNBOUND:                -0.807
REMARK SMILES CCCCCCCCCCCC(=O)[O-]
REMARK SMILES IDX 7 1 8 2 9 3 10 4 11 5 12 6 13 7 14 8 6 9 5 10 4 11 3 12 2 13
REMARK SMILES IDX 1 14
REMARK H PARENT
REMARK Flexibility Score: inf
ROOT
ATOM      1  C   UNL     1       8.644 -32.301  12.875  1.00  0.00     0.000 C 
ENDROOT
BRANCH   1   2
ATOM      2  C   UNL     1       9.717 -33.404  12.941  1.00  0.00     0.000 C 
BRANCH   2   3
ATOM      3  C   UNL     1      11.032 -32.995  13.629  1.00  0.00     0.000 C 
BRANCH   3   4
ATOM      4  C   UNL     1      11.136 -31.484  13.924  1.00  0.00     0.006 C 
BRANCH   4   5
ATOM      5  C   UNL     1      12.346 -31.138  14.802  1.00  0.00     0.053 C 
BRANCH   5   6
ATOM      6  C   UNL     1      13.601 -31.133  13.985  1.00  0.00     0.041 C 
ATOM      7  O   UNL     1      14.204 -30.052  13.759  1.00  0.00    -0.550 OA
ATOM      8  O   UNL     1      14.129 -32.329  13.514  1.00  0.00    -0.550 OA
ENDBRANCH   5   6
ENDBRANCH   4   5
ENDBRANCH   3   4
ENDBRANCH   2   3
ENDBRANCH   1   2
BRANCH   1   9
ATOM      9  C   UNL     1       7.214 -32.759  13.218  1.00  0.00     0.000 C 
BRANCH   9  10
ATOM     10  C   UNL     1       7.096 -33.343  14.634  1.00  0.00    -0.000 C 
BRANCH  10  11
ATOM     11  C   UNL     1       7.347 -32.262  15.696  1.00  0.00    -0.000 C 
BRANCH  11  12
ATOM     12  C   UNL     1       8.388 -32.686  16.748  1.00  0.00    -0.000 C 
BRANCH  12  13
ATOM     13  C   UNL     1       9.256 -31.541  17.298  1.00  0.00    -0.003 C 
ATOM     14  C   UNL     1       9.256 -31.469  18.825  1.00  0.00     0.004 C 
ENDBRANCH  12  13
ENDBRANCH  11  12
ENDBRANCH  10  11
ENDBRANCH   9  10
ENDBRANCH   1   9
TORSDOF 10
ENDMDL
MODEL 4
REMARK VINA RESULT:    -2.713      2.167      4.880
REMARK INTER + INTRA:          -5.107
REMARK INTER:                  -3.983
REMARK INTRA:                  -1.124
REMARK UNBOUND:                -0.807
REMARK SMILES CCCCCCCCCCCC(=O)[O-]
REMARK SMILES IDX 7 1 8 2 9 3 10 4 11 5 12 6 13 7 14 8 6 9 5 10 4 11 3 12 2 13
REMARK SMILES IDX 1 14
REMARK H PARENT
REMARK Flexibility Score: inf
ROOT
ATOM      1  C   UNL     1       8.472 -32.869  13.106  1.00  0.00     0.000 C 
ENDROOT
BRANCH   1   2
ATOM      2  C   UNL     1       9.298 -33.136  14.379  1.00  0.00     0.000 C 
BRANCH   2   3
ATOM      3  C   UNL     1      10.158 -31.952  14.860  1.00  0.00     0.000 C 
BRANCH   3   4
ATOM      4  C   UNL     1       9.820 -31.478  16.289  1.00  0.00     0.006 C 
BRANCH   4   5
ATOM      5  C   UNL     1       8.654 -32.259  16.907  1.00  0.00     0.053 C 
BRANCH   5   6
ATOM      6  C   UNL     1       8.590 -32.022  18.384  1.00  0.00     0.041 C 
ATOM      7  O   UNL     1       8.135 -32.912  19.149  1.00  0.00    -0.550 OA
ATOM      8  O   UNL     1       9.079 -30.837  18.919  1.00  0.00    -0.550 OA
ENDBRANCH   5   6
ENDBRANCH   4   5
ENDBRANCH   3   4
ENDBRANCH   2   3
ENDBRANCH   1   2
BRANCH   1   9
ATOM      9  C   UNL     1       7.077 -32.263  13.349  1.00  0.00     0.000 C 
BRANCH   9  10
ATOM     10  C   UNL     1       5.965 -33.321  13.405  1.00  0.00    -0.000 C 
BRANCH  10  11
ATOM     11  C   UNL     1       5.875 -33.949  14.803  1.00  0.00    -0.000 C 
BRANCH  11  12
ATOM     12  C   UNL     1       5.902 -35.488  14.772  1.00  0.00    -0.000 C 
BRANCH  12  13
ATOM     13  C   UNL     1       6.420 -36.101  13.460  1.00  0.00    -0.003 C 
ATOM     14  C   UNL     1       7.883 -36.537  13.539  1.00  0.00     0.004 C 
ENDBRANCH  12  13
ENDBRANCH  11  12
ENDBRANCH  10  11
ENDBRANCH   9  10
ENDBRANCH   1   9
TORSDOF 10
ENDMDL
MODEL 5
REMARK VINA RESULT:    -2.540      2.951      5.839
REMARK INTER + INTRA:          -4.831
REMARK INTER:                  -4.081
REMARK INTRA:                  -0.751
REMARK UNBOUND:                -0.807
REMARK SMILES CCCCCCCCCCCC(=O)[O-]
REMARK SMILES IDX 7 1 8 2 9 3 10 4 11 5 12 6 13 7 14 8 6 9 5 10 4 11 3 12 2 13
REMARK SMILES IDX 1 14
REMARK H PARENT
REMARK Flexibility Score: inf
ROOT
ATOM      1  C   UNL     1       8.668 -32.568  15.316  1.00  0.00     0.000 C 
ENDROOT
BRANCH   1   2
ATOM      2  C   UNL     1       9.126 -32.608  13.846  1.00  0.00     0.000 C 
BRANCH   2   3
ATOM      3  C   UNL     1      10.651 -32.561  13.635  1.00  0.00     0.000 C 
BRANCH   3   4
ATOM      4  C   UNL     1      11.246 -31.139  13.714  1.00  0.00     0.006 C 
BRANCH   4   5
ATOM      5  C   UNL     1      12.423 -31.047  14.694  1.00  0.00     0.053 C 
BRANCH   5   6
ATOM      6  C   UNL     1      13.723 -31.094  13.954  1.00  0.00     0.041 C 
ATOM      7  O   UNL     1      14.166 -32.189  13.520  1.00  0.00    -0.550 OA
ATOM      8  O   UNL     1      14.423 -29.920  13.703  1.00  0.00    -0.550 OA
ENDBRANCH   5   6
ENDBRANCH   4   5
ENDBRANCH   3   4
ENDBRANCH   2   3
ENDBRANCH   1   2
BRANCH   1   9
ATOM      9  C   UNL     1       7.144 -32.632  15.526  1.00  0.00     0.000 C 
BRANCH   9  10
ATOM     10  C   UNL     1       6.493 -33.836  14.831  1.00  0.00    -0.000 C 
BRANCH  10  11
ATOM     11  C   UNL     1       7.014 -35.156  15.417  1.00  0.00    -0.000 C 
BRANCH  11  12
ATOM     12  C   UNL     1       6.538 -36.391  14.630  1.00  0.00    -0.000 C 
BRANCH  12  13
ATOM     13  C   UNL     1       7.153 -36.543  13.228  1.00  0.00    -0.003 C 
ATOM     14  C   UNL     1       8.660 -36.291  13.205  1.00  0.00     0.004 C 
ENDBRANCH  12  13
ENDBRANCH  11  12
ENDBRANCH  10  11
ENDBRANCH   9  10
ENDBRANCH   1   9
TORSDOF 10
ENDMDL
MODEL 6
REMARK VINA RESULT:    -2.517      2.613      4.276
REMARK INTER + INTRA:          -4.796
REMARK INTER:                  -3.913
REMARK INTRA:                  -0.883
REMARK UNBOUND:                -0.807
REMARK SMILES CCCCCCCCCCCC(=O)[O-]
REMARK SMILES IDX 7 1 8 2 9 3 10 4 11 5 12 6 13 7 14 8 6 9 5 10 4 11 3 12 2 13
REMARK SMILES IDX 1 14
REMARK H PARENT
REMARK Flexibility Score: inf
ROOT
ATOM      1  C   UNL     1      10.295 -33.400  13.792  1.00  0.00     0.000 C 
ENDROOT
BRANCH   1   2
ATOM      2  C   UNL     1       9.029 -33.568  12.929  1.00  0.00     0.000 C 
BRANCH   2   3
ATOM      3  C   UNL     1       8.092 -32.346  12.901  1.00  0.00     0.000 C 
BRANCH   3   4
ATOM      4  C   UNL     1       6.654 -32.655  13.368  1.00  0.00     0.006 C 
BRANCH   4   5
ATOM      5  C   UNL     1       6.577 -32.962  14.869  1.00  0.00     0.053 C 
BRANCH   5   6
ATOM      6  C   UNL     1       6.608 -34.440  15.103  1.00  0.00     0.041 C 
ATOM      7  O   UNL     1       5.875 -35.204  14.423  1.00  0.00    -0.550 OA
ATOM      8  O   UNL     1       7.483 -34.977  16.039  1.00  0.00    -0.550 OA
ENDBRANCH   5   6
ENDBRANCH   4   5
ENDBRANCH   3   4
ENDBRANCH   2   3
ENDBRANCH   1   2
BRANCH   1   9
ATOM      9  C   UNL     1      11.030 -32.058  13.618  1.00  0.00     0.000 C 
BRANCH   9  10
ATOM     10  C   UNL     1      11.326 -31.359  14.953  1.00  0.00    -0.000 C 
BRANCH  10  11
ATOM     11  C   UNL     1      10.146 -31.508  15.924  1.00  0.00    -0.000 C 
BRANCH  11  12
ATOM     12  C   UNL     1      10.378 -30.786  17.264  1.00  0.00    -0.000 C 
BRANCH  12  13
ATOM     13  C   UNL     1       9.268 -30.989  18.310  1.00  0.00    -0.003 C 
ATOM     14  C   UNL     1       8.442 -32.252  18.070  1.00  0.00     0.004 C 
ENDBRANCH  12  13
ENDBRANCH  11  12
ENDBRANCH  10  11
ENDBRANCH   9  10
ENDBRANCH   1   9
TORSDOF 10
ENDMDL
MODEL 7
REMARK VINA RESULT:    -2.251      2.619      4.273
REMARK INTER + INTRA:          -4.375
REMARK INTER:                  -3.202
REMARK INTRA:                  -1.173
REMARK UNBOUND:                -0.807
REMARK SMILES CCCCCCCCCCCC(=O)[O-]
REMARK SMILES IDX 7 1 8 2 9 3 10 4 11 5 12 6 13 7 14 8 6 9 5 10 4 11 3 12 2 13
REMARK SMILES IDX 1 14
REMARK H PARENT
REMARK Flexibility Score: inf
ROOT
ATOM      1  C   UNL     1      10.086 -31.097  17.811  1.00  0.00     0.000 C 
ENDROOT
BRANCH   1   2
ATOM      2  C   UNL     1       8.758 -31.878  17.766  1.00  0.00     0.000 C 
BRANCH   2   3
ATOM      3  C   UNL     1       8.548 -32.736  16.504  1.00  0.00     0.000 C 
BRANCH   3   4
ATOM      4  C   UNL     1       7.262 -32.391  15.725  1.00  0.00     0.006 C 
BRANCH   4   5
ATOM      5  C   UNL     1       7.315 -32.862  14.265  1.00  0.00     0.053 C 
BRANCH   5   6
ATOM      6  C   UNL     1       6.805 -34.265  14.149  1.00  0.00     0.041 C 
ATOM      7  O   UNL     1       7.134 -34.979  13.166  1.00  0.00    -0.550 OA
ATOM      8  O   UNL     1       6.006 -34.799  15.152  1.00  0.00    -0.550 OA
ENDBRANCH   5   6
ENDBRANCH   4   5
ENDBRANCH   3   4
ENDBRANCH   2   3
ENDBRANCH   1   2
BRANCH   1   9
ATOM      9  C   UNL     1      10.505 -30.447  16.480  1.00  0.00     0.000 C 
BRANCH   9  10
ATOM     10  C   UNL     1      11.970 -30.725  16.112  1.00  0.00    -0.000 C 
BRANCH  10  11
ATOM     11  C   UNL     1      12.109 -31.046  14.617  1.00  0.00    -0.000 C 
BRANCH  11  12
ATOM     12  C   UNL     1      10.895 -31.805  14.050  1.00  0.00    -0.000 C 
BRANCH  12  13
ATOM     13  C   UNL     1      11.241 -33.040  13.201  1.00  0.00    -0.003 C 
ATOM     14  C   UNL     1      10.626 -34.330  13.742  1.00  0.00     0.004 C 
ENDBRANCH  12  13
ENDBRANCH  11  12
ENDBRANCH  10  11
ENDBRANCH   9  10
ENDBRANCH   1   9
TORSDOF 10
ENDMDL
MODEL 8
REMARK VINA RESULT:    -2.214      2.933      3.876
REMARK INTER + INTRA:          -4.316
REMARK INTER:                  -3.810
REMARK INTRA:                  -0.505
REMARK UNBOUND:                -0.807
REMARK SMILES CCCCCCCCCCCC(=O)[O-]
REMARK SMILES IDX 7 1 8 2 9 3 10 4 11 5 12 6 13 7 14 8 6 9 5 10 4 11 3 12 2 13
REMARK SMILES IDX 1 14
REMARK H PARENT
REMARK Flexibility Score: inf
ROOT
ATOM      1  C   UNL     1       9.282 -32.113  15.693  1.00  0.00     0.000 C 
ENDROOT
BRANCH   1   2
ATOM      2  C   UNL     1       7.750 -32.268  15.742  1.00  0.00     0.000 C 
BRANCH   2   3
ATOM      3  C   UNL     1       7.116 -32.883  14.480  1.00  0.00     0.000 C 
BRANCH   3   4
ATOM      4  C   UNL     1       5.875 -33.754  14.768  1.00  0.00     0.006 C 
BRANCH   4   5
ATOM      5  C   UNL     1       5.886 -35.071  13.981  1.00  0.00     0.053 C 
BRANCH   5   6
ATOM      6  C   UNL     1       6.745 -36.085  14.670  1.00  0.00     0.041 C 
ATOM      7  O   UNL     1       6.526 -36.390  15.871  1.00  0.00    -0.550 OA
ATOM      8  O   UNL     1       7.758 -36.728  13.970  1.00  0.00    -0.550 OA
ENDBRANCH   5   6
ENDBRANCH   4   5
ENDBRANCH   3   4
ENDBRANCH   2   3
ENDBRANCH   1   2
BRANCH   1   9
ATOM      9  C   UNL     1       9.957 -32.693  14.437  1.00  0.00     0.000 C 
BRANCH   9  10
ATOM     10  C   UNL     1      11.180 -31.881  13.984  1.00  0.00    -0.000 C 
BRANCH  10  11
ATOM     11  C   UNL     1      12.349 -32.807  13.618  1.00  0.00    -0.000 C 
BRANCH  11  12
ATOM     12  C   UNL     1      13.708 -32.084  13.614  1.00  0.00    -0.000 C 
BRANCH  12  13
ATOM     13  C   UNL     1      13.734 -30.747  14.375  1.00  0.00    -0.003 C 
ATOM     14  C   UNL     1      14.496 -29.650  13.632  1.00  0.00     0.004 C 
ENDBRANCH  12  13
ENDBRANCH  11  12
ENDBRANCH  10  11
ENDBRANCH   9  10
ENDBRANCH   1   9
TORSDOF 10
ENDMDL
