MODEL 1
REMARK VINA RESULT:    -4.108      0.000      0.000
REMARK INTER + INTRA:          -9.852
REMARK INTER:                  -7.470
REMARK INTRA:                  -2.382
REMARK UNBOUND:                -2.382
REMARK SMILES CCCCCCCCCCCCCCCC(=O)[O-]
REMARK SMILES IDX 9 1 10 2 11 3 12 4 13 5 14 6 15 7 16 8 17 9 18 10 8 11 7 12
REMARK SMILES IDX 6 13 5 14 4 15 3 16 2 17 1 18
REMARK H PARENT
REMARK Flexibility Score: inf
ROOT
ATOM      1  C   UNL     1     -19.182  45.002  -5.786  1.00  0.00     0.000 C 
ENDROOT
BRANCH   1   2
ATOM      2  C   UNL     1     -19.038  46.521  -5.960  1.00  0.00     0.000 C 
BRANCH   2   3
ATOM      3  C   UNL     1     -17.659  46.998  -5.490  1.00  0.00     0.000 C 
BRANCH   3   4
ATOM      4  C   UNL     1     -16.574  45.966  -5.823  1.00  0.00     0.000 C 
BRANCH   4   5
ATOM      5  C   UNL     1     -15.250  46.655  -6.181  1.00  0.00     0.000 C 
BRANCH   5   6
ATOM      6  C   UNL     1     -14.828  46.414  -7.643  1.00  0.00     0.006 C 
BRANCH   6   7
ATOM      7  C   UNL     1     -15.204  47.552  -8.607  1.00  0.00     0.053 C 
BRANCH   7   8
ATOM      8  C   UNL     1     -16.338  47.172  -9.509  1.00  0.00     0.041 C 
ATOM      9  O   UNL     1     -16.115  46.851 -10.706  1.00  0.00    -0.550 OA
ATOM     10  O   UNL     1     -17.644  47.206  -9.037  1.00  0.00    -0.550 OA
ENDBRANCH   7   8
ENDBRANCH   6   7
ENDBRANCH   5   6
ENDBRANCH   4   5
ENDBRANCH   3   4
ENDBRANCH   2   3
ENDBRANCH   1   2
BRANCH   1  11
ATOM     11  C   UNL     1     -20.377  44.425  -6.563  1.00  0.00     0.000 C 
BRANCH  11  12
ATOM     12  C   UNL     1     -20.797  45.313  -7.746  1.00  0.00    -0.000 C 
BRANCH  12  13
ATOM     13  C   UNL     1     -20.319  44.760  -9.099  1.00  0.00    -0.000 C 
BRANCH  13  14
ATOM     14  C   UNL     1     -20.376  43.227  -9.168  1.00  0.00    -0.000 C 
BRANCH  14  15
ATOM     15  C   UNL     1     -18.979  42.638  -9.422  1.00  0.00    -0.000 C 
BRANCH  15  16
ATOM     16  C   UNL     1     -17.914  43.719  -9.659  1.00  0.00    -0.000 C 
BRANCH  16  17
ATOM     17  C   UNL     1     -16.636  43.479  -8.842  1.00  0.00    -0.003 C 
ATOM     18  C   UNL     1     -16.942  42.712  -7.557  1.00  0.00     0.004 C 
ENDBRANCH  16  17
ENDBRANCH  15  16
ENDBRANCH  14  15
ENDBRANCH  13  14
ENDBRANCH  12  13
ENDBRANCH  11  12
ENDBRANCH   1  11
TORSDOF 14
ENDMDL
MODEL 2
REMARK VINA RESULT:    -4.097      1.968      2.518
REMARK INTER + INTRA:          -9.831
REMARK INTER:                  -7.490
REMARK INTRA:                  -2.341
REMARK UNBOUND:                -2.382
REMARK SMILES CCCCCCCCCCCCCCCC(=O)[O-]
REMARK SMILES IDX 9 1 10 2 11 3 12 4 13 5 14 6 15 7 16 8 17 9 18 10 8 11 7 12
REMARK SMILES IDX 6 13 5 14 4 15 3 16 2 17 1 18
REMARK H PARENT
REMARK Flexibility Score: inf
ROOT
ATOM      1  C   UNL     1     -18.958  45.479  -6.200  1.00  0.00     0.000 C 
ENDROOT
BRANCH   1   2
ATOM      2  C   UNL     1     -19.304  46.931  -6.561  1.00  0.00     0.000 C 
BRANCH   2   3
ATOM      3  C   UNL     1     -18.174  47.578  -7.373  1.00  0.00     0.000 C 
BRANCH   3   4
ATOM      4  C   UNL     1     -17.644  46.615  -8.443  1.00  0.00     0.000 C 
BRANCH   4   5
ATOM      5  C   UNL     1     -16.205  46.975  -8.841  1.00  0.00     0.000 C 
BRANCH   5   6
ATOM      6  C   UNL     1     -15.292  47.215  -7.625  1.00  0.00     0.006 C 
BRANCH   6   7
ATOM      7  C   UNL     1     -15.153  46.003  -6.688  1.00  0.00     0.053 C 
BRANCH   7   8
ATOM      8  C   UNL     1     -15.036  46.412  -5.252  1.00  0.00     0.041 C 
ATOM      9  O   UNL     1     -14.064  46.015  -4.557  1.00  0.00    -0.550 OA
ATOM     10  O   UNL     1     -16.018  47.205  -4.672  1.00  0.00    -0.550 OA
ENDBRANCH   7   8
ENDBRANCH   6   7
ENDBRANCH   5   6
ENDBRANCH   4   5
ENDBRANCH   3   4
ENDBRANCH   2   3
ENDBRANCH   1   2
BRANCH   1  11
ATOM     11  C   UNL     1     -20.051  44.484  -6.627  1.00  0.00     0.000 C 
BRANCH  11  12
ATOM     12  C   UNL     1     -20.913  45.015  -7.784  1.00  0.00    -0.000 C 
BRANCH  12  13
ATOM     13  C   UNL     1     -20.437  44.510  -9.156  1.00  0.00    -0.000 C 
BRANCH  13  14
ATOM     14  C   UNL     1     -20.482  42.980  -9.275  1.00  0.00    -0.000 C 
BRANCH  14  15
ATOM     15  C   UNL     1     -19.074  42.405  -9.495  1.00  0.00    -0.000 C 
BRANCH  15  16
ATOM     16  C   UNL     1     -18.007  43.498  -9.662  1.00  0.00    -0.000 C 
BRANCH  16  17
ATOM     17  C   UNL     1     -16.675  43.131  -8.991  1.00  0.00    -0.003 C 
ATOM     18  C   UNL     1     -16.874  42.820  -7.510  1.00  0.00     0.004 C 
ENDBRANCH  16  17
ENDBRANCH  15  16
ENDBRANCH  14  15
ENDBRANCH  13  14
ENDBRANCH  12  13
ENDBRANCH  11  12
ENDBRANCH   1  11
TORSDOF 14
ENDMDL
MODEL 3
REMARK VINA RESULT:    -4.063      2.090      3.562
REMARK INTER + INTRA:          -9.769
REMARK INTER:                  -7.064
REMARK INTRA:                  -2.705
REMARK UNBOUND:                -2.382
REMARK SMILES CCCCCCCCCCCCCCCC(=O)[O-]
REMARK SMILES IDX 9 1 10 2 11 3 12 4 13 5 14 6 15 7 16 8 17 9 18 10 8 11 7 12
REMARK SMILES IDX 6 13 5 14 4 15 3 16 2 17 1 18
REMARK H PARENT
REMARK Flexibility Score: inf
ROOT
ATOM      1  C   UNL     1     -18.756  44.285  -5.854  1.00  0.00     0.000 C 
ENDROOT
BRANCH   1   2
ATOM      2  C   UNL     1     -19.752  44.365  -7.021  1.00  0.00     0.000 C 
BRANCH   2   3
ATOM      3  C   UNL     1     -20.037  45.824  -7.398  1.00  0.00     0.000 C 
BRANCH   3   4
ATOM      4  C   UNL     1     -18.969  46.762  -6.820  1.00  0.00     0.000 C 
BRANCH   4   5
ATOM      5  C   UNL     1     -17.945  47.156  -7.895  1.00  0.00     0.000 C 
BRANCH   5   6
ATOM      6  C   UNL     1     -16.489  46.930  -7.444  1.00  0.00     0.006 C 
BRANCH   6   7
ATOM      7  C   UNL     1     -16.292  46.930  -5.919  1.00  0.00     0.053 C 
BRANCH   7   8
ATOM      8  C   UNL     1     -14.855  46.742  -5.538  1.00  0.00     0.041 C 
ATOM      9  O   UNL     1     -14.522  45.808  -4.761  1.00  0.00    -0.550 OA
ATOM     10  O   UNL     1     -13.889  47.619  -6.014  1.00  0.00    -0.550 OA
ENDBRANCH   7   8
ENDBRANCH   6   7
ENDBRANCH   5   6
ENDBRANCH   4   5
ENDBRANCH   3   4
ENDBRANCH   2   3
ENDBRANCH   1   2
BRANCH   1  11
ATOM     11  C   UNL     1     -17.457  43.553  -6.230  1.00  0.00     0.000 C 
BRANCH  11  12
ATOM     12  C   UNL     1     -17.468  43.036  -7.678  1.00  0.00    -0.000 C 
BRANCH  12  13
ATOM     13  C   UNL     1     -16.222  43.466  -8.470  1.00  0.00    -0.000 C 
BRANCH  13  14
ATOM     14  C   UNL     1     -16.569  44.161  -9.794  1.00  0.00    -0.000 C 
BRANCH  14  15
ATOM     15  C   UNL     1     -17.795  43.507 -10.452  1.00  0.00    -0.000 C 
BRANCH  15  16
ATOM     16  C   UNL     1     -18.936  44.506 -10.701  1.00  0.00    -0.000 C 
BRANCH  16  17
ATOM     17  C   UNL     1     -20.324  43.856 -10.594  1.00  0.00    -0.003 C 
ATOM     18  C   UNL     1     -20.216  42.403 -10.140  1.00  0.00     0.004 C 
ENDBRANCH  16  17
ENDBRANCH  15  16
ENDBRANCH  14  15
ENDBRANCH  13  14
ENDBRANCH  12  13
ENDBRANCH  11  12
ENDBRANCH   1  11
TORSDOF 14
ENDMDL
MODEL 4
REMARK VINA RESULT:    -4.048      1.176      3.778
REMARK INTER + INTRA:          -9.743
REMARK INTER:                  -7.157
REMARK INTRA:                  -2.586
REMARK UNBOUND:                -2.382
REMARK SMILES CCCCCCCCCCCCCCCC(=O)[O-]
REMARK SMILES IDX 9 1 10 2 11 3 12 4 13 5 14 6 15 7 16 8 17 9 18 10 8 11 7 12
REMARK SMILES IDX 6 13 5 14 4 15 3 16 2 17 1 18
REMARK H PARENT
REMARK Flexibility Score: inf
ROOT
ATOM      1  C   UNL     1     -20.339  42.977  -9.256  1.00  0.00     0.000 C 
ENDROOT
BRANCH   1   2
ATOM      2  C   UNL     1     -18.986  42.462  -9.770  1.00  0.00     0.000 C 
BRANCH   2   3
ATOM      3  C   UNL     1     -17.909  42.573  -8.684  1.00  0.00     0.000 C 
BRANCH   3   4
ATOM      4  C   UNL     1     -16.833  43.594  -9.076  1.00  0.00     0.000 C 
BRANCH   4   5
ATOM      5  C   UNL     1     -16.908  43.922 -10.575  1.00  0.00     0.000 C 
BRANCH   5   6
ATOM      6  C   UNL     1     -17.089  45.427 -10.848  1.00  0.00     0.006 C 
BRANCH   6   7
ATOM      7  C   UNL     1     -17.265  46.283  -9.583  1.00  0.00     0.053 C 
BRANCH   7   8
ATOM      8  C   UNL     1     -16.096  47.191  -9.351  1.00  0.00     0.041 C 
ATOM      9  O   UNL     1     -16.274  48.427  -9.195  1.00  0.00    -0.550 OA
ATOM     10  O   UNL     1     -14.806  46.675  -9.342  1.00  0.00    -0.550 OA
ENDBRANCH   7   8
ENDBRANCH   6   7
ENDBRANCH   5   6
ENDBRANCH   4   5
ENDBRANCH   3   4
ENDBRANCH   2   3
ENDBRANCH   1   2
BRANCH   1  11
ATOM     11  C   UNL     1     -20.454  44.509  -9.320  1.00  0.00     0.000 C 
BRANCH  11  12
ATOM     12  C   UNL     1     -21.019  45.114  -8.023  1.00  0.00    -0.000 C 
BRANCH  12  13
ATOM     13  C   UNL     1     -19.915  45.554  -7.047  1.00  0.00    -0.000 C 
BRANCH  13  14
ATOM     14  C   UNL     1     -19.669  44.532  -5.928  1.00  0.00    -0.000 C 
BRANCH  14  15
ATOM     15  C   UNL     1     -18.167  44.392  -5.633  1.00  0.00    -0.000 C 
BRANCH  15  16
ATOM     16  C   UNL     1     -17.383  45.680  -5.928  1.00  0.00    -0.000 C 
BRANCH  16  17
ATOM     17  C   UNL     1     -15.877  45.430  -6.094  1.00  0.00    -0.003 C 
ATOM     18  C   UNL     1     -15.062  46.589  -5.524  1.00  0.00     0.004 C 
ENDBRANCH  16  17
ENDBRANCH  15  16
ENDBRANCH  14  15
ENDBRANCH  13  14
ENDBRANCH  12  13
ENDBRANCH  11  12
ENDBRANCH   1  11
TORSDOF 14
ENDMDL
MODEL 5
REMARK VINA RESULT:    -4.031      1.828      4.361
REMARK INTER + INTRA:          -9.712
REMARK INTER:                  -7.124
REMARK INTRA:                  -2.588
REMARK UNBOUND:                -2.382
REMARK SMILES CCCCCCCCCCCCCCCC(=O)[O-]
REMARK SMILES IDX 9 1 10 2 11 3 12 4 13 5 14 6 15 7 16 8 17 9 18 10 8 11 7 12
REMARK SMILES IDX 6 13 5 14 4 15 3 16 2 17 1 18
REMARK H PARENT
REMARK Flexibility Score: inf
ROOT
ATOM      1  C   UNL     1     -19.752  45.781  -6.750  1.00  0.00     0.000 C 
ENDROOT
BRANCH   1   2
ATOM      2  C   UNL     1     -19.324  44.342  -6.424  1.00  0.00     0.000 C 
BRANCH   2   3
ATOM      3  C   UNL     1     -17.899  44.309  -5.858  1.00  0.00     0.000 C 
BRANCH   3   4
ATOM      4  C   UNL     1     -16.909  43.752  -6.889  1.00  0.00     0.000 C 
BRANCH   4   5
ATOM      5  C   UNL     1     -17.648  43.025  -8.023  1.00  0.00     0.000 C 
BRANCH   5   6
ATOM      6  C   UNL     1     -17.307  43.590  -9.415  1.00  0.00     0.006 C 
BRANCH   6   7
ATOM      7  C   UNL     1     -18.377  43.322 -10.486  1.00  0.00     0.053 C 
BRANCH   7   8
ATOM      8  C   UNL     1     -19.732  43.795 -10.057  1.00  0.00     0.041 C 
ATOM      9  O   UNL     1     -20.580  42.975  -9.617  1.00  0.00    -0.550 OA
ATOM     10  O   UNL     1     -20.071  45.137 -10.176  1.00  0.00    -0.550 OA
ENDBRANCH   7   8
ENDBRANCH   6   7
ENDBRANCH   5   6
ENDBRANCH   4   5
ENDBRANCH   3   4
ENDBRANCH   2   3
ENDBRANCH   1   2
BRANCH   1  11
ATOM     11  C   UNL     1     -18.783  46.832  -6.184  1.00  0.00     0.000 C 
BRANCH  11  12
ATOM     12  C   UNL     1     -18.264  47.799  -7.261  1.00  0.00    -0.000 C 
BRANCH  12  13
ATOM     13  C   UNL     1     -17.689  47.067  -8.485  1.00  0.00    -0.000 C 
BRANCH  13  14
ATOM     14  C   UNL     1     -16.270  47.532  -8.843  1.00  0.00    -0.000 C 
BRANCH  14  15
ATOM     15  C   UNL     1     -15.219  46.544  -8.314  1.00  0.00    -0.000 C 
BRANCH  15  16
ATOM     16  C   UNL     1     -14.271  47.181  -7.286  1.00  0.00    -0.000 C 
BRANCH  16  17
ATOM     17  C   UNL     1     -14.237  46.413  -5.956  1.00  0.00    -0.003 C 
ATOM     18  C   UNL     1     -15.348  46.885  -5.022  1.00  0.00     0.004 C 
ENDBRANCH  16  17
ENDBRANCH  15  16
ENDBRANCH  14  15
ENDBRANCH  13  14
ENDBRANCH  12  13
ENDBRANCH  11  12
ENDBRANCH   1  11
TORSDOF 14
ENDMDL
MODEL 6
REMARK VINA RESULT:    -3.931      1.215      4.192
REMARK INTER + INTRA:          -9.530
REMARK INTER:                  -7.389
REMARK INTRA:                  -2.141
REMARK UNBOUND:                -2.382
REMARK SMILES CCCCCCCCCCCCCCCC(=O)[O-]
REMARK SMILES IDX 9 1 10 2 11 3 12 4 13 5 14 6 15 7 16 8 17 9 18 10 8 11 7 12
REMARK SMILES IDX 6 13 5 14 4 15 3 16 2 17 1 18
REMARK H PARENT
REMARK Flexibility Score: inf
ROOT
ATOM      1  C   UNL     1     -19.797  45.681  -6.993  1.00  0.00     0.000 C 
ENDROOT
BRANCH   1   2
ATOM      2  C   UNL     1     -20.750  45.319  -8.143  1.00  0.00     0.000 C 
BRANCH   2   3
ATOM      3  C   UNL     1     -20.621  43.836  -8.515  1.00  0.00     0.000 C 
BRANCH   3   4
ATOM      4  C   UNL     1     -20.162  43.670  -9.969  1.00  0.00     0.000 C 
BRANCH   4   5
ATOM      5  C   UNL     1     -18.782  42.999 -10.036  1.00  0.00     0.000 C 
BRANCH   5   6
ATOM      6  C   UNL     1     -17.694  43.928 -10.605  1.00  0.00     0.006 C 
BRANCH   6   7
ATOM      7  C   UNL     1     -18.114  45.403 -10.714  1.00  0.00     0.053 C 
BRANCH   7   8
ATOM      8  C   UNL     1     -17.104  46.322 -10.098  1.00  0.00     0.041 C 
ATOM      9  O   UNL     1     -15.879  46.180 -10.354  1.00  0.00    -0.550 OA
ATOM     10  O   UNL     1     -17.512  47.314  -9.215  1.00  0.00    -0.550 OA
ENDBRANCH   7   8
ENDBRANCH   6   7
ENDBRANCH   5   6
ENDBRANCH   4   5
ENDBRANCH   3   4
ENDBRANCH   2   3
ENDBRANCH   1   2
BRANCH   1  11
ATOM     11  C   UNL     1     -19.715  44.581  -5.922  1.00  0.00     0.000 C 
BRANCH  11  12
ATOM     12  C   UNL     1     -18.265  44.221  -5.556  1.00  0.00    -0.000 C 
BRANCH  12  13
ATOM     13  C   UNL     1     -17.519  43.530  -6.709  1.00  0.00    -0.000 C 
BRANCH  13  14
ATOM     14  C   UNL     1     -16.324  44.349  -7.218  1.00  0.00    -0.000 C 
BRANCH  14  15
ATOM     15  C   UNL     1     -16.035  45.536  -6.286  1.00  0.00    -0.000 C 
BRANCH  15  16
ATOM     16  C   UNL     1     -14.991  46.504  -6.866  1.00  0.00    -0.000 C 
BRANCH  16  17
ATOM     17  C   UNL     1     -13.875  46.839  -5.865  1.00  0.00    -0.003 C 
ATOM     18  C   UNL     1     -14.150  46.204  -4.504  1.00  0.00     0.004 C 
ENDBRANCH  16  17
ENDBRANCH  15  16
ENDBRANCH  14  15
ENDBRANCH  13  14
ENDBRANCH  12  13
ENDBRANCH  11  12
ENDBRANCH   1  11
TORSDOF 14
ENDMDL
MODEL 7
REMARK VINA RESULT:    -3.914      1.436      3.062
REMARK INTER + INTRA:          -9.499
REMARK INTER:                  -6.932
REMARK INTRA:                  -2.566
REMARK UNBOUND:                -2.382
REMARK SMILES CCCCCCCCCCCCCCCC(=O)[O-]
REMARK SMILES IDX 9 1 10 2 11 3 12 4 13 5 14 6 15 7 16 8 17 9 18 10 8 11 7 12
REMARK SMILES IDX 6 13 5 14 4 15 3 16 2 17 1 18
REMARK H PARENT
REMARK Flexibility Score: inf
ROOT
ATOM      1  C   UNL     1     -18.226  43.881  -5.846  1.00  0.00     0.000 C 
ENDROOT
BRANCH   1   2
ATOM      2  C   UNL     1     -19.446  44.812  -5.900  1.00  0.00     0.000 C 
BRANCH   2   3
ATOM      3  C   UNL     1     -19.023  46.279  -5.753  1.00  0.00     0.000 C 
BRANCH   3   4
ATOM      4  C   UNL     1     -19.303  47.066  -7.039  1.00  0.00     0.000 C 
BRANCH   4   5
ATOM      5  C   UNL     1     -18.006  47.641  -7.626  1.00  0.00     0.000 C 
BRANCH   5   6
ATOM      6  C   UNL     1     -17.663  47.053  -9.007  1.00  0.00     0.006 C 
BRANCH   6   7
ATOM      7  C   UNL     1     -16.633  47.869  -9.805  1.00  0.00     0.053 C 
BRANCH   7   8
ATOM      8  C   UNL     1     -15.231  47.603  -9.349  1.00  0.00     0.041 C 
ATOM      9  O   UNL     1     -14.609  48.467  -8.676  1.00  0.00    -0.550 OA
ATOM     10  O   UNL     1     -14.599  46.416  -9.696  1.00  0.00    -0.550 OA
ENDBRANCH   7   8
ENDBRANCH   6   7
ENDBRANCH   5   6
ENDBRANCH   4   5
ENDBRANCH   3   4
ENDBRANCH   2   3
ENDBRANCH   1   2
BRANCH   1  11
ATOM     11  C   UNL     1     -16.893  44.647  -5.854  1.00  0.00     0.000 C 
BRANCH  11  12
ATOM     12  C   UNL     1     -16.120  44.473  -7.172  1.00  0.00    -0.000 C 
BRANCH  12  13
ATOM     13  C   UNL     1     -16.647  43.301  -8.016  1.00  0.00    -0.000 C 
BRANCH  13  14
ATOM     14  C   UNL     1     -16.604  43.587  -9.524  1.00  0.00    -0.000 C 
BRANCH  14  15
ATOM     15  C   UNL     1     -17.998  43.433 -10.152  1.00  0.00    -0.000 C 
BRANCH  15  16
ATOM     16  C   UNL     1     -18.953  42.603  -9.280  1.00  0.00    -0.000 C 
BRANCH  16  17
ATOM     17  C   UNL     1     -20.406  43.092  -9.362  1.00  0.00    -0.003 C 
ATOM     18  C   UNL     1     -20.470  44.616  -9.423  1.00  0.00     0.004 C 
ENDBRANCH  16  17
ENDBRANCH  15  16
ENDBRANCH  14  15
ENDBRANCH  13  14
ENDBRANCH  12  13
ENDBRANCH  11  12
ENDBRANCH   1  11
TORSDOF 14
ENDMDL
MODEL 8
REMARK VINA RESULT:    -3.896      1.841      3.356
REMARK INTER + INTRA:          -9.467
REMARK INTER:                  -6.842
REMARK INTRA:                  -2.625
REMARK UNBOUND:                -2.382
REMARK SMILES CCCCCCCCCCCCCCCC(=O)[O-]
REMARK SMILES IDX 9 1 10 2 11 3 12 4 13 5 14 6 15 7 16 8 17 9 18 10 8 11 7 12
REMARK SMILES IDX 6 13 5 14 4 15 3 16 2 17 1 18
REMARK H PARENT
REMARK Flexibility Score: inf
ROOT
ATOM      1  C   UNL     1     -20.647  43.590  -8.818  1.00  0.00     0.000 C 
ENDROOT
BRANCH   1   2
ATOM      2  C   UNL     1     -20.714  44.866  -7.965  1.00  0.00     0.000 C 
BRANCH   2   3
ATOM      3  C   UNL     1     -20.398  44.560  -6.496  1.00  0.00     0.000 C 
BRANCH   3   4
ATOM      4  C   UNL     1     -19.259  45.449  -5.980  1.00  0.00     0.000 C 
BRANCH   4   5
ATOM      5  C   UNL     1     -18.994  46.616  -6.942  1.00  0.00     0.000 C 
BRANCH   5   6
ATOM      6  C   UNL     1     -17.589  47.224  -6.769  1.00  0.00     0.006 C 
BRANCH   6   7
ATOM      7  C   UNL     1     -16.846  46.755  -5.507  1.00  0.00     0.053 C 
BRANCH   7   8
ATOM      8  C   UNL     1     -15.370  46.639  -5.735  1.00  0.00     0.041 C 
ATOM      9  O   UNL     1     -14.621  46.201  -4.823  1.00  0.00    -0.550 OA
ATOM     10  O   UNL     1     -14.818  47.047  -6.943  1.00  0.00    -0.550 OA
ENDBRANCH   7   8
ENDBRANCH   6   7
ENDBRANCH   5   6
ENDBRANCH   4   5
ENDBRANCH   3   4
ENDBRANCH   2   3
ENDBRANCH   1   2
BRANCH   1  11
ATOM     11  C   UNL     1     -20.263  43.872 -10.280  1.00  0.00     0.000 C 
BRANCH  11  12
ATOM     12  C   UNL     1     -19.773  45.313 -10.494  1.00  0.00    -0.000 C 
BRANCH  12  13
ATOM     13  C   UNL     1     -18.270  45.386 -10.809  1.00  0.00    -0.000 C 
BRANCH  13  14
ATOM     14  C   UNL     1     -17.661  44.012 -11.124  1.00  0.00    -0.000 C 
BRANCH  14  15
ATOM     15  C   UNL     1     -16.392  43.771 -10.292  1.00  0.00    -0.000 C 
BRANCH  15  16
ATOM     16  C   UNL     1     -16.348  44.625  -9.015  1.00  0.00    -0.000 C 
BRANCH  16  17
ATOM     17  C   UNL     1     -16.543  43.791  -7.740  1.00  0.00    -0.003 C 
ATOM     18  C   UNL     1     -17.252  42.475  -8.047  1.00  0.00     0.004 C 
ENDBRANCH  16  17
ENDBRANCH  15  16
ENDBRANCH  14  15
ENDBRANCH  13  14
ENDBRANCH  12  13
ENDBRANCH  11  12
ENDBRANCH   1  11
TORSDOF 14
ENDMDL
MODEL 9
REMARK VINA RESULT:    -3.877      1.269      1.671
REMARK INTER + INTRA:          -9.433
REMARK INTER:                  -6.768
REMARK INTRA:                  -2.665
REMARK UNBOUND:                -2.382
REMARK SMILES CCCCCCCCCCCCCCCC(=O)[O-]
REMARK SMILES IDX 9 1 10 2 11 3 12 4 13 5 14 6 15 7 16 8 17 9 18 10 8 11 7 12
REMARK SMILES IDX 6 13 5 14 4 15 3 16 2 17 1 18
REMARK H PARENT
REMARK Flexibility Score: inf
ROOT
ATOM      1  C   UNL     1     -19.515  44.786  -5.859  1.00  0.00     0.000 C 
ENDROOT
BRANCH   1   2
ATOM      2  C   UNL     1     -18.861  46.151  -6.123  1.00  0.00     0.000 C 
BRANCH   2   3
ATOM      3  C   UNL     1     -17.348  46.089  -5.879  1.00  0.00     0.000 C 
BRANCH   3   4
ATOM      4  C   UNL     1     -16.577  46.747  -7.030  1.00  0.00     0.000 C 
BRANCH   4   5
ATOM      5  C   UNL     1     -17.509  47.052  -8.212  1.00  0.00     0.000 C 
BRANCH   5   6
ATOM      6  C   UNL     1     -16.872  48.001  -9.245  1.00  0.00     0.006 C 
BRANCH   6   7
ATOM      7  C   UNL     1     -16.460  47.320 -10.561  1.00  0.00     0.053 C 
BRANCH   7   8
ATOM      8  C   UNL     1     -15.147  46.609 -10.439  1.00  0.00     0.041 C 
ATOM      9  O   UNL     1     -14.222  47.102  -9.740  1.00  0.00    -0.550 OA
ATOM     10  O   UNL     1     -14.932  45.420 -11.125  1.00  0.00    -0.550 OA
ENDBRANCH   7   8
ENDBRANCH   6   7
ENDBRANCH   5   6
ENDBRANCH   4   5
ENDBRANCH   3   4
ENDBRANCH   2   3
ENDBRANCH   1   2
BRANCH   1  11
ATOM     11  C   UNL     1     -20.625  44.453  -6.871  1.00  0.00     0.000 C 
BRANCH  11  12
ATOM     12  C   UNL     1     -20.604  45.382  -8.096  1.00  0.00    -0.000 C 
BRANCH  12  13
ATOM     13  C   UNL     1     -20.211  44.647  -9.388  1.00  0.00    -0.000 C 
BRANCH  13  14
ATOM     14  C   UNL     1     -20.251  43.119  -9.239  1.00  0.00    -0.000 C 
BRANCH  14  15
ATOM     15  C   UNL     1     -18.835  42.525  -9.292  1.00  0.00    -0.000 C 
BRANCH  15  16
ATOM     16  C   UNL     1     -17.766  43.571  -9.645  1.00  0.00    -0.000 C 
BRANCH  16  17
ATOM     17  C   UNL     1     -16.557  43.524  -8.699  1.00  0.00    -0.003 C 
ATOM     18  C   UNL     1     -16.884  42.742  -7.429  1.00  0.00     0.004 C 
ENDBRANCH  16  17
ENDBRANCH  15  16
ENDBRANCH  14  15
ENDBRANCH  13  14
ENDBRANCH  12  13
ENDBRANCH  11  12
ENDBRANCH   1  11
TORSDOF 14
ENDMDL
