MODEL 1
REMARK VINA RESULT:    -4.074      0.000      0.000
REMARK INTER + INTRA:         -11.575
REMARK INTER:                  -9.314
REMARK INTRA:                  -2.260
REMARK UNBOUND:                -2.260
REMARK SMILES CCCCCCCCCCCCCCCCCCCCCCCC(=O)[O-]
REMARK SMILES IDX 13 1 14 2 15 3 16 4 17 5 18 6 19 7 20 8 21 9 22 10 23 11
REMARK SMILES IDX 24 12 25 13 26 14 12 15 11 16 10 17 9 18 8 19 7 20 6 21 5 22
REMARK SMILES IDX 4 23 3 24 2 25 1 26
REMARK H PARENT
REMARK Flexibility Score: inf
ROOT
ATOM      1  C   UNL     1      84.254 123.775 128.623  1.00  0.00     0.000 C 
ENDROOT
BRANCH   1   2
ATOM      2  C   UNL     1      83.188 123.115 129.511  1.00  0.00     0.000 C 
BRANCH   2   3
ATOM      3  C   UNL     1      83.440 123.335 131.011  1.00  0.00     0.000 C 
BRANCH   3   4
ATOM      4  C   UNL     1      82.209 123.896 131.744  1.00  0.00     0.000 C 
BRANCH   4   5
ATOM      5  C   UNL     1      82.581 124.689 133.009  1.00  0.00     0.000 C 
BRANCH   5   6
ATOM      6  C   UNL     1      82.525 126.224 132.860  1.00  0.00     0.000 C 
BRANCH   6   7
ATOM      7  C   UNL     1      83.632 126.839 131.978  1.00  0.00     0.000 C 
BRANCH   7   8
ATOM      8  C   UNL     1      83.201 127.174 130.539  1.00  0.00     0.000 C 
BRANCH   8   9
ATOM      9  C   UNL     1      83.221 128.684 130.249  1.00  0.00     0.000 C 
BRANCH   9  10
ATOM     10  C   UNL     1      82.907 129.534 131.494  1.00  0.00     0.006 C 
BRANCH  10  11
ATOM     11  C   UNL     1      82.191 130.860 131.187  1.00  0.00     0.053 C 
BRANCH  11  12
ATOM     12  C   UNL     1      82.944 132.040 131.717  1.00  0.00     0.041 C 
ATOM     13  O   UNL     1      82.570 133.209 131.437  1.00  0.00    -0.550 OA
ATOM     14  O   UNL     1      84.077 131.850 132.498  1.00  0.00    -0.550 OA
ENDBRANCH  11  12
ENDBRANCH  10  11
ENDBRANCH   9  10
ENDBRANCH   8   9
ENDBRANCH   7   8
ENDBRANCH   6   7
ENDBRANCH   5   6
ENDBRANCH   4   5
ENDBRANCH   3   4
ENDBRANCH   2   3
ENDBRANCH   1   2
BRANCH   1  15
ATOM     15  C   UNL     1      83.614 124.749 127.627  1.00  0.00     0.000 C 
BRANCH  15  16
ATOM     16  C   UNL     1      83.702 124.204 126.194  1.00  0.00     0.000 C 
BRANCH  16  17
ATOM     17  C   UNL     1      83.377 122.704 126.113  1.00  0.00     0.000 C 
BRANCH  17  18
ATOM     18  C   UNL     1      84.452 121.906 125.353  1.00  0.00    -0.000 C 
BRANCH  18  19
ATOM     19  C   UNL     1      84.625 120.478 125.912  1.00  0.00    -0.000 C 
BRANCH  19  20
ATOM     20  C   UNL     1      84.672 120.419 127.450  1.00  0.00    -0.000 C 
BRANCH  20  21
ATOM     21  C   UNL     1      85.199 119.078 127.980  1.00  0.00    -0.000 C 
BRANCH  21  22
ATOM     22  C   UNL     1      85.766 119.229 129.399  1.00  0.00    -0.000 C 
BRANCH  22  23
ATOM     23  C   UNL     1      86.071 120.691 129.761  1.00  0.00    -0.000 C 
BRANCH  23  24
ATOM     24  C   UNL     1      87.008 120.821 130.972  1.00  0.00    -0.000 C 
BRANCH  24  25
ATOM     25  C   UNL     1      86.219 121.152 132.244  1.00  0.00    -0.003 C 
ATOM     26  C   UNL     1      85.262 120.020 132.609  1.00  0.00     0.004 C 
ENDBRANCH  24  25
ENDBRANCH  23  24
ENDBRANCH  22  23
ENDBRANCH  21  22
ENDBRANCH  20  21
ENDBRANCH  19  20
ENDBRANCH  18  19
ENDBRANCH  17  18
ENDBRANCH  16  17
ENDBRANCH  15  16
ENDBRANCH   1  15
TORSDOF 22
ENDMDL
MODEL 2
REMARK VINA RESULT:    -3.868      1.232      2.155
REMARK INTER + INTRA:         -11.103
REMARK INTER:                  -8.557
REMARK INTRA:                  -2.546
REMARK UNBOUND:                -2.260
REMARK SMILES CCCCCCCCCCCCCCCCCCCCCCCC(=O)[O-]
REMARK SMILES IDX 13 1 14 2 15 3 16 4 17 5 18 6 19 7 20 8 21 9 22 10 23 11
REMARK SMILES IDX 24 12 25 13 26 14 12 15 11 16 10 17 9 18 8 19 7 20 6 21 5 22
REMARK SMILES IDX 4 23 3 24 2 25 1 26
REMARK H PARENT
REMARK Flexibility Score: inf
ROOT
ATOM      1  C   UNL     1      83.707 124.146 129.281  1.00  0.00     0.000 C 
ENDROOT
BRANCH   1   2
ATOM      2  C   UNL     1      82.642 123.574 130.230  1.00  0.00     0.000 C 
BRANCH   2   3
ATOM      3  C   UNL     1      82.973 123.809 131.712  1.00  0.00     0.000 C 
BRANCH   3   4
ATOM      4  C   UNL     1      81.875 124.595 132.448  1.00  0.00     0.000 C 
BRANCH   4   5
ATOM      5  C   UNL     1      82.254 126.069 132.681  1.00  0.00     0.000 C 
BRANCH   5   6
ATOM      6  C   UNL     1      83.445 126.580 131.843  1.00  0.00     0.000 C 
BRANCH   6   7
ATOM      7  C   UNL     1      83.064 127.361 130.568  1.00  0.00     0.000 C 
BRANCH   7   8
ATOM      8  C   UNL     1      83.955 128.580 130.266  1.00  0.00     0.000 C 
BRANCH   8   9
ATOM      9  C   UNL     1      84.589 129.180 131.532  1.00  0.00     0.000 C 
BRANCH   9  10
ATOM     10  C   UNL     1      83.543 129.750 132.508  1.00  0.00     0.006 C 
BRANCH  10  11
ATOM     11  C   UNL     1      82.623 130.817 131.893  1.00  0.00     0.053 C 
BRANCH  11  12
ATOM     12  C   UNL     1      83.209 132.191 131.994  1.00  0.00     0.041 C 
ATOM     13  O   UNL     1      82.703 133.145 131.348  1.00  0.00    -0.550 OA
ATOM     14  O   UNL     1      84.334 132.412 132.779  1.00  0.00    -0.550 OA
ENDBRANCH  11  12
ENDBRANCH  10  11
ENDBRANCH   9  10
ENDBRANCH   8   9
ENDBRANCH   7   8
ENDBRANCH   6   7
ENDBRANCH   5   6
ENDBRANCH   4   5
ENDBRANCH   3   4
ENDBRANCH   2   3
ENDBRANCH   1   2
BRANCH   1  15
ATOM     15  C   UNL     1      83.108 124.457 127.905  1.00  0.00     0.000 C 
BRANCH  15  16
ATOM     16  C   UNL     1      84.146 124.241 126.794  1.00  0.00     0.000 C 
BRANCH  16  17
ATOM     17  C   UNL     1      83.519 123.718 125.492  1.00  0.00     0.000 C 
BRANCH  17  18
ATOM     18  C   UNL     1      84.528 122.954 124.615  1.00  0.00    -0.000 C 
BRANCH  18  19
ATOM     19  C   UNL     1      84.354 121.424 124.722  1.00  0.00    -0.000 C 
BRANCH  19  20
ATOM     20  C   UNL     1      82.898 120.984 124.957  1.00  0.00    -0.000 C 
BRANCH  20  21
ATOM     21  C   UNL     1      82.774 119.495 125.312  1.00  0.00    -0.000 C 
BRANCH  21  22
ATOM     22  C   UNL     1      83.249 119.227 126.747  1.00  0.00    -0.000 C 
BRANCH  22  23
ATOM     23  C   UNL     1      82.575 120.152 127.774  1.00  0.00    -0.000 C 
BRANCH  23  24
ATOM     24  C   UNL     1      83.483 120.470 128.973  1.00  0.00    -0.000 C 
BRANCH  24  25
ATOM     25  C   UNL     1      84.933 120.683 128.521  1.00  0.00    -0.003 C 
ATOM     26  C   UNL     1      85.858 120.885 129.718  1.00  0.00     0.004 C 
ENDBRANCH  24  25
ENDBRANCH  23  24
ENDBRANCH  22  23
ENDBRANCH  21  22
ENDBRANCH  20  21
ENDBRANCH  19  20
ENDBRANCH  18  19
ENDBRANCH  17  18
ENDBRANCH  16  17
ENDBRANCH  15  16
ENDBRANCH   1  15
TORSDOF 22
ENDMDL
MODEL 3
REMARK VINA RESULT:    -3.858      1.428      2.547
REMARK INTER + INTRA:         -11.081
REMARK INTER:                  -8.098
REMARK INTRA:                  -2.983
REMARK UNBOUND:                -2.260
REMARK SMILES CCCCCCCCCCCCCCCCCCCCCCCC(=O)[O-]
REMARK SMILES IDX 13 1 14 2 15 3 16 4 17 5 18 6 19 7 20 8 21 9 22 10 23 11
REMARK SMILES IDX 24 12 25 13 26 14 12 15 11 16 10 17 9 18 8 19 7 20 6 21 5 22
REMARK SMILES IDX 4 23 3 24 2 25 1 26
REMARK H PARENT
REMARK Flexibility Score: inf
ROOT
ATOM      1  C   UNL     1      84.730 123.373 125.937  1.00  0.00     0.000 C 
ENDROOT
BRANCH   1   2
ATOM      2  C   UNL     1      84.542 123.946 127.351  1.00  0.00     0.000 C 
BRANCH   2   3
ATOM      3  C   UNL     1      83.268 123.431 128.040  1.00  0.00     0.000 C 
BRANCH   3   4
ATOM      4  C   UNL     1      82.405 124.565 128.616  1.00  0.00     0.000 C 
BRANCH   4   5
ATOM      5  C   UNL     1      82.078 124.365 130.107  1.00  0.00     0.000 C 
BRANCH   5   6
ATOM      6  C   UNL     1      83.215 123.749 130.950  1.00  0.00     0.000 C 
BRANCH   6   7
ATOM      7  C   UNL     1      83.396 124.359 132.355  1.00  0.00     0.000 C 
BRANCH   7   8
ATOM      8  C   UNL     1      82.188 125.159 132.874  1.00  0.00     0.000 C 
BRANCH   8   9
ATOM      9  C   UNL     1      82.479 126.665 132.992  1.00  0.00     0.000 C 
BRANCH   9  10
ATOM     10  C   UNL     1      83.868 127.047 132.450  1.00  0.00     0.006 C 
BRANCH  10  11
ATOM     11  C   UNL     1      83.833 127.899 131.170  1.00  0.00     0.053 C 
BRANCH  11  12
ATOM     12  C   UNL     1      83.933 129.363 131.467  1.00  0.00     0.041 C 
ATOM     13  O   UNL     1      83.085 130.165 130.995  1.00  0.00    -0.550 OA
ATOM     14  O   UNL     1      84.980 129.846 132.241  1.00  0.00    -0.550 OA
ENDBRANCH  11  12
ENDBRANCH  10  11
ENDBRANCH   9  10
ENDBRANCH   8   9
ENDBRANCH   7   8
ENDBRANCH   6   7
ENDBRANCH   5   6
ENDBRANCH   4   5
ENDBRANCH   3   4
ENDBRANCH   2   3
ENDBRANCH   1   2
BRANCH   1  15
ATOM     15  C   UNL     1      83.455 123.541 125.102  1.00  0.00     0.000 C 
BRANCH  15  16
ATOM     16  C   UNL     1      83.167 122.273 124.284  1.00  0.00     0.000 C 
BRANCH  16  17
ATOM     17  C   UNL     1      82.136 121.356 124.961  1.00  0.00     0.000 C 
BRANCH  17  18
ATOM     18  C   UNL     1      82.449 119.862 124.755  1.00  0.00    -0.000 C 
BRANCH  18  19
ATOM     19  C   UNL     1      82.597 119.106 126.092  1.00  0.00    -0.000 C 
BRANCH  19  20
ATOM     20  C   UNL     1      83.285 119.932 127.194  1.00  0.00    -0.000 C 
BRANCH  20  21
ATOM     21  C   UNL     1      84.817 119.860 127.126  1.00  0.00    -0.000 C 
BRANCH  21  22
ATOM     22  C   UNL     1      85.404 119.301 128.430  1.00  0.00    -0.000 C 
BRANCH  22  23
ATOM     23  C   UNL     1      85.013 120.137 129.660  1.00  0.00    -0.000 C 
BRANCH  23  24
ATOM     24  C   UNL     1      86.086 121.168 130.043  1.00  0.00    -0.000 C 
BRANCH  24  25
ATOM     25  C   UNL     1      86.735 120.812 131.385  1.00  0.00    -0.003 C 
ATOM     26  C   UNL     1      85.757 120.065 132.288  1.00  0.00     0.004 C 
ENDBRANCH  24  25
ENDBRANCH  23  24
ENDBRANCH  22  23
ENDBRANCH  21  22
ENDBRANCH  20  21
ENDBRANCH  19  20
ENDBRANCH  18  19
ENDBRANCH  17  18
ENDBRANCH  16  17
ENDBRANCH  15  16
ENDBRANCH   1  15
TORSDOF 22
ENDMDL
MODEL 4
REMARK VINA RESULT:    -3.770      3.367      8.656
REMARK INTER + INTRA:         -10.880
REMARK INTER:                  -8.928
REMARK INTRA:                  -1.952
REMARK UNBOUND:                -2.260
REMARK SMILES CCCCCCCCCCCCCCCCCCCCCCCC(=O)[O-]
REMARK SMILES IDX 13 1 14 2 15 3 16 4 17 5 18 6 19 7 20 8 21 9 22 10 23 11
REMARK SMILES IDX 24 12 25 13 26 14 12 15 11 16 10 17 9 18 8 19 7 20 6 21 5 22
REMARK SMILES IDX 4 23 3 24 2 25 1 26
REMARK H PARENT
REMARK Flexibility Score: inf
ROOT
ATOM      1  C   UNL     1      84.028 124.098 125.611  1.00  0.00     0.000 C 
ENDROOT
BRANCH   1   2
ATOM      2  C   UNL     1      82.762 123.253 125.400  1.00  0.00     0.000 C 
BRANCH   2   3
ATOM      3  C   UNL     1      82.889 122.271 124.224  1.00  0.00     0.000 C 
BRANCH   3   4
ATOM      4  C   UNL     1      83.479 120.915 124.644  1.00  0.00     0.000 C 
BRANCH   4   5
ATOM      5  C   UNL     1      82.950 120.432 126.006  1.00  0.00     0.000 C 
BRANCH   5   6
ATOM      6  C   UNL     1      83.574 119.118 126.522  1.00  0.00     0.000 C 
BRANCH   6   7
ATOM      7  C   UNL     1      84.696 119.290 127.568  1.00  0.00     0.000 C 
BRANCH   7   8
ATOM      8  C   UNL     1      84.229 119.225 129.034  1.00  0.00     0.000 C 
BRANCH   8   9
ATOM      9  C   UNL     1      84.005 120.617 129.648  1.00  0.00     0.000 C 
BRANCH   9  10
ATOM     10  C   UNL     1      84.773 120.816 130.967  1.00  0.00     0.006 C 
BRANCH  10  11
ATOM     11  C   UNL     1      86.232 120.335 130.925  1.00  0.00     0.053 C 
BRANCH  11  12
ATOM     12  C   UNL     1      87.094 121.225 130.084  1.00  0.00     0.041 C 
ATOM     13  O   UNL     1      88.345 121.214 130.225  1.00  0.00    -0.550 OA
ATOM     14  O   UNL     1      86.513 122.090 129.165  1.00  0.00    -0.550 OA
ENDBRANCH  11  12
ENDBRANCH  10  11
ENDBRANCH   9  10
ENDBRANCH   8   9
ENDBRANCH   7   8
ENDBRANCH   6   7
ENDBRANCH   5   6
ENDBRANCH   4   5
ENDBRANCH   3   4
ENDBRANCH   2   3
ENDBRANCH   1   2
BRANCH   1  15
ATOM     15  C   UNL     1      84.486 124.046 127.074  1.00  0.00     0.000 C 
BRANCH  15  16
ATOM     16  C   UNL     1      83.282 123.938 128.020  1.00  0.00     0.000 C 
BRANCH  16  17
ATOM     17  C   UNL     1      83.330 124.970 129.158  1.00  0.00     0.000 C 
BRANCH  17  18
ATOM     18  C   UNL     1      83.372 124.314 130.550  1.00  0.00    -0.000 C 
BRANCH  18  19
ATOM     19  C   UNL     1      82.748 125.213 131.639  1.00  0.00    -0.000 C 
BRANCH  19  20
ATOM     20  C   UNL     1      83.789 125.933 132.515  1.00  0.00    -0.000 C 
BRANCH  20  21
ATOM     21  C   UNL     1      83.445 127.409 132.761  1.00  0.00    -0.000 C 
BRANCH  21  22
ATOM     22  C   UNL     1      83.638 128.241 131.485  1.00  0.00    -0.000 C 
BRANCH  22  23
ATOM     23  C   UNL     1      82.304 128.629 130.826  1.00  0.00    -0.000 C 
BRANCH  23  24
ATOM     24  C   UNL     1      82.097 130.150 130.753  1.00  0.00    -0.000 C 
BRANCH  24  25
ATOM     25  C   UNL     1      82.847 130.860 131.885  1.00  0.00    -0.003 C 
ATOM     26  C   UNL     1      82.814 132.374 131.702  1.00  0.00     0.004 C 
ENDBRANCH  24  25
ENDBRANCH  23  24
ENDBRANCH  22  23
ENDBRANCH  21  22
ENDBRANCH  20  21
ENDBRANCH  19  20
ENDBRANCH  18  19
ENDBRANCH  17  18
ENDBRANCH  16  17
ENDBRANCH  15  16
ENDBRANCH   1  15
TORSDOF 22
ENDMDL
MODEL 5
REMARK VINA RESULT:    -3.738      1.531      2.262
REMARK INTER + INTRA:         -10.807
REMARK INTER:                  -8.130
REMARK INTRA:                  -2.677
REMARK UNBOUND:                -2.260
REMARK SMILES CCCCCCCCCCCCCCCCCCCCCCCC(=O)[O-]
REMARK SMILES IDX 13 1 14 2 15 3 16 4 17 5 18 6 19 7 20 8 21 9 22 10 23 11
REMARK SMILES IDX 24 12 25 13 26 14 12 15 11 16 10 17 9 18 8 19 7 20 6 21 5 22
REMARK SMILES IDX 4 23 3 24 2 25 1 26
REMARK H PARENT
REMARK Flexibility Score: inf
ROOT
ATOM      1  C   UNL     1      84.502 123.928 126.587  1.00  0.00     0.000 C 
ENDROOT
BRANCH   1   2
ATOM      2  C   UNL     1      84.204 124.725 127.867  1.00  0.00     0.000 C 
BRANCH   2   3
ATOM      3  C   UNL     1      82.927 124.255 128.580  1.00  0.00     0.000 C 
BRANCH   3   4
ATOM      4  C   UNL     1      81.978 125.415 128.926  1.00  0.00     0.000 C 
BRANCH   4   5
ATOM      5  C   UNL     1      81.967 125.746 130.429  1.00  0.00     0.000 C 
BRANCH   5   6
ATOM      6  C   UNL     1      83.353 125.765 131.106  1.00  0.00     0.000 C 
BRANCH   6   7
ATOM      7  C   UNL     1      83.463 126.664 132.355  1.00  0.00     0.000 C 
BRANCH   7   8
ATOM      8  C   UNL     1      82.115 127.085 132.969  1.00  0.00     0.000 C 
BRANCH   8   9
ATOM      9  C   UNL     1      81.882 128.604 132.906  1.00  0.00     0.000 C 
BRANCH   9  10
ATOM     10  C   UNL     1      82.946 129.335 132.066  1.00  0.00     0.006 C 
BRANCH  10  11
ATOM     11  C   UNL     1      82.428 130.594 131.351  1.00  0.00     0.053 C 
BRANCH  11  12
ATOM     12  C   UNL     1      83.115 131.835 131.830  1.00  0.00     0.041 C 
ATOM     13  O   UNL     1      84.097 131.754 132.614  1.00  0.00    -0.550 OA
ATOM     14  O   UNL     1      82.653 133.083 131.433  1.00  0.00    -0.550 OA
ENDBRANCH  11  12
ENDBRANCH  10  11
ENDBRANCH   9  10
ENDBRANCH   8   9
ENDBRANCH   7   8
ENDBRANCH   6   7
ENDBRANCH   5   6
ENDBRANCH   4   5
ENDBRANCH   3   4
ENDBRANCH   2   3
ENDBRANCH   1   2
BRANCH   1  15
ATOM     15  C   UNL     1      83.394 124.123 125.547  1.00  0.00     0.000 C 
BRANCH  15  16
ATOM     16  C   UNL     1      83.321 122.922 124.592  1.00  0.00     0.000 C 
BRANCH  16  17
ATOM     17  C   UNL     1      82.384 121.817 125.104  1.00  0.00     0.000 C 
BRANCH  17  18
ATOM     18  C   UNL     1      82.564 120.490 124.344  1.00  0.00    -0.000 C 
BRANCH  18  19
ATOM     19  C   UNL     1      82.931 119.323 125.285  1.00  0.00    -0.000 C 
BRANCH  19  20
ATOM     20  C   UNL     1      83.897 119.722 126.415  1.00  0.00    -0.000 C 
BRANCH  20  21
ATOM     21  C   UNL     1      83.365 119.365 127.810  1.00  0.00    -0.000 C 
BRANCH  21  22
ATOM     22  C   UNL     1      83.130 120.626 128.653  1.00  0.00    -0.000 C 
BRANCH  22  23
ATOM     23  C   UNL     1      84.402 121.096 129.378  1.00  0.00    -0.000 C 
BRANCH  23  24
ATOM     24  C   UNL     1      84.330 120.886 130.899  1.00  0.00    -0.000 C 
BRANCH  24  25
ATOM     25  C   UNL     1      84.104 122.217 131.626  1.00  0.00    -0.003 C 
ATOM     26  C   UNL     1      82.754 122.232 132.338  1.00  0.00     0.004 C 
ENDBRANCH  24  25
ENDBRANCH  23  24
ENDBRANCH  22  23
ENDBRANCH  21  22
ENDBRANCH  20  21
ENDBRANCH  19  20
ENDBRANCH  18  19
ENDBRANCH  17  18
ENDBRANCH  16  17
ENDBRANCH  15  16
ENDBRANCH   1  15
TORSDOF 22
ENDMDL
MODEL 6
REMARK VINA RESULT:    -3.098      4.006      9.171
REMARK INTER + INTRA:          -9.342
REMARK INTER:                  -7.537
REMARK INTRA:                  -1.805
REMARK UNBOUND:                -2.260
REMARK SMILES CCCCCCCCCCCCCCCCCCCCCCCC(=O)[O-]
REMARK SMILES IDX 13 1 14 2 15 3 16 4 17 5 18 6 19 7 20 8 21 9 22 10 23 11
REMARK SMILES IDX 24 12 25 13 26 14 12 15 11 16 10 17 9 18 8 19 7 20 6 21 5 22
REMARK SMILES IDX 4 23 3 24 2 25 1 26
REMARK H PARENT
REMARK Flexibility Score: inf
ROOT
ATOM      1  C   UNL     1      83.729 124.307 126.895  1.00  0.00     0.000 C 
ENDROOT
BRANCH   1   2
ATOM      2  C   UNL     1      82.474 123.420 126.925  1.00  0.00     0.000 C 
BRANCH   2   3
ATOM      3  C   UNL     1      81.931 123.105 125.522  1.00  0.00     0.000 C 
BRANCH   3   4
ATOM      4  C   UNL     1      83.048 122.831 124.500  1.00  0.00     0.000 C 
BRANCH   4   5
ATOM      5  C   UNL     1      82.616 121.849 123.397  1.00  0.00     0.000 C 
BRANCH   5   6
ATOM      6  C   UNL     1      82.969 120.370 123.661  1.00  0.00     0.000 C 
BRANCH   6   7
ATOM      7  C   UNL     1      81.876 119.553 124.382  1.00  0.00     0.000 C 
BRANCH   7   8
ATOM      8  C   UNL     1      82.330 118.875 125.687  1.00  0.00     0.000 C 
BRANCH   8   9
ATOM      9  C   UNL     1      83.272 119.761 126.520  1.00  0.00     0.000 C 
BRANCH   9  10
ATOM     10  C   UNL     1      83.640 119.130 127.875  1.00  0.00     0.006 C 
BRANCH  10  11
ATOM     11  C   UNL     1      84.125 120.139 128.929  1.00  0.00     0.053 C 
BRANCH  11  12
ATOM     12  C   UNL     1      85.220 119.578 129.782  1.00  0.00     0.041 C 
ATOM     13  O   UNL     1      84.946 118.985 130.858  1.00  0.00    -0.550 OA
ATOM     14  O   UNL     1      86.547 119.734 129.402  1.00  0.00    -0.550 OA
ENDBRANCH  11  12
ENDBRANCH  10  11
ENDBRANCH   9  10
ENDBRANCH   8   9
ENDBRANCH   7   8
ENDBRANCH   6   7
ENDBRANCH   5   6
ENDBRANCH   4   5
ENDBRANCH   3   4
ENDBRANCH   2   3
ENDBRANCH   1   2
BRANCH   1  15
ATOM     15  C   UNL     1      84.801 123.775 127.853  1.00  0.00     0.000 C 
BRANCH  15  16
ATOM     16  C   UNL     1      84.210 123.515 129.246  1.00  0.00     0.000 C 
BRANCH  16  17
ATOM     17  C   UNL     1      83.328 124.672 129.739  1.00  0.00     0.000 C 
BRANCH  17  18
ATOM     18  C   UNL     1      82.616 124.349 131.066  1.00  0.00    -0.000 C 
BRANCH  18  19
ATOM     19  C   UNL     1      83.208 125.137 132.253  1.00  0.00    -0.000 C 
BRANCH  19  20
ATOM     20  C   UNL     1      82.145 125.831 133.125  1.00  0.00    -0.000 C 
BRANCH  20  21
ATOM     21  C   UNL     1      82.276 127.361 133.120  1.00  0.00    -0.000 C 
BRANCH  21  22
ATOM     22  C   UNL     1      83.586 127.803 132.453  1.00  0.00    -0.000 C 
BRANCH  22  23
ATOM     23  C   UNL     1      83.384 128.253 130.997  1.00  0.00    -0.000 C 
BRANCH  23  24
ATOM     24  C   UNL     1      83.624 129.758 130.800  1.00  0.00    -0.000 C 
BRANCH  24  25
ATOM     25  C   UNL     1      82.731 130.582 131.733  1.00  0.00    -0.003 C 
ATOM     26  C   UNL     1      83.561 131.523 132.601  1.00  0.00     0.004 C 
ENDBRANCH  24  25
ENDBRANCH  23  24
ENDBRANCH  22  23
ENDBRANCH  21  22
ENDBRANCH  20  21
ENDBRANCH  19  20
ENDBRANCH  18  19
ENDBRANCH  17  18
ENDBRANCH  16  17
ENDBRANCH  15  16
ENDBRANCH   1  15
TORSDOF 22
ENDMDL
MODEL 7
REMARK VINA RESULT:    -2.632      3.863      6.273
REMARK INTER + INTRA:          -8.278
REMARK INTER:                  -6.311
REMARK INTRA:                  -1.967
REMARK UNBOUND:                -2.260
REMARK SMILES CCCCCCCCCCCCCCCCCCCCCCCC(=O)[O-]
REMARK SMILES IDX 13 1 14 2 15 3 16 4 17 5 18 6 19 7 20 8 21 9 22 10 23 11
REMARK SMILES IDX 24 12 25 13 26 14 12 15 11 16 10 17 9 18 8 19 7 20 6 21 5 22
REMARK SMILES IDX 4 23 3 24 2 25 1 26
REMARK H PARENT
REMARK Flexibility Score: inf
ROOT
ATOM      1  C   UNL     1      83.026 124.580 128.972  1.00  0.00     0.000 C 
ENDROOT
BRANCH   1   2
ATOM      2  C   UNL     1      83.314 125.559 130.121  1.00  0.00     0.000 C 
BRANCH   2   3
ATOM      3  C   UNL     1      82.105 125.765 131.047  1.00  0.00     0.000 C 
BRANCH   3   4
ATOM      4  C   UNL     1      82.122 124.825 132.264  1.00  0.00     0.000 C 
BRANCH   4   5
ATOM      5  C   UNL     1      83.179 123.713 132.142  1.00  0.00     0.000 C 
BRANCH   5   6
ATOM      6  C   UNL     1      83.008 122.536 133.125  1.00  0.00     0.000 C 
BRANCH   6   7
ATOM      7  C   UNL     1      82.194 121.341 132.584  1.00  0.00     0.000 C 
BRANCH   7   8
ATOM      8  C   UNL     1      82.808 119.958 132.869  1.00  0.00     0.000 C 
BRANCH   8   9
ATOM      9  C   UNL     1      83.791 119.508 131.775  1.00  0.00     0.000 C 
BRANCH   9  10
ATOM     10  C   UNL     1      84.966 120.485 131.591  1.00  0.00     0.006 C 
BRANCH  10  11
ATOM     11  C   UNL     1      86.074 119.969 130.658  1.00  0.00     0.053 C 
BRANCH  11  12
ATOM     12  C   UNL     1      86.786 121.086 129.960  1.00  0.00     0.041 C 
ATOM     13  O   UNL     1      88.008 121.294 130.179  1.00  0.00    -0.550 OA
ATOM     14  O   UNL     1      86.093 121.917 129.089  1.00  0.00    -0.550 OA
ENDBRANCH  11  12
ENDBRANCH  10  11
ENDBRANCH   9  10
ENDBRANCH   8   9
ENDBRANCH   7   8
ENDBRANCH   6   7
ENDBRANCH   5   6
ENDBRANCH   4   5
ENDBRANCH   3   4
ENDBRANCH   2   3
ENDBRANCH   1   2
BRANCH   1  15
ATOM     15  C   UNL     1      81.959 125.141 128.025  1.00  0.00     0.000 C 
BRANCH  15  16
ATOM     16  C   UNL     1      81.971 124.393 126.684  1.00  0.00     0.000 C 
BRANCH  16  17
ATOM     17  C   UNL     1      83.393 124.068 126.201  1.00  0.00     0.000 C 
BRANCH  17  18
ATOM     18  C   UNL     1      83.407 123.384 124.822  1.00  0.00    -0.000 C 
BRANCH  18  19
ATOM     19  C   UNL     1      84.356 122.167 124.783  1.00  0.00    -0.000 C 
BRANCH  19  20
ATOM     20  C   UNL     1      84.654 121.572 126.171  1.00  0.00    -0.000 C 
BRANCH  20  21
ATOM     21  C   UNL     1      84.446 120.052 126.228  1.00  0.00    -0.000 C 
BRANCH  21  22
ATOM     22  C   UNL     1      83.094 119.656 125.618  1.00  0.00    -0.000 C 
BRANCH  22  23
ATOM     23  C   UNL     1      82.208 118.877 126.603  1.00  0.00    -0.000 C 
BRANCH  23  24
ATOM     24  C   UNL     1      82.216 119.481 128.016  1.00  0.00    -0.000 C 
BRANCH  24  25
ATOM     25  C   UNL     1      81.898 120.980 127.973  1.00  0.00    -0.003 C 
ATOM     26  C   UNL     1      82.049 121.615 129.352  1.00  0.00     0.004 C 
ENDBRANCH  24  25
ENDBRANCH  23  24
ENDBRANCH  22  23
ENDBRANCH  21  22
ENDBRANCH  20  21
ENDBRANCH  19  20
ENDBRANCH  18  19
ENDBRANCH  17  18
ENDBRANCH  16  17
ENDBRANCH  15  16
ENDBRANCH   1  15
TORSDOF 22
ENDMDL
MODEL 8
REMARK VINA RESULT:    -2.226      2.232      4.966
REMARK INTER + INTRA:          -7.349
REMARK INTER:                  -7.174
REMARK INTRA:                  -0.175
REMARK UNBOUND:                -2.260
REMARK SMILES CCCCCCCCCCCCCCCCCCCCCCCC(=O)[O-]
REMARK SMILES IDX 13 1 14 2 15 3 16 4 17 5 18 6 19 7 20 8 21 9 22 10 23 11
REMARK SMILES IDX 24 12 25 13 26 14 12 15 11 16 10 17 9 18 8 19 7 20 6 21 5 22
REMARK SMILES IDX 4 23 3 24 2 25 1 26
REMARK H PARENT
REMARK Flexibility Score: inf
ROOT
ATOM      1  C   UNL     1      83.688 123.488 130.450  1.00  0.00     0.000 C 
ENDROOT
BRANCH   1   2
ATOM      2  C   UNL     1      83.348 123.424 131.947  1.00  0.00     0.000 C 
BRANCH   2   3
ATOM      3  C   UNL     1      82.575 124.659 132.438  1.00  0.00     0.000 C 
BRANCH   3   4
ATOM      4  C   UNL     1      81.947 125.462 131.287  1.00  0.00     0.000 C 
BRANCH   4   5
ATOM      5  C   UNL     1      82.792 126.685 130.885  1.00  0.00     0.000 C 
BRANCH   5   6
ATOM      6  C   UNL     1      82.759 127.861 131.883  1.00  0.00     0.000 C 
BRANCH   6   7
ATOM      7  C   UNL     1      83.995 127.982 132.798  1.00  0.00     0.000 C 
BRANCH   7   8
ATOM      8  C   UNL     1      85.184 128.743 132.182  1.00  0.00     0.000 C 
BRANCH   8   9
ATOM      9  C   UNL     1      85.189 130.236 132.552  1.00  0.00     0.000 C 
BRANCH   9  10
ATOM     10  C   UNL     1      83.819 130.730 133.051  1.00  0.00     0.006 C 
BRANCH  10  11
ATOM     11  C   UNL     1      83.574 132.232 132.833  1.00  0.00     0.053 C 
BRANCH  11  12
ATOM     12  C   UNL     1      82.724 132.494 131.629  1.00  0.00     0.041 C 
ATOM     13  O   UNL     1      82.638 133.657 131.154  1.00  0.00    -0.550 OA
ATOM     14  O   UNL     1      82.002 131.459 131.048  1.00  0.00    -0.550 OA
ENDBRANCH  11  12
ENDBRANCH  10  11
ENDBRANCH   9  10
ENDBRANCH   8   9
ENDBRANCH   7   8
ENDBRANCH   6   7
ENDBRANCH   5   6
ENDBRANCH   4   5
ENDBRANCH   3   4
ENDBRANCH   2   3
ENDBRANCH   1   2
BRANCH   1  15
ATOM     15  C   UNL     1      84.208 122.136 129.946  1.00  0.00     0.000 C 
BRANCH  15  16
ATOM     16  C   UNL     1      83.051 121.256 129.449  1.00  0.00     0.000 C 
BRANCH  16  17
ATOM     17  C   UNL     1      83.490 119.812 129.159  1.00  0.00     0.000 C 
BRANCH  17  18
ATOM     18  C   UNL     1      84.461 119.718 127.968  1.00  0.00    -0.000 C 
BRANCH  18  19
ATOM     19  C   UNL     1      83.785 120.091 126.632  1.00  0.00    -0.000 C 
BRANCH  19  20
ATOM     20  C   UNL     1      82.616 121.080 126.787  1.00  0.00    -0.000 C 
BRANCH  20  21
ATOM     21  C   UNL     1      82.659 122.222 125.762  1.00  0.00    -0.000 C 
BRANCH  21  22
ATOM     22  C   UNL     1      81.993 121.807 124.442  1.00  0.00    -0.000 C 
BRANCH  22  23
ATOM     23  C   UNL     1      83.008 121.311 123.399  1.00  0.00    -0.000 C 
BRANCH  23  24
ATOM     24  C   UNL     1      82.539 120.042 122.671  1.00  0.00    -0.000 C 
BRANCH  24  25
ATOM     25  C   UNL     1      81.920 120.387 121.312  1.00  0.00    -0.003 C 
ATOM     26  C   UNL     1      82.999 120.640 120.263  1.00  0.00     0.004 C 
ENDBRANCH  24  25
ENDBRANCH  23  24
ENDBRANCH  22  23
ENDBRANCH  21  22
ENDBRANCH  20  21
ENDBRANCH  19  20
ENDBRANCH  18  19
ENDBRANCH  17  18
ENDBRANCH  16  17
ENDBRANCH  15  16
ENDBRANCH   1  15
TORSDOF 22
ENDMDL
MODEL 9
REMARK VINA RESULT:    -1.861      1.543      3.806
REMARK INTER + INTRA:          -6.515
REMARK INTER:                  -4.520
REMARK INTRA:                  -1.995
REMARK UNBOUND:                -2.260
REMARK SMILES CCCCCCCCCCCCCCCCCCCCCCCC(=O)[O-]
REMARK SMILES IDX 13 1 14 2 15 3 16 4 17 5 18 6 19 7 20 8 21 9 22 10 23 11
REMARK SMILES IDX 24 12 25 13 26 14 12 15 11 16 10 17 9 18 8 19 7 20 6 21 5 22
REMARK SMILES IDX 4 23 3 24 2 25 1 26
REMARK H PARENT
REMARK Flexibility Score: inf
ROOT
ATOM      1  C   UNL     1      83.836 123.854 130.368  1.00  0.00     0.000 C 
ENDROOT
BRANCH   1   2
ATOM      2  C   UNL     1      82.760 123.705 131.455  1.00  0.00     0.000 C 
BRANCH   2   3
ATOM      3  C   UNL     1      81.909 124.973 131.632  1.00  0.00     0.000 C 
BRANCH   3   4
ATOM      4  C   UNL     1      81.901 125.863 130.377  1.00  0.00     0.000 C 
BRANCH   4   5
ATOM      5  C   UNL     1      82.977 126.962 130.421  1.00  0.00     0.000 C 
BRANCH   5   6
ATOM      6  C   UNL     1      82.604 128.211 131.247  1.00  0.00     0.000 C 
BRANCH   6   7
ATOM      7  C   UNL     1      83.230 128.279 132.656  1.00  0.00     0.000 C 
BRANCH   7   8
ATOM      8  C   UNL     1      84.559 129.052 132.736  1.00  0.00     0.000 C 
BRANCH   8   9
ATOM      9  C   UNL     1      84.360 130.548 133.036  1.00  0.00     0.000 C 
BRANCH   9  10
ATOM     10  C   UNL     1      82.875 130.944 133.123  1.00  0.00     0.006 C 
BRANCH  10  11
ATOM     11  C   UNL     1      82.594 132.415 132.776  1.00  0.00     0.053 C 
BRANCH  11  12
ATOM     12  C   UNL     1      82.504 132.637 131.298  1.00  0.00     0.041 C 
ATOM     13  O   UNL     1      82.729 133.776 130.812  1.00  0.00    -0.550 OA
ATOM     14  O   UNL     1      82.144 131.590 130.458  1.00  0.00    -0.550 OA
ENDBRANCH  11  12
ENDBRANCH  10  11
ENDBRANCH   9  10
ENDBRANCH   8   9
ENDBRANCH   7   8
ENDBRANCH   6   7
ENDBRANCH   5   6
ENDBRANCH   4   5
ENDBRANCH   3   4
ENDBRANCH   2   3
ENDBRANCH   1   2
BRANCH   1  15
ATOM     15  C   UNL     1      84.540 122.518 130.104  1.00  0.00     0.000 C 
BRANCH  15  16
ATOM     16  C   UNL     1      83.685 121.342 130.600  1.00  0.00     0.000 C 
BRANCH  16  17
ATOM     17  C   UNL     1      84.441 120.004 130.558  1.00  0.00     0.000 C 
BRANCH  17  18
ATOM     18  C   UNL     1      85.643 120.034 129.597  1.00  0.00    -0.000 C 
BRANCH  18  19
ATOM     19  C   UNL     1      85.212 119.925 128.119  1.00  0.00    -0.000 C 
BRANCH  19  20
ATOM     20  C   UNL     1      84.095 118.893 127.876  1.00  0.00    -0.000 C 
BRANCH  20  21
ATOM     21  C   UNL     1      82.757 119.541 127.492  1.00  0.00    -0.000 C 
BRANCH  21  22
ATOM     22  C   UNL     1      82.971 120.933 126.881  1.00  0.00    -0.000 C 
BRANCH  22  23
ATOM     23  C   UNL     1      82.225 122.036 127.650  1.00  0.00    -0.000 C 
BRANCH  23  24
ATOM     24  C   UNL     1      82.445 123.433 127.048  1.00  0.00    -0.000 C 
BRANCH  24  25
ATOM     25  C   UNL     1      83.615 123.425 126.058  1.00  0.00    -0.003 C 
ATOM     26  C   UNL     1      84.678 124.445 126.455  1.00  0.00     0.004 C 
ENDBRANCH  24  25
ENDBRANCH  23  24
ENDBRANCH  22  23
ENDBRANCH  21  22
ENDBRANCH  20  21
ENDBRANCH  19  20
ENDBRANCH  18  19
ENDBRANCH  17  18
ENDBRANCH  16  17
ENDBRANCH  15  16
ENDBRANCH   1  15
TORSDOF 22
ENDMDL
