MODEL 1
REMARK VINA RESULT:     1.991      0.000      0.000
REMARK INTER + INTRA:           2.100
REMARK INTER:                   2.399
REMARK INTRA:                  -0.299
REMARK UNBOUND:                -0.299
REMARK SMILES O=c1c(O)c(-c2ccc(O)c(O)c2)oc2cc(O)cc(O)c12
REMARK SMILES IDX 5 1 3 2 2 3 1 4 22 5 20 6 19 7 17 8 16 9 15 10 14 11 6 12
REMARK SMILES IDX 7 13 8 14 9 15 13 16 11 17 10 18 12 20 4 22 21 24 18 26
REMARK H PARENT 10 19 12 21 4 23 21 25 18 27
REMARK Flexibility Score: inf
ROOT
ATOM      1  C   UNL     1     -27.137   8.678  -5.327  1.00  0.00     0.180 A 
ATOM      2  C   UNL     1     -26.720   9.883  -4.729  1.00  0.00     0.208 A 
ATOM      3  C   UNL     1     -25.359  10.054  -4.430  1.00  0.00     0.238 A 
ATOM      4  O   UNL     1     -24.974  11.125  -3.885  1.00  0.00    -0.285 OA
ATOM      5  C   UNL     1     -24.440   9.034  -4.751  1.00  0.00     0.111 A 
ATOM      6  C   UNL     1     -23.053   9.131  -4.487  1.00  0.00     0.134 A 
ATOM      7  C   UNL     1     -22.201   8.075  -4.845  1.00  0.00     0.093 A 
ATOM      8  C   UNL     1     -22.711   6.927  -5.462  1.00  0.00     0.123 A 
ATOM      9  C   UNL     1     -24.078   6.827  -5.723  1.00  0.00     0.094 A 
ATOM     10  C   UNL     1     -24.943   7.868  -5.373  1.00  0.00     0.146 A 
ATOM     11  O   UNL     1     -26.240   7.743  -5.629  1.00  0.00    -0.452 OA
ENDROOT
BRANCH   1  12
ATOM     12  C   UNL     1     -28.557   8.414  -5.655  1.00  0.00     0.025 A 
ATOM     13  C   UNL     1     -29.347   7.678  -4.762  1.00  0.00     0.016 A 
ATOM     14  C   UNL     1     -30.692   7.435  -5.042  1.00  0.00     0.051 A 
ATOM     15  C   UNL     1     -31.281   7.934  -6.209  1.00  0.00     0.157 A 
ATOM     16  C   UNL     1     -29.150   8.938  -6.818  1.00  0.00     0.062 A 
ATOM     17  C   UNL     1     -30.500   8.702  -7.106  1.00  0.00     0.158 A 
BRANCH  15  18
ATOM     18  O   UNL     1     -32.628   7.650  -6.434  1.00  0.00    -0.504 OA
ATOM     19  H   UNL     1     -33.229   7.194  -5.762  1.00  0.00     0.293 HD
ENDBRANCH  15  18
BRANCH  17  20
ATOM     20  O   UNL     1     -31.021   9.250  -8.280  1.00  0.00    -0.504 OA
ATOM     21  H   UNL     1     -31.343   8.703  -9.064  1.00  0.00     0.293 HD
ENDBRANCH  17  20
ENDBRANCH   1  12
BRANCH   2  22
ATOM     22  O   UNL     1     -27.643  10.898  -4.467  1.00  0.00    -0.502 OA
ATOM     23  H   UNL     1     -28.419  11.099  -5.087  1.00  0.00     0.293 HD
ENDBRANCH   2  22
BRANCH   6  24
ATOM     24  O   UNL     1     -22.515  10.264  -3.875  1.00  0.00    -0.507 OA
ATOM     25  H   UNL     1     -22.228  11.074  -4.412  1.00  0.00     0.293 HD
ENDBRANCH   6  24
BRANCH   8  26
ATOM     26  O   UNL     1     -21.865   5.879  -5.818  1.00  0.00    -0.508 OA
ATOM     27  H   UNL     1     -20.873   6.025  -5.968  1.00  0.00     0.293 HD
ENDBRANCH   8  26
TORSDOF 6
ENDMDL
MODEL 2
REMARK VINA RESULT:     2.283      1.470      2.049
REMARK INTER + INTRA:           2.451
REMARK INTER:                   1.931
REMARK INTRA:                   0.520
REMARK UNBOUND:                -0.299
REMARK SMILES O=c1c(O)c(-c2ccc(O)c(O)c2)oc2cc(O)cc(O)c12
REMARK SMILES IDX 5 1 3 2 2 3 1 4 22 5 20 6 19 7 17 8 16 9 15 10 14 11 6 12
REMARK SMILES IDX 7 13 8 14 9 15 13 16 11 17 10 18 12 20 4 22 21 24 18 26
REMARK H PARENT 10 19 12 21 4 23 21 25 18 27
REMARK Flexibility Score: inf
ROOT
ATOM      1  C   UNL     1     -26.108   8.589  -4.830  1.00  0.00     0.180 A 
ATOM      2  C   UNL     1     -25.173   9.549  -4.398  1.00  0.00     0.208 A 
ATOM      3  C   UNL     1     -23.804   9.270  -4.530  1.00  0.00     0.238 A 
ATOM      4  O   UNL     1     -22.957  10.119  -4.137  1.00  0.00    -0.285 OA
ATOM      5  C   UNL     1     -23.393   8.051  -5.107  1.00  0.00     0.111 A 
ATOM      6  C   UNL     1     -22.034   7.696  -5.280  1.00  0.00     0.134 A 
ATOM      7  C   UNL     1     -21.705   6.467  -5.872  1.00  0.00     0.093 A 
ATOM      8  C   UNL     1     -22.710   5.589  -6.294  1.00  0.00     0.123 A 
ATOM      9  C   UNL     1     -24.052   5.935  -6.125  1.00  0.00     0.094 A 
ATOM     10  C   UNL     1     -24.399   7.154  -5.535  1.00  0.00     0.146 A 
ATOM     11  O   UNL     1     -25.683   7.455  -5.383  1.00  0.00    -0.452 OA
ENDROOT
BRANCH   1  12
ATOM     12  C   UNL     1     -27.568   8.801  -4.707  1.00  0.00     0.025 A 
ATOM     13  C   UNL     1     -28.048   9.904  -3.988  1.00  0.00     0.016 A 
ATOM     14  C   UNL     1     -29.419  10.134  -3.876  1.00  0.00     0.051 A 
ATOM     15  C   UNL     1     -30.339   9.279  -4.493  1.00  0.00     0.157 A 
ATOM     16  C   UNL     1     -28.488   7.953  -5.347  1.00  0.00     0.062 A 
ATOM     17  C   UNL     1     -29.866   8.177  -5.244  1.00  0.00     0.158 A 
BRANCH  15  18
ATOM     18  O   UNL     1     -31.697   9.560  -4.337  1.00  0.00    -0.504 OA
ATOM     19  H   UNL     1     -32.070  10.167  -3.622  1.00  0.00     0.293 HD
ENDBRANCH  15  18
BRANCH  17  20
ATOM     20  O   UNL     1     -30.722   7.292  -5.904  1.00  0.00    -0.504 OA
ATOM     21  H   UNL     1     -30.414   6.604  -6.576  1.00  0.00     0.293 HD
ENDBRANCH  17  20
ENDBRANCH   1  12
BRANCH   2  22
ATOM     22  O   UNL     1     -25.607  10.770  -3.875  1.00  0.00    -0.502 OA
ATOM     23  H   UNL     1     -25.721  10.925  -2.880  1.00  0.00     0.293 HD
ENDBRANCH   2  22
BRANCH   6  24
ATOM     24  O   UNL     1     -21.010   8.552  -4.871  1.00  0.00    -0.507 OA
ATOM     25  H   UNL     1     -20.037   8.270  -4.897  1.00  0.00     0.293 HD
ENDBRANCH   6  24
BRANCH   8  26
ATOM     26  O   UNL     1     -22.385   4.369  -6.882  1.00  0.00    -0.508 OA
ATOM     27  H   UNL     1     -23.057   3.614  -6.944  1.00  0.00     0.293 HD
ENDBRANCH   8  26
TORSDOF 6
ENDMDL
