MODEL 1
REMARK VINA RESULT:    18.765      0.000      0.000
REMARK INTER + INTRA:          45.184
REMARK INTER:                  47.287
REMARK INTRA:                  -2.102
REMARK UNBOUND:                -2.102
REMARK SMILES CCCCCCCCCCCCCCCCCCCCCCCCCCCC(=O)[O-]
REMARK SMILES IDX 15 1 16 2 17 3 18 4 19 5 20 6 21 7 22 8 23 9 24 10 25 11
REMARK SMILES IDX 26 12 27 13 28 14 29 15 30 16 14 17 13 18 12 19 11 20 10 21
REMARK SMILES IDX 9 22 8 23 7 24 6 25 5 26 4 27 3 28 2 29 1 30
REMARK H PARENT
REMARK Flexibility Score: inf
ROOT
ATOM      1  C   UNL     1     -32.241  21.259  -9.689  1.00  0.00     0.000 C 
ENDROOT
BRANCH   1   2
ATOM      2  C   UNL     1     -32.145  20.103 -10.697  1.00  0.00     0.000 C 
BRANCH   2   3
ATOM      3  C   UNL     1     -33.077  18.927 -10.348  1.00  0.00     0.000 C 
BRANCH   3   4
ATOM      4  C   UNL     1     -32.373  17.675  -9.788  1.00  0.00     0.000 C 
BRANCH   4   5
ATOM      5  C   UNL     1     -31.371  16.998 -10.745  1.00  0.00     0.000 C 
BRANCH   5   6
ATOM      6  C   UNL     1     -29.915  17.476 -10.602  1.00  0.00     0.000 C 
BRANCH   6   7
ATOM      7  C   UNL     1     -28.949  16.729 -11.538  1.00  0.00     0.000 C 
BRANCH   7   8
ATOM      8  C   UNL     1     -28.848  17.377 -12.930  1.00  0.00     0.000 C 
BRANCH   8   9
ATOM      9  C   UNL     1     -28.997  16.402 -14.118  1.00  0.00     0.000 C 
BRANCH   9  10
ATOM     10  C   UNL     1     -29.131  17.067 -15.500  1.00  0.00     0.000 C 
BRANCH  10  11
ATOM     11  C   UNL     1     -30.575  17.196 -16.021  1.00  0.00     0.000 C 
BRANCH  11  12
ATOM     12  C   UNL     1     -30.687  17.968 -17.354  1.00  0.00     0.006 C 
BRANCH  12  13
ATOM     13  C   UNL     1     -29.394  18.691 -17.763  1.00  0.00     0.053 C 
BRANCH  13  14
ATOM     14  C   UNL     1     -29.591  20.173 -17.870  1.00  0.00     0.041 C 
ATOM     15  O   UNL     1     -30.639  20.708 -17.420  1.00  0.00    -0.550 OA
ATOM     16  O   UNL     1     -28.613  20.963 -18.464  1.00  0.00    -0.550 OA
ENDBRANCH  13  14
ENDBRANCH  12  13
ENDBRANCH  11  12
ENDBRANCH  10  11
ENDBRANCH   9  10
ENDBRANCH   8   9
ENDBRANCH   7   8
ENDBRANCH   6   7
ENDBRANCH   5   6
ENDBRANCH   4   5
ENDBRANCH   3   4
ENDBRANCH   2   3
ENDBRANCH   1   2
BRANCH   1  17
ATOM     17  C   UNL     1     -31.843  22.612 -10.301  1.00  0.00     0.000 C 
BRANCH  17  18
ATOM     18  C   UNL     1     -30.540  22.540 -11.112  1.00  0.00     0.000 C 
BRANCH  18  19
ATOM     19  C   UNL     1     -29.540  21.579 -10.458  1.00  0.00     0.000 C 
BRANCH  19  20
ATOM     20  C   UNL     1     -28.587  20.978 -11.502  1.00  0.00     0.000 C 
BRANCH  20  21
ATOM     21  C   UNL     1     -28.109  22.011 -12.537  1.00  0.00     0.000 C 
BRANCH  21  22
ATOM     22  C   UNL     1     -26.580  22.214 -12.593  1.00  0.00    -0.000 C 
BRANCH  22  23
ATOM     23  C   UNL     1     -26.099  23.634 -12.234  1.00  0.00    -0.000 C 
BRANCH  23  24
ATOM     24  C   UNL     1     -25.290  23.739 -10.924  1.00  0.00    -0.000 C 
BRANCH  24  25
ATOM     25  C   UNL     1     -25.072  22.408 -10.182  1.00  0.00    -0.000 C 
BRANCH  25  26
ATOM     26  C   UNL     1     -25.971  22.261  -8.942  1.00  0.00    -0.000 C 
BRANCH  26  27
ATOM     27  C   UNL     1     -25.396  21.274  -7.913  1.00  0.00    -0.000 C 
BRANCH  27  28
ATOM     28  C   UNL     1     -23.877  21.434  -7.719  1.00  0.00    -0.000 C 
BRANCH  28  29
ATOM     29  C   UNL     1     -23.509  21.878  -6.296  1.00  0.00    -0.003 C 
ATOM     30  C   UNL     1     -22.186  22.644  -6.239  1.00  0.00     0.004 C 
ENDBRANCH  28  29
ENDBRANCH  27  28
ENDBRANCH  26  27
ENDBRANCH  25  26
ENDBRANCH  24  25
ENDBRANCH  23  24
ENDBRANCH  22  23
ENDBRANCH  21  22
ENDBRANCH  20  21
ENDBRANCH  19  20
ENDBRANCH  18  19
ENDBRANCH  17  18
ENDBRANCH   1  17
TORSDOF 26
ENDMDL
MODEL 2
REMARK VINA RESULT:    19.471      3.987      8.870
REMARK INTER + INTRA:          46.964
REMARK INTER:                  47.634
REMARK INTRA:                  -0.671
REMARK UNBOUND:                -2.102
REMARK SMILES CCCCCCCCCCCCCCCCCCCCCCCCCCCC(=O)[O-]
REMARK SMILES IDX 15 1 16 2 17 3 18 4 19 5 20 6 21 7 22 8 23 9 24 10 25 11
REMARK SMILES IDX 26 12 27 13 28 14 29 15 30 16 14 17 13 18 12 19 11 20 10 21
REMARK SMILES IDX 9 22 8 23 7 24 6 25 5 26 4 27 3 28 2 29 1 30
REMARK H PARENT
REMARK Flexibility Score: inf
ROOT
ATOM      1  C   UNL     1     -28.665  21.102 -11.037  1.00  0.00     0.000 C 
ENDROOT
BRANCH   1   2
ATOM      2  C   UNL     1     -27.872  20.665 -12.280  1.00  0.00     0.000 C 
BRANCH   2   3
ATOM      3  C   UNL     1     -27.891  21.722 -13.401  1.00  0.00     0.000 C 
BRANCH   3   4
ATOM      4  C   UNL     1     -26.632  22.608 -13.489  1.00  0.00     0.000 C 
BRANCH   4   5
ATOM      5  C   UNL     1     -26.590  23.792 -12.501  1.00  0.00     0.000 C 
BRANCH   5   6
ATOM      6  C   UNL     1     -25.194  24.124 -11.948  1.00  0.00     0.000 C 
BRANCH   6   7
ATOM      7  C   UNL     1     -25.090  23.910 -10.427  1.00  0.00     0.000 C 
BRANCH   7   8
ATOM      8  C   UNL     1     -25.152  22.424 -10.030  1.00  0.00     0.000 C 
BRANCH   8   9
ATOM      9  C   UNL     1     -26.431  22.003  -9.273  1.00  0.00     0.000 C 
BRANCH   9  10
ATOM     10  C   UNL     1     -26.250  21.768  -7.762  1.00  0.00     0.000 C 
BRANCH  10  11
ATOM     11  C   UNL     1     -25.260  20.645  -7.395  1.00  0.00     0.000 C 
BRANCH  11  12
ATOM     12  C   UNL     1     -23.802  21.132  -7.239  1.00  0.00     0.006 C 
BRANCH  12  13
ATOM     13  C   UNL     1     -23.576  22.028  -6.011  1.00  0.00     0.053 C 
BRANCH  13  14
ATOM     14  C   UNL     1     -22.245  22.717  -6.059  1.00  0.00     0.041 C 
ATOM     15  O   UNL     1     -21.193  22.089  -5.769  1.00  0.00    -0.550 OA
ATOM     16  O   UNL     1     -22.169  24.055  -6.430  1.00  0.00    -0.550 OA
ENDBRANCH  13  14
ENDBRANCH  12  13
ENDBRANCH  11  12
ENDBRANCH  10  11
ENDBRANCH   9  10
ENDBRANCH   8   9
ENDBRANCH   7   8
ENDBRANCH   6   7
ENDBRANCH   5   6
ENDBRANCH   4   5
ENDBRANCH   3   4
ENDBRANCH   2   3
ENDBRANCH   1   2
BRANCH   1  17
ATOM     17  C   UNL     1     -29.639  22.254 -11.331  1.00  0.00     0.000 C 
BRANCH  17  18
ATOM     18  C   UNL     1     -30.493  22.639 -10.114  1.00  0.00     0.000 C 
BRANCH  18  19
ATOM     19  C   UNL     1     -31.101  24.036 -10.289  1.00  0.00     0.000 C 
BRANCH  19  20
ATOM     20  C   UNL     1     -32.567  24.062  -9.833  1.00  0.00     0.000 C 
BRANCH  20  21
ATOM     21  C   UNL     1     -33.346  22.803 -10.255  1.00  0.00     0.000 C 
BRANCH  21  22
ATOM     22  C   UNL     1     -32.865  21.492  -9.599  1.00  0.00    -0.000 C 
BRANCH  22  23
ATOM     23  C   UNL     1     -32.273  20.455 -10.574  1.00  0.00    -0.000 C 
BRANCH  23  24
ATOM     24  C   UNL     1     -32.794  19.014 -10.392  1.00  0.00    -0.000 C 
BRANCH  24  25
ATOM     25  C   UNL     1     -31.709  17.958 -10.109  1.00  0.00    -0.000 C 
BRANCH  25  26
ATOM     26  C   UNL     1     -30.407  18.216 -10.887  1.00  0.00    -0.000 C 
BRANCH  26  27
ATOM     27  C   UNL     1     -29.326  17.164 -10.589  1.00  0.00    -0.000 C 
BRANCH  27  28
ATOM     28  C   UNL     1     -29.016  16.269 -11.802  1.00  0.00    -0.000 C 
BRANCH  28  29
ATOM     29  C   UNL     1     -28.861  17.071 -13.103  1.00  0.00    -0.003 C 
ATOM     30  C   UNL     1     -29.131  16.230 -14.351  1.00  0.00     0.004 C 
ENDBRANCH  28  29
ENDBRANCH  27  28
ENDBRANCH  26  27
ENDBRANCH  25  26
ENDBRANCH  24  25
ENDBRANCH  23  24
ENDBRANCH  22  23
ENDBRANCH  21  22
ENDBRANCH  20  21
ENDBRANCH  19  20
ENDBRANCH  18  19
ENDBRANCH  17  18
ENDBRANCH   1  17
TORSDOF 26
ENDMDL
MODEL 3
REMARK VINA RESULT:    20.292      2.438      4.627
REMARK INTER + INTRA:          49.033
REMARK INTER:                  50.884
REMARK INTRA:                  -1.851
REMARK UNBOUND:                -2.102
REMARK SMILES CCCCCCCCCCCCCCCCCCCCCCCCCCCC(=O)[O-]
REMARK SMILES IDX 15 1 16 2 17 3 18 4 19 5 20 6 21 7 22 8 23 9 24 10 25 11
REMARK SMILES IDX 26 12 27 13 28 14 29 15 30 16 14 17 13 18 12 19 11 20 10 21
REMARK SMILES IDX 9 22 8 23 7 24 6 25 5 26 4 27 3 28 2 29 1 30
REMARK H PARENT
REMARK Flexibility Score: inf
ROOT
ATOM      1  C   UNL     1     -28.937  20.625 -10.683  1.00  0.00     0.000 C 
ENDROOT
BRANCH   1   2
ATOM      2  C   UNL     1     -29.446  21.930 -10.048  1.00  0.00     0.000 C 
BRANCH   2   3
ATOM      3  C   UNL     1     -30.471  22.664 -10.933  1.00  0.00     0.000 C 
BRANCH   3   4
ATOM      4  C   UNL     1     -31.012  23.986 -10.353  1.00  0.00     0.000 C 
BRANCH   4   5
ATOM      5  C   UNL     1     -32.313  23.864  -9.534  1.00  0.00     0.000 C 
BRANCH   5   6
ATOM      6  C   UNL     1     -33.208  22.672  -9.916  1.00  0.00     0.000 C 
BRANCH   6   7
ATOM      7  C   UNL     1     -32.561  21.314  -9.591  1.00  0.00     0.000 C 
BRANCH   7   8
ATOM      8  C   UNL     1     -33.020  20.193 -10.541  1.00  0.00     0.000 C 
BRANCH   8   9
ATOM      9  C   UNL     1     -32.668  18.762 -10.080  1.00  0.00     0.000 C 
BRANCH   9  10
ATOM     10  C   UNL     1     -31.383  18.174 -10.691  1.00  0.00     0.000 C 
BRANCH  10  11
ATOM     11  C   UNL     1     -31.227  16.649 -10.531  1.00  0.00     0.000 C 
BRANCH  11  12
ATOM     12  C   UNL     1     -29.835  16.122 -10.944  1.00  0.00     0.006 C 
BRANCH  12  13
ATOM     13  C   UNL     1     -28.876  17.219 -11.433  1.00  0.00     0.053 C 
BRANCH  13  14
ATOM     14  C   UNL     1     -28.717  17.200 -12.923  1.00  0.00     0.041 C 
ATOM     15  O   UNL     1     -29.186  16.246 -13.599  1.00  0.00    -0.550 OA
ATOM     16  O   UNL     1     -28.054  18.239 -13.566  1.00  0.00    -0.550 OA
ENDBRANCH  13  14
ENDBRANCH  12  13
ENDBRANCH  11  12
ENDBRANCH  10  11
ENDBRANCH   9  10
ENDBRANCH   8   9
ENDBRANCH   7   8
ENDBRANCH   6   7
ENDBRANCH   5   6
ENDBRANCH   4   5
ENDBRANCH   3   4
ENDBRANCH   2   3
ENDBRANCH   1   2
BRANCH   1  17
ATOM     17  C   UNL     1     -28.668  20.767 -12.190  1.00  0.00     0.000 C 
BRANCH  17  18
ATOM     18  C   UNL     1     -27.316  21.432 -12.494  1.00  0.00     0.000 C 
BRANCH  18  19
ATOM     19  C   UNL     1     -27.515  22.789 -13.180  1.00  0.00     0.000 C 
BRANCH  19  20
ATOM     20  C   UNL     1     -26.621  23.864 -12.547  1.00  0.00     0.000 C 
BRANCH  20  21
ATOM     21  C   UNL     1     -25.243  23.323 -12.126  1.00  0.00     0.000 C 
BRANCH  21  22
ATOM     22  C   UNL     1     -24.553  24.112 -10.993  1.00  0.00    -0.000 C 
BRANCH  22  23
ATOM     23  C   UNL     1     -24.861  23.610  -9.569  1.00  0.00    -0.000 C 
BRANCH  23  24
ATOM     24  C   UNL     1     -25.890  22.463  -9.487  1.00  0.00    -0.000 C 
BRANCH  24  25
ATOM     25  C   UNL     1     -25.733  21.530  -8.272  1.00  0.00    -0.000 C 
BRANCH  25  26
ATOM     26  C   UNL     1     -24.265  21.187  -7.967  1.00  0.00    -0.000 C 
BRANCH  26  27
ATOM     27  C   UNL     1     -23.988  21.079  -6.459  1.00  0.00    -0.000 C 
BRANCH  27  28
ATOM     28  C   UNL     1     -23.568  22.421  -5.833  1.00  0.00    -0.000 C 
BRANCH  28  29
ATOM     29  C   UNL     1     -22.154  22.850  -6.252  1.00  0.00    -0.003 C 
ATOM     30  C   UNL     1     -21.075  21.876  -5.777  1.00  0.00     0.004 C 
ENDBRANCH  28  29
ENDBRANCH  27  28
ENDBRANCH  26  27
ENDBRANCH  25  26
ENDBRANCH  24  25
ENDBRANCH  23  24
ENDBRANCH  22  23
ENDBRANCH  21  22
ENDBRANCH  20  21
ENDBRANCH  19  20
ENDBRANCH  18  19
ENDBRANCH  17  18
ENDBRANCH   1  17
TORSDOF 26
ENDMDL
MODEL 4
REMARK VINA RESULT:    20.386      3.756      9.128
REMARK INTER + INTRA:          49.271
REMARK INTER:                  49.970
REMARK INTRA:                  -0.700
REMARK UNBOUND:                -2.102
REMARK SMILES CCCCCCCCCCCCCCCCCCCCCCCCCCCC(=O)[O-]
REMARK SMILES IDX 15 1 16 2 17 3 18 4 19 5 20 6 21 7 22 8 23 9 24 10 25 11
REMARK SMILES IDX 26 12 27 13 28 14 29 15 30 16 14 17 13 18 12 19 11 20 10 21
REMARK SMILES IDX 9 22 8 23 7 24 6 25 5 26 4 27 3 28 2 29 1 30
REMARK H PARENT
REMARK Flexibility Score: inf
ROOT
ATOM      1  C   UNL     1     -31.976  22.553 -10.216  1.00  0.00     0.000 C 
ENDROOT
BRANCH   1   2
ATOM      2  C   UNL     1     -30.637  22.482 -10.968  1.00  0.00     0.000 C 
BRANCH   2   3
ATOM      3  C   UNL     1     -29.701  21.389 -10.420  1.00  0.00     0.000 C 
BRANCH   3   4
ATOM      4  C   UNL     1     -28.705  20.805 -11.442  1.00  0.00     0.000 C 
BRANCH   4   5
ATOM      5  C   UNL     1     -28.320  21.747 -12.601  1.00  0.00     0.000 C 
BRANCH   5   6
ATOM      6  C   UNL     1     -26.819  21.781 -12.937  1.00  0.00     0.000 C 
BRANCH   6   7
ATOM      7  C   UNL     1     -26.101  22.998 -12.329  1.00  0.00     0.000 C 
BRANCH   7   8
ATOM      8  C   UNL     1     -25.460  22.691 -10.964  1.00  0.00     0.000 C 
BRANCH   8   9
ATOM      9  C   UNL     1     -26.448  22.620  -9.779  1.00  0.00     0.000 C 
BRANCH   9  10
ATOM     10  C   UNL     1     -25.948  21.830  -8.555  1.00  0.00     0.000 C 
BRANCH  10  11
ATOM     11  C   UNL     1     -24.479  22.092  -8.171  1.00  0.00     0.000 C 
BRANCH  11  12
ATOM     12  C   UNL     1     -23.875  21.006  -7.254  1.00  0.00     0.006 C 
BRANCH  12  13
ATOM     13  C   UNL     1     -23.403  21.536  -5.891  1.00  0.00     0.053 C 
BRANCH  13  14
ATOM     14  C   UNL     1     -22.195  22.415  -6.021  1.00  0.00     0.041 C 
ATOM     15  O   UNL     1     -21.075  22.020  -5.602  1.00  0.00    -0.550 OA
ATOM     16  O   UNL     1     -22.308  23.670  -6.608  1.00  0.00    -0.550 OA
ENDBRANCH  13  14
ENDBRANCH  12  13
ENDBRANCH  11  12
ENDBRANCH  10  11
ENDBRANCH   9  10
ENDBRANCH   8   9
ENDBRANCH   7   8
ENDBRANCH   6   7
ENDBRANCH   5   6
ENDBRANCH   4   5
ENDBRANCH   3   4
ENDBRANCH   2   3
ENDBRANCH   1   2
BRANCH   1  17
ATOM     17  C   UNL     1     -32.458  21.174  -9.736  1.00  0.00     0.000 C 
BRANCH  17  18
ATOM     18  C   UNL     1     -32.078  20.041 -10.702  1.00  0.00     0.000 C 
BRANCH  18  19
ATOM     19  C   UNL     1     -32.603  18.691 -10.198  1.00  0.00     0.000 C 
BRANCH  19  20
ATOM     20  C   UNL     1     -31.520  17.607 -10.290  1.00  0.00     0.000 C 
BRANCH  20  21
ATOM     21  C   UNL     1     -30.207  18.126 -10.902  1.00  0.00     0.000 C 
BRANCH  21  22
ATOM     22  C   UNL     1     -29.260  17.029 -11.433  1.00  0.00    -0.000 C 
BRANCH  22  23
ATOM     23  C   UNL     1     -28.754  17.247 -12.873  1.00  0.00    -0.000 C 
BRANCH  23  24
ATOM     24  C   UNL     1     -29.142  16.142 -13.877  1.00  0.00    -0.000 C 
BRANCH  24  25
ATOM     25  C   UNL     1     -30.022  16.606 -15.052  1.00  0.00    -0.000 C 
BRANCH  25  26
ATOM     26  C   UNL     1     -29.231  17.374 -16.125  1.00  0.00    -0.000 C 
BRANCH  26  27
ATOM     27  C   UNL     1     -30.109  17.797 -17.313  1.00  0.00    -0.000 C 
BRANCH  27  28
ATOM     28  C   UNL     1     -30.785  19.163 -17.099  1.00  0.00    -0.000 C 
BRANCH  28  29
ATOM     29  C   UNL     1     -30.459  20.164 -18.217  1.00  0.00    -0.003 C 
ATOM     30  C   UNL     1     -29.037  20.718 -18.120  1.00  0.00     0.004 C 
ENDBRANCH  28  29
ENDBRANCH  27  28
ENDBRANCH  26  27
ENDBRANCH  25  26
ENDBRANCH  24  25
ENDBRANCH  23  24
ENDBRANCH  22  23
ENDBRANCH  21  22
ENDBRANCH  20  21
ENDBRANCH  19  20
ENDBRANCH  18  19
ENDBRANCH  17  18
ENDBRANCH   1  17
TORSDOF 26
ENDMDL
MODEL 5
REMARK VINA RESULT:    20.393      0.886      1.591
REMARK INTER + INTRA:          49.288
REMARK INTER:                  51.042
REMARK INTRA:                  -1.755
REMARK UNBOUND:                -2.102
REMARK SMILES CCCCCCCCCCCCCCCCCCCCCCCCCCCC(=O)[O-]
REMARK SMILES IDX 15 1 16 2 17 3 18 4 19 5 20 6 21 7 22 8 23 9 24 10 25 11
REMARK SMILES IDX 26 12 27 13 28 14 29 15 30 16 14 17 13 18 12 19 11 20 10 21
REMARK SMILES IDX 9 22 8 23 7 24 6 25 5 26 4 27 3 28 2 29 1 30
REMARK H PARENT
REMARK Flexibility Score: inf
ROOT
ATOM      1  C   UNL     1     -31.676  23.010 -10.094  1.00  0.00     0.000 C 
ENDROOT
BRANCH   1   2
ATOM      2  C   UNL     1     -31.861  21.764  -9.212  1.00  0.00     0.000 C 
BRANCH   2   3
ATOM      3  C   UNL     1     -32.948  20.811  -9.745  1.00  0.00     0.000 C 
BRANCH   3   4
ATOM      4  C   UNL     1     -32.451  19.734 -10.729  1.00  0.00     0.000 C 
BRANCH   4   5
ATOM      5  C   UNL     1     -31.413  18.746 -10.157  1.00  0.00     0.000 C 
BRANCH   5   6
ATOM      6  C   UNL     1     -31.776  17.260 -10.319  1.00  0.00     0.000 C 
BRANCH   6   7
ATOM      7  C   UNL     1     -30.561  16.387 -10.679  1.00  0.00     0.000 C 
BRANCH   7   8
ATOM      8  C   UNL     1     -29.528  17.132 -11.543  1.00  0.00     0.000 C 
BRANCH   8   9
ATOM      9  C   UNL     1     -28.718  16.240 -12.509  1.00  0.00     0.000 C 
BRANCH   9  10
ATOM     10  C   UNL     1     -29.412  15.924 -13.847  1.00  0.00     0.000 C 
BRANCH  10  11
ATOM     11  C   UNL     1     -28.909  16.747 -15.048  1.00  0.00     0.000 C 
BRANCH  11  12
ATOM     12  C   UNL     1     -30.017  17.571 -15.742  1.00  0.00     0.006 C 
BRANCH  12  13
ATOM     13  C   UNL     1     -29.683  17.965 -17.189  1.00  0.00     0.053 C 
BRANCH  13  14
ATOM     14  C   UNL     1     -30.341  19.254 -17.583  1.00  0.00     0.041 C 
ATOM     15  O   UNL     1     -31.587  19.391 -17.470  1.00  0.00    -0.550 OA
ATOM     16  O   UNL     1     -29.573  20.305 -18.073  1.00  0.00    -0.550 OA
ENDBRANCH  13  14
ENDBRANCH  12  13
ENDBRANCH  11  12
ENDBRANCH  10  11
ENDBRANCH   9  10
ENDBRANCH   8   9
ENDBRANCH   7   8
ENDBRANCH   6   7
ENDBRANCH   5   6
ENDBRANCH   4   5
ENDBRANCH   3   4
ENDBRANCH   2   3
ENDBRANCH   1   2
BRANCH   1  17
ATOM     17  C   UNL     1     -31.145  22.668 -11.496  1.00  0.00     0.000 C 
BRANCH  17  18
ATOM     18  C   UNL     1     -29.614  22.552 -11.542  1.00  0.00     0.000 C 
BRANCH  18  19
ATOM     19  C   UNL     1     -29.159  21.140 -11.150  1.00  0.00     0.000 C 
BRANCH  19  20
ATOM     20  C   UNL     1     -27.917  20.719 -11.949  1.00  0.00     0.000 C 
BRANCH  20  21
ATOM     21  C   UNL     1     -27.372  21.846 -12.843  1.00  0.00     0.000 C 
BRANCH  21  22
ATOM     22  C   UNL     1     -26.699  23.009 -12.085  1.00  0.00    -0.000 C 
BRANCH  22  23
ATOM     23  C   UNL     1     -25.423  22.627 -11.306  1.00  0.00    -0.000 C 
BRANCH  23  24
ATOM     24  C   UNL     1     -25.432  23.004  -9.810  1.00  0.00    -0.000 C 
BRANCH  24  25
ATOM     25  C   UNL     1     -26.242  22.061  -8.903  1.00  0.00    -0.000 C 
BRANCH  25  26
ATOM     26  C   UNL     1     -25.357  21.250  -7.941  1.00  0.00    -0.000 C 
BRANCH  26  27
ATOM     27  C   UNL     1     -23.964  21.873  -7.757  1.00  0.00    -0.000 C 
BRANCH  27  28
ATOM     28  C   UNL     1     -23.459  21.788  -6.305  1.00  0.00    -0.000 C 
BRANCH  28  29
ATOM     29  C   UNL     1     -22.101  22.479  -6.112  1.00  0.00    -0.003 C 
ATOM     30  C   UNL     1     -22.231  23.884  -5.521  1.00  0.00     0.004 C 
ENDBRANCH  28  29
ENDBRANCH  27  28
ENDBRANCH  26  27
ENDBRANCH  25  26
ENDBRANCH  24  25
ENDBRANCH  23  24
ENDBRANCH  22  23
ENDBRANCH  21  22
ENDBRANCH  20  21
ENDBRANCH  19  20
ENDBRANCH  18  19
ENDBRANCH  17  18
ENDBRANCH   1  17
TORSDOF 26
ENDMDL
MODEL 6
REMARK VINA RESULT:    20.473      3.971      8.912
REMARK INTER + INTRA:          49.488
REMARK INTER:                  50.491
REMARK INTRA:                  -1.002
REMARK UNBOUND:                -2.102
REMARK SMILES CCCCCCCCCCCCCCCCCCCCCCCCCCCC(=O)[O-]
REMARK SMILES IDX 15 1 16 2 17 3 18 4 19 5 20 6 21 7 22 8 23 9 24 10 25 11
REMARK SMILES IDX 26 12 27 13 28 14 29 15 30 16 14 17 13 18 12 19 11 20 10 21
REMARK SMILES IDX 9 22 8 23 7 24 6 25 5 26 4 27 3 28 2 29 1 30
REMARK H PARENT
REMARK Flexibility Score: inf
ROOT
ATOM      1  C   UNL     1     -32.242  22.662  -9.623  1.00  0.00     0.000 C 
ENDROOT
BRANCH   1   2
ATOM      2  C   UNL     1     -30.799  23.028 -10.009  1.00  0.00     0.000 C 
BRANCH   2   3
ATOM      3  C   UNL     1     -30.387  22.464 -11.381  1.00  0.00     0.000 C 
BRANCH   3   4
ATOM      4  C   UNL     1     -28.971  21.858 -11.443  1.00  0.00     0.000 C 
BRANCH   4   5
ATOM      5  C   UNL     1     -28.046  22.454 -12.524  1.00  0.00     0.000 C 
BRANCH   5   6
ATOM      6  C   UNL     1     -26.658  21.797 -12.623  1.00  0.00     0.000 C 
BRANCH   6   7
ATOM      7  C   UNL     1     -25.510  22.796 -12.391  1.00  0.00     0.000 C 
BRANCH   7   8
ATOM      8  C   UNL     1     -25.789  23.765 -11.229  1.00  0.00     0.000 C 
BRANCH   8   9
ATOM      9  C   UNL     1     -24.980  23.493  -9.942  1.00  0.00     0.000 C 
BRANCH   9  10
ATOM     10  C   UNL     1     -25.478  22.308  -9.094  1.00  0.00     0.000 C 
BRANCH  10  11
ATOM     11  C   UNL     1     -24.382  21.575  -8.297  1.00  0.00     0.000 C 
BRANCH  11  12
ATOM     12  C   UNL     1     -24.650  21.524  -6.777  1.00  0.00     0.006 C 
BRANCH  12  13
ATOM     13  C   UNL     1     -23.374  21.481  -5.922  1.00  0.00     0.053 C 
BRANCH  13  14
ATOM     14  C   UNL     1     -22.339  22.448  -6.414  1.00  0.00     0.041 C 
ATOM     15  O   UNL     1     -21.321  22.030  -7.028  1.00  0.00    -0.550 OA
ATOM     16  O   UNL     1     -22.501  23.811  -6.196  1.00  0.00    -0.550 OA
ENDBRANCH  13  14
ENDBRANCH  12  13
ENDBRANCH  11  12
ENDBRANCH  10  11
ENDBRANCH   9  10
ENDBRANCH   8   9
ENDBRANCH   7   8
ENDBRANCH   6   7
ENDBRANCH   5   6
ENDBRANCH   4   5
ENDBRANCH   3   4
ENDBRANCH   2   3
ENDBRANCH   1   2
BRANCH   1  17
ATOM     17  C   UNL     1     -32.762  21.429 -10.379  1.00  0.00     0.000 C 
BRANCH  17  18
ATOM     18  C   UNL     1     -31.808  20.228 -10.289  1.00  0.00     0.000 C 
BRANCH  18  19
ATOM     19  C   UNL     1     -32.538  18.921 -10.618  1.00  0.00     0.000 C 
BRANCH  19  20
ATOM     20  C   UNL     1     -31.963  17.748  -9.811  1.00  0.00     0.000 C 
BRANCH  20  21
ATOM     21  C   UNL     1     -31.403  16.627 -10.704  1.00  0.00     0.000 C 
BRANCH  21  22
ATOM     22  C   UNL     1     -29.863  16.543 -10.752  1.00  0.00    -0.000 C 
BRANCH  22  23
ATOM     23  C   UNL     1     -29.151  17.856 -11.135  1.00  0.00    -0.000 C 
BRANCH  23  24
ATOM     24  C   UNL     1     -28.563  17.888 -12.561  1.00  0.00    -0.000 C 
BRANCH  24  25
ATOM     25  C   UNL     1     -29.280  16.990 -13.585  1.00  0.00    -0.000 C 
BRANCH  25  26
ATOM     26  C   UNL     1     -28.821  15.522 -13.517  1.00  0.00    -0.000 C 
BRANCH  26  27
ATOM     27  C   UNL     1     -28.234  15.028 -14.848  1.00  0.00    -0.000 C 
BRANCH  27  28
ATOM     28  C   UNL     1     -27.862  13.535 -14.818  1.00  0.00    -0.000 C 
BRANCH  28  29
ATOM     29  C   UNL     1     -26.606  13.223 -15.645  1.00  0.00    -0.003 C 
ATOM     30  C   UNL     1     -25.311  13.535 -14.894  1.00  0.00     0.004 C 
ENDBRANCH  28  29
ENDBRANCH  27  28
ENDBRANCH  26  27
ENDBRANCH  25  26
ENDBRANCH  24  25
ENDBRANCH  23  24
ENDBRANCH  22  23
ENDBRANCH  21  22
ENDBRANCH  20  21
ENDBRANCH  19  20
ENDBRANCH  18  19
ENDBRANCH  17  18
ENDBRANCH   1  17
TORSDOF 26
ENDMDL
MODEL 7
REMARK VINA RESULT:    20.556      7.415      9.890
REMARK INTER + INTRA:          49.698
REMARK INTER:                  48.315
REMARK INTRA:                   1.383
REMARK UNBOUND:                -2.102
REMARK SMILES CCCCCCCCCCCCCCCCCCCCCCCCCCCC(=O)[O-]
REMARK SMILES IDX 15 1 16 2 17 3 18 4 19 5 20 6 21 7 22 8 23 9 24 10 25 11
REMARK SMILES IDX 26 12 27 13 28 14 29 15 30 16 14 17 13 18 12 19 11 20 10 21
REMARK SMILES IDX 9 22 8 23 7 24 6 25 5 26 4 27 3 28 2 29 1 30
REMARK H PARENT
REMARK Flexibility Score: inf
ROOT
ATOM      1  C   UNL     1     -33.673  17.024  -8.892  1.00  0.00     0.000 C 
ENDROOT
BRANCH   1   2
ATOM      2  C   UNL     1     -33.685  16.611  -7.411  1.00  0.00     0.000 C 
BRANCH   2   3
ATOM      3  C   UNL     1     -33.491  15.096  -7.213  1.00  0.00     0.000 C 
BRANCH   3   4
ATOM      4  C   UNL     1     -33.048  14.669  -5.799  1.00  0.00     0.000 C 
BRANCH   4   5
ATOM      5  C   UNL     1     -33.645  13.340  -5.293  1.00  0.00     0.000 C 
BRANCH   5   6
ATOM      6  C   UNL     1     -32.923  12.076  -5.789  1.00  0.00     0.000 C 
BRANCH   6   7
ATOM      7  C   UNL     1     -33.589  11.459  -7.031  1.00  0.00     0.000 C 
BRANCH   7   8
ATOM      8  C   UNL     1     -32.715  10.386  -7.705  1.00  0.00     0.000 C 
BRANCH   8   9
ATOM      9  C   UNL     1     -33.116   8.927  -7.394  1.00  0.00     0.000 C 
BRANCH   9  10
ATOM     10  C   UNL     1     -32.265   7.851  -8.093  1.00  0.00     0.000 C 
BRANCH  10  11
ATOM     11  C   UNL     1     -32.804   6.413  -7.963  1.00  0.00     0.000 C 
BRANCH  11  12
ATOM     12  C   UNL     1     -31.741   5.394  -7.495  1.00  0.00     0.006 C 
BRANCH  12  13
ATOM     13  C   UNL     1     -30.558   5.242  -8.465  1.00  0.00     0.053 C 
BRANCH  13  14
ATOM     14  C   UNL     1     -29.240   5.416  -7.771  1.00  0.00     0.041 C 
ATOM     15  O   UNL     1     -28.194   4.911  -8.260  1.00  0.00    -0.550 OA
ATOM     16  O   UNL     1     -29.168   6.139  -6.587  1.00  0.00    -0.550 OA
ENDBRANCH  13  14
ENDBRANCH  12  13
ENDBRANCH  11  12
ENDBRANCH  10  11
ENDBRANCH   9  10
ENDBRANCH   8   9
ENDBRANCH   7   8
ENDBRANCH   6   7
ENDBRANCH   5   6
ENDBRANCH   4   5
ENDBRANCH   3   4
ENDBRANCH   2   3
ENDBRANCH   1   2
BRANCH   1  17
ATOM     17  C   UNL     1     -32.269  16.958  -9.514  1.00  0.00     0.000 C 
BRANCH  17  18
ATOM     18  C   UNL     1     -32.050  18.015 -10.607  1.00  0.00     0.000 C 
BRANCH  18  19
ATOM     19  C   UNL     1     -32.986  19.213 -10.407  1.00  0.00     0.000 C 
BRANCH  19  20
ATOM     20  C   UNL     1     -32.195  20.478 -10.042  1.00  0.00     0.000 C 
BRANCH  20  21
ATOM     21  C   UNL     1     -33.098  21.635  -9.582  1.00  0.00     0.000 C 
BRANCH  21  22
ATOM     22  C   UNL     1     -32.713  23.021 -10.140  1.00  0.00    -0.000 C 
BRANCH  22  23
ATOM     23  C   UNL     1     -31.203  23.335 -10.116  1.00  0.00    -0.000 C 
BRANCH  23  24
ATOM     24  C   UNL     1     -30.329  22.414 -10.991  1.00  0.00    -0.000 C 
BRANCH  24  25
ATOM     25  C   UNL     1     -29.531  21.346 -10.221  1.00  0.00    -0.000 C 
BRANCH  25  26
ATOM     26  C   UNL     1     -28.934  20.266 -11.140  1.00  0.00    -0.000 C 
BRANCH  26  27
ATOM     27  C   UNL     1     -29.599  18.895 -10.945  1.00  0.00    -0.000 C 
BRANCH  27  28
ATOM     28  C   UNL     1     -28.599  17.729 -11.037  1.00  0.00    -0.000 C 
BRANCH  28  29
ATOM     29  C   UNL     1     -29.283  16.387 -11.339  1.00  0.00    -0.003 C 
ATOM     30  C   UNL     1     -29.215  16.008 -12.819  1.00  0.00     0.004 C 
ENDBRANCH  28  29
ENDBRANCH  27  28
ENDBRANCH  26  27
ENDBRANCH  25  26
ENDBRANCH  24  25
ENDBRANCH  23  24
ENDBRANCH  22  23
ENDBRANCH  21  22
ENDBRANCH  20  21
ENDBRANCH  19  20
ENDBRANCH  18  19
ENDBRANCH  17  18
ENDBRANCH   1  17
TORSDOF 26
ENDMDL
MODEL 8
REMARK VINA RESULT:    20.737      6.192     10.764
REMARK INTER + INTRA:          50.154
REMARK INTER:                  48.966
REMARK INTRA:                   1.188
REMARK UNBOUND:                -2.102
REMARK SMILES CCCCCCCCCCCCCCCCCCCCCCCCCCCC(=O)[O-]
REMARK SMILES IDX 15 1 16 2 17 3 18 4 19 5 20 6 21 7 22 8 23 9 24 10 25 11
REMARK SMILES IDX 26 12 27 13 28 14 29 15 30 16 14 17 13 18 12 19 11 20 10 21
REMARK SMILES IDX 9 22 8 23 7 24 6 25 5 26 4 27 3 28 2 29 1 30
REMARK H PARENT
REMARK Flexibility Score: inf
ROOT
ATOM      1  C   UNL     1     -32.597  16.504  -9.051  1.00  0.00     0.000 C 
ENDROOT
BRANCH   1   2
ATOM      2  C   UNL     1     -32.821  17.465 -10.231  1.00  0.00     0.000 C 
BRANCH   2   3
ATOM      3  C   UNL     1     -32.131  18.828 -10.030  1.00  0.00     0.000 C 
BRANCH   3   4
ATOM      4  C   UNL     1     -33.020  20.059 -10.295  1.00  0.00     0.000 C 
BRANCH   4   5
ATOM      5  C   UNL     1     -32.631  21.333  -9.517  1.00  0.00     0.000 C 
BRANCH   5   6
ATOM      6  C   UNL     1     -33.350  22.615  -9.972  1.00  0.00     0.000 C 
BRANCH   6   7
ATOM      7  C   UNL     1     -32.456  23.864  -9.875  1.00  0.00     0.000 C 
BRANCH   7   8
ATOM      8  C   UNL     1     -30.968  23.551 -10.117  1.00  0.00     0.000 C 
BRANCH   8   9
ATOM      9  C   UNL     1     -30.683  22.162 -10.728  1.00  0.00     0.000 C 
BRANCH   9  10
ATOM     10  C   UNL     1     -29.249  21.959 -11.252  1.00  0.00     0.000 C 
BRANCH  10  11
ATOM     11  C   UNL     1     -28.673  20.546 -11.034  1.00  0.00     0.000 C 
BRANCH  11  12
ATOM     12  C   UNL     1     -29.752  19.443 -10.955  1.00  0.00     0.006 C 
BRANCH  12  13
ATOM     13  C   UNL     1     -29.220  18.090 -10.459  1.00  0.00     0.053 C 
BRANCH  13  14
ATOM     14  C   UNL     1     -29.183  17.067 -11.555  1.00  0.00     0.041 C 
ATOM     15  O   UNL     1     -29.288  15.842 -11.284  1.00  0.00    -0.550 OA
ATOM     16  O   UNL     1     -29.036  17.471 -12.877  1.00  0.00    -0.550 OA
ENDBRANCH  13  14
ENDBRANCH  12  13
ENDBRANCH  11  12
ENDBRANCH  10  11
ENDBRANCH   9  10
ENDBRANCH   8   9
ENDBRANCH   7   8
ENDBRANCH   6   7
ENDBRANCH   5   6
ENDBRANCH   4   5
ENDBRANCH   3   4
ENDBRANCH   2   3
ENDBRANCH   1   2
BRANCH   1  17
ATOM     17  C   UNL     1     -33.541  16.788  -7.871  1.00  0.00     0.000 C 
BRANCH  17  18
ATOM     18  C   UNL     1     -33.480  15.703  -6.785  1.00  0.00     0.000 C 
BRANCH  18  19
ATOM     19  C   UNL     1     -33.989  14.360  -7.322  1.00  0.00     0.000 C 
BRANCH  19  20
ATOM     20  C   UNL     1     -33.395  13.187  -6.528  1.00  0.00     0.000 C 
BRANCH  20  21
ATOM     21  C   UNL     1     -33.440  11.859  -7.304  1.00  0.00     0.000 C 
BRANCH  21  22
ATOM     22  C   UNL     1     -32.242  10.919  -7.053  1.00  0.00    -0.000 C 
BRANCH  22  23
ATOM     23  C   UNL     1     -31.333  10.682  -8.276  1.00  0.00    -0.000 C 
BRANCH  23  24
ATOM     24  C   UNL     1     -31.506   9.313  -8.964  1.00  0.00    -0.000 C 
BRANCH  24  25
ATOM     25  C   UNL     1     -31.967   8.171  -8.041  1.00  0.00    -0.000 C 
BRANCH  25  26
ATOM     26  C   UNL     1     -32.078   6.820  -8.769  1.00  0.00    -0.000 C 
BRANCH  26  27
ATOM     27  C   UNL     1     -31.399   5.678  -7.996  1.00  0.00    -0.000 C 
BRANCH  27  28
ATOM     28  C   UNL     1     -30.215   5.061  -8.761  1.00  0.00    -0.000 C 
BRANCH  28  29
ATOM     29  C   UNL     1     -28.910   5.089  -7.951  1.00  0.00    -0.003 C 
ATOM     30  C   UNL     1     -29.028   5.914  -6.669  1.00  0.00     0.004 C 
ENDBRANCH  28  29
ENDBRANCH  27  28
ENDBRANCH  26  27
ENDBRANCH  25  26
ENDBRANCH  24  25
ENDBRANCH  23  24
ENDBRANCH  22  23
ENDBRANCH  21  22
ENDBRANCH  20  21
ENDBRANCH  19  20
ENDBRANCH  18  19
ENDBRANCH  17  18
ENDBRANCH   1  17
TORSDOF 26
ENDMDL
MODEL 9
REMARK VINA RESULT:    20.914      6.782      9.636
REMARK INTER + INTRA:          50.601
REMARK INTER:                  50.517
REMARK INTRA:                   0.084
REMARK UNBOUND:                -2.102
REMARK SMILES CCCCCCCCCCCCCCCCCCCCCCCCCCCC(=O)[O-]
REMARK SMILES IDX 15 1 16 2 17 3 18 4 19 5 20 6 21 7 22 8 23 9 24 10 25 11
REMARK SMILES IDX 26 12 27 13 28 14 29 15 30 16 14 17 13 18 12 19 11 20 10 21
REMARK SMILES IDX 9 22 8 23 7 24 6 25 5 26 4 27 3 28 2 29 1 30
REMARK H PARENT
REMARK Flexibility Score: inf
ROOT
ATOM      1  C   UNL     1     -31.984  17.585  -9.979  1.00  0.00     0.000 C 
ENDROOT
BRANCH   1   2
ATOM      2  C   UNL     1     -32.611  16.303  -9.407  1.00  0.00     0.000 C 
BRANCH   2   3
ATOM      3  C   UNL     1     -33.540  16.575  -8.210  1.00  0.00     0.000 C 
BRANCH   3   4
ATOM      4  C   UNL     1     -33.295  15.688  -6.973  1.00  0.00     0.000 C 
BRANCH   4   5
ATOM      5  C   UNL     1     -33.910  14.275  -7.043  1.00  0.00     0.000 C 
BRANCH   5   6
ATOM      6  C   UNL     1     -33.584  13.367  -5.844  1.00  0.00     0.000 C 
BRANCH   6   7
ATOM      7  C   UNL     1     -32.573  12.261  -6.194  1.00  0.00     0.000 C 
BRANCH   7   8
ATOM      8  C   UNL     1     -33.249  10.974  -6.699  1.00  0.00     0.000 C 
BRANCH   8   9
ATOM      9  C   UNL     1     -32.751  10.470  -8.071  1.00  0.00     0.000 C 
BRANCH   9  10
ATOM     10  C   UNL     1     -31.233  10.232  -8.170  1.00  0.00     0.000 C 
BRANCH  10  11
ATOM     11  C   UNL     1     -30.791   8.772  -7.952  1.00  0.00     0.000 C 
BRANCH  11  12
ATOM     12  C   UNL     1     -31.758   7.733  -8.564  1.00  0.00     0.006 C 
BRANCH  12  13
ATOM     13  C   UNL     1     -31.804   6.402  -7.798  1.00  0.00     0.053 C 
BRANCH  13  14
ATOM     14  C   UNL     1     -30.500   5.666  -7.877  1.00  0.00     0.041 C 
ATOM     15  O   UNL     1     -29.666   5.747  -6.937  1.00  0.00    -0.550 OA
ATOM     16  O   UNL     1     -30.209   4.885  -8.991  1.00  0.00    -0.550 OA
ENDBRANCH  13  14
ENDBRANCH  12  13
ENDBRANCH  11  12
ENDBRANCH  10  11
ENDBRANCH   9  10
ENDBRANCH   8   9
ENDBRANCH   7   8
ENDBRANCH   6   7
ENDBRANCH   5   6
ENDBRANCH   4   5
ENDBRANCH   3   4
ENDBRANCH   2   3
ENDBRANCH   1   2
BRANCH   1  17
ATOM     17  C   UNL     1     -33.002  18.729 -10.119  1.00  0.00     0.000 C 
BRANCH  17  18
ATOM     18  C   UNL     1     -32.396  19.993 -10.747  1.00  0.00     0.000 C 
BRANCH  18  19
ATOM     19  C   UNL     1     -32.346  21.141  -9.731  1.00  0.00     0.000 C 
BRANCH  19  20
ATOM     20  C   UNL     1     -31.642  22.371 -10.321  1.00  0.00     0.000 C 
BRANCH  20  21
ATOM     21  C   UNL     1     -30.316  22.022 -11.019  1.00  0.00     0.000 C 
BRANCH  21  22
ATOM     22  C   UNL     1     -29.489  20.918 -10.328  1.00  0.00    -0.000 C 
BRANCH  22  23
ATOM     23  C   UNL     1     -29.249  19.655 -11.180  1.00  0.00    -0.000 C 
BRANCH  23  24
ATOM     24  C   UNL     1     -29.540  18.319 -10.465  1.00  0.00    -0.000 C 
BRANCH  24  25
ATOM     25  C   UNL     1     -28.626  17.149 -10.871  1.00  0.00    -0.000 C 
BRANCH  25  26
ATOM     26  C   UNL     1     -29.228  16.280 -11.990  1.00  0.00    -0.000 C 
BRANCH  26  27
ATOM     27  C   UNL     1     -28.983  16.870 -13.388  1.00  0.00    -0.000 C 
BRANCH  27  28
ATOM     28  C   UNL     1     -29.063  15.812 -14.503  1.00  0.00    -0.000 C 
BRANCH  28  29
ATOM     29  C   UNL     1     -27.710  15.136 -14.773  1.00  0.00    -0.003 C 
ATOM     30  C   UNL     1     -27.798  13.610 -14.758  1.00  0.00     0.004 C 
ENDBRANCH  28  29
ENDBRANCH  27  28
ENDBRANCH  26  27
ENDBRANCH  25  26
ENDBRANCH  24  25
ENDBRANCH  23  24
ENDBRANCH  22  23
ENDBRANCH  21  22
ENDBRANCH  20  21
ENDBRANCH  19  20
ENDBRANCH  18  19
ENDBRANCH  17  18
ENDBRANCH   1  17
TORSDOF 26
ENDMDL
