MODEL 1
REMARK VINA RESULT:    -7.534      0.000      0.000
REMARK INTER + INTRA:         -15.387
REMARK INTER:                 -14.580
REMARK INTRA:                  -0.807
REMARK UNBOUND:                -0.807
REMARK SMILES CCCCCCCCCCCCCCCCCC(=O)[O-]
REMARK SMILES IDX 10 1 11 2 12 3 13 4 14 5 15 6 16 7 17 8 18 9 19 10 20 11
REMARK SMILES IDX 9 12 8 13 7 14 6 15 5 16 4 17 3 18 2 19 1 20
REMARK H PARENT
REMARK Flexibility Score: inf
ROOT
ATOM      1  C   UNL     1      -6.216  -0.608 -19.125  1.00  0.00     0.000 C 
ENDROOT
BRANCH   1   2
ATOM      2  C   UNL     1      -5.129  -1.649 -18.802  1.00  0.00     0.000 C 
BRANCH   2   3
ATOM      3  C   UNL     1      -3.708  -1.100 -18.998  1.00  0.00     0.000 C 
BRANCH   3   4
ATOM      4  C   UNL     1      -3.581   0.378 -18.592  1.00  0.00     0.000 C 
BRANCH   4   5
ATOM      5  C   UNL     1      -2.581   0.597 -17.444  1.00  0.00     0.000 C 
BRANCH   5   6
ATOM      6  C   UNL     1      -1.933   1.998 -17.452  1.00  0.00     0.000 C 
BRANCH   6   7
ATOM      7  C   UNL     1      -2.980   3.122 -17.409  1.00  0.00     0.006 C 
BRANCH   7   8
ATOM      8  C   UNL     1      -2.342   4.479 -17.721  1.00  0.00     0.053 C 
BRANCH   8   9
ATOM      9  C   UNL     1      -3.170   5.590 -17.157  1.00  0.00     0.041 C 
ATOM     10  O   UNL     1      -4.153   5.332 -16.412  1.00  0.00    -0.550 OA
ATOM     11  O   UNL     1      -2.828   6.911 -17.413  1.00  0.00    -0.550 OA
ENDBRANCH   8   9
ENDBRANCH   7   8
ENDBRANCH   6   7
ENDBRANCH   5   6
ENDBRANCH   4   5
ENDBRANCH   3   4
ENDBRANCH   2   3
ENDBRANCH   1   2
BRANCH   1  12
ATOM     12  C   UNL     1      -7.492  -1.252 -19.709  1.00  0.00     0.000 C 
BRANCH  12  13
ATOM     13  C   UNL     1      -7.222  -2.173 -20.914  1.00  0.00    -0.000 C 
BRANCH  13  14
ATOM     14  C   UNL     1      -7.427  -3.674 -20.640  1.00  0.00    -0.000 C 
BRANCH  14  15
ATOM     15  C   UNL     1      -7.973  -4.015 -19.236  1.00  0.00    -0.000 C 
BRANCH  15  16
ATOM     16  C   UNL     1      -8.891  -5.250 -19.173  1.00  0.00    -0.000 C 
BRANCH  16  17
ATOM     17  C   UNL     1      -8.159  -6.600 -19.057  1.00  0.00    -0.000 C 
BRANCH  17  18
ATOM     18  C   UNL     1      -8.574  -7.627 -20.131  1.00  0.00    -0.000 C 
BRANCH  18  19
ATOM     19  C   UNL     1      -8.534  -9.072 -19.611  1.00  0.00    -0.003 C 
ATOM     20  C   UNL     1      -7.823  -9.993 -20.599  1.00  0.00     0.004 C 
ENDBRANCH  18  19
ENDBRANCH  17  18
ENDBRANCH  16  17
ENDBRANCH  15  16
ENDBRANCH  14  15
ENDBRANCH  13  14
ENDBRANCH  12  13
ENDBRANCH   1  12
TORSDOF 16
ENDMDL
MODEL 2
REMARK VINA RESULT:    -7.337      1.440      2.792
REMARK INTER + INTRA:         -15.007
REMARK INTER:                 -14.224
REMARK INTRA:                  -0.783
REMARK UNBOUND:                -0.807
REMARK SMILES CCCCCCCCCCCCCCCCCC(=O)[O-]
REMARK SMILES IDX 10 1 11 2 12 3 13 4 14 5 15 6 16 7 17 8 18 9 19 10 20 11
REMARK SMILES IDX 9 12 8 13 7 14 6 15 5 16 4 17 3 18 2 19 1 20
REMARK H PARENT
REMARK Flexibility Score: inf
ROOT
ATOM      1  C   UNL     1      -4.272  -0.279 -18.015  1.00  0.00     0.000 C 
ENDROOT
BRANCH   1   2
ATOM      2  C   UNL     1      -3.016   0.108 -18.815  1.00  0.00     0.000 C 
BRANCH   2   3
ATOM      3  C   UNL     1      -2.151   1.150 -18.090  1.00  0.00     0.000 C 
BRANCH   3   4
ATOM      4  C   UNL     1      -2.977   2.315 -17.520  1.00  0.00     0.000 C 
BRANCH   4   5
ATOM      5  C   UNL     1      -2.230   3.658 -17.577  1.00  0.00     0.000 C 
BRANCH   5   6
ATOM      6  C   UNL     1      -3.161   4.872 -17.788  1.00  0.00     0.000 C 
BRANCH   6   7
ATOM      7  C   UNL     1      -3.434   5.628 -16.479  1.00  0.00     0.006 C 
BRANCH   7   8
ATOM      8  C   UNL     1      -4.904   6.047 -16.383  1.00  0.00     0.053 C 
BRANCH   8   9
ATOM      9  C   UNL     1      -5.378   5.975 -14.966  1.00  0.00     0.041 C 
ATOM     10  O   UNL     1      -5.639   4.860 -14.440  1.00  0.00    -0.550 OA
ATOM     11  O   UNL     1      -5.484   7.134 -14.208  1.00  0.00    -0.550 OA
ENDBRANCH   8   9
ENDBRANCH   7   8
ENDBRANCH   6   7
ENDBRANCH   5   6
ENDBRANCH   4   5
ENDBRANCH   3   4
ENDBRANCH   2   3
ENDBRANCH   1   2
BRANCH   1  12
ATOM     12  C   UNL     1      -5.212  -1.212 -18.810  1.00  0.00     0.000 C 
BRANCH  12  13
ATOM     13  C   UNL     1      -6.630  -0.640 -19.000  1.00  0.00    -0.000 C 
BRANCH  13  14
ATOM     14  C   UNL     1      -7.639  -1.613 -19.639  1.00  0.00    -0.000 C 
BRANCH  14  15
ATOM     15  C   UNL     1      -7.264  -2.112 -21.051  1.00  0.00    -0.000 C 
BRANCH  15  16
ATOM     16  C   UNL     1      -6.906  -3.608 -21.143  1.00  0.00    -0.000 C 
BRANCH  16  17
ATOM     17  C   UNL     1      -7.077  -4.399 -19.832  1.00  0.00    -0.000 C 
BRANCH  17  18
ATOM     18  C   UNL     1      -7.114  -5.929 -20.031  1.00  0.00    -0.000 C 
BRANCH  18  19
ATOM     19  C   UNL     1      -8.488  -6.532 -19.702  1.00  0.00    -0.003 C 
ATOM     20  C   UNL     1      -8.433  -8.057 -19.701  1.00  0.00     0.004 C 
ENDBRANCH  18  19
ENDBRANCH  17  18
ENDBRANCH  16  17
ENDBRANCH  15  16
ENDBRANCH  14  15
ENDBRANCH  13  14
ENDBRANCH  12  13
ENDBRANCH   1  12
TORSDOF 16
ENDMDL
MODEL 3
REMARK VINA RESULT:    -7.243      2.209      3.707
REMARK INTER + INTRA:         -14.825
REMARK INTER:                 -13.582
REMARK INTRA:                  -1.243
REMARK UNBOUND:                -0.807
REMARK SMILES CCCCCCCCCCCCCCCCCC(=O)[O-]
REMARK SMILES IDX 10 1 11 2 12 3 13 4 14 5 15 6 16 7 17 8 18 9 19 10 20 11
REMARK SMILES IDX 9 12 8 13 7 14 6 15 5 16 4 17 3 18 2 19 1 20
REMARK H PARENT
REMARK Flexibility Score: inf
ROOT
ATOM      1  C   UNL     1      -7.669  -2.672 -19.455  1.00  0.00     0.000 C 
ENDROOT
BRANCH   1   2
ATOM      2  C   UNL     1      -7.165  -2.350 -20.873  1.00  0.00     0.000 C 
BRANCH   2   3
ATOM      3  C   UNL     1      -6.006  -3.260 -21.309  1.00  0.00     0.000 C 
BRANCH   3   4
ATOM      4  C   UNL     1      -4.647  -2.541 -21.286  1.00  0.00     0.000 C 
BRANCH   4   5
ATOM      5  C   UNL     1      -4.482  -1.615 -20.070  1.00  0.00     0.000 C 
BRANCH   5   6
ATOM      6  C   UNL     1      -3.763  -2.284 -18.879  1.00  0.00     0.000 C 
BRANCH   6   7
ATOM      7  C   UNL     1      -2.724  -1.355 -18.232  1.00  0.00     0.006 C 
BRANCH   7   8
ATOM      8  C   UNL     1      -2.974   0.104 -18.622  1.00  0.00     0.053 C 
BRANCH   8   9
ATOM      9  C   UNL     1      -3.312   0.919 -17.414  1.00  0.00     0.041 C 
ATOM     10  O   UNL     1      -2.854   2.086 -17.287  1.00  0.00    -0.550 OA
ATOM     11  O   UNL     1      -4.174   0.410 -16.451  1.00  0.00    -0.550 OA
ENDBRANCH   8   9
ENDBRANCH   7   8
ENDBRANCH   6   7
ENDBRANCH   5   6
ENDBRANCH   4   5
ENDBRANCH   3   4
ENDBRANCH   2   3
ENDBRANCH   1   2
BRANCH   1  12
ATOM     12  C   UNL     1      -6.953  -3.894 -18.840  1.00  0.00     0.000 C 
BRANCH  12  13
ATOM     13  C   UNL     1      -7.899  -5.067 -18.523  1.00  0.00    -0.000 C 
BRANCH  13  14
ATOM     14  C   UNL     1      -9.051  -5.259 -19.526  1.00  0.00    -0.000 C 
BRANCH  14  15
ATOM     15  C   UNL     1      -9.259  -6.708 -20.017  1.00  0.00    -0.000 C 
BRANCH  15  16
ATOM     16  C   UNL     1      -8.081  -7.664 -19.750  1.00  0.00    -0.000 C 
BRANCH  16  17
ATOM     17  C   UNL     1      -8.470  -9.017 -19.124  1.00  0.00    -0.000 C 
BRANCH  17  18
ATOM     18  C   UNL     1      -8.275 -10.220 -20.072  1.00  0.00    -0.000 C 
BRANCH  18  19
ATOM     19  C   UNL     1      -7.582  -9.828 -21.385  1.00  0.00    -0.003 C 
ATOM     20  C   UNL     1      -8.522  -9.995 -22.575  1.00  0.00     0.004 C 
ENDBRANCH  18  19
ENDBRANCH  17  18
ENDBRANCH  16  17
ENDBRANCH  15  16
ENDBRANCH  14  15
ENDBRANCH  13  14
ENDBRANCH  12  13
ENDBRANCH   1  12
TORSDOF 16
ENDMDL
MODEL 4
REMARK VINA RESULT:    -7.233      5.675     10.928
REMARK INTER + INTRA:         -14.805
REMARK INTER:                 -13.683
REMARK INTRA:                  -1.122
REMARK UNBOUND:                -0.807
REMARK SMILES CCCCCCCCCCCCCCCCCC(=O)[O-]
REMARK SMILES IDX 10 1 11 2 12 3 13 4 14 5 15 6 16 7 17 8 18 9 19 10 20 11
REMARK SMILES IDX 9 12 8 13 7 14 6 15 5 16 4 17 3 18 2 19 1 20
REMARK H PARENT
REMARK Flexibility Score: inf
ROOT
ATOM      1  C   UNL     1      -7.560  -1.909 -19.725  1.00  0.00     0.000 C 
ENDROOT
BRANCH   1   2
ATOM      2  C   UNL     1      -6.972  -2.767 -20.858  1.00  0.00     0.000 C 
BRANCH   2   3
ATOM      3  C   UNL     1      -7.098  -4.274 -20.585  1.00  0.00     0.000 C 
BRANCH   3   4
ATOM      4  C   UNL     1      -7.064  -4.610 -19.085  1.00  0.00     0.000 C 
BRANCH   4   5
ATOM      5  C   UNL     1      -8.233  -5.510 -18.650  1.00  0.00     0.000 C 
BRANCH   5   6
ATOM      6  C   UNL     1      -8.789  -6.390 -19.789  1.00  0.00     0.000 C 
BRANCH   6   7
ATOM      7  C   UNL     1      -8.511  -7.884 -19.558  1.00  0.00     0.006 C 
BRANCH   7   8
ATOM      8  C   UNL     1      -7.557  -8.435 -20.621  1.00  0.00     0.053 C 
BRANCH   8   9
ATOM      9  C   UNL     1      -7.934  -9.836 -20.988  1.00  0.00     0.041 C 
ATOM     10  O   UNL     1      -7.795 -10.769 -20.153  1.00  0.00    -0.550 OA
ATOM     11  O   UNL     1      -8.485 -10.104 -22.235  1.00  0.00    -0.550 OA
ENDBRANCH   8   9
ENDBRANCH   7   8
ENDBRANCH   6   7
ENDBRANCH   5   6
ENDBRANCH   4   5
ENDBRANCH   3   4
ENDBRANCH   2   3
ENDBRANCH   1   2
BRANCH   1  12
ATOM     12  C   UNL     1      -6.498  -1.005 -19.060  1.00  0.00     0.000 C 
BRANCH  12  13
ATOM     13  C   UNL     1      -5.061  -1.290 -19.536  1.00  0.00    -0.000 C 
BRANCH  13  14
ATOM     14  C   UNL     1      -4.112  -1.822 -18.447  1.00  0.00    -0.000 C 
BRANCH  14  15
ATOM     15  C   UNL     1      -2.881  -0.934 -18.160  1.00  0.00    -0.000 C 
BRANCH  15  16
ATOM     16  C   UNL     1      -2.976   0.509 -18.691  1.00  0.00    -0.000 C 
BRANCH  16  17
ATOM     17  C   UNL     1      -1.899   1.471 -18.157  1.00  0.00    -0.000 C 
BRANCH  17  18
ATOM     18  C   UNL     1      -2.439   2.517 -17.159  1.00  0.00    -0.000 C 
BRANCH  18  19
ATOM     19  C   UNL     1      -2.011   3.948 -17.517  1.00  0.00    -0.003 C 
ATOM     20  C   UNL     1      -3.217   4.878 -17.604  1.00  0.00     0.004 C 
ENDBRANCH  18  19
ENDBRANCH  17  18
ENDBRANCH  16  17
ENDBRANCH  15  16
ENDBRANCH  14  15
ENDBRANCH  13  14
ENDBRANCH  12  13
ENDBRANCH   1  12
TORSDOF 16
ENDMDL
MODEL 5
REMARK VINA RESULT:    -7.119      1.064      2.263
REMARK INTER + INTRA:         -14.584
REMARK INTER:                 -13.527
REMARK INTRA:                  -1.057
REMARK UNBOUND:                -0.807
REMARK SMILES CCCCCCCCCCCCCCCCCC(=O)[O-]
REMARK SMILES IDX 10 1 11 2 12 3 13 4 14 5 15 6 16 7 17 8 18 9 19 10 20 11
REMARK SMILES IDX 9 12 8 13 7 14 6 15 5 16 4 17 3 18 2 19 1 20
REMARK H PARENT
REMARK Flexibility Score: inf
ROOT
ATOM      1  C   UNL     1      -4.181  -1.708 -18.275  1.00  0.00     0.000 C 
ENDROOT
BRANCH   1   2
ATOM      2  C   UNL     1      -2.778  -1.107 -18.081  1.00  0.00     0.000 C 
BRANCH   2   3
ATOM      3  C   UNL     1      -2.669   0.327 -18.621  1.00  0.00     0.000 C 
BRANCH   3   4
ATOM      4  C   UNL     1      -2.253   1.338 -17.541  1.00  0.00     0.000 C 
BRANCH   4   5
ATOM      5  C   UNL     1      -3.036   2.660 -17.628  1.00  0.00     0.000 C 
BRANCH   5   6
ATOM      6  C   UNL     1      -2.139   3.913 -17.548  1.00  0.00     0.000 C 
BRANCH   6   7
ATOM      7  C   UNL     1      -2.939   5.212 -17.732  1.00  0.00     0.006 C 
BRANCH   7   8
ATOM      8  C   UNL     1      -2.795   6.124 -16.510  1.00  0.00     0.053 C 
BRANCH   8   9
ATOM      9  C   UNL     1      -4.121   6.326 -15.847  1.00  0.00     0.041 C 
ATOM     10  O   UNL     1      -4.873   5.341 -15.622  1.00  0.00    -0.550 OA
ATOM     11  O   UNL     1      -4.505   7.595 -15.434  1.00  0.00    -0.550 OA
ENDBRANCH   8   9
ENDBRANCH   7   8
ENDBRANCH   6   7
ENDBRANCH   5   6
ENDBRANCH   4   5
ENDBRANCH   3   4
ENDBRANCH   2   3
ENDBRANCH   1   2
BRANCH   1  12
ATOM     12  C   UNL     1      -4.978  -0.994 -19.389  1.00  0.00     0.000 C 
BRANCH  12  13
ATOM     13  C   UNL     1      -6.426  -0.655 -18.990  1.00  0.00    -0.000 C 
BRANCH  13  14
ATOM     14  C   UNL     1      -7.510  -1.375 -19.814  1.00  0.00    -0.000 C 
BRANCH  14  15
ATOM     15  C   UNL     1      -6.988  -2.476 -20.762  1.00  0.00    -0.000 C 
BRANCH  15  16
ATOM     16  C   UNL     1      -7.513  -3.894 -20.470  1.00  0.00    -0.000 C 
BRANCH  16  17
ATOM     17  C   UNL     1      -7.816  -4.183 -18.988  1.00  0.00    -0.000 C 
BRANCH  17  18
ATOM     18  C   UNL     1      -8.146  -5.663 -18.698  1.00  0.00    -0.000 C 
BRANCH  18  19
ATOM     19  C   UNL     1      -8.408  -6.469 -19.978  1.00  0.00    -0.003 C 
ATOM     20  C   UNL     1      -8.394  -7.969 -19.696  1.00  0.00     0.004 C 
ENDBRANCH  18  19
ENDBRANCH  17  18
ENDBRANCH  16  17
ENDBRANCH  15  16
ENDBRANCH  14  15
ENDBRANCH  13  14
ENDBRANCH  12  13
ENDBRANCH   1  12
TORSDOF 16
ENDMDL
MODEL 6
REMARK VINA RESULT:    -6.965      1.800      3.660
REMARK INTER + INTRA:         -14.285
REMARK INTER:                 -13.475
REMARK INTRA:                  -0.810
REMARK UNBOUND:                -0.807
REMARK SMILES CCCCCCCCCCCCCCCCCC(=O)[O-]
REMARK SMILES IDX 10 1 11 2 12 3 13 4 14 5 15 6 16 7 17 8 18 9 19 10 20 11
REMARK SMILES IDX 9 12 8 13 7 14 6 15 5 16 4 17 3 18 2 19 1 20
REMARK H PARENT
REMARK Flexibility Score: inf
ROOT
ATOM      1  C   UNL     1      -2.908  -0.502 -17.794  1.00  0.00     0.000 C 
ENDROOT
BRANCH   1   2
ATOM      2  C   UNL     1      -2.948   0.901 -17.163  1.00  0.00     0.000 C 
BRANCH   2   3
ATOM      3  C   UNL     1      -2.581   2.009 -18.163  1.00  0.00     0.000 C 
BRANCH   3   4
ATOM      4  C   UNL     1      -2.267   3.348 -17.476  1.00  0.00     0.000 C 
BRANCH   4   5
ATOM      5  C   UNL     1      -3.478   4.295 -17.435  1.00  0.00     0.000 C 
BRANCH   5   6
ATOM      6  C   UNL     1      -3.181   5.645 -16.747  1.00  0.00     0.000 C 
BRANCH   6   7
ATOM      7  C   UNL     1      -4.454   6.314 -16.207  1.00  0.00     0.006 C 
BRANCH   7   8
ATOM      8  C   UNL     1      -5.189   5.388 -15.233  1.00  0.00     0.053 C 
BRANCH   8   9
ATOM      9  C   UNL     1      -5.714   6.165 -14.066  1.00  0.00     0.041 C 
ATOM     10  O   UNL     1      -6.794   6.805 -14.166  1.00  0.00    -0.550 OA
ATOM     11  O   UNL     1      -5.036   6.142 -12.854  1.00  0.00    -0.550 OA
ENDBRANCH   8   9
ENDBRANCH   7   8
ENDBRANCH   6   7
ENDBRANCH   5   6
ENDBRANCH   4   5
ENDBRANCH   3   4
ENDBRANCH   2   3
ENDBRANCH   1   2
BRANCH   1  12
ATOM     12  C   UNL     1      -3.836  -0.621 -19.023  1.00  0.00     0.000 C 
BRANCH  12  13
ATOM     13  C   UNL     1      -5.104  -1.455 -18.759  1.00  0.00    -0.000 C 
BRANCH  13  14
ATOM     14  C   UNL     1      -6.429  -0.730 -19.055  1.00  0.00    -0.000 C 
BRANCH  14  15
ATOM     15  C   UNL     1      -7.478  -1.567 -19.819  1.00  0.00    -0.000 C 
BRANCH  15  16
ATOM     16  C   UNL     1      -6.925  -2.392 -20.997  1.00  0.00    -0.000 C 
BRANCH  16  17
ATOM     17  C   UNL     1      -6.909  -3.916 -20.772  1.00  0.00    -0.000 C 
BRANCH  17  18
ATOM     18  C   UNL     1      -8.111  -4.436 -19.955  1.00  0.00    -0.000 C 
BRANCH  18  19
ATOM     19  C   UNL     1      -7.812  -5.768 -19.251  1.00  0.00    -0.003 C 
ATOM     20  C   UNL     1      -8.603  -6.912 -19.878  1.00  0.00     0.004 C 
ENDBRANCH  18  19
ENDBRANCH  17  18
ENDBRANCH  16  17
ENDBRANCH  15  16
ENDBRANCH  14  15
ENDBRANCH  13  14
ENDBRANCH  12  13
ENDBRANCH   1  12
TORSDOF 16
ENDMDL
MODEL 7
REMARK VINA RESULT:    -6.939      4.530     10.666
REMARK INTER + INTRA:         -14.236
REMARK INTER:                 -13.497
REMARK INTRA:                  -0.739
REMARK UNBOUND:                -0.807
REMARK SMILES CCCCCCCCCCCCCCCCCC(=O)[O-]
REMARK SMILES IDX 10 1 11 2 12 3 13 4 14 5 15 6 16 7 17 8 18 9 19 10 20 11
REMARK SMILES IDX 9 12 8 13 7 14 6 15 5 16 4 17 3 18 2 19 1 20
REMARK H PARENT
REMARK Flexibility Score: inf
ROOT
ATOM      1  C   UNL     1      -3.314  -1.193 -18.306  1.00  0.00     0.000 C 
ENDROOT
BRANCH   1   2
ATOM      2  C   UNL     1      -4.606  -1.907 -18.743  1.00  0.00     0.000 C 
BRANCH   2   3
ATOM      3  C   UNL     1      -5.772  -0.932 -18.970  1.00  0.00     0.000 C 
BRANCH   3   4
ATOM      4  C   UNL     1      -7.078  -1.649 -19.349  1.00  0.00     0.000 C 
BRANCH   4   5
ATOM      5  C   UNL     1      -7.115  -2.078 -20.826  1.00  0.00     0.000 C 
BRANCH   5   6
ATOM      6  C   UNL     1      -7.381  -3.587 -21.022  1.00  0.00     0.000 C 
BRANCH   6   7
ATOM      7  C   UNL     1      -6.981  -4.411 -19.788  1.00  0.00     0.006 C 
BRANCH   7   8
ATOM      8  C   UNL     1      -6.967  -5.908 -20.110  1.00  0.00     0.053 C 
BRANCH   8   9
ATOM      9  C   UNL     1      -8.249  -6.549 -19.680  1.00  0.00     0.041 C 
ATOM     10  O   UNL     1      -9.343  -5.945 -19.837  1.00  0.00    -0.550 OA
ATOM     11  O   UNL     1      -8.242  -7.833 -19.151  1.00  0.00    -0.550 OA
ENDBRANCH   8   9
ENDBRANCH   7   8
ENDBRANCH   6   7
ENDBRANCH   5   6
ENDBRANCH   4   5
ENDBRANCH   3   4
ENDBRANCH   2   3
ENDBRANCH   1   2
BRANCH   1  12
ATOM     12  C   UNL     1      -3.506   0.333 -18.163  1.00  0.00     0.000 C 
BRANCH  12  13
ATOM     13  C   UNL     1      -2.202   1.136 -18.335  1.00  0.00    -0.000 C 
BRANCH  13  14
ATOM     14  C   UNL     1      -1.904   2.136 -17.203  1.00  0.00    -0.000 C 
BRANCH  14  15
ATOM     15  C   UNL     1      -1.890   3.621 -17.626  1.00  0.00    -0.000 C 
BRANCH  15  16
ATOM     16  C   UNL     1      -3.264   4.317 -17.613  1.00  0.00    -0.000 C 
BRANCH  16  17
ATOM     17  C   UNL     1      -3.304   5.662 -16.862  1.00  0.00    -0.000 C 
BRANCH  17  18
ATOM     18  C   UNL     1      -4.733   6.151 -16.539  1.00  0.00    -0.000 C 
BRANCH  18  19
ATOM     19  C   UNL     1      -4.893   6.570 -15.070  1.00  0.00    -0.003 C 
ATOM     20  C   UNL     1      -5.655   5.513 -14.276  1.00  0.00     0.004 C 
ENDBRANCH  18  19
ENDBRANCH  17  18
ENDBRANCH  16  17
ENDBRANCH  15  16
ENDBRANCH  14  15
ENDBRANCH  13  14
ENDBRANCH  12  13
ENDBRANCH   1  12
TORSDOF 16
ENDMDL
MODEL 8
REMARK VINA RESULT:    -6.918      5.445     10.348
REMARK INTER + INTRA:         -14.195
REMARK INTER:                 -12.965
REMARK INTRA:                  -1.230
REMARK UNBOUND:                -0.807
REMARK SMILES CCCCCCCCCCCCCCCCCC(=O)[O-]
REMARK SMILES IDX 10 1 11 2 12 3 13 4 14 5 15 6 16 7 17 8 18 9 19 10 20 11
REMARK SMILES IDX 9 12 8 13 7 14 6 15 5 16 4 17 3 18 2 19 1 20
REMARK H PARENT
REMARK Flexibility Score: inf
ROOT
ATOM      1  C   UNL     1      -7.179  -2.076 -20.868  1.00  0.00     0.000 C 
ENDROOT
BRANCH   1   2
ATOM      2  C   UNL     1      -7.784  -2.445 -19.502  1.00  0.00     0.000 C 
BRANCH   2   3
ATOM      3  C   UNL     1      -6.838  -3.303 -18.649  1.00  0.00     0.000 C 
BRANCH   3   4
ATOM      4  C   UNL     1      -7.350  -4.740 -18.457  1.00  0.00     0.000 C 
BRANCH   4   5
ATOM      5  C   UNL     1      -8.867  -4.866 -18.679  1.00  0.00     0.000 C 
BRANCH   5   6
ATOM      6  C   UNL     1      -9.262  -6.071 -19.560  1.00  0.00     0.000 C 
BRANCH   6   7
ATOM      7  C   UNL     1      -8.077  -7.014 -19.819  1.00  0.00     0.006 C 
BRANCH   7   8
ATOM      8  C   UNL     1      -8.468  -8.133 -20.789  1.00  0.00     0.053 C 
BRANCH   8   9
ATOM      9  C   UNL     1      -8.198  -9.473 -20.180  1.00  0.00     0.041 C 
ATOM     10  O   UNL     1      -8.587  -9.726 -19.008  1.00  0.00    -0.550 OA
ATOM     11  O   UNL     1      -7.561 -10.459 -20.922  1.00  0.00    -0.550 OA
ENDBRANCH   8   9
ENDBRANCH   7   8
ENDBRANCH   6   7
ENDBRANCH   5   6
ENDBRANCH   4   5
ENDBRANCH   3   4
ENDBRANCH   2   3
ENDBRANCH   1   2
BRANCH   1  12
ATOM     12  C   UNL     1      -6.127  -3.102 -21.341  1.00  0.00     0.000 C 
BRANCH  12  13
ATOM     13  C   UNL     1      -4.698  -2.532 -21.411  1.00  0.00    -0.000 C 
BRANCH  13  14
ATOM     14  C   UNL     1      -3.951  -2.493 -20.064  1.00  0.00    -0.000 C 
BRANCH  14  15
ATOM     15  C   UNL     1      -3.779  -1.086 -19.452  1.00  0.00    -0.000 C 
BRANCH  15  16
ATOM     16  C   UNL     1      -3.924  -1.017 -17.920  1.00  0.00    -0.000 C 
BRANCH  16  17
ATOM     17  C   UNL     1      -3.813   0.397 -17.318  1.00  0.00    -0.000 C 
BRANCH  17  18
ATOM     18  C   UNL     1      -3.050   1.395 -18.215  1.00  0.00    -0.000 C 
BRANCH  18  19
ATOM     19  C   UNL     1      -1.915   2.110 -17.467  1.00  0.00    -0.003 C 
ATOM     20  C   UNL     1      -2.119   3.622 -17.472  1.00  0.00     0.004 C 
ENDBRANCH  18  19
ENDBRANCH  17  18
ENDBRANCH  16  17
ENDBRANCH  15  16
ENDBRANCH  14  15
ENDBRANCH  13  14
ENDBRANCH  12  13
ENDBRANCH   1  12
TORSDOF 16
ENDMDL
MODEL 9
REMARK VINA RESULT:    -6.884      3.232      5.536
REMARK INTER + INTRA:         -14.130
REMARK INTER:                 -13.478
REMARK INTRA:                  -0.652
REMARK UNBOUND:                -0.807
REMARK SMILES CCCCCCCCCCCCCCCCCC(=O)[O-]
REMARK SMILES IDX 10 1 11 2 12 3 13 4 14 5 15 6 16 7 17 8 18 9 19 10 20 11
REMARK SMILES IDX 9 12 8 13 7 14 6 15 5 16 4 17 3 18 2 19 1 20
REMARK H PARENT
REMARK Flexibility Score: inf
ROOT
ATOM      1  C   UNL     1      -2.982   2.128 -17.536  1.00  0.00     0.000 C 
ENDROOT
BRANCH   1   2
ATOM      2  C   UNL     1      -1.876   3.187 -17.682  1.00  0.00     0.000 C 
BRANCH   2   3
ATOM      3  C   UNL     1      -2.303   4.565 -17.151  1.00  0.00     0.000 C 
BRANCH   3   4
ATOM      4  C   UNL     1      -3.805   4.833 -17.340  1.00  0.00     0.000 C 
BRANCH   4   5
ATOM      5  C   UNL     1      -4.331   5.951 -16.422  1.00  0.00     0.000 C 
BRANCH   5   6
ATOM      6  C   UNL     1      -5.242   5.437 -15.287  1.00  0.00     0.000 C 
BRANCH   6   7
ATOM      7  C   UNL     1      -5.388   6.463 -14.152  1.00  0.00     0.006 C 
BRANCH   7   8
ATOM      8  C   UNL     1      -6.835   6.529 -13.655  1.00  0.00     0.053 C 
BRANCH   8   9
ATOM      9  C   UNL     1      -6.885   7.055 -12.255  1.00  0.00     0.041 C 
ATOM     10  O   UNL     1      -7.822   7.817 -11.897  1.00  0.00    -0.550 OA
ATOM     11  O   UNL     1      -5.925   6.665 -11.330  1.00  0.00    -0.550 OA
ENDBRANCH   8   9
ENDBRANCH   7   8
ENDBRANCH   6   7
ENDBRANCH   5   6
ENDBRANCH   4   5
ENDBRANCH   3   4
ENDBRANCH   2   3
ENDBRANCH   1   2
BRANCH   1  12
ATOM     12  C   UNL     1      -2.776   0.928 -18.487  1.00  0.00     0.000 C 
BRANCH  12  13
ATOM     13  C   UNL     1      -3.904  -0.118 -18.413  1.00  0.00    -0.000 C 
BRANCH  13  14
ATOM     14  C   UNL     1      -3.434  -1.583 -18.479  1.00  0.00    -0.000 C 
BRANCH  14  15
ATOM     15  C   UNL     1      -4.347  -2.528 -19.289  1.00  0.00    -0.000 C 
BRANCH  15  16
ATOM     16  C   UNL     1      -5.269  -3.429 -18.445  1.00  0.00    -0.000 C 
BRANCH  16  17
ATOM     17  C   UNL     1      -6.657  -3.696 -19.059  1.00  0.00    -0.000 C 
BRANCH  17  18
ATOM     18  C   UNL     1      -7.399  -2.415 -19.498  1.00  0.00    -0.000 C 
BRANCH  18  19
ATOM     19  C   UNL     1      -7.359  -2.203 -21.019  1.00  0.00    -0.003 C 
ATOM     20  C   UNL     1      -6.791  -3.428 -21.730  1.00  0.00     0.004 C 
ENDBRANCH  18  19
ENDBRANCH  17  18
ENDBRANCH  16  17
ENDBRANCH  15  16
ENDBRANCH  14  15
ENDBRANCH  13  14
ENDBRANCH  12  13
ENDBRANCH   1  12
TORSDOF 16
ENDMDL
