MODEL 1
REMARK VINA RESULT:    -3.450      0.000      0.000
REMARK INTER + INTRA:          -8.532
REMARK INTER:                  -6.273
REMARK INTRA:                  -2.258
REMARK UNBOUND:                -2.258
REMARK SMILES CCCCCCCCCCCCCCCC(=O)[O-]
REMARK SMILES IDX 9 1 10 2 11 3 12 4 13 5 14 6 15 7 16 8 17 9 18 10 8 11 7 12
REMARK SMILES IDX 6 13 5 14 4 15 3 16 2 17 1 18
REMARK H PARENT
REMARK Flexibility Score: inf
ROOT
ATOM      1  C   UNL     1      29.296  46.558   8.332  1.00  0.00     0.000 C 
ENDROOT
BRANCH   1   2
ATOM      2  C   UNL     1      30.707  46.452   7.727  1.00  0.00     0.000 C 
BRANCH   2   3
ATOM      3  C   UNL     1      31.745  47.281   8.503  1.00  0.00     0.000 C 
BRANCH   3   4
ATOM      4  C   UNL     1      32.167  48.555   7.748  1.00  0.00     0.000 C 
BRANCH   4   5
ATOM      5  C   UNL     1      31.544  48.645   6.345  1.00  0.00     0.000 C 
BRANCH   5   6
ATOM      6  C   UNL     1      30.733  49.935   6.137  1.00  0.00     0.006 C 
BRANCH   6   7
ATOM      7  C   UNL     1      30.900  50.918   7.305  1.00  0.00     0.053 C 
BRANCH   7   8
ATOM      8  C   UNL     1      31.641  52.151   6.890  1.00  0.00     0.041 C 
ATOM      9  O   UNL     1      31.014  53.150   6.449  1.00  0.00    -0.550 OA
ATOM     10  O   UNL     1      33.028  52.188   6.967  1.00  0.00    -0.550 OA
ENDBRANCH   7   8
ENDBRANCH   6   7
ENDBRANCH   5   6
ENDBRANCH   4   5
ENDBRANCH   3   4
ENDBRANCH   2   3
ENDBRANCH   1   2
BRANCH   1  11
ATOM     11  C   UNL     1      29.217  47.590   9.467  1.00  0.00     0.000 C 
BRANCH  11  12
ATOM     12  C   UNL     1      28.459  48.865   9.060  1.00  0.00    -0.000 C 
BRANCH  12  13
ATOM     13  C   UNL     1      27.466  48.618   7.913  1.00  0.00    -0.000 C 
BRANCH  13  14
ATOM     14  C   UNL     1      26.009  48.891   8.325  1.00  0.00    -0.000 C 
BRANCH  14  15
ATOM     15  C   UNL     1      25.218  47.601   8.615  1.00  0.00    -0.000 C 
BRANCH  15  16
ATOM     16  C   UNL     1      25.515  46.953   9.979  1.00  0.00    -0.000 C 
BRANCH  16  17
ATOM     17  C   UNL     1      25.836  45.456   9.874  1.00  0.00    -0.003 C 
ATOM     18  C   UNL     1      25.944  45.017   8.416  1.00  0.00     0.004 C 
ENDBRANCH  16  17
ENDBRANCH  15  16
ENDBRANCH  14  15
ENDBRANCH  13  14
ENDBRANCH  12  13
ENDBRANCH  11  12
ENDBRANCH   1  11
TORSDOF 14
ENDMDL
MODEL 2
REMARK VINA RESULT:    -3.414      3.651      6.232
REMARK INTER + INTRA:          -8.466
REMARK INTER:                  -6.026
REMARK INTRA:                  -2.439
REMARK UNBOUND:                -2.258
REMARK SMILES CCCCCCCCCCCCCCCC(=O)[O-]
REMARK SMILES IDX 9 1 10 2 11 3 12 4 13 5 14 6 15 7 16 8 17 9 18 10 8 11 7 12
REMARK SMILES IDX 6 13 5 14 4 15 3 16 2 17 1 18
REMARK H PARENT
REMARK Flexibility Score: inf
ROOT
ATOM      1  C   UNL     1      30.690  45.880   7.709  1.00  0.00     0.000 C 
ENDROOT
BRANCH   1   2
ATOM      2  C   UNL     1      29.159  45.744   7.787  1.00  0.00     0.000 C 
BRANCH   2   3
ATOM      3  C   UNL     1      28.437  46.592   6.727  1.00  0.00     0.000 C 
BRANCH   3   4
ATOM      4  C   UNL     1      27.695  47.795   7.338  1.00  0.00     0.000 C 
BRANCH   4   5
ATOM      5  C   UNL     1      27.613  47.722   8.872  1.00  0.00     0.000 C 
BRANCH   5   6
ATOM      6  C   UNL     1      26.171  47.560   9.382  1.00  0.00     0.006 C 
BRANCH   6   7
ATOM      7  C   UNL     1      25.933  46.181  10.013  1.00  0.00     0.053 C 
BRANCH   7   8
ATOM      8  C   UNL     1      25.781  45.113   8.975  1.00  0.00     0.041 C 
ATOM      9  O   UNL     1      26.402  44.024   9.089  1.00  0.00    -0.550 OA
ATOM     10  O   UNL     1      24.972  45.332   7.866  1.00  0.00    -0.550 OA
ENDBRANCH   7   8
ENDBRANCH   6   7
ENDBRANCH   5   6
ENDBRANCH   4   5
ENDBRANCH   3   4
ENDBRANCH   2   3
ENDBRANCH   1   2
BRANCH   1  11
ATOM     11  C   UNL     1      31.247  46.869   8.745  1.00  0.00     0.000 C 
BRANCH  11  12
ATOM     12  C   UNL     1      32.072  48.000   8.104  1.00  0.00    -0.000 C 
BRANCH  12  13
ATOM     13  C   UNL     1      31.563  48.377   6.704  1.00  0.00    -0.000 C 
BRANCH  13  14
ATOM     14  C   UNL     1      30.755  49.686   6.703  1.00  0.00    -0.000 C 
BRANCH  14  15
ATOM     15  C   UNL     1      30.901  50.478   8.016  1.00  0.00    -0.000 C 
BRANCH  15  16
ATOM     16  C   UNL     1      29.571  50.899   8.669  1.00  0.00    -0.000 C 
BRANCH  16  17
ATOM     17  C   UNL     1      28.634  51.631   7.699  1.00  0.00    -0.003 C 
ATOM     18  C   UNL     1      27.170  51.379   8.052  1.00  0.00     0.004 C 
ENDBRANCH  16  17
ENDBRANCH  15  16
ENDBRANCH  14  15
ENDBRANCH  13  14
ENDBRANCH  12  13
ENDBRANCH  11  12
ENDBRANCH   1  11
TORSDOF 14
ENDMDL
MODEL 3
REMARK VINA RESULT:    -3.377     17.241     18.676
REMARK INTER + INTRA:          -8.398
REMARK INTER:                  -7.305
REMARK INTRA:                  -1.094
REMARK UNBOUND:                -2.258
REMARK SMILES CCCCCCCCCCCCCCCC(=O)[O-]
REMARK SMILES IDX 9 1 10 2 11 3 12 4 13 5 14 6 15 7 16 8 17 9 18 10 8 11 7 12
REMARK SMILES IDX 6 13 5 14 4 15 3 16 2 17 1 18
REMARK H PARENT
REMARK Flexibility Score: inf
ROOT
ATOM      1  C   UNL     1      33.351  48.631  24.910  1.00  0.00     0.000 C 
ENDROOT
BRANCH   1   2
ATOM      2  C   UNL     1      34.053  47.527  25.721  1.00  0.00     0.000 C 
BRANCH   2   3
ATOM      3  C   UNL     1      35.584  47.664  25.703  1.00  0.00     0.000 C 
BRANCH   3   4
ATOM      4  C   UNL     1      36.300  46.323  25.946  1.00  0.00     0.000 C 
BRANCH   4   5
ATOM      5  C   UNL     1      35.319  45.153  26.124  1.00  0.00     0.000 C 
BRANCH   5   6
ATOM      6  C   UNL     1      35.593  43.995  25.149  1.00  0.00     0.006 C 
BRANCH   6   7
ATOM      7  C   UNL     1      37.095  43.733  24.970  1.00  0.00     0.053 C 
BRANCH   7   8
ATOM      8  C   UNL     1      37.355  42.658  23.960  1.00  0.00     0.041 C 
ATOM      9  O   UNL     1      38.165  41.729  24.217  1.00  0.00    -0.550 OA
ATOM     10  O   UNL     1      36.722  42.698  22.724  1.00  0.00    -0.550 OA
ENDBRANCH   7   8
ENDBRANCH   6   7
ENDBRANCH   5   6
ENDBRANCH   4   5
ENDBRANCH   3   4
ENDBRANCH   2   3
ENDBRANCH   1   2
BRANCH   1  11
ATOM     11  C   UNL     1      34.154  49.941  24.882  1.00  0.00     0.000 C 
BRANCH  11  12
ATOM     12  C   UNL     1      33.698  50.940  25.961  1.00  0.00    -0.000 C 
BRANCH  12  13
ATOM     13  C   UNL     1      33.680  52.390  25.449  1.00  0.00    -0.000 C 
BRANCH  13  14
ATOM     14  C   UNL     1      32.393  53.136  25.841  1.00  0.00    -0.000 C 
BRANCH  14  15
ATOM     15  C   UNL     1      31.436  53.343  24.651  1.00  0.00    -0.000 C 
BRANCH  15  16
ATOM     16  C   UNL     1      31.225  52.100  23.768  1.00  0.00    -0.000 C 
BRANCH  16  17
ATOM     17  C   UNL     1      30.311  51.052  24.418  1.00  0.00    -0.003 C 
ATOM     18  C   UNL     1      29.034  51.692  24.956  1.00  0.00     0.004 C 
ENDBRANCH  16  17
ENDBRANCH  15  16
ENDBRANCH  14  15
ENDBRANCH  13  14
ENDBRANCH  12  13
ENDBRANCH  11  12
ENDBRANCH   1  11
TORSDOF 14
ENDMDL
MODEL 4
REMARK VINA RESULT:    -3.223      3.724      6.389
REMARK INTER + INTRA:          -8.120
REMARK INTER:                  -6.231
REMARK INTRA:                  -1.888
REMARK UNBOUND:                -2.258
REMARK SMILES CCCCCCCCCCCCCCCC(=O)[O-]
REMARK SMILES IDX 9 1 10 2 11 3 12 4 13 5 14 6 15 7 16 8 17 9 18 10 8 11 7 12
REMARK SMILES IDX 6 13 5 14 4 15 3 16 2 17 1 18
REMARK H PARENT
REMARK Flexibility Score: inf
ROOT
ATOM      1  C   UNL     1      30.443  46.877   8.873  1.00  0.00     0.000 C 
ENDROOT
BRANCH   1   2
ATOM      2  C   UNL     1      29.535  46.489   7.692  1.00  0.00     0.000 C 
BRANCH   2   3
ATOM      3  C   UNL     1      28.200  47.252   7.699  1.00  0.00     0.000 C 
BRANCH   3   4
ATOM      4  C   UNL     1      27.798  47.728   9.107  1.00  0.00     0.000 C 
BRANCH   4   5
ATOM      5  C   UNL     1      26.289  47.593   9.368  1.00  0.00     0.000 C 
BRANCH   5   6
ATOM      6  C   UNL     1      25.903  46.209   9.918  1.00  0.00     0.006 C 
BRANCH   6   7
ATOM      7  C   UNL     1      25.144  45.367   8.883  1.00  0.00     0.053 C 
BRANCH   7   8
ATOM      8  C   UNL     1      26.059  44.438   8.145  1.00  0.00     0.041 C 
ATOM      9  O   UNL     1      26.107  44.461   6.887  1.00  0.00    -0.550 OA
ATOM     10  O   UNL     1      26.837  43.526   8.848  1.00  0.00    -0.550 OA
ENDBRANCH   7   8
ENDBRANCH   6   7
ENDBRANCH   5   6
ENDBRANCH   4   5
ENDBRANCH   3   4
ENDBRANCH   2   3
ENDBRANCH   1   2
BRANCH   1  11
ATOM     11  C   UNL     1      31.807  47.417   8.415  1.00  0.00     0.000 C 
BRANCH  11  12
ATOM     12  C   UNL     1      31.687  48.442   7.273  1.00  0.00    -0.000 C 
BRANCH  12  13
ATOM     13  C   UNL     1      32.445  49.746   7.572  1.00  0.00    -0.000 C 
BRANCH  13  14
ATOM     14  C   UNL     1      31.500  50.936   7.808  1.00  0.00    -0.000 C 
BRANCH  14  15
ATOM     15  C   UNL     1      30.013  50.548   7.702  1.00  0.00    -0.000 C 
BRANCH  15  16
ATOM     16  C   UNL     1      29.126  51.066   8.849  1.00  0.00    -0.000 C 
BRANCH  16  17
ATOM     17  C   UNL     1      27.943  51.911   8.356  1.00  0.00    -0.003 C 
ATOM     18  C   UNL     1      26.884  51.038   7.687  1.00  0.00     0.004 C 
ENDBRANCH  16  17
ENDBRANCH  15  16
ENDBRANCH  14  15
ENDBRANCH  13  14
ENDBRANCH  12  13
ENDBRANCH  11  12
ENDBRANCH   1  11
TORSDOF 14
ENDMDL
MODEL 5
REMARK VINA RESULT:    -3.176      1.118      1.621
REMARK INTER + INTRA:          -8.034
REMARK INTER:                  -6.207
REMARK INTRA:                  -1.827
REMARK UNBOUND:                -2.258
REMARK SMILES CCCCCCCCCCCCCCCC(=O)[O-]
REMARK SMILES IDX 9 1 10 2 11 3 12 4 13 5 14 6 15 7 16 8 17 9 18 10 8 11 7 12
REMARK SMILES IDX 6 13 5 14 4 15 3 16 2 17 1 18
REMARK H PARENT
REMARK Flexibility Score: inf
ROOT
ATOM      1  C   UNL     1      29.368  46.649   8.263  1.00  0.00     0.000 C 
ENDROOT
BRANCH   1   2
ATOM      2  C   UNL     1      30.791  46.255   7.828  1.00  0.00     0.000 C 
BRANCH   2   3
ATOM      3  C   UNL     1      31.838  47.318   8.200  1.00  0.00     0.000 C 
BRANCH   3   4
ATOM      4  C   UNL     1      31.856  48.500   7.215  1.00  0.00     0.000 C 
BRANCH   4   5
ATOM      5  C   UNL     1      32.462  49.773   7.830  1.00  0.00     0.000 C 
BRANCH   5   6
ATOM      6  C   UNL     1      31.943  51.059   7.165  1.00  0.00     0.006 C 
BRANCH   6   7
ATOM      7  C   UNL     1      30.499  50.909   6.667  1.00  0.00     0.053 C 
BRANCH   7   8
ATOM      8  C   UNL     1      29.692  52.145   6.923  1.00  0.00     0.041 C 
ATOM      9  O   UNL     1      29.906  53.192   6.256  1.00  0.00    -0.550 OA
ATOM     10  O   UNL     1      28.722  52.148   7.917  1.00  0.00    -0.550 OA
ENDBRANCH   7   8
ENDBRANCH   6   7
ENDBRANCH   5   6
ENDBRANCH   4   5
ENDBRANCH   3   4
ENDBRANCH   2   3
ENDBRANCH   1   2
BRANCH   1  11
ATOM     11  C   UNL     1      29.364  47.597   9.473  1.00  0.00     0.000 C 
BRANCH  11  12
ATOM     12  C   UNL     1      28.525  48.865   9.232  1.00  0.00    -0.000 C 
BRANCH  12  13
ATOM     13  C   UNL     1      27.671  48.771   7.958  1.00  0.00    -0.000 C 
BRANCH  13  14
ATOM     14  C   UNL     1      26.178  48.563   8.264  1.00  0.00    -0.000 C 
BRANCH  14  15
ATOM     15  C   UNL     1      25.555  47.413   7.451  1.00  0.00    -0.000 C 
BRANCH  15  16
ATOM     16  C   UNL     1      25.196  46.161   8.273  1.00  0.00    -0.000 C 
BRANCH  16  17
ATOM     17  C   UNL     1      25.989  46.056   9.583  1.00  0.00    -0.003 C 
ATOM     18  C   UNL     1      25.065  46.148  10.794  1.00  0.00     0.004 C 
ENDBRANCH  16  17
ENDBRANCH  15  16
ENDBRANCH  14  15
ENDBRANCH  13  14
ENDBRANCH  12  13
ENDBRANCH  11  12
ENDBRANCH   1  11
TORSDOF 14
ENDMDL
MODEL 6
REMARK VINA RESULT:    -3.170      1.902      2.393
REMARK INTER + INTRA:          -8.022
REMARK INTER:                  -5.865
REMARK INTRA:                  -2.157
REMARK UNBOUND:                -2.258
REMARK SMILES CCCCCCCCCCCCCCCC(=O)[O-]
REMARK SMILES IDX 9 1 10 2 11 3 12 4 13 5 14 6 15 7 16 8 17 9 18 10 8 11 7 12
REMARK SMILES IDX 6 13 5 14 4 15 3 16 2 17 1 18
REMARK H PARENT
REMARK Flexibility Score: inf
ROOT
ATOM      1  C   UNL     1      30.264  46.207   8.122  1.00  0.00     0.000 C 
ENDROOT
BRANCH   1   2
ATOM      2  C   UNL     1      31.569  46.981   8.381  1.00  0.00     0.000 C 
BRANCH   2   3
ATOM      3  C   UNL     1      31.886  47.992   7.267  1.00  0.00     0.000 C 
BRANCH   3   4
ATOM      4  C   UNL     1      32.047  49.428   7.800  1.00  0.00     0.000 C 
BRANCH   4   5
ATOM      5  C   UNL     1      31.762  50.492   6.728  1.00  0.00     0.000 C 
BRANCH   5   6
ATOM      6  C   UNL     1      30.282  50.912   6.688  1.00  0.00     0.006 C 
BRANCH   6   7
ATOM      7  C   UNL     1      29.630  50.864   8.076  1.00  0.00     0.053 C 
BRANCH   7   8
ATOM      8  C   UNL     1      28.224  51.380   8.048  1.00  0.00     0.041 C 
ATOM      9  O   UNL     1      27.866  52.290   8.842  1.00  0.00    -0.550 OA
ATOM     10  O   UNL     1      27.302  50.837   7.162  1.00  0.00    -0.550 OA
ENDBRANCH   7   8
ENDBRANCH   6   7
ENDBRANCH   5   6
ENDBRANCH   4   5
ENDBRANCH   3   4
ENDBRANCH   2   3
ENDBRANCH   1   2
BRANCH   1  11
ATOM     11  C   UNL     1      29.483  46.755   6.918  1.00  0.00     0.000 C 
BRANCH  11  12
ATOM     12  C   UNL     1      28.184  47.472   7.329  1.00  0.00    -0.000 C 
BRANCH  12  13
ATOM     13  C   UNL     1      28.012  47.548   8.855  1.00  0.00    -0.000 C 
BRANCH  13  14
ATOM     14  C   UNL     1      26.611  48.032   9.266  1.00  0.00    -0.000 C 
BRANCH  14  15
ATOM     15  C   UNL     1      25.534  46.940   9.120  1.00  0.00    -0.000 C 
BRANCH  15  16
ATOM     16  C   UNL     1      25.976  45.534   9.563  1.00  0.00    -0.000 C 
BRANCH  16  17
ATOM     17  C   UNL     1      25.861  44.489   8.445  1.00  0.00    -0.003 C 
ATOM     18  C   UNL     1      27.222  43.881   8.117  1.00  0.00     0.004 C 
ENDBRANCH  16  17
ENDBRANCH  15  16
ENDBRANCH  14  15
ENDBRANCH  13  14
ENDBRANCH  12  13
ENDBRANCH  11  12
ENDBRANCH   1  11
TORSDOF 14
ENDMDL
MODEL 7
REMARK VINA RESULT:    -3.155      3.726      6.023
REMARK INTER + INTRA:          -7.996
REMARK INTER:                  -6.261
REMARK INTRA:                  -1.735
REMARK UNBOUND:                -2.258
REMARK SMILES CCCCCCCCCCCCCCCC(=O)[O-]
REMARK SMILES IDX 9 1 10 2 11 3 12 4 13 5 14 6 15 7 16 8 17 9 18 10 8 11 7 12
REMARK SMILES IDX 6 13 5 14 4 15 3 16 2 17 1 18
REMARK H PARENT
REMARK Flexibility Score: inf
ROOT
ATOM      1  C   UNL     1      31.847  48.275   7.994  1.00  0.00     0.000 C 
ENDROOT
BRANCH   1   2
ATOM      2  C   UNL     1      31.534  46.843   8.464  1.00  0.00     0.000 C 
BRANCH   2   3
ATOM      3  C   UNL     1      30.027  46.536   8.455  1.00  0.00     0.000 C 
BRANCH   3   4
ATOM      4  C   UNL     1      29.211  47.558   9.268  1.00  0.00     0.000 C 
BRANCH   4   5
ATOM      5  C   UNL     1      28.014  48.118   8.481  1.00  0.00     0.000 C 
BRANCH   5   6
ATOM      6  C   UNL     1      26.677  47.921   9.216  1.00  0.00     0.006 C 
BRANCH   6   7
ATOM      7  C   UNL     1      25.873  46.744   8.646  1.00  0.00     0.053 C 
BRANCH   7   8
ATOM      8  C   UNL     1      25.900  45.558   9.561  1.00  0.00     0.041 C 
ATOM      9  O   UNL     1      25.480  45.660  10.744  1.00  0.00    -0.550 OA
ATOM     10  O   UNL     1      26.413  44.347   9.114  1.00  0.00    -0.550 OA
ENDBRANCH   7   8
ENDBRANCH   6   7
ENDBRANCH   5   6
ENDBRANCH   4   5
ENDBRANCH   3   4
ENDBRANCH   2   3
ENDBRANCH   1   2
BRANCH   1  11
ATOM     11  C   UNL     1      31.674  48.447   6.477  1.00  0.00     0.000 C 
BRANCH  11  12
ATOM     12  C   UNL     1      30.577  49.465   6.116  1.00  0.00    -0.000 C 
BRANCH  12  13
ATOM     13  C   UNL     1      31.101  50.910   6.091  1.00  0.00    -0.000 C 
BRANCH  13  14
ATOM     14  C   UNL     1      30.235  51.865   6.931  1.00  0.00    -0.000 C 
BRANCH  14  15
ATOM     15  C   UNL     1      29.490  51.148   8.073  1.00  0.00    -0.000 C 
BRANCH  15  16
ATOM     16  C   UNL     1      28.306  51.934   8.666  1.00  0.00    -0.000 C 
BRANCH  16  17
ATOM     17  C   UNL     1      27.191  52.198   7.645  1.00  0.00    -0.003 C 
ATOM     18  C   UNL     1      26.032  51.223   7.832  1.00  0.00     0.004 C 
ENDBRANCH  16  17
ENDBRANCH  15  16
ENDBRANCH  14  15
ENDBRANCH  13  14
ENDBRANCH  12  13
ENDBRANCH  11  12
ENDBRANCH   1  11
TORSDOF 14
ENDMDL
MODEL 8
REMARK VINA RESULT:    -3.141      1.603      2.447
REMARK INTER + INTRA:          -7.971
REMARK INTER:                  -5.920
REMARK INTRA:                  -2.051
REMARK UNBOUND:                -2.258
REMARK SMILES CCCCCCCCCCCCCCCC(=O)[O-]
REMARK SMILES IDX 9 1 10 2 11 3 12 4 13 5 14 6 15 7 16 8 17 9 18 10 8 11 7 12
REMARK SMILES IDX 6 13 5 14 4 15 3 16 2 17 1 18
REMARK H PARENT
REMARK Flexibility Score: inf
ROOT
ATOM      1  C   UNL     1      28.651  47.565   9.124  1.00  0.00     0.000 C 
ENDROOT
BRANCH   1   2
ATOM      2  C   UNL     1      29.153  46.810   7.880  1.00  0.00     0.000 C 
BRANCH   2   3
ATOM      3  C   UNL     1      30.531  46.163   8.099  1.00  0.00     0.000 C 
BRANCH   3   4
ATOM      4  C   UNL     1      31.624  47.197   8.428  1.00  0.00     0.000 C 
BRANCH   4   5
ATOM      5  C   UNL     1      31.816  48.231   7.307  1.00  0.00     0.000 C 
BRANCH   5   6
ATOM      6  C   UNL     1      32.329  49.584   7.830  1.00  0.00     0.006 C 
BRANCH   6   7
ATOM      7  C   UNL     1      31.530  50.764   7.260  1.00  0.00     0.053 C 
BRANCH   7   8
ATOM      8  C   UNL     1      30.094  50.718   7.681  1.00  0.00     0.041 C 
ATOM      9  O   UNL     1      29.780  50.891   8.888  1.00  0.00    -0.550 OA
ATOM     10  O   UNL     1      29.102  50.457   6.743  1.00  0.00    -0.550 OA
ENDBRANCH   7   8
ENDBRANCH   6   7
ENDBRANCH   5   6
ENDBRANCH   4   5
ENDBRANCH   3   4
ENDBRANCH   2   3
ENDBRANCH   1   2
BRANCH   1  11
ATOM     11  C   UNL     1      27.307  48.269   8.883  1.00  0.00     0.000 C 
BRANCH  11  12
ATOM     12  C   UNL     1      26.137  47.583   9.611  1.00  0.00    -0.000 C 
BRANCH  12  13
ATOM     13  C   UNL     1      24.988  47.213   8.659  1.00  0.00    -0.000 C 
BRANCH  13  14
ATOM     14  C   UNL     1      25.456  47.064   7.201  1.00  0.00    -0.000 C 
BRANCH  14  15
ATOM     15  C   UNL     1      25.726  45.600   6.806  1.00  0.00    -0.000 C 
BRANCH  15  16
ATOM     16  C   UNL     1      25.471  44.572   7.924  1.00  0.00    -0.000 C 
BRANCH  16  17
ATOM     17  C   UNL     1      26.764  43.948   8.468  1.00  0.00    -0.003 C 
ATOM     18  C   UNL     1      27.649  43.437   7.335  1.00  0.00     0.004 C 
ENDBRANCH  16  17
ENDBRANCH  15  16
ENDBRANCH  14  15
ENDBRANCH  13  14
ENDBRANCH  12  13
ENDBRANCH  11  12
ENDBRANCH   1  11
TORSDOF 14
ENDMDL
MODEL 9
REMARK VINA RESULT:    -3.095      3.511      6.827
REMARK INTER + INTRA:          -7.886
REMARK INTER:                  -5.711
REMARK INTRA:                  -2.176
REMARK UNBOUND:                -2.258
REMARK SMILES CCCCCCCCCCCCCCCC(=O)[O-]
REMARK SMILES IDX 9 1 10 2 11 3 12 4 13 5 14 6 15 7 16 8 17 9 18 10 8 11 7 12
REMARK SMILES IDX 6 13 5 14 4 15 3 16 2 17 1 18
REMARK H PARENT
REMARK Flexibility Score: inf
ROOT
ATOM      1  C   UNL     1      29.224  48.629   9.266  1.00  0.00     0.000 C 
ENDROOT
BRANCH   1   2
ATOM      2  C   UNL     1      27.960  49.161   8.568  1.00  0.00     0.000 C 
BRANCH   2   3
ATOM      3  C   UNL     1      27.311  48.117   7.644  1.00  0.00     0.000 C 
BRANCH   3   4
ATOM      4  C   UNL     1      25.876  47.761   8.071  1.00  0.00     0.000 C 
BRANCH   4   5
ATOM      5  C   UNL     1      25.773  47.415   9.566  1.00  0.00     0.000 C 
BRANCH   5   6
ATOM      6  C   UNL     1      26.102  45.941   9.858  1.00  0.00     0.006 C 
BRANCH   6   7
ATOM      7  C   UNL     1      25.742  45.024   8.681  1.00  0.00     0.053 C 
BRANCH   7   8
ATOM      8  C   UNL     1      26.884  44.134   8.300  1.00  0.00     0.041 C 
ATOM      9  O   UNL     1      26.990  42.986   8.806  1.00  0.00    -0.550 OA
ATOM     10  O   UNL     1      27.847  44.583   7.405  1.00  0.00    -0.550 OA
ENDBRANCH   7   8
ENDBRANCH   6   7
ENDBRANCH   5   6
ENDBRANCH   4   5
ENDBRANCH   3   4
ENDBRANCH   2   3
ENDBRANCH   1   2
BRANCH   1  11
ATOM     11  C   UNL     1      29.595  47.209   8.810  1.00  0.00     0.000 C 
BRANCH  11  12
ATOM     12  C   UNL     1      31.111  46.949   8.848  1.00  0.00    -0.000 C 
BRANCH  12  13
ATOM     13  C   UNL     1      31.912  48.028   8.100  1.00  0.00    -0.000 C 
BRANCH  13  14
ATOM     14  C   UNL     1      31.593  48.060   6.596  1.00  0.00    -0.000 C 
BRANCH  14  15
ATOM     15  C   UNL     1      31.199  49.463   6.099  1.00  0.00    -0.000 C 
BRANCH  15  16
ATOM     16  C   UNL     1      31.562  50.614   7.055  1.00  0.00    -0.000 C 
BRANCH  16  17
ATOM     17  C   UNL     1      30.493  51.715   7.101  1.00  0.00    -0.003 C 
ATOM     18  C   UNL     1      29.402  51.466   6.063  1.00  0.00     0.004 C 
ENDBRANCH  16  17
ENDBRANCH  15  16
ENDBRANCH  14  15
ENDBRANCH  13  14
ENDBRANCH  12  13
ENDBRANCH  11  12
ENDBRANCH   1  11
TORSDOF 14
ENDMDL
