MODEL 1
REMARK VINA RESULT:    -4.656      0.000      0.000
REMARK INTER + INTRA:          -9.005
REMARK INTER:                  -7.923
REMARK INTRA:                  -1.082
REMARK UNBOUND:                -1.082
REMARK SMILES CCCCCCCCCCCCCC(=O)[O-]
REMARK SMILES IDX 8 1 9 2 10 3 11 4 12 5 13 6 14 7 15 8 16 9 7 10 6 11 5 12
REMARK SMILES IDX 4 13 3 14 2 15 1 16
REMARK H PARENT
REMARK Flexibility Score: inf
ROOT
ATOM      1  C   UNL     1       6.018  -9.093 -22.396  1.00  0.00     0.000 C 
ENDROOT
BRANCH   1   2
ATOM      2  C   UNL     1       5.856  -7.563 -22.473  1.00  0.00     0.000 C 
BRANCH   2   3
ATOM      3  C   UNL     1       4.471  -7.084 -22.008  1.00  0.00     0.000 C 
BRANCH   3   4
ATOM      4  C   UNL     1       4.567  -5.982 -20.930  1.00  0.00     0.000 C 
BRANCH   4   5
ATOM      5  C   UNL     1       4.363  -6.509 -19.497  1.00  0.00     0.006 C 
BRANCH   5   6
ATOM      6  C   UNL     1       3.319  -5.727 -18.686  1.00  0.00     0.053 C 
BRANCH   6   7
ATOM      7  C   UNL     1       3.796  -4.349 -18.343  1.00  0.00     0.041 C 
ATOM      8  O   UNL     1       2.992  -3.380 -18.358  1.00  0.00    -0.550 OA
ATOM      9  O   UNL     1       5.122  -4.135 -17.990  1.00  0.00    -0.550 OA
ENDBRANCH   6   7
ENDBRANCH   5   6
ENDBRANCH   4   5
ENDBRANCH   3   4
ENDBRANCH   2   3
ENDBRANCH   1   2
BRANCH   1  10
ATOM     10  C   UNL     1       7.094  -9.680 -23.331  1.00  0.00     0.000 C 
BRANCH  10  11
ATOM     11  C   UNL     1       6.694 -10.986 -24.047  1.00  0.00    -0.000 C 
BRANCH  11  12
ATOM     12  C   UNL     1       5.311 -11.546 -23.660  1.00  0.00    -0.000 C 
BRANCH  12  13
ATOM     13  C   UNL     1       5.342 -12.728 -22.673  1.00  0.00    -0.000 C 
BRANCH  13  14
ATOM     14  C   UNL     1       4.353 -12.560 -21.510  1.00  0.00    -0.000 C 
BRANCH  14  15
ATOM     15  C   UNL     1       3.331 -11.460 -21.813  1.00  0.00    -0.003 C 
ATOM     16  C   UNL     1       3.162 -10.519 -20.622  1.00  0.00     0.004 C 
ENDBRANCH  14  15
ENDBRANCH  13  14
ENDBRANCH  12  13
ENDBRANCH  11  12
ENDBRANCH  10  11
ENDBRANCH   1  10
TORSDOF 12
ENDMDL
MODEL 2
REMARK VINA RESULT:    -4.636      0.968      1.551
REMARK INTER + INTRA:          -8.970
REMARK INTER:                  -7.703
REMARK INTRA:                  -1.267
REMARK UNBOUND:                -1.082
REMARK SMILES CCCCCCCCCCCCCC(=O)[O-]
REMARK SMILES IDX 8 1 9 2 10 3 11 4 12 5 13 6 14 7 15 8 16 9 7 10 6 11 5 12
REMARK SMILES IDX 4 13 3 14 2 15 1 16
REMARK H PARENT
REMARK Flexibility Score: inf
ROOT
ATOM      1  C   UNL     1       5.750  -7.293 -22.502  1.00  0.00     0.000 C 
ENDROOT
BRANCH   1   2
ATOM      2  C   UNL     1       4.840  -6.665 -21.430  1.00  0.00     0.000 C 
BRANCH   2   3
ATOM      3  C   UNL     1       4.332  -7.688 -20.402  1.00  0.00     0.000 C 
BRANCH   3   4
ATOM      4  C   UNL     1       2.822  -7.528 -20.115  1.00  0.00     0.000 C 
BRANCH   4   5
ATOM      5  C   UNL     1       2.453  -6.149 -19.535  1.00  0.00     0.006 C 
BRANCH   5   6
ATOM      6  C   UNL     1       3.234  -5.777 -18.265  1.00  0.00     0.053 C 
BRANCH   6   7
ATOM      7  C   UNL     1       3.951  -4.471 -18.414  1.00  0.00     0.041 C 
ATOM      8  O   UNL     1       3.346  -3.466 -18.874  1.00  0.00    -0.550 OA
ATOM      9  O   UNL     1       5.280  -4.354 -18.028  1.00  0.00    -0.550 OA
ENDBRANCH   6   7
ENDBRANCH   5   6
ENDBRANCH   4   5
ENDBRANCH   3   4
ENDBRANCH   2   3
ENDBRANCH   1   2
BRANCH   1  10
ATOM     10  C   UNL     1       6.084  -8.782 -22.279  1.00  0.00     0.000 C 
BRANCH  10  11
ATOM     11  C   UNL     1       6.860  -9.456 -23.428  1.00  0.00    -0.000 C 
BRANCH  11  12
ATOM     12  C   UNL     1       6.427 -10.900 -23.750  1.00  0.00    -0.000 C 
BRANCH  12  13
ATOM     13  C   UNL     1       5.249 -11.427 -22.911  1.00  0.00    -0.000 C 
BRANCH  13  14
ATOM     14  C   UNL     1       3.920 -11.426 -23.682  1.00  0.00    -0.000 C 
BRANCH  14  15
ATOM     15  C   UNL     1       2.868 -10.579 -22.959  1.00  0.00    -0.003 C 
ATOM     16  C   UNL     1       2.765 -10.965 -21.485  1.00  0.00     0.004 C 
ENDBRANCH  14  15
ENDBRANCH  13  14
ENDBRANCH  12  13
ENDBRANCH  11  12
ENDBRANCH  10  11
ENDBRANCH   1  10
TORSDOF 12
ENDMDL
MODEL 3
REMARK VINA RESULT:    -4.593      1.223      2.591
REMARK INTER + INTRA:          -8.897
REMARK INTER:                  -7.775
REMARK INTRA:                  -1.123
REMARK UNBOUND:                -1.082
REMARK SMILES CCCCCCCCCCCCCC(=O)[O-]
REMARK SMILES IDX 8 1 9 2 10 3 11 4 12 5 13 6 14 7 15 8 16 9 7 10 6 11 5 12
REMARK SMILES IDX 4 13 3 14 2 15 1 16
REMARK H PARENT
REMARK Flexibility Score: inf
ROOT
ATOM      1  C   UNL     1       4.953  -6.268 -21.204  1.00  0.00     0.000 C 
ENDROOT
BRANCH   1   2
ATOM      2  C   UNL     1       4.390  -7.020 -19.984  1.00  0.00     0.000 C 
BRANCH   2   3
ATOM      3  C   UNL     1       2.858  -7.150 -20.016  1.00  0.00     0.000 C 
BRANCH   3   4
ATOM      4  C   UNL     1       2.154  -5.885 -19.477  1.00  0.00     0.000 C 
BRANCH   4   5
ATOM      5  C   UNL     1       2.828  -5.297 -18.222  1.00  0.00     0.006 C 
BRANCH   5   6
ATOM      6  C   UNL     1       3.152  -3.800 -18.332  1.00  0.00     0.053 C 
BRANCH   6   7
ATOM      7  C   UNL     1       4.619  -3.558 -18.514  1.00  0.00     0.041 C 
ATOM      8  O   UNL     1       5.030  -2.873 -19.489  1.00  0.00    -0.550 OA
ATOM      9  O   UNL     1       5.532  -4.071 -17.602  1.00  0.00    -0.550 OA
ENDBRANCH   6   7
ENDBRANCH   5   6
ENDBRANCH   4   5
ENDBRANCH   3   4
ENDBRANCH   2   3
ENDBRANCH   1   2
BRANCH   1  10
ATOM     10  C   UNL     1       5.066  -7.110 -22.491  1.00  0.00     0.000 C 
BRANCH  10  11
ATOM     11  C   UNL     1       6.232  -8.120 -22.510  1.00  0.00    -0.000 C 
BRANCH  11  12
ATOM     12  C   UNL     1       5.811  -9.603 -22.526  1.00  0.00    -0.000 C 
BRANCH  12  13
ATOM     13  C   UNL     1       4.316  -9.858 -22.263  1.00  0.00    -0.000 C 
BRANCH  13  14
ATOM     14  C   UNL     1       4.025 -11.301 -21.825  1.00  0.00    -0.000 C 
BRANCH  14  15
ATOM     15  C   UNL     1       4.920 -12.292 -22.575  1.00  0.00    -0.003 C 
ATOM     16  C   UNL     1       5.103 -13.582 -21.780  1.00  0.00     0.004 C 
ENDBRANCH  14  15
ENDBRANCH  13  14
ENDBRANCH  12  13
ENDBRANCH  11  12
ENDBRANCH  10  11
ENDBRANCH   1  10
TORSDOF 12
ENDMDL
MODEL 4
REMARK VINA RESULT:    -4.564      1.180      1.774
REMARK INTER + INTRA:          -8.847
REMARK INTER:                  -8.183
REMARK INTRA:                  -0.664
REMARK UNBOUND:                -1.082
REMARK SMILES CCCCCCCCCCCCCC(=O)[O-]
REMARK SMILES IDX 8 1 9 2 10 3 11 4 12 5 13 6 14 7 15 8 16 9 7 10 6 11 5 12
REMARK SMILES IDX 4 13 3 14 2 15 1 16
REMARK H PARENT
REMARK Flexibility Score: inf
ROOT
ATOM      1  C   UNL     1       5.719  -8.267 -22.105  1.00  0.00     0.000 C 
ENDROOT
BRANCH   1   2
ATOM      2  C   UNL     1       5.575  -6.778 -22.471  1.00  0.00     0.000 C 
BRANCH   2   3
ATOM      3  C   UNL     1       4.551  -6.042 -21.591  1.00  0.00     0.000 C 
BRANCH   3   4
ATOM      4  C   UNL     1       4.305  -6.767 -20.249  1.00  0.00     0.000 C 
BRANCH   4   5
ATOM      5  C   UNL     1       3.061  -6.258 -19.497  1.00  0.00     0.006 C 
BRANCH   5   6
ATOM      6  C   UNL     1       3.380  -5.545 -18.175  1.00  0.00     0.053 C 
BRANCH   6   7
ATOM      7  C   UNL     1       4.081  -4.240 -18.399  1.00  0.00     0.041 C 
ATOM      8  O   UNL     1       3.481  -3.290 -18.967  1.00  0.00    -0.550 OA
ATOM      9  O   UNL     1       5.389  -4.064 -17.965  1.00  0.00    -0.550 OA
ENDBRANCH   6   7
ENDBRANCH   5   6
ENDBRANCH   4   5
ENDBRANCH   3   4
ENDBRANCH   2   3
ENDBRANCH   1   2
BRANCH   1  10
ATOM     10  C   UNL     1       6.660  -9.073 -23.022  1.00  0.00     0.000 C 
BRANCH  10  11
ATOM     11  C   UNL     1       6.195 -10.509 -23.333  1.00  0.00    -0.000 C 
BRANCH  11  12
ATOM     12  C   UNL     1       4.936 -10.968 -22.571  1.00  0.00    -0.000 C 
BRANCH  12  13
ATOM     13  C   UNL     1       4.087 -12.028 -23.298  1.00  0.00    -0.000 C 
BRANCH  13  14
ATOM     14  C   UNL     1       3.706 -13.209 -22.393  1.00  0.00    -0.000 C 
BRANCH  14  15
ATOM     15  C   UNL     1       4.944 -13.795 -21.706  1.00  0.00    -0.003 C 
ATOM     16  C   UNL     1       5.035 -15.303 -21.924  1.00  0.00     0.004 C 
ENDBRANCH  14  15
ENDBRANCH  13  14
ENDBRANCH  12  13
ENDBRANCH  11  12
ENDBRANCH  10  11
ENDBRANCH   1  10
TORSDOF 12
ENDMDL
MODEL 5
REMARK VINA RESULT:    -4.534      1.479      2.040
REMARK INTER + INTRA:          -8.796
REMARK INTER:                  -7.980
REMARK INTRA:                  -0.817
REMARK UNBOUND:                -1.082
REMARK SMILES CCCCCCCCCCCCCC(=O)[O-]
REMARK SMILES IDX 8 1 9 2 10 3 11 4 12 5 13 6 14 7 15 8 16 9 7 10 6 11 5 12
REMARK SMILES IDX 4 13 3 14 2 15 1 16
REMARK H PARENT
REMARK Flexibility Score: inf
ROOT
ATOM      1  C   UNL     1       5.200  -8.446 -21.640  1.00  0.00     0.000 C 
ENDROOT
BRANCH   1   2
ATOM      2  C   UNL     1       4.615  -7.121 -21.116  1.00  0.00     0.000 C 
BRANCH   2   3
ATOM      3  C   UNL     1       5.437  -5.894 -21.543  1.00  0.00     0.000 C 
BRANCH   3   4
ATOM      4  C   UNL     1       4.850  -4.576 -20.989  1.00  0.00     0.000 C 
BRANCH   4   5
ATOM      5  C   UNL     1       4.999  -4.435 -19.462  1.00  0.00     0.006 C 
BRANCH   5   6
ATOM      6  C   UNL     1       3.859  -3.652 -18.794  1.00  0.00     0.053 C 
BRANCH   6   7
ATOM      7  C   UNL     1       2.756  -4.555 -18.334  1.00  0.00     0.041 C 
ATOM      8  O   UNL     1       1.625  -4.078 -18.052  1.00  0.00    -0.550 OA
ATOM      9  O   UNL     1       2.968  -5.924 -18.233  1.00  0.00    -0.550 OA
ENDBRANCH   6   7
ENDBRANCH   5   6
ENDBRANCH   4   5
ENDBRANCH   3   4
ENDBRANCH   2   3
ENDBRANCH   1   2
BRANCH   1  10
ATOM     10  C   UNL     1       6.239  -8.296 -22.769  1.00  0.00     0.000 C 
BRANCH  10  11
ATOM     11  C   UNL     1       7.216  -9.479 -22.917  1.00  0.00    -0.000 C 
BRANCH  11  12
ATOM     12  C   UNL     1       6.911 -10.436 -24.087  1.00  0.00    -0.000 C 
BRANCH  12  13
ATOM     13  C   UNL     1       6.198 -11.741 -23.691  1.00  0.00    -0.000 C 
BRANCH  13  14
ATOM     14  C   UNL     1       4.683 -11.563 -23.514  1.00  0.00    -0.000 C 
BRANCH  14  15
ATOM     15  C   UNL     1       4.103 -12.661 -22.617  1.00  0.00    -0.003 C 
ATOM     16  C   UNL     1       5.211 -13.464 -21.940  1.00  0.00     0.004 C 
ENDBRANCH  14  15
ENDBRANCH  13  14
ENDBRANCH  12  13
ENDBRANCH  11  12
ENDBRANCH  10  11
ENDBRANCH   1  10
TORSDOF 12
ENDMDL
MODEL 6
REMARK VINA RESULT:    -4.481      2.657      5.358
REMARK INTER + INTRA:          -8.707
REMARK INTER:                  -7.501
REMARK INTRA:                  -1.206
REMARK UNBOUND:                -1.082
REMARK SMILES CCCCCCCCCCCCCC(=O)[O-]
REMARK SMILES IDX 8 1 9 2 10 3 11 4 12 5 13 6 14 7 15 8 16 9 7 10 6 11 5 12
REMARK SMILES IDX 4 13 3 14 2 15 1 16
REMARK H PARENT
REMARK Flexibility Score: inf
ROOT
ATOM      1  C   UNL     1       6.804 -10.986 -23.940  1.00  0.00     0.000 C 
ENDROOT
BRANCH   1   2
ATOM      2  C   UNL     1       5.387 -11.528 -23.677  1.00  0.00     0.000 C 
BRANCH   2   3
ATOM      3  C   UNL     1       5.360 -12.640 -22.614  1.00  0.00     0.000 C 
BRANCH   3   4
ATOM      4  C   UNL     1       4.032 -12.659 -21.825  1.00  0.00     0.000 C 
BRANCH   4   5
ATOM      5  C   UNL     1       3.242 -11.341 -21.922  1.00  0.00     0.006 C 
BRANCH   5   6
ATOM      6  C   UNL     1       3.178 -10.553 -20.606  1.00  0.00     0.053 C 
BRANCH   6   7
ATOM      7  C   UNL     1       1.766 -10.282 -20.185  1.00  0.00     0.041 C 
ATOM      8  O   UNL     1       1.154  -9.277 -20.635  1.00  0.00    -0.550 OA
ATOM      9  O   UNL     1       1.118 -11.146 -19.311  1.00  0.00    -0.550 OA
ENDBRANCH   6   7
ENDBRANCH   5   6
ENDBRANCH   4   5
ENDBRANCH   3   4
ENDBRANCH   2   3
ENDBRANCH   1   2
BRANCH   1  10
ATOM     10  C   UNL     1       7.042  -9.536 -23.475  1.00  0.00     0.000 C 
BRANCH  10  11
ATOM     11  C   UNL     1       6.018  -9.002 -22.455  1.00  0.00    -0.000 C 
BRANCH  11  12
ATOM     12  C   UNL     1       5.885  -7.466 -22.405  1.00  0.00    -0.000 C 
BRANCH  12  13
ATOM     13  C   UNL     1       4.623  -6.946 -21.692  1.00  0.00    -0.000 C 
BRANCH  13  14
ATOM     14  C   UNL     1       4.651  -7.187 -20.176  1.00  0.00    -0.000 C 
BRANCH  14  15
ATOM     15  C   UNL     1       3.333  -6.755 -19.527  1.00  0.00    -0.003 C 
ATOM     16  C   UNL     1       3.546  -5.590 -18.565  1.00  0.00     0.004 C 
ENDBRANCH  14  15
ENDBRANCH  13  14
ENDBRANCH  12  13
ENDBRANCH  11  12
ENDBRANCH  10  11
ENDBRANCH   1  10
TORSDOF 12
ENDMDL
MODEL 7
REMARK VINA RESULT:    -4.469      1.325      2.922
REMARK INTER + INTRA:          -8.687
REMARK INTER:                  -7.240
REMARK INTRA:                  -1.446
REMARK UNBOUND:                -1.082
REMARK SMILES CCCCCCCCCCCCCC(=O)[O-]
REMARK SMILES IDX 8 1 9 2 10 3 11 4 12 5 13 6 14 7 15 8 16 9 7 10 6 11 5 12
REMARK SMILES IDX 4 13 3 14 2 15 1 16
REMARK H PARENT
REMARK Flexibility Score: inf
ROOT
ATOM      1  C   UNL     1       2.558  -9.328 -22.940  1.00  0.00     0.000 C 
ENDROOT
BRANCH   1   2
ATOM      2  C   UNL     1       1.961  -8.522 -21.772  1.00  0.00     0.000 C 
BRANCH   2   3
ATOM      3  C   UNL     1       2.887  -8.469 -20.545  1.00  0.00     0.000 C 
BRANCH   3   4
ATOM      4  C   UNL     1       2.924  -7.065 -19.902  1.00  0.00     0.000 C 
BRANCH   4   5
ATOM      5  C   UNL     1       4.341  -6.613 -19.502  1.00  0.00     0.006 C 
BRANCH   5   6
ATOM      6  C   UNL     1       4.628  -5.131 -19.789  1.00  0.00     0.053 C 
BRANCH   6   7
ATOM      7  C   UNL     1       4.484  -4.287 -18.560  1.00  0.00     0.041 C 
ATOM      8  O   UNL     1       3.368  -3.781 -18.268  1.00  0.00    -0.550 OA
ATOM      9  O   UNL     1       5.574  -4.071 -17.727  1.00  0.00    -0.550 OA
ENDBRANCH   6   7
ENDBRANCH   5   6
ENDBRANCH   4   5
ENDBRANCH   3   4
ENDBRANCH   2   3
ENDBRANCH   1   2
BRANCH   1  10
ATOM     10  C   UNL     1       2.674 -10.845 -22.690  1.00  0.00     0.000 C 
BRANCH  10  11
ATOM     11  C   UNL     1       3.826 -11.544 -23.441  1.00  0.00    -0.000 C 
BRANCH  11  12
ATOM     12  C   UNL     1       5.224 -11.344 -22.824  1.00  0.00    -0.000 C 
BRANCH  12  13
ATOM     13  C   UNL     1       6.315 -10.903 -23.817  1.00  0.00    -0.000 C 
BRANCH  13  14
ATOM     14  C   UNL     1       6.956  -9.559 -23.440  1.00  0.00    -0.000 C 
BRANCH  14  15
ATOM     15  C   UNL     1       6.181  -8.880 -22.307  1.00  0.00    -0.003 C 
ATOM     16  C   UNL     1       5.817  -7.443 -22.669  1.00  0.00     0.004 C 
ENDBRANCH  14  15
ENDBRANCH  13  14
ENDBRANCH  12  13
ENDBRANCH  11  12
ENDBRANCH  10  11
ENDBRANCH   1  10
TORSDOF 12
ENDMDL
MODEL 8
REMARK VINA RESULT:    -4.467      3.427      6.806
REMARK INTER + INTRA:          -8.683
REMARK INTER:                  -7.941
REMARK INTRA:                  -0.742
REMARK UNBOUND:                -1.082
REMARK SMILES CCCCCCCCCCCCCC(=O)[O-]
REMARK SMILES IDX 8 1 9 2 10 3 11 4 12 5 13 6 14 7 15 8 16 9 7 10 6 11 5 12
REMARK SMILES IDX 4 13 3 14 2 15 1 16
REMARK H PARENT
REMARK Flexibility Score: inf
ROOT
ATOM      1  C   UNL     1       5.970  -8.699 -22.270  1.00  0.00     0.000 C 
ENDROOT
BRANCH   1   2
ATOM      2  C   UNL     1       7.024  -9.283 -23.229  1.00  0.00     0.000 C 
BRANCH   2   3
ATOM      3  C   UNL     1       6.624 -10.655 -23.795  1.00  0.00     0.000 C 
BRANCH   3   4
ATOM      4  C   UNL     1       5.268 -11.143 -23.238  1.00  0.00     0.000 C 
BRANCH   4   5
ATOM      5  C   UNL     1       5.275 -12.627 -22.825  1.00  0.00     0.006 C 
BRANCH   5   6
ATOM      6  C   UNL     1       4.321 -12.957 -21.667  1.00  0.00     0.053 C 
BRANCH   6   7
ATOM      7  C   UNL     1       2.944 -12.417 -21.907  1.00  0.00     0.041 C 
ATOM      8  O   UNL     1       2.262 -12.835 -22.880  1.00  0.00    -0.550 OA
ATOM      9  O   UNL     1       2.405 -11.468 -21.048  1.00  0.00    -0.550 OA
ENDBRANCH   6   7
ENDBRANCH   5   6
ENDBRANCH   4   5
ENDBRANCH   3   4
ENDBRANCH   2   3
ENDBRANCH   1   2
BRANCH   1  10
ATOM     10  C   UNL     1       5.744  -7.179 -22.401  1.00  0.00     0.000 C 
BRANCH  10  11
ATOM     11  C   UNL     1       4.533  -6.631 -21.620  1.00  0.00    -0.000 C 
BRANCH  11  12
ATOM     12  C   UNL     1       4.288  -7.288 -20.247  1.00  0.00    -0.000 C 
BRANCH  12  13
ATOM     13  C   UNL     1       3.711  -6.350 -19.171  1.00  0.00    -0.000 C 
BRANCH  13  14
ATOM     14  C   UNL     1       3.611  -4.892 -19.643  1.00  0.00    -0.000 C 
BRANCH  14  15
ATOM     15  C   UNL     1       3.974  -3.924 -18.512  1.00  0.00    -0.003 C 
ATOM     16  C   UNL     1       5.486  -3.746 -18.401  1.00  0.00     0.004 C 
ENDBRANCH  14  15
ENDBRANCH  13  14
ENDBRANCH  12  13
ENDBRANCH  11  12
ENDBRANCH  10  11
ENDBRANCH   1  10
TORSDOF 12
ENDMDL
MODEL 9
REMARK VINA RESULT:    -4.437      3.835      7.200
REMARK INTER + INTRA:          -8.631
REMARK INTER:                  -7.631
REMARK INTRA:                  -1.000
REMARK UNBOUND:                -1.082
REMARK SMILES CCCCCCCCCCCCCC(=O)[O-]
REMARK SMILES IDX 8 1 9 2 10 3 11 4 12 5 13 6 14 7 15 8 16 9 7 10 6 11 5 12
REMARK SMILES IDX 4 13 3 14 2 15 1 16
REMARK H PARENT
REMARK Flexibility Score: inf
ROOT
ATOM      1  C   UNL     1       4.968  -6.652 -21.430  1.00  0.00     0.000 C 
ENDROOT
BRANCH   1   2
ATOM      2  C   UNL     1       5.759  -7.417 -22.507  1.00  0.00     0.000 C 
BRANCH   2   3
ATOM      3  C   UNL     1       5.953  -8.904 -22.165  1.00  0.00     0.000 C 
BRANCH   3   4
ATOM      4  C   UNL     1       6.478  -9.716 -23.370  1.00  0.00     0.000 C 
BRANCH   4   5
ATOM      5  C   UNL     1       5.870 -11.128 -23.467  1.00  0.00     0.006 C 
BRANCH   5   6
ATOM      6  C   UNL     1       4.654 -11.348 -22.555  1.00  0.00     0.053 C 
BRANCH   6   7
ATOM      7  C   UNL     1       3.593 -12.164 -23.227  1.00  0.00     0.041 C 
ATOM      8  O   UNL     1       3.254 -11.907 -24.413  1.00  0.00    -0.550 OA
ATOM      9  O   UNL     1       2.990 -13.219 -22.554  1.00  0.00    -0.550 OA
ENDBRANCH   6   7
ENDBRANCH   5   6
ENDBRANCH   4   5
ENDBRANCH   3   4
ENDBRANCH   2   3
ENDBRANCH   1   2
BRANCH   1  10
ATOM     10  C   UNL     1       4.412  -7.527 -20.288  1.00  0.00     0.000 C 
BRANCH  10  11
ATOM     11  C   UNL     1       2.879  -7.493 -20.127  1.00  0.00    -0.000 C 
BRANCH  11  12
ATOM     12  C   UNL     1       2.295  -6.124 -19.726  1.00  0.00    -0.000 C 
BRANCH  12  13
ATOM     13  C   UNL     1       2.842  -5.545 -18.408  1.00  0.00    -0.000 C 
BRANCH  13  14
ATOM     14  C   UNL     1       2.857  -4.009 -18.392  1.00  0.00    -0.000 C 
BRANCH  14  15
ATOM     15  C   UNL     1       4.278  -3.473 -18.590  1.00  0.00    -0.003 C 
ATOM     16  C   UNL     1       5.314  -4.410 -17.973  1.00  0.00     0.004 C 
ENDBRANCH  14  15
ENDBRANCH  13  14
ENDBRANCH  12  13
ENDBRANCH  11  12
ENDBRANCH  10  11
ENDBRANCH   1  10
TORSDOF 12
ENDMDL
