MODEL 1
REMARK VINA RESULT:    95.413      0.000      0.000
REMARK INTER + INTRA:         104.117
REMARK INTER:                 103.780
REMARK INTRA:                   0.337
REMARK UNBOUND:                 0.337
REMARK SMILES C[C@H]1[C@H](C)CC[C@]2(C(=O)[O-])CC[C@@]3(C)C(=CC[C@@H]4[C@]5(C)CC[C@@H](O)C(C)(C)[C@@H]5CC[C@@]43C)[C@H]12
REMARK SMILES IDX 7 1 6 2 11 3 33 4 5 5 12 6 15 7 2 8 3 9 13 10 16 11 1 12
REMARK SMILES IDX 4 13 14 14 31 15 17 16 18 17 30 18 32 19 19 20 29 21 28 22
REMARK SMILES IDX 21 23 20 24 25 25 22 26 23 27 26 28 27 29 8 30 9 31 10 32
REMARK SMILES IDX 24 33
REMARK H PARENT 24 34
REMARK Flexibility Score: inf
ROOT
ATOM      1  C   UNL     1      -1.515  76.258   3.403  1.00  0.00     0.017 C 
ATOM      2  C   UNL     1      -1.428  74.739   3.710  1.00  0.00     0.014 C 
ATOM      3  C   UNL     1      -0.148  76.730   2.814  1.00  0.00     0.014 C 
ATOM      4  C   UNL     1      -1.923  77.023   4.730  1.00  0.00     0.030 C 
ATOM      5  C   UNL     1      -2.762  74.158   4.189  1.00  0.00     0.004 C 
ATOM      6  C   UNL     1       0.963  76.971   3.844  1.00  0.00     0.013 C 
ATOM      7  C   UNL     1      -0.676  77.263   5.636  1.00  0.00    -0.063 C 
ATOM      8  C   UNL     1      -3.212  76.397   5.421  1.00  0.00    -0.003 C 
ATOM      9  C   UNL     1      -3.267  74.829   5.474  1.00  0.00    -0.011 C 
ATOM     10  C   UNL     1       0.549  77.940   4.997  1.00  0.00    -0.006 C 
ATOM     11  C   UNL     1      -0.605  76.795   6.895  1.00  0.00    -0.027 C 
ATOM     12  C   UNL     1      -4.512  76.931   4.782  1.00  0.00     0.008 C 
ATOM     13  C   UNL     1      -2.608  74.208   6.714  1.00  0.00     0.008 C 
ATOM     14  C   UNL     1       0.094  79.326   4.404  1.00  0.00     0.017 C 
ATOM     15  C   UNL     1       1.777  78.185   6.033  1.00  0.00    -0.020 C 
ATOM     16  C   UNL     1       0.648  76.607   7.691  1.00  0.00     0.032 C 
ATOM     17  C   UNL     1       1.992  76.933   6.958  1.00  0.00     0.006 C 
ATOM     18  C   UNL     1       1.485  79.400   6.973  1.00  0.00     0.008 C 
ATOM     19  C   UNL     1       3.065  78.496   5.196  1.00  0.00     0.012 C 
ATOM     20  C   UNL     1       3.261  77.048   7.959  1.00  0.00    -0.025 C 
ATOM     21  C   UNL     1       2.169  79.398   8.370  1.00  0.00     0.005 C 
ATOM     22  C   UNL     1       3.468  78.549   8.482  1.00  0.00     0.003 C 
ATOM     23  C   UNL     1       3.140  76.023   9.154  1.00  0.00     0.010 C 
ATOM     24  C   UNL     1       4.548  76.598   7.174  1.00  0.00     0.012 C 
ATOM     25  C   UNL     1       4.239  78.716   9.879  1.00  0.00    -0.006 C 
ATOM     26  C   UNL     1       2.753  76.655  10.489  1.00  0.00     0.033 C 
ATOM     27  C   UNL     1       3.819  77.641  10.970  1.00  0.00     0.120 C 
ATOM     28  C   UNL     1       5.777  78.688   9.619  1.00  0.00     0.014 C 
ATOM     29  C   UNL     1       3.991  80.121  10.499  1.00  0.00     0.014 C 
ENDROOT
BRANCH   1  30
ATOM     30  C   UNL     1      -2.517  76.512   2.282  1.00  0.00     0.048 C 
ATOM     31  O   UNL     1      -3.276  75.590   1.881  1.00  0.00    -0.550 OA
ATOM     32  O   UNL     1      -2.717  77.798   1.794  1.00  0.00    -0.550 OA
ENDBRANCH   1  30
BRANCH  27  33
ATOM     33  O   UNL     1       4.922  76.950  11.538  1.00  0.00    -0.393 OA
ATOM     34  H   UNL     1       5.649  77.606  11.722  1.00  0.00     0.210 HD
ENDBRANCH  27  33
TORSDOF 2
ENDMDL
MODEL 2
REMARK VINA RESULT:    97.715      8.729     11.962
REMARK INTER + INTRA:         106.620
REMARK INTER:                 106.003
REMARK INTRA:                   0.617
REMARK UNBOUND:                 0.337
REMARK SMILES C[C@H]1[C@H](C)CC[C@]2(C(=O)[O-])CC[C@@]3(C)C(=CC[C@@H]4[C@]5(C)CC[C@@H](O)C(C)(C)[C@@H]5CC[C@@]43C)[C@H]12
REMARK SMILES IDX 7 1 6 2 11 3 33 4 5 5 12 6 15 7 2 8 3 9 13 10 16 11 1 12
REMARK SMILES IDX 4 13 14 14 31 15 17 16 18 17 30 18 32 19 19 20 29 21 28 22
REMARK SMILES IDX 21 23 20 24 25 25 22 26 23 27 26 28 27 29 8 30 9 31 10 32
REMARK SMILES IDX 24 33
REMARK H PARENT 24 34
REMARK Flexibility Score: inf
ROOT
ATOM      1  C   UNL     1      13.294  77.729   0.386  1.00  0.00     0.017 C 
ATOM      2  C   UNL     1      14.347  77.564   1.515  1.00  0.00     0.014 C 
ATOM      3  C   UNL     1      12.685  79.165   0.475  1.00  0.00     0.014 C 
ATOM      4  C   UNL     1      12.212  76.580   0.526  1.00  0.00     0.030 C 
ATOM      5  C   UNL     1      15.083  76.222   1.440  1.00  0.00     0.004 C 
ATOM      6  C   UNL     1      11.607  79.355   1.549  1.00  0.00     0.013 C 
ATOM      7  C   UNL     1      11.143  76.954   1.598  1.00  0.00    -0.063 C 
ATOM      8  C   UNL     1      12.870  75.135   0.630  1.00  0.00    -0.003 C 
ATOM      9  C   UNL     1      14.132  75.023   1.558  1.00  0.00    -0.011 C 
ATOM     10  C   UNL     1      10.443  78.318   1.460  1.00  0.00    -0.006 C 
ATOM     11  C   UNL     1      10.912  76.186   2.677  1.00  0.00    -0.027 C 
ATOM     12  C   UNL     1      13.211  74.566  -0.763  1.00  0.00     0.008 C 
ATOM     13  C   UNL     1      13.818  74.714   3.029  1.00  0.00     0.008 C 
ATOM     14  C   UNL     1       9.765  78.384   0.041  1.00  0.00     0.017 C 
ATOM     15  C   UNL     1       9.317  78.594   2.598  1.00  0.00    -0.020 C 
ATOM     16  C   UNL     1      10.237  76.627   3.938  1.00  0.00     0.032 C 
ATOM     17  C   UNL     1       9.821  78.133   4.014  1.00  0.00     0.006 C 
ATOM     18  C   UNL     1       8.007  77.793   2.299  1.00  0.00     0.008 C 
ATOM     19  C   UNL     1       8.980  80.125   2.589  1.00  0.00     0.012 C 
ATOM     20  C   UNL     1       8.800  78.460   5.229  1.00  0.00    -0.025 C 
ATOM     21  C   UNL     1       7.112  77.415   3.514  1.00  0.00     0.005 C 
ATOM     22  C   UNL     1       7.270  78.316   4.772  1.00  0.00     0.003 C 
ATOM     23  C   UNL     1       9.119  77.574   6.496  1.00  0.00     0.010 C 
ATOM     24  C   UNL     1       9.054  79.939   5.700  1.00  0.00     0.012 C 
ATOM     25  C   UNL     1       6.206  78.008   5.933  1.00  0.00    -0.006 C 
ATOM     26  C   UNL     1       8.132  76.432   6.731  1.00  0.00     0.033 C 
ATOM     27  C   UNL     1       6.724  76.959   7.008  1.00  0.00     0.120 C 
ATOM     28  C   UNL     1       5.786  79.350   6.608  1.00  0.00     0.014 C 
ATOM     29  C   UNL     1       4.876  77.451   5.350  1.00  0.00     0.014 C 
ENDROOT
BRANCH   1  30
ATOM     30  C   UNL     1      13.975  77.693  -0.979  1.00  0.00     0.048 C 
ATOM     31  O   UNL     1      15.125  78.183  -1.133  1.00  0.00    -0.550 OA
ATOM     32  O   UNL     1      13.408  76.983  -2.030  1.00  0.00    -0.550 OA
ENDBRANCH   1  30
BRANCH  27  33
ATOM     33  O   UNL     1       6.614  77.420   8.347  1.00  0.00    -0.393 OA
ATOM     34  H   UNL     1       6.999  76.731   8.954  1.00  0.00     0.210 HD
ENDBRANCH  27  33
TORSDOF 2
ENDMDL
