MODEL 1
REMARK VINA RESULT:    -3.041      0.000      0.000
REMARK INTER + INTRA:          -3.698
REMARK INTER:                  -3.574
REMARK INTRA:                  -0.124
REMARK UNBOUND:                -0.124
REMARK SMILES O=C([O-])C=Cc1ccc(O)c(O)c1
REMARK SMILES IDX 6 1 13 2 7 3 11 4 8 5 9 6 5 7 4 8 2 9 1 10 3 11 12 12 10 14
REMARK H PARENT 12 13 10 15
REMARK Flexibility Score: inf
ROOT
ATOM      1  C   UNL     1       3.216   1.137 -18.651  1.00  0.00    -0.022 A 
ATOM      2  C   UNL     1       3.636   0.274 -17.620  1.00  0.00     0.058 A 
ATOM      3  C   UNL     1       2.954   2.479 -18.343  1.00  0.00     0.012 A 
ATOM      4  C   UNL     1       3.815   0.745 -16.313  1.00  0.00     0.157 A 
ATOM      5  C   UNL     1       3.134   2.958 -17.045  1.00  0.00     0.051 A 
ATOM      6  C   UNL     1       3.566   2.107 -16.022  1.00  0.00     0.157 A 
ENDROOT
BRANCH   1   7
ATOM      7  C   UNL     1       3.003   0.673 -20.045  1.00  0.00     0.010 C 
ATOM      8  C   UNL     1       3.207  -0.588 -20.449  1.00  0.00     0.025 C 
BRANCH   8   9
ATOM      9  C   UNL     1       2.994  -1.001 -21.845  1.00  0.00     0.064 C 
ATOM     10  O   UNL     1       2.909  -2.225 -22.125  1.00  0.00    -0.545 OA
ATOM     11  O   UNL     1       2.885  -0.061 -22.863  1.00  0.00    -0.545 OA
ENDBRANCH   8   9
ENDBRANCH   1   7
BRANCH   4  12
ATOM     12  O   UNL     1       4.233  -0.168 -15.342  1.00  0.00    -0.504 OA
ATOM     13  H   UNL     1       3.763  -0.308 -14.460  1.00  0.00     0.293 HD
ENDBRANCH   4  12
BRANCH   6  14
ATOM     14  O   UNL     1       3.732   2.650 -14.747  1.00  0.00    -0.504 OA
ATOM     15  H   UNL     1       3.942   2.104 -13.924  1.00  0.00     0.293 HD
ENDBRANCH   6  14
TORSDOF 4
ENDMDL
MODEL 2
REMARK VINA RESULT:    -2.823      1.582      6.015
REMARK INTER + INTRA:          -3.442
REMARK INTER:                  -3.310
REMARK INTRA:                  -0.133
REMARK UNBOUND:                -0.124
REMARK SMILES O=C([O-])C=Cc1ccc(O)c(O)c1
REMARK SMILES IDX 6 1 13 2 7 3 11 4 8 5 9 6 5 7 4 8 2 9 1 10 3 11 12 12 10 14
REMARK H PARENT 12 13 10 15
REMARK Flexibility Score: inf
ROOT
ATOM      1  C   UNL     1       2.938   1.322 -18.783  1.00  0.00    -0.022 A 
ATOM      2  C   UNL     1       2.918   1.730 -20.131  1.00  0.00     0.058 A 
ATOM      3  C   UNL     1       2.911  -0.048 -18.492  1.00  0.00     0.012 A 
ATOM      4  C   UNL     1       2.895   0.789 -21.169  1.00  0.00     0.157 A 
ATOM      5  C   UNL     1       2.893  -0.993 -19.519  1.00  0.00     0.051 A 
ATOM      6  C   UNL     1       2.888  -0.591 -20.859  1.00  0.00     0.157 A 
ENDROOT
BRANCH   1   7
ATOM      7  C   UNL     1       2.949   2.289 -17.657  1.00  0.00     0.010 C 
ATOM      8  C   UNL     1       4.028   2.543 -16.904  1.00  0.00     0.025 C 
BRANCH   8   9
ATOM      9  C   UNL     1       3.989   3.502 -15.789  1.00  0.00     0.064 C 
ATOM     10  O   UNL     1       2.903   4.062 -15.488  1.00  0.00    -0.545 OA
ATOM     11  O   UNL     1       5.134   3.802 -15.059  1.00  0.00    -0.545 OA
ENDBRANCH   8   9
ENDBRANCH   1   7
BRANCH   4  12
ATOM     12  O   UNL     1       2.875   1.266 -22.482  1.00  0.00    -0.504 OA
ATOM     13  H   UNL     1       3.298   2.134 -22.773  1.00  0.00     0.293 HD
ENDBRANCH   4  12
BRANCH   6  14
ATOM     14  O   UNL     1       2.876  -1.586 -21.838  1.00  0.00    -0.504 OA
ATOM     15  H   UNL     1       2.537  -1.447 -22.780  1.00  0.00     0.293 HD
ENDBRANCH   6  14
TORSDOF 4
ENDMDL
MODEL 3
REMARK VINA RESULT:    -2.518      1.002      2.161
REMARK INTER + INTRA:          -3.084
REMARK INTER:                  -2.960
REMARK INTRA:                  -0.124
REMARK UNBOUND:                -0.124
REMARK SMILES O=C([O-])C=Cc1ccc(O)c(O)c1
REMARK SMILES IDX 6 1 13 2 7 3 11 4 8 5 9 6 5 7 4 8 2 9 1 10 3 11 12 12 10 14
REMARK H PARENT 12 13 10 15
REMARK Flexibility Score: inf
ROOT
ATOM      1  C   UNL     1       3.290   0.571 -18.374  1.00  0.00    -0.022 A 
ATOM      2  C   UNL     1       3.040   1.956 -18.425  1.00  0.00     0.058 A 
ATOM      3  C   UNL     1       3.709   0.005 -17.163  1.00  0.00     0.012 A 
ATOM      4  C   UNL     1       3.180   2.757 -17.285  1.00  0.00     0.157 A 
ATOM      5  C   UNL     1       3.848   0.794 -16.020  1.00  0.00     0.051 A 
ATOM      6  C   UNL     1       3.585   2.167 -16.064  1.00  0.00     0.157 A 
ENDROOT
BRANCH   1   7
ATOM      7  C   UNL     1       3.164  -0.308 -19.564  1.00  0.00     0.010 C 
ATOM      8  C   UNL     1       3.172   0.141 -20.826  1.00  0.00     0.025 C 
BRANCH   8   9
ATOM      9  C   UNL     1       3.032  -0.767 -21.976  1.00  0.00     0.064 C 
ATOM     10  O   UNL     1       2.943  -0.290 -23.137  1.00  0.00    -0.545 OA
ATOM     11  O   UNL     1       2.997  -2.145 -21.801  1.00  0.00    -0.545 OA
ENDBRANCH   8   9
ENDBRANCH   1   7
BRANCH   4  12
ATOM     12  O   UNL     1       2.916   4.123 -17.410  1.00  0.00    -0.504 OA
ATOM     13  H   UNL     1       3.448   4.749 -17.995  1.00  0.00     0.293 HD
ENDBRANCH   4  12
BRANCH   6  14
ATOM     14  O   UNL     1       3.737   2.899 -14.885  1.00  0.00    -0.504 OA
ATOM     15  H   UNL     1       3.663   3.905 -14.831  1.00  0.00     0.293 HD
ENDBRANCH   6  14
TORSDOF 4
ENDMDL
MODEL 4
REMARK VINA RESULT:    -1.014      1.026      5.728
REMARK INTER + INTRA:          -1.317
REMARK INTER:                  -1.194
REMARK INTRA:                  -0.123
REMARK UNBOUND:                -0.124
REMARK SMILES O=C([O-])C=Cc1ccc(O)c(O)c1
REMARK SMILES IDX 6 1 13 2 7 3 11 4 8 5 9 6 5 7 4 8 2 9 1 10 3 11 12 12 10 14
REMARK H PARENT 12 13 10 15
REMARK Flexibility Score: inf
ROOT
ATOM      1  C   UNL     1       2.930   0.889 -19.593  1.00  0.00    -0.022 A 
ATOM      2  C   UNL     1       3.050  -0.418 -20.105  1.00  0.00     0.058 A 
ATOM      3  C   UNL     1       2.887   1.965 -20.490  1.00  0.00     0.012 A 
ATOM      4  C   UNL     1       3.103  -0.648 -21.486  1.00  0.00     0.157 A 
ATOM      5  C   UNL     1       2.935   1.744 -21.866  1.00  0.00     0.051 A 
ATOM      6  C   UNL     1       3.039   0.447 -22.379  1.00  0.00     0.157 A 
ENDROOT
BRANCH   1   7
ATOM      7  C   UNL     1       2.883   1.174 -18.136  1.00  0.00     0.010 C 
ATOM      8  C   UNL     1       3.962   1.174 -17.343  1.00  0.00     0.025 C 
BRANCH   8   9
ATOM      9  C   UNL     1       3.867   1.451 -15.901  1.00  0.00     0.064 C 
ATOM     10  O   UNL     1       3.809   0.493 -15.087  1.00  0.00    -0.545 OA
ATOM     11  O   UNL     1       3.840   2.755 -15.421  1.00  0.00    -0.545 OA
ENDBRANCH   8   9
ENDBRANCH   1   7
BRANCH   4  12
ATOM     12  O   UNL     1       3.224  -1.970 -21.922  1.00  0.00    -0.504 OA
ATOM     13  H   UNL     1       3.925  -2.286 -22.576  1.00  0.00     0.293 HD
ENDBRANCH   4  12
BRANCH   6  14
ATOM     14  O   UNL     1       3.076   0.294 -23.766  1.00  0.00    -0.504 OA
ATOM     15  H   UNL     1       3.468   0.976 -24.400  1.00  0.00     0.293 HD
ENDBRANCH   6  14
TORSDOF 4
ENDMDL
MODEL 5
REMARK VINA RESULT:    -0.952      1.734      2.521
REMARK INTER + INTRA:          -1.244
REMARK INTER:                  -1.121
REMARK INTRA:                  -0.122
REMARK UNBOUND:                -0.124
REMARK SMILES O=C([O-])C=Cc1ccc(O)c(O)c1
REMARK SMILES IDX 6 1 13 2 7 3 11 4 8 5 9 6 5 7 4 8 2 9 1 10 3 11 12 12 10 14
REMARK H PARENT 12 13 10 15
REMARK Flexibility Score: inf
ROOT
ATOM      1  C   UNL     1       3.221   0.175 -19.048  1.00  0.00    -0.022 A 
ATOM      2  C   UNL     1       3.081   1.475 -19.572  1.00  0.00     0.058 A 
ATOM      3  C   UNL     1       3.329   0.015 -17.661  1.00  0.00     0.012 A 
ATOM      4  C   UNL     1       3.024   2.590 -18.727  1.00  0.00     0.157 A 
ATOM      5  C   UNL     1       3.270   1.119 -16.811  1.00  0.00     0.051 A 
ATOM      6  C   UNL     1       3.115   2.410 -17.327  1.00  0.00     0.157 A 
ENDROOT
BRANCH   1   7
ATOM      7  C   UNL     1       3.297  -1.030 -19.912  1.00  0.00     0.010 C 
ATOM      8  C   UNL     1       3.782  -1.022 -21.161  1.00  0.00     0.025 C 
BRANCH   8   9
ATOM      9  C   UNL     1       3.827  -2.240 -21.985  1.00  0.00     0.064 C 
ATOM     10  O   UNL     1       4.731  -3.093 -21.785  1.00  0.00    -0.545 OA
ATOM     11  O   UNL     1       2.887  -2.466 -22.984  1.00  0.00    -0.545 OA
ENDBRANCH   8   9
ENDBRANCH   1   7
BRANCH   4  12
ATOM     12  O   UNL     1       2.885   3.849 -19.317  1.00  0.00    -0.504 OA
ATOM     13  H   UNL     1       2.562   3.998 -20.261  1.00  0.00     0.293 HD
ENDBRANCH   4  12
BRANCH   6  14
ATOM     14  O   UNL     1       3.056   3.472 -16.423  1.00  0.00    -0.504 OA
ATOM     15  H   UNL     1       3.648   4.290 -16.473  1.00  0.00     0.293 HD
ENDBRANCH   6  14
TORSDOF 4
ENDMDL
