MODEL 1
REMARK VINA RESULT:    -3.402      0.000      0.000
REMARK INTER + INTRA:          -6.311
REMARK INTER:                  -5.391
REMARK INTRA:                  -0.920
REMARK UNBOUND:                -0.920
REMARK SMILES CCCCCCCCCCCC(=O)[O-]
REMARK SMILES IDX 7 1 8 2 9 3 10 4 11 5 12 6 13 7 14 8 6 9 5 10 4 11 3 12 2 13
REMARK SMILES IDX 1 14
REMARK H PARENT
REMARK Flexibility Score: inf
ROOT
ATOM      1  C   UNL     1     -18.417  15.659  -4.228  1.00  0.00     0.000 C 
ENDROOT
BRANCH   1   2
ATOM      2  C   UNL     1     -18.874  14.204  -4.076  1.00  0.00     0.000 C 
BRANCH   2   3
ATOM      3  C   UNL     1     -20.070  13.904  -4.986  1.00  0.00     0.000 C 
BRANCH   3   4
ATOM      4  C   UNL     1     -19.684  12.915  -6.096  1.00  0.00     0.006 C 
BRANCH   4   5
ATOM      5  C   UNL     1     -19.106  11.610  -5.535  1.00  0.00     0.053 C 
BRANCH   5   6
ATOM      6  C   UNL     1     -18.521  10.751  -6.615  1.00  0.00     0.041 C 
ATOM      7  O   UNL     1     -17.916  11.278  -7.586  1.00  0.00    -0.550 OA
ATOM      8  O   UNL     1     -18.673   9.371  -6.565  1.00  0.00    -0.550 OA
ENDBRANCH   5   6
ENDBRANCH   4   5
ENDBRANCH   3   4
ENDBRANCH   2   3
ENDBRANCH   1   2
BRANCH   1   9
ATOM      9  C   UNL     1     -19.617  16.612  -4.276  1.00  0.00     0.000 C 
BRANCH   9  10
ATOM     10  C   UNL     1     -19.544  17.530  -5.502  1.00  0.00    -0.000 C 
BRANCH  10  11
ATOM     11  C   UNL     1     -20.838  18.343  -5.659  1.00  0.00    -0.000 C 
BRANCH  11  12
ATOM     12  C   UNL     1     -21.668  17.906  -6.875  1.00  0.00    -0.000 C 
BRANCH  12  13
ATOM     13  C   UNL     1     -20.901  16.952  -7.803  1.00  0.00    -0.003 C 
ATOM     14  C   UNL     1     -21.660  15.642  -7.992  1.00  0.00     0.004 C 
ENDBRANCH  12  13
ENDBRANCH  11  12
ENDBRANCH  10  11
ENDBRANCH   9  10
ENDBRANCH   1   9
TORSDOF 10
ENDMDL
MODEL 2
REMARK VINA RESULT:    -3.384      2.354      5.355
REMARK INTER + INTRA:          -6.282
REMARK INTER:                  -5.443
REMARK INTRA:                  -0.839
REMARK UNBOUND:                -0.920
REMARK SMILES CCCCCCCCCCCC(=O)[O-]
REMARK SMILES IDX 7 1 8 2 9 3 10 4 11 5 12 6 13 7 14 8 6 9 5 10 4 11 3 12 2 13
REMARK SMILES IDX 1 14
REMARK H PARENT
REMARK Flexibility Score: inf
ROOT
ATOM      1  C   UNL     1     -18.475  15.287  -4.227  1.00  0.00     0.000 C 
ENDROOT
BRANCH   1   2
ATOM      2  C   UNL     1     -19.482  16.439  -4.130  1.00  0.00     0.000 C 
BRANCH   2   3
ATOM      3  C   UNL     1     -19.404  17.345  -5.365  1.00  0.00     0.000 C 
BRANCH   3   4
ATOM      4  C   UNL     1     -20.792  17.889  -5.737  1.00  0.00     0.006 C 
BRANCH   4   5
ATOM      5  C   UNL     1     -21.734  16.785  -6.232  1.00  0.00     0.053 C 
BRANCH   5   6
ATOM      6  C   UNL     1     -21.365  16.316  -7.607  1.00  0.00     0.041 C 
ATOM      7  O   UNL     1     -21.639  15.142  -7.971  1.00  0.00    -0.550 OA
ATOM      8  O   UNL     1     -20.690  17.166  -8.474  1.00  0.00    -0.550 OA
ENDBRANCH   5   6
ENDBRANCH   4   5
ENDBRANCH   3   4
ENDBRANCH   2   3
ENDBRANCH   1   2
BRANCH   1   9
ATOM      9  C   UNL     1     -19.156  13.938  -3.969  1.00  0.00     0.000 C 
BRANCH   9  10
ATOM     10  C   UNL     1     -20.343  13.728  -4.918  1.00  0.00    -0.000 C 
BRANCH  10  11
ATOM     11  C   UNL     1     -19.931  12.891  -6.139  1.00  0.00    -0.000 C 
BRANCH  11  12
ATOM     12  C   UNL     1     -18.772  11.930  -5.833  1.00  0.00    -0.000 C 
BRANCH  12  13
ATOM     13  C   UNL     1     -18.305  11.154  -7.074  1.00  0.00    -0.003 C 
ATOM     14  C   UNL     1     -18.610   9.665  -6.937  1.00  0.00     0.004 C 
ENDBRANCH  12  13
ENDBRANCH  11  12
ENDBRANCH  10  11
ENDBRANCH   9  10
ENDBRANCH   1   9
TORSDOF 10
ENDMDL
MODEL 3
REMARK VINA RESULT:    -3.249     22.072     23.787
REMARK INTER + INTRA:          -6.067
REMARK INTER:                  -4.653
REMARK INTRA:                  -1.414
REMARK UNBOUND:                -0.920
REMARK SMILES CCCCCCCCCCCC(=O)[O-]
REMARK SMILES IDX 7 1 8 2 9 3 10 4 11 5 12 6 13 7 14 8 6 9 5 10 4 11 3 12 2 13
REMARK SMILES IDX 1 14
REMARK H PARENT
REMARK Flexibility Score: inf
ROOT
ATOM      1  C   UNL     1      -6.959  24.321 -21.050  1.00  0.00     0.000 C 
ENDROOT
BRANCH   1   2
ATOM      2  C   UNL     1      -8.465  24.587 -21.156  1.00  0.00     0.000 C 
BRANCH   2   3
ATOM      3  C   UNL     1      -8.977  24.299 -22.571  1.00  0.00     0.000 C 
BRANCH   3   4
ATOM      4  C   UNL     1      -9.417  25.593 -23.272  1.00  0.00     0.006 C 
BRANCH   4   5
ATOM      5  C   UNL     1      -9.926  26.646 -22.280  1.00  0.00     0.053 C 
BRANCH   5   6
ATOM      6  C   UNL     1     -11.358  27.007 -22.539  1.00  0.00     0.041 C 
ATOM      7  O   UNL     1     -12.079  27.448 -21.605  1.00  0.00    -0.550 OA
ATOM      8  O   UNL     1     -11.902  26.827 -23.804  1.00  0.00    -0.550 OA
ENDBRANCH   5   6
ENDBRANCH   4   5
ENDBRANCH   3   4
ENDBRANCH   2   3
ENDBRANCH   1   2
BRANCH   1   9
ATOM      9  C   UNL     1      -6.397  23.797 -22.376  1.00  0.00     0.000 C 
BRANCH   9  10
ATOM     10  C   UNL     1      -4.937  24.227 -22.565  1.00  0.00    -0.000 C 
BRANCH  10  11
ATOM     11  C   UNL     1      -4.758  25.005 -23.878  1.00  0.00    -0.000 C 
BRANCH  11  12
ATOM     12  C   UNL     1      -5.753  26.167 -24.018  1.00  0.00    -0.000 C 
BRANCH  12  13
ATOM     13  C   UNL     1      -5.330  27.406 -23.216  1.00  0.00    -0.003 C 
ATOM     14  C   UNL     1      -6.347  27.725 -22.123  1.00  0.00     0.004 C 
ENDBRANCH  12  13
ENDBRANCH  11  12
ENDBRANCH  10  11
ENDBRANCH   9  10
ENDBRANCH   1   9
TORSDOF 10
ENDMDL
MODEL 4
REMARK VINA RESULT:    -3.236      1.325      2.858
REMARK INTER + INTRA:          -6.048
REMARK INTER:                  -5.047
REMARK INTRA:                  -1.001
REMARK UNBOUND:                -0.920
REMARK SMILES CCCCCCCCCCCC(=O)[O-]
REMARK SMILES IDX 7 1 8 2 9 3 10 4 11 5 12 6 13 7 14 8 6 9 5 10 4 11 3 12 2 13
REMARK SMILES IDX 1 14
REMARK H PARENT
REMARK Flexibility Score: inf
ROOT
ATOM      1  C   UNL     1     -20.240  12.879  -6.482  1.00  0.00     0.000 C 
ENDROOT
BRANCH   1   2
ATOM      2  C   UNL     1     -19.070  12.752  -5.500  1.00  0.00     0.000 C 
BRANCH   2   3
ATOM      3  C   UNL     1     -19.423  11.813  -4.341  1.00  0.00     0.000 C 
BRANCH   3   4
ATOM      4  C   UNL     1     -20.124  10.545  -4.852  1.00  0.00     0.006 C 
BRANCH   4   5
ATOM      5  C   UNL     1     -19.140   9.392  -5.084  1.00  0.00     0.053 C 
BRANCH   5   6
ATOM      6  C   UNL     1     -18.929   9.126  -6.544  1.00  0.00     0.041 C 
ATOM      7  O   UNL     1     -18.250   9.925  -7.242  1.00  0.00    -0.550 OA
ATOM      8  O   UNL     1     -19.510   8.013  -7.139  1.00  0.00    -0.550 OA
ENDBRANCH   5   6
ENDBRANCH   4   5
ENDBRANCH   3   4
ENDBRANCH   2   3
ENDBRANCH   1   2
BRANCH   1   9
ATOM      9  C   UNL     1     -21.177  14.022  -6.076  1.00  0.00     0.000 C 
BRANCH   9  10
ATOM     10  C   UNL     1     -21.422  14.979  -7.250  1.00  0.00    -0.000 C 
BRANCH  10  11
ATOM     11  C   UNL     1     -20.973  16.406  -6.901  1.00  0.00    -0.000 C 
BRANCH  11  12
ATOM     12  C   UNL     1     -20.886  16.644  -5.386  1.00  0.00    -0.000 C 
BRANCH  12  13
ATOM     13  C   UNL     1     -19.537  17.240  -4.958  1.00  0.00    -0.003 C 
ATOM     14  C   UNL     1     -18.687  16.206  -4.225  1.00  0.00     0.004 C 
ENDBRANCH  12  13
ENDBRANCH  11  12
ENDBRANCH  10  11
ENDBRANCH   9  10
ENDBRANCH   1   9
TORSDOF 10
ENDMDL
MODEL 5
REMARK VINA RESULT:    -3.154      1.762      2.894
REMARK INTER + INTRA:          -5.918
REMARK INTER:                  -4.892
REMARK INTRA:                  -1.026
REMARK UNBOUND:                -0.920
REMARK SMILES CCCCCCCCCCCC(=O)[O-]
REMARK SMILES IDX 7 1 8 2 9 3 10 4 11 5 12 6 13 7 14 8 6 9 5 10 4 11 3 12 2 13
REMARK SMILES IDX 1 14
REMARK H PARENT
REMARK Flexibility Score: inf
ROOT
ATOM      1  C   UNL     1     -19.399  11.992  -4.574  1.00  0.00     0.000 C 
ENDROOT
BRANCH   1   2
ATOM      2  C   UNL     1     -18.617  12.337  -5.847  1.00  0.00     0.000 C 
BRANCH   2   3
ATOM      3  C   UNL     1     -18.978  11.384  -6.991  1.00  0.00     0.000 C 
BRANCH   3   4
ATOM      4  C   UNL     1     -20.367  10.763  -6.773  1.00  0.00     0.006 C 
BRANCH   4   5
ATOM      5  C   UNL     1     -20.375   9.253  -7.041  1.00  0.00     0.053 C 
BRANCH   5   6
ATOM      6  C   UNL     1     -19.184   8.574  -6.435  1.00  0.00     0.041 C 
ATOM      7  O   UNL     1     -18.287   8.088  -7.173  1.00  0.00    -0.550 OA
ATOM      8  O   UNL     1     -19.082   8.451  -5.055  1.00  0.00    -0.550 OA
ENDBRANCH   5   6
ENDBRANCH   4   5
ENDBRANCH   3   4
ENDBRANCH   2   3
ENDBRANCH   1   2
BRANCH   1   9
ATOM      9  C   UNL     1     -20.107  13.229  -4.010  1.00  0.00     0.000 C 
BRANCH   9  10
ATOM     10  C   UNL     1     -19.919  14.441  -4.932  1.00  0.00    -0.000 C 
BRANCH  10  11
ATOM     11  C   UNL     1     -21.247  14.843  -5.590  1.00  0.00    -0.000 C 
BRANCH  11  12
ATOM     12  C   UNL     1     -21.284  14.523  -7.092  1.00  0.00    -0.000 C 
BRANCH  12  13
ATOM     13  C   UNL     1     -21.764  15.711  -7.939  1.00  0.00    -0.003 C 
ATOM     14  C   UNL     1     -20.853  16.921  -7.753  1.00  0.00     0.004 C 
ENDBRANCH  12  13
ENDBRANCH  11  12
ENDBRANCH  10  11
ENDBRANCH   9  10
ENDBRANCH   1   9
TORSDOF 10
ENDMDL
MODEL 6
REMARK VINA RESULT:    -3.135      2.981      6.275
REMARK INTER + INTRA:          -5.887
REMARK INTER:                  -4.885
REMARK INTRA:                  -1.003
REMARK UNBOUND:                -0.920
REMARK SMILES CCCCCCCCCCCC(=O)[O-]
REMARK SMILES IDX 7 1 8 2 9 3 10 4 11 5 12 6 13 7 14 8 6 9 5 10 4 11 3 12 2 13
REMARK SMILES IDX 1 14
REMARK H PARENT
REMARK Flexibility Score: inf
ROOT
ATOM      1  C   UNL     1     -19.788  12.381  -6.914  1.00  0.00     0.000 C 
ENDROOT
BRANCH   1   2
ATOM      2  C   UNL     1     -20.806  12.935  -5.910  1.00  0.00     0.000 C 
BRANCH   2   3
ATOM      3  C   UNL     1     -21.608  14.090  -6.520  1.00  0.00     0.000 C 
BRANCH   3   4
ATOM      4  C   UNL     1     -21.123  15.444  -5.980  1.00  0.00     0.006 C 
BRANCH   4   5
ATOM      5  C   UNL     1     -20.413  15.307  -4.627  1.00  0.00     0.053 C 
BRANCH   5   6
ATOM      6  C   UNL     1     -19.216  16.205  -4.535  1.00  0.00     0.041 C 
ATOM      7  O   UNL     1     -19.312  17.423  -4.843  1.00  0.00    -0.550 OA
ATOM      8  O   UNL     1     -17.988  15.689  -4.141  1.00  0.00    -0.550 OA
ENDBRANCH   5   6
ENDBRANCH   4   5
ENDBRANCH   3   4
ENDBRANCH   2   3
ENDBRANCH   1   2
BRANCH   1   9
ATOM      9  C   UNL     1     -18.735  11.517  -6.210  1.00  0.00     0.000 C 
BRANCH   9  10
ATOM     10  C   UNL     1     -19.150  11.207  -4.767  1.00  0.00    -0.000 C 
BRANCH  10  11
ATOM     11  C   UNL     1     -19.475   9.715  -4.597  1.00  0.00    -0.000 C 
BRANCH  11  12
ATOM     12  C   UNL     1     -19.074   8.878  -5.820  1.00  0.00    -0.000 C 
BRANCH  12  13
ATOM     13  C   UNL     1     -20.244   8.063  -6.389  1.00  0.00    -0.003 C 
ATOM     14  C   UNL     1     -21.382   8.975  -6.836  1.00  0.00     0.004 C 
ENDBRANCH  12  13
ENDBRANCH  11  12
ENDBRANCH  10  11
ENDBRANCH   9  10
ENDBRANCH   1   9
TORSDOF 10
ENDMDL
MODEL 7
REMARK VINA RESULT:    -3.126      3.256      6.663
REMARK INTER + INTRA:          -5.874
REMARK INTER:                  -4.900
REMARK INTRA:                  -0.974
REMARK UNBOUND:                -0.920
REMARK SMILES CCCCCCCCCCCC(=O)[O-]
REMARK SMILES IDX 7 1 8 2 9 3 10 4 11 5 12 6 13 7 14 8 6 9 5 10 4 11 3 12 2 13
REMARK SMILES IDX 1 14
REMARK H PARENT
REMARK Flexibility Score: inf
ROOT
ATOM      1  C   UNL     1     -19.033  11.944  -7.275  1.00  0.00     0.000 C 
ENDROOT
BRANCH   1   2
ATOM      2  C   UNL     1     -19.353  12.428  -5.856  1.00  0.00     0.000 C 
BRANCH   2   3
ATOM      3  C   UNL     1     -20.811  12.890  -5.747  1.00  0.00     0.000 C 
BRANCH   3   4
ATOM      4  C   UNL     1     -20.902  14.424  -5.733  1.00  0.00     0.006 C 
BRANCH   4   5
ATOM      5  C   UNL     1     -21.345  14.991  -7.088  1.00  0.00     0.053 C 
BRANCH   5   6
ATOM      6  C   UNL     1     -20.893  16.408  -7.271  1.00  0.00     0.041 C 
ATOM      7  O   UNL     1     -20.374  17.037  -6.311  1.00  0.00    -0.550 OA
ATOM      8  O   UNL     1     -21.075  17.043  -8.493  1.00  0.00    -0.550 OA
ENDBRANCH   5   6
ENDBRANCH   4   5
ENDBRANCH   3   4
ENDBRANCH   2   3
ENDBRANCH   1   2
BRANCH   1   9
ATOM      9  C   UNL     1     -18.186  10.667  -7.244  1.00  0.00     0.000 C 
BRANCH   9  10
ATOM     10  C   UNL     1     -18.748   9.656  -6.235  1.00  0.00    -0.000 C 
BRANCH  10  11
ATOM     11  C   UNL     1     -18.943   8.279  -6.887  1.00  0.00    -0.000 C 
BRANCH  11  12
ATOM     12  C   UNL     1     -20.424   7.893  -7.022  1.00  0.00    -0.000 C 
BRANCH  12  13
ATOM     13  C   UNL     1     -21.369   8.973  -6.474  1.00  0.00    -0.003 C 
ATOM     14  C   UNL     1     -22.124   9.666  -7.605  1.00  0.00     0.004 C 
ENDBRANCH  12  13
ENDBRANCH  11  12
ENDBRANCH  10  11
ENDBRANCH   9  10
ENDBRANCH   1   9
TORSDOF 10
ENDMDL
