MODEL 1
REMARK VINA RESULT:    -4.324      0.000      0.000
REMARK INTER + INTRA:         -10.022
REMARK INTER:                  -7.863
REMARK INTRA:                  -2.159
REMARK UNBOUND:                -2.159
REMARK SMILES CCCCCCCCCCCCCCCC(=O)[O-]
REMARK SMILES IDX 9 1 10 2 11 3 12 4 13 5 14 6 15 7 16 8 17 9 18 10 8 11 7 12
REMARK SMILES IDX 6 13 5 14 4 15 3 16 2 17 1 18
REMARK H PARENT
REMARK Flexibility Score: inf
ROOT
ATOM      1  C   UNL     1      -2.224  -7.393  -0.484  1.00  0.00     0.000 C 
ENDROOT
BRANCH   1   2
ATOM      2  C   UNL     1      -1.732  -8.679  -1.177  1.00  0.00     0.000 C 
BRANCH   2   3
ATOM      3  C   UNL     1      -0.209  -8.914  -1.111  1.00  0.00     0.000 C 
BRANCH   3   4
ATOM      4  C   UNL     1       0.602  -7.754  -0.507  1.00  0.00     0.000 C 
BRANCH   4   5
ATOM      5  C   UNL     1       1.880  -8.226   0.203  1.00  0.00     0.000 C 
BRANCH   5   6
ATOM      6  C   UNL     1       3.100  -7.423  -0.273  1.00  0.00     0.006 C 
BRANCH   6   7
ATOM      7  C   UNL     1       3.104  -5.991   0.277  1.00  0.00     0.053 C 
BRANCH   7   8
ATOM      8  C   UNL     1       4.207  -5.171  -0.319  1.00  0.00     0.041 C 
ATOM      9  O   UNL     1       4.408  -5.187  -1.562  1.00  0.00    -0.550 OA
ATOM     10  O   UNL     1       4.991  -4.363   0.496  1.00  0.00    -0.550 OA
ENDBRANCH   7   8
ENDBRANCH   6   7
ENDBRANCH   5   6
ENDBRANCH   4   5
ENDBRANCH   3   4
ENDBRANCH   2   3
ENDBRANCH   1   2
BRANCH   1  11
ATOM     11  C   UNL     1      -2.752  -6.301  -1.435  1.00  0.00     0.000 C 
BRANCH  11  12
ATOM     12  C   UNL     1      -3.393  -6.825  -2.733  1.00  0.00    -0.000 C 
BRANCH  12  13
ATOM     13  C   UNL     1      -2.768  -6.214  -3.996  1.00  0.00    -0.000 C 
BRANCH  13  14
ATOM     14  C   UNL     1      -1.974  -7.269  -4.782  1.00  0.00    -0.000 C 
BRANCH  14  15
ATOM     15  C   UNL     1      -0.528  -7.430  -4.280  1.00  0.00    -0.000 C 
BRANCH  15  16
ATOM     16  C   UNL     1       0.156  -6.124  -3.839  1.00  0.00    -0.000 C 
BRANCH  16  17
ATOM     17  C   UNL     1       1.678  -6.266  -3.692  1.00  0.00    -0.003 C 
ATOM     18  C   UNL     1       2.112  -7.720  -3.851  1.00  0.00     0.004 C 
ENDBRANCH  16  17
ENDBRANCH  15  16
ENDBRANCH  14  15
ENDBRANCH  13  14
ENDBRANCH  12  13
ENDBRANCH  11  12
ENDBRANCH   1  11
TORSDOF 14
ENDMDL
MODEL 2
REMARK VINA RESULT:    -4.302      1.240      3.148
REMARK INTER + INTRA:          -9.983
REMARK INTER:                  -7.362
REMARK INTRA:                  -2.621
REMARK UNBOUND:                -2.159
REMARK SMILES CCCCCCCCCCCCCCCC(=O)[O-]
REMARK SMILES IDX 9 1 10 2 11 3 12 4 13 5 14 6 15 7 16 8 17 9 18 10 8 11 7 12
REMARK SMILES IDX 6 13 5 14 4 15 3 16 2 17 1 18
REMARK H PARENT
REMARK Flexibility Score: inf
ROOT
ATOM      1  C   UNL     1       1.915  -8.266  -3.101  1.00  0.00     0.000 C 
ENDROOT
BRANCH   1   2
ATOM      2  C   UNL     1       0.557  -8.934  -2.808  1.00  0.00     0.000 C 
BRANCH   2   3
ATOM      3  C   UNL     1       0.044  -8.765  -1.364  1.00  0.00     0.000 C 
BRANCH   3   4
ATOM      4  C   UNL     1       0.823  -7.746  -0.512  1.00  0.00     0.000 C 
BRANCH   4   5
ATOM      5  C   UNL     1       1.856  -8.408   0.413  1.00  0.00     0.000 C 
BRANCH   5   6
ATOM      6  C   UNL     1       3.040  -7.466   0.674  1.00  0.00     0.006 C 
BRANCH   6   7
ATOM      7  C   UNL     1       2.981  -6.203  -0.196  1.00  0.00     0.053 C 
BRANCH   7   8
ATOM      8  C   UNL     1       4.304  -5.910  -0.836  1.00  0.00     0.041 C 
ATOM      9  O   UNL     1       4.784  -6.699  -1.690  1.00  0.00    -0.550 OA
ATOM     10  O   UNL     1       4.989  -4.746  -0.512  1.00  0.00    -0.550 OA
ENDBRANCH   7   8
ENDBRANCH   6   7
ENDBRANCH   5   6
ENDBRANCH   4   5
ENDBRANCH   3   4
ENDBRANCH   2   3
ENDBRANCH   1   2
BRANCH   1  11
ATOM     11  C   UNL     1       1.894  -7.214  -4.228  1.00  0.00     0.000 C 
BRANCH  11  12
ATOM     12  C   UNL     1       1.980  -5.752  -3.754  1.00  0.00    -0.000 C 
BRANCH  12  13
ATOM     13  C   UNL     1       0.630  -5.023  -3.824  1.00  0.00    -0.000 C 
BRANCH  13  14
ATOM     14  C   UNL     1       0.014  -4.874  -2.424  1.00  0.00    -0.000 C 
BRANCH  14  15
ATOM     15  C   UNL     1      -1.448  -5.351  -2.358  1.00  0.00    -0.000 C 
BRANCH  15  16
ATOM     16  C   UNL     1      -2.073  -5.721  -3.715  1.00  0.00    -0.000 C 
BRANCH  16  17
ATOM     17  C   UNL     1      -2.529  -7.185  -3.784  1.00  0.00    -0.003 C 
ATOM     18  C   UNL     1      -1.929  -7.891  -4.997  1.00  0.00     0.004 C 
ENDBRANCH  16  17
ENDBRANCH  15  16
ENDBRANCH  14  15
ENDBRANCH  13  14
ENDBRANCH  12  13
ENDBRANCH  11  12
ENDBRANCH   1  11
TORSDOF 14
ENDMDL
MODEL 3
REMARK VINA RESULT:    -4.297      1.426      2.644
REMARK INTER + INTRA:          -9.973
REMARK INTER:                  -7.675
REMARK INTRA:                  -2.298
REMARK UNBOUND:                -2.159
REMARK SMILES CCCCCCCCCCCCCCCC(=O)[O-]
REMARK SMILES IDX 9 1 10 2 11 3 12 4 13 5 14 6 15 7 16 8 17 9 18 10 8 11 7 12
REMARK SMILES IDX 6 13 5 14 4 15 3 16 2 17 1 18
REMARK H PARENT
REMARK Flexibility Score: inf
ROOT
ATOM      1  C   UNL     1      -2.525  -6.278  -1.025  1.00  0.00     0.000 C 
ENDROOT
BRANCH   1   2
ATOM      2  C   UNL     1      -2.068  -7.585  -0.348  1.00  0.00     0.000 C 
BRANCH   2   3
ATOM      3  C   UNL     1      -1.535  -8.666  -1.310  1.00  0.00     0.000 C 
BRANCH   3   4
ATOM      4  C   UNL     1      -0.033  -8.972  -1.176  1.00  0.00     0.000 C 
BRANCH   4   5
ATOM      5  C   UNL     1       0.702  -8.955  -2.526  1.00  0.00     0.000 C 
BRANCH   5   6
ATOM      6  C   UNL     1       2.022  -8.178  -2.421  1.00  0.00     0.006 C 
BRANCH   6   7
ATOM      7  C   UNL     1       2.313  -7.716  -0.987  1.00  0.00     0.053 C 
BRANCH   7   8
ATOM      8  C   UNL     1       3.576  -6.914  -0.908  1.00  0.00     0.041 C 
ATOM      9  O   UNL     1       4.598  -7.277  -1.547  1.00  0.00    -0.550 OA
ATOM     10  O   UNL     1       3.613  -5.749  -0.153  1.00  0.00    -0.550 OA
ENDBRANCH   7   8
ENDBRANCH   6   7
ENDBRANCH   5   6
ENDBRANCH   4   5
ENDBRANCH   3   4
ENDBRANCH   2   3
ENDBRANCH   1   2
BRANCH   1  11
ATOM     11  C   UNL     1      -1.854  -4.997  -0.490  1.00  0.00     0.000 C 
BRANCH  11  12
ATOM     12  C   UNL     1      -1.004  -4.230  -1.519  1.00  0.00    -0.000 C 
BRANCH  12  13
ATOM     13  C   UNL     1      -0.027  -5.136  -2.281  1.00  0.00    -0.000 C 
BRANCH  13  14
ATOM     14  C   UNL     1      -0.215  -4.991  -3.799  1.00  0.00    -0.000 C 
BRANCH  14  15
ATOM     15  C   UNL     1      -1.693  -4.858  -4.212  1.00  0.00    -0.000 C 
BRANCH  15  16
ATOM     16  C   UNL     1      -2.355  -6.165  -4.682  1.00  0.00    -0.000 C 
BRANCH  16  17
ATOM     17  C   UNL     1      -1.361  -7.329  -4.805  1.00  0.00    -0.003 C 
ATOM     18  C   UNL     1      -2.089  -8.652  -5.027  1.00  0.00     0.004 C 
ENDBRANCH  16  17
ENDBRANCH  15  16
ENDBRANCH  14  15
ENDBRANCH  13  14
ENDBRANCH  12  13
ENDBRANCH  11  12
ENDBRANCH   1  11
TORSDOF 14
ENDMDL
MODEL 4
REMARK VINA RESULT:    -4.297      2.949      5.448
REMARK INTER + INTRA:          -9.973
REMARK INTER:                  -7.373
REMARK INTRA:                  -2.600
REMARK UNBOUND:                -2.159
REMARK SMILES CCCCCCCCCCCCCCCC(=O)[O-]
REMARK SMILES IDX 9 1 10 2 11 3 12 4 13 5 14 6 15 7 16 8 17 9 18 10 8 11 7 12
REMARK SMILES IDX 6 13 5 14 4 15 3 16 2 17 1 18
REMARK H PARENT
REMARK Flexibility Score: inf
ROOT
ATOM      1  C   UNL     1       0.336  -8.861  -3.138  1.00  0.00     0.000 C 
ENDROOT
BRANCH   1   2
ATOM      2  C   UNL     1       0.052  -8.836  -1.624  1.00  0.00     0.000 C 
BRANCH   2   3
ATOM      3  C   UNL     1      -1.432  -8.666  -1.240  1.00  0.00     0.000 C 
BRANCH   3   4
ATOM      4  C   UNL     1      -1.814  -7.268  -0.723  1.00  0.00     0.000 C 
BRANCH   4   5
ATOM      5  C   UNL     1      -2.272  -6.322  -1.843  1.00  0.00     0.000 C 
BRANCH   5   6
ATOM      6  C   UNL     1      -3.015  -7.094  -2.943  1.00  0.00     0.006 C 
BRANCH   6   7
ATOM      7  C   UNL     1      -2.486  -6.762  -4.344  1.00  0.00     0.053 C 
BRANCH   7   8
ATOM      8  C   UNL     1      -2.772  -5.341  -4.723  1.00  0.00     0.041 C 
ATOM      9  O   UNL     1      -1.868  -4.468  -4.640  1.00  0.00    -0.550 OA
ATOM     10  O   UNL     1      -4.029  -4.988  -5.199  1.00  0.00    -0.550 OA
ENDBRANCH   7   8
ENDBRANCH   6   7
ENDBRANCH   5   6
ENDBRANCH   4   5
ENDBRANCH   3   4
ENDBRANCH   2   3
ENDBRANCH   1   2
BRANCH   1  11
ATOM     11  C   UNL     1       1.455  -7.910  -3.608  1.00  0.00     0.000 C 
BRANCH  11  12
ATOM     12  C   UNL     1       0.984  -6.500  -4.007  1.00  0.00    -0.000 C 
BRANCH  12  13
ATOM     13  C   UNL     1       1.875  -5.389  -3.435  1.00  0.00    -0.000 C 
BRANCH  13  14
ATOM     14  C   UNL     1       1.167  -4.655  -2.286  1.00  0.00    -0.000 C 
BRANCH  14  15
ATOM     15  C   UNL     1       1.236  -5.420  -0.951  1.00  0.00    -0.000 C 
BRANCH  15  16
ATOM     16  C   UNL     1       2.653  -5.601  -0.380  1.00  0.00    -0.000 C 
BRANCH  16  17
ATOM     17  C   UNL     1       3.096  -7.070  -0.334  1.00  0.00    -0.003 C 
ATOM     18  C   UNL     1       4.218  -7.337  -1.333  1.00  0.00     0.004 C 
ENDBRANCH  16  17
ENDBRANCH  15  16
ENDBRANCH  14  15
ENDBRANCH  13  14
ENDBRANCH  12  13
ENDBRANCH  11  12
ENDBRANCH   1  11
TORSDOF 14
ENDMDL
MODEL 5
REMARK VINA RESULT:    -4.281      3.555      5.983
REMARK INTER + INTRA:          -9.944
REMARK INTER:                  -7.387
REMARK INTRA:                  -2.558
REMARK UNBOUND:                -2.159
REMARK SMILES CCCCCCCCCCCCCCCC(=O)[O-]
REMARK SMILES IDX 9 1 10 2 11 3 12 4 13 5 14 6 15 7 16 8 17 9 18 10 8 11 7 12
REMARK SMILES IDX 6 13 5 14 4 15 3 16 2 17 1 18
REMARK H PARENT
REMARK Flexibility Score: inf
ROOT
ATOM      1  C   UNL     1      -1.227  -8.084  -0.898  1.00  0.00     0.000 C 
ENDROOT
BRANCH   1   2
ATOM      2  C   UNL     1      -0.792  -6.615  -0.734  1.00  0.00     0.000 C 
BRANCH   2   3
ATOM      3  C   UNL     1      -1.559  -5.605  -1.611  1.00  0.00     0.000 C 
BRANCH   3   4
ATOM      4  C   UNL     1      -0.704  -4.878  -2.664  1.00  0.00     0.000 C 
BRANCH   4   5
ATOM      5  C   UNL     1      -0.904  -5.434  -4.083  1.00  0.00     0.000 C 
BRANCH   5   6
ATOM      6  C   UNL     1      -2.271  -6.120  -4.215  1.00  0.00     0.006 C 
BRANCH   6   7
ATOM      7  C   UNL     1      -3.297  -5.236  -4.938  1.00  0.00     0.053 C 
BRANCH   7   8
ATOM      8  C   UNL     1      -4.506  -4.984  -4.090  1.00  0.00     0.041 C 
ATOM      9  O   UNL     1      -5.276  -4.023  -4.353  1.00  0.00    -0.550 OA
ATOM     10  O   UNL     1      -4.800  -5.831  -3.029  1.00  0.00    -0.550 OA
ENDBRANCH   7   8
ENDBRANCH   6   7
ENDBRANCH   5   6
ENDBRANCH   4   5
ENDBRANCH   3   4
ENDBRANCH   2   3
ENDBRANCH   1   2
BRANCH   1  11
ATOM     11  C   UNL     1      -0.150  -9.022  -1.480  1.00  0.00     0.000 C 
BRANCH  11  12
ATOM     12  C   UNL     1       0.289  -8.692  -2.918  1.00  0.00    -0.000 C 
BRANCH  12  13
ATOM     13  C   UNL     1       1.816  -8.654  -3.081  1.00  0.00    -0.000 C 
BRANCH  13  14
ATOM     14  C   UNL     1       2.301  -7.225  -3.371  1.00  0.00    -0.000 C 
BRANCH  14  15
ATOM     15  C   UNL     1       2.629  -6.432  -2.093  1.00  0.00    -0.000 C 
BRANCH  15  16
ATOM     16  C   UNL     1       3.436  -7.206  -1.037  1.00  0.00    -0.000 C 
BRANCH  16  17
ATOM     17  C   UNL     1       2.814  -7.131   0.365  1.00  0.00    -0.003 C 
ATOM     18  C   UNL     1       2.628  -8.524   0.959  1.00  0.00     0.004 C 
ENDBRANCH  16  17
ENDBRANCH  15  16
ENDBRANCH  14  15
ENDBRANCH  13  14
ENDBRANCH  12  13
ENDBRANCH  11  12
ENDBRANCH   1  11
TORSDOF 14
ENDMDL
MODEL 6
REMARK VINA RESULT:    -4.272      1.467      3.941
REMARK INTER + INTRA:          -9.927
REMARK INTER:                  -7.289
REMARK INTRA:                  -2.639
REMARK UNBOUND:                -2.159
REMARK SMILES CCCCCCCCCCCCCCCC(=O)[O-]
REMARK SMILES IDX 9 1 10 2 11 3 12 4 13 5 14 6 15 7 16 8 17 9 18 10 8 11 7 12
REMARK SMILES IDX 6 13 5 14 4 15 3 16 2 17 1 18
REMARK H PARENT
REMARK Flexibility Score: inf
ROOT
ATOM      1  C   UNL     1       2.270  -8.128  -3.084  1.00  0.00     0.000 C 
ENDROOT
BRANCH   1   2
ATOM      2  C   UNL     1       2.252  -7.140  -4.267  1.00  0.00     0.000 C 
BRANCH   2   3
ATOM      3  C   UNL     1       1.186  -6.030  -4.174  1.00  0.00     0.000 C 
BRANCH   3   4
ATOM      4  C   UNL     1       1.493  -4.917  -3.156  1.00  0.00     0.000 C 
BRANCH   4   5
ATOM      5  C   UNL     1       0.323  -4.644  -2.199  1.00  0.00     0.000 C 
BRANCH   5   6
ATOM      6  C   UNL     1       0.754  -4.836  -0.738  1.00  0.00     0.006 C 
BRANCH   6   7
ATOM      7  C   UNL     1       2.244  -5.181  -0.612  1.00  0.00     0.053 C 
BRANCH   7   8
ATOM      8  C   UNL     1       2.902  -4.405   0.488  1.00  0.00     0.041 C 
ATOM      9  O   UNL     1       3.738  -4.964   1.245  1.00  0.00    -0.550 OA
ATOM     10  O   UNL     1       2.616  -3.056   0.654  1.00  0.00    -0.550 OA
ENDBRANCH   7   8
ENDBRANCH   6   7
ENDBRANCH   5   6
ENDBRANCH   4   5
ENDBRANCH   3   4
ENDBRANCH   2   3
ENDBRANCH   1   2
BRANCH   1  11
ATOM     11  C   UNL     1       0.903  -8.745  -2.730  1.00  0.00     0.000 C 
BRANCH  11  12
ATOM     12  C   UNL     1       0.399  -8.435  -1.308  1.00  0.00    -0.000 C 
BRANCH  12  13
ATOM     13  C   UNL     1      -1.092  -8.752  -1.121  1.00  0.00    -0.000 C 
BRANCH  13  14
ATOM     14  C   UNL     1      -1.839  -7.546  -0.532  1.00  0.00    -0.000 C 
BRANCH  14  15
ATOM     15  C   UNL     1      -2.548  -6.697  -1.602  1.00  0.00    -0.000 C 
BRANCH  15  16
ATOM     16  C   UNL     1      -2.997  -7.472  -2.853  1.00  0.00    -0.000 C 
BRANCH  16  17
ATOM     17  C   UNL     1      -2.284  -7.009  -4.131  1.00  0.00    -0.003 C 
ATOM     18  C   UNL     1      -1.912  -8.197  -5.013  1.00  0.00     0.004 C 
ENDBRANCH  16  17
ENDBRANCH  15  16
ENDBRANCH  14  15
ENDBRANCH  13  14
ENDBRANCH  12  13
ENDBRANCH  11  12
ENDBRANCH   1  11
TORSDOF 14
ENDMDL
MODEL 7
REMARK VINA RESULT:    -4.254      1.297      3.097
REMARK INTER + INTRA:          -9.896
REMARK INTER:                  -7.708
REMARK INTRA:                  -2.188
REMARK UNBOUND:                -2.159
REMARK SMILES CCCCCCCCCCCCCCCC(=O)[O-]
REMARK SMILES IDX 9 1 10 2 11 3 12 4 13 5 14 6 15 7 16 8 17 9 18 10 8 11 7 12
REMARK SMILES IDX 6 13 5 14 4 15 3 16 2 17 1 18
REMARK H PARENT
REMARK Flexibility Score: inf
ROOT
ATOM      1  C   UNL     1       0.690  -8.356  -3.495  1.00  0.00     0.000 C 
ENDROOT
BRANCH   1   2
ATOM      2  C   UNL     1       1.772  -8.377  -2.397  1.00  0.00     0.000 C 
BRANCH   2   3
ATOM      3  C   UNL     1       1.239  -8.534  -0.958  1.00  0.00     0.000 C 
BRANCH   3   4
ATOM      4  C   UNL     1       1.925  -7.640   0.090  1.00  0.00     0.000 C 
BRANCH   4   5
ATOM      5  C   UNL     1       3.353  -7.239  -0.310  1.00  0.00     0.000 C 
BRANCH   5   6
ATOM      6  C   UNL     1       3.419  -5.752  -0.685  1.00  0.00     0.006 C 
BRANCH   6   7
ATOM      7  C   UNL     1       2.774  -4.855   0.379  1.00  0.00     0.053 C 
BRANCH   7   8
ATOM      8  C   UNL     1       3.780  -3.959   1.035  1.00  0.00     0.041 C 
ATOM      9  O   UNL     1       3.407  -3.070   1.844  1.00  0.00    -0.550 OA
ATOM     10  O   UNL     1       5.134  -4.131   0.777  1.00  0.00    -0.550 OA
ENDBRANCH   7   8
ENDBRANCH   6   7
ENDBRANCH   5   6
ENDBRANCH   4   5
ENDBRANCH   3   4
ENDBRANCH   2   3
ENDBRANCH   1   2
BRANCH   1  11
ATOM     11  C   UNL     1       0.188  -6.952  -3.887  1.00  0.00     0.000 C 
BRANCH  11  12
ATOM     12  C   UNL     1      -1.250  -6.907  -4.437  1.00  0.00    -0.000 C 
BRANCH  12  13
ATOM     13  C   UNL     1      -2.107  -8.089  -3.963  1.00  0.00    -0.000 C 
BRANCH  13  14
ATOM     14  C   UNL     1      -2.933  -7.707  -2.726  1.00  0.00    -0.000 C 
BRANCH  14  15
ATOM     15  C   UNL     1      -2.373  -8.304  -1.422  1.00  0.00    -0.000 C 
BRANCH  15  16
ATOM     16  C   UNL     1      -1.948  -7.270  -0.365  1.00  0.00    -0.000 C 
BRANCH  16  17
ATOM     17  C   UNL     1      -2.079  -5.821  -0.858  1.00  0.00    -0.003 C 
ATOM     18  C   UNL     1      -0.713  -5.148  -0.952  1.00  0.00     0.004 C 
ENDBRANCH  16  17
ENDBRANCH  15  16
ENDBRANCH  14  15
ENDBRANCH  13  14
ENDBRANCH  12  13
ENDBRANCH  11  12
ENDBRANCH   1  11
TORSDOF 14
ENDMDL
MODEL 8
REMARK VINA RESULT:    -4.237      1.264      2.661
REMARK INTER + INTRA:          -9.863
REMARK INTER:                  -7.442
REMARK INTRA:                  -2.421
REMARK UNBOUND:                -2.159
REMARK SMILES CCCCCCCCCCCCCCCC(=O)[O-]
REMARK SMILES IDX 9 1 10 2 11 3 12 4 13 5 14 6 15 7 16 8 17 9 18 10 8 11 7 12
REMARK SMILES IDX 6 13 5 14 4 15 3 16 2 17 1 18
REMARK H PARENT
REMARK Flexibility Score: inf
ROOT
ATOM      1  C   UNL     1      -0.092  -8.399  -1.027  1.00  0.00     0.000 C 
ENDROOT
BRANCH   1   2
ATOM      2  C   UNL     1       0.545  -9.119  -2.232  1.00  0.00     0.000 C 
BRANCH   2   3
ATOM      3  C   UNL     1       1.363  -8.215  -3.175  1.00  0.00     0.000 C 
BRANCH   3   4
ATOM      4  C   UNL     1       2.118  -7.066  -2.482  1.00  0.00     0.000 C 
BRANCH   4   5
ATOM      5  C   UNL     1       3.355  -7.547  -1.708  1.00  0.00     0.000 C 
BRANCH   5   6
ATOM      6  C   UNL     1       3.362  -6.984  -0.280  1.00  0.00     0.006 C 
BRANCH   6   7
ATOM      7  C   UNL     1       2.426  -5.777  -0.127  1.00  0.00     0.053 C 
BRANCH   7   8
ATOM      8  C   UNL     1       3.121  -4.615   0.516  1.00  0.00     0.041 C 
ATOM      9  O   UNL     1       2.456  -3.633   0.938  1.00  0.00    -0.550 OA
ATOM     10  O   UNL     1       4.500  -4.634   0.678  1.00  0.00    -0.550 OA
ENDBRANCH   7   8
ENDBRANCH   6   7
ENDBRANCH   5   6
ENDBRANCH   4   5
ENDBRANCH   3   4
ENDBRANCH   2   3
ENDBRANCH   1   2
BRANCH   1  11
ATOM     11  C   UNL     1      -1.633  -8.403  -1.006  1.00  0.00     0.000 C 
BRANCH  11  12
ATOM     12  C   UNL     1      -2.287  -7.012  -1.084  1.00  0.00    -0.000 C 
BRANCH  12  13
ATOM     13  C   UNL     1      -1.261  -5.874  -1.182  1.00  0.00    -0.000 C 
BRANCH  13  14
ATOM     14  C   UNL     1      -1.146  -5.361  -2.625  1.00  0.00    -0.000 C 
BRANCH  14  15
ATOM     15  C   UNL     1      -2.512  -5.210  -3.319  1.00  0.00    -0.000 C 
BRANCH  15  16
ATOM     16  C   UNL     1      -2.698  -6.070  -4.582  1.00  0.00    -0.000 C 
BRANCH  16  17
ATOM     17  C   UNL     1      -1.558  -7.077  -4.792  1.00  0.00    -0.003 C 
ATOM     18  C   UNL     1      -2.082  -8.510  -4.771  1.00  0.00     0.004 C 
ENDBRANCH  16  17
ENDBRANCH  15  16
ENDBRANCH  14  15
ENDBRANCH  13  14
ENDBRANCH  12  13
ENDBRANCH  11  12
ENDBRANCH   1  11
TORSDOF 14
ENDMDL
MODEL 9
REMARK VINA RESULT:    -4.194      1.510      3.823
REMARK INTER + INTRA:          -9.786
REMARK INTER:                  -7.084
REMARK INTRA:                  -2.702
REMARK UNBOUND:                -2.159
REMARK SMILES CCCCCCCCCCCCCCCC(=O)[O-]
REMARK SMILES IDX 9 1 10 2 11 3 12 4 13 5 14 6 15 7 16 8 17 9 18 10 8 11 7 12
REMARK SMILES IDX 6 13 5 14 4 15 3 16 2 17 1 18
REMARK H PARENT
REMARK Flexibility Score: inf
ROOT
ATOM      1  C   UNL     1       0.536  -5.943  -3.796  1.00  0.00     0.000 C 
ENDROOT
BRANCH   1   2
ATOM      2  C   UNL     1       0.822  -4.827  -2.773  1.00  0.00     0.000 C 
BRANCH   2   3
ATOM      3  C   UNL     1       0.843  -5.281  -1.299  1.00  0.00     0.000 C 
BRANCH   3   4
ATOM      4  C   UNL     1       2.240  -5.336  -0.655  1.00  0.00     0.000 C 
BRANCH   4   5
ATOM      5  C   UNL     1       2.622  -6.745  -0.176  1.00  0.00     0.000 C 
BRANCH   5   6
ATOM      6  C   UNL     1       3.928  -7.212  -0.835  1.00  0.00     0.006 C 
BRANCH   6   7
ATOM      7  C   UNL     1       4.438  -6.216  -1.885  1.00  0.00     0.053 C 
BRANCH   7   8
ATOM      8  C   UNL     1       5.859  -5.817  -1.627  1.00  0.00     0.041 C 
ATOM      9  O   UNL     1       6.782  -6.240  -2.371  1.00  0.00    -0.550 OA
ATOM     10  O   UNL     1       6.158  -4.950  -0.584  1.00  0.00    -0.550 OA
ENDBRANCH   7   8
ENDBRANCH   6   7
ENDBRANCH   5   6
ENDBRANCH   4   5
ENDBRANCH   3   4
ENDBRANCH   2   3
ENDBRANCH   1   2
BRANCH   1  11
ATOM     11  C   UNL     1       1.725  -6.879  -4.090  1.00  0.00     0.000 C 
BRANCH  11  12
ATOM     12  C   UNL     1       1.635  -8.270  -3.437  1.00  0.00    -0.000 C 
BRANCH  12  13
ATOM     13  C   UNL     1       0.190  -8.696  -3.138  1.00  0.00    -0.000 C 
BRANCH  13  14
ATOM     14  C   UNL     1      -0.014  -8.929  -1.634  1.00  0.00    -0.000 C 
BRANCH  14  15
ATOM     15  C   UNL     1      -1.368  -8.405  -1.122  1.00  0.00    -0.000 C 
BRANCH  15  16
ATOM     16  C   UNL     1      -2.371  -8.016  -2.222  1.00  0.00    -0.000 C 
BRANCH  16  17
ATOM     17  C   UNL     1      -2.758  -6.530  -2.180  1.00  0.00    -0.003 C 
ATOM     18  C   UNL     1      -2.769  -6.006  -0.748  1.00  0.00     0.004 C 
ENDBRANCH  16  17
ENDBRANCH  15  16
ENDBRANCH  14  15
ENDBRANCH  13  14
ENDBRANCH  12  13
ENDBRANCH  11  12
ENDBRANCH   1  11
TORSDOF 14
ENDMDL
