MODEL 1
REMARK VINA RESULT:    -6.732      0.000      0.000
REMARK INTER + INTRA:         -11.491
REMARK INTER:                  -9.881
REMARK INTRA:                  -1.610
REMARK UNBOUND:                -1.610
REMARK SMILES O=c1c(O[C@@H]2O[C@H](CO)[C@H](O)[C@@H](O)[C@@H]2O)c(-c2ccc(O)c(O)c2)oc2cc(O)cc(O)c12
REMARK SMILES IDX 4 1 3 2 16 3 25 4 2 5 26 6 1 7 33 8 27 9 31 10 28 11 30 12
REMARK SMILES IDX 17 13 18 14 19 15 20 16 24 17 22 18 21 19 23 21 32 23 29 25
REMARK SMILES IDX 5 27 14 28 6 29 12 30 7 31 10 32 15 33 13 35 8 37 9 38 11 40
REMARK H PARENT 21 20 23 22 32 24 29 26 15 34 13 36 9 39 11 41
REMARK Flexibility Score: inf
ROOT
ATOM      1  O   UNL     1      -7.293  -9.971  16.536  1.00  0.00    -0.454 OA
ENDROOT
BRANCH   1   2
ATOM      2  C   UNL     1      -8.343 -10.892  16.686  1.00  0.00     0.214 A 
ATOM      3  C   UNL     1      -9.046 -11.058  17.900  1.00  0.00     0.180 A 
ATOM      4  O   UNL     1     -10.088 -11.883  17.960  1.00  0.00    -0.452 OA
ATOM      5  C   UNL     1      -8.705 -11.683  15.590  1.00  0.00     0.239 A 
ATOM      6  C   UNL     1     -10.491 -12.618  16.929  1.00  0.00     0.146 A 
ATOM      7  O   UNL     1      -8.046 -11.583  14.518  1.00  0.00    -0.285 OA
ATOM      8  C   UNL     1      -9.803 -12.564  15.693  1.00  0.00     0.111 A 
ATOM      9  C   UNL     1     -11.594 -13.466  17.086  1.00  0.00     0.094 A 
ATOM     10  C   UNL     1     -10.236 -13.390  14.628  1.00  0.00     0.134 A 
ATOM     11  C   UNL     1     -12.025 -14.266  16.027  1.00  0.00     0.123 A 
ATOM     12  C   UNL     1     -11.346 -14.229  14.805  1.00  0.00     0.093 A 
BRANCH   3  13
ATOM     13  C   UNL     1      -8.631 -10.375  19.134  1.00  0.00     0.025 A 
ATOM     14  C   UNL     1      -9.349  -9.262  19.599  1.00  0.00     0.016 A 
ATOM     15  C   UNL     1      -8.987  -8.641  20.796  1.00  0.00     0.051 A 
ATOM     16  C   UNL     1      -7.906  -9.129  21.543  1.00  0.00     0.157 A 
ATOM     17  C   UNL     1      -7.535 -10.849  19.869  1.00  0.00     0.062 A 
ATOM     18  C   UNL     1      -7.180 -10.243  21.079  1.00  0.00     0.158 A 
BRANCH  16  19
ATOM     19  O   UNL     1      -7.547  -8.505  22.736  1.00  0.00    -0.504 OA
ATOM     20  H   UNL     1      -7.524  -7.493  22.826  1.00  0.00     0.293 HD
ENDBRANCH  16  19
BRANCH  18  21
ATOM     21  O   UNL     1      -6.118 -10.772  21.817  1.00  0.00    -0.504 OA
ATOM     22  H   UNL     1      -5.924 -11.765  21.844  1.00  0.00     0.293 HD
ENDBRANCH  18  21
ENDBRANCH   3  13
BRANCH  10  23
ATOM     23  O   UNL     1      -9.571 -13.382  13.401  1.00  0.00    -0.507 OA
ATOM     24  H   UNL     1     -10.027 -13.678  12.545  1.00  0.00     0.293 HD
ENDBRANCH  10  23
BRANCH  11  25
ATOM     25  O   UNL     1     -13.125 -15.102  16.202  1.00  0.00    -0.508 OA
ATOM     26  H   UNL     1     -13.016 -16.063  16.500  1.00  0.00     0.293 HD
ENDBRANCH  11  25
ENDBRANCH   1   2
BRANCH   1  27
ATOM     27  C   UNL     1      -7.468  -8.643  16.034  1.00  0.00     0.339 C 
ATOM     28  C   UNL     1      -7.037  -7.603  17.100  1.00  0.00     0.214 C 
ATOM     29  O   UNL     1      -6.706  -8.481  14.852  1.00  0.00    -0.332 OA
ATOM     30  C   UNL     1      -6.363  -6.373  16.452  1.00  0.00     0.180 C 
ATOM     31  C   UNL     1      -7.095  -7.299  14.166  1.00  0.00     0.179 C 
ATOM     32  C   UNL     1      -7.050  -6.040  15.109  1.00  0.00     0.177 C 
BRANCH  28  33
ATOM     33  O   UNL     1      -6.195  -8.169  18.072  1.00  0.00    -0.384 OA
ATOM     34  H   UNL     1      -5.263  -8.139  17.738  1.00  0.00     0.211 HD
ENDBRANCH  28  33
BRANCH  30  35
ATOM     35  O   UNL     1      -6.450  -5.281  17.333  1.00  0.00    -0.387 OA
ATOM     36  H   UNL     1      -5.526  -4.941  17.465  1.00  0.00     0.211 HD
ENDBRANCH  30  35
BRANCH  31  37
ATOM     37  C   UNL     1      -6.219  -7.181  12.912  1.00  0.00     0.191 C 
BRANCH  37  38
ATOM     38  O   UNL     1      -4.875  -7.009  13.267  1.00  0.00    -0.394 OA
ATOM     39  H   UNL     1      -4.367  -6.949  12.418  1.00  0.00     0.210 HD
ENDBRANCH  37  38
ENDBRANCH  31  37
BRANCH  32  40
ATOM     40  O   UNL     1      -6.467  -4.910  14.504  1.00  0.00    -0.387 OA
ATOM     41  H   UNL     1      -6.622  -4.974  13.525  1.00  0.00     0.211 HD
ENDBRANCH  32  40
ENDBRANCH   1  27
TORSDOF 12
ENDMDL
MODEL 2
REMARK VINA RESULT:    -6.557     11.500     15.910
REMARK INTER + INTRA:         -11.233
REMARK INTER:                 -10.283
REMARK INTRA:                  -0.950
REMARK UNBOUND:                -1.610
REMARK SMILES O=c1c(O[C@@H]2O[C@H](CO)[C@H](O)[C@@H](O)[C@@H]2O)c(-c2ccc(O)c(O)c2)oc2cc(O)cc(O)c12
REMARK SMILES IDX 4 1 3 2 16 3 25 4 2 5 26 6 1 7 33 8 27 9 31 10 28 11 30 12
REMARK SMILES IDX 17 13 18 14 19 15 20 16 24 17 22 18 21 19 23 21 32 23 29 25
REMARK SMILES IDX 5 27 14 28 6 29 12 30 7 31 10 32 15 33 13 35 8 37 9 38 11 40
REMARK H PARENT 21 20 23 22 32 24 29 26 15 34 13 36 9 39 11 41
REMARK Flexibility Score: inf
ROOT
ATOM      1  O   UNL     1     -19.995 -21.157  17.754  1.00  0.00    -0.454 OA
ENDROOT
BRANCH   1   2
ATOM      2  C   UNL     1     -19.561 -21.213  16.419  1.00  0.00     0.214 A 
ATOM      3  C   UNL     1     -18.543 -20.376  15.911  1.00  0.00     0.180 A 
ATOM      4  O   UNL     1     -18.113 -20.532  14.662  1.00  0.00    -0.452 OA
ATOM      5  C   UNL     1     -20.164 -22.133  15.554  1.00  0.00     0.239 A 
ATOM      6  C   UNL     1     -18.629 -21.423  13.823  1.00  0.00     0.146 A 
ATOM      7  O   UNL     1     -21.113 -22.845  15.983  1.00  0.00    -0.285 OA
ATOM      8  C   UNL     1     -19.698 -22.259  14.228  1.00  0.00     0.111 A 
ATOM      9  C   UNL     1     -18.118 -21.512  12.522  1.00  0.00     0.094 A 
ATOM     10  C   UNL     1     -20.250 -23.171  13.296  1.00  0.00     0.134 A 
ATOM     11  C   UNL     1     -18.657 -22.424  11.613  1.00  0.00     0.123 A 
ATOM     12  C   UNL     1     -19.720 -23.247  12.000  1.00  0.00     0.093 A 
BRANCH   3  13
ATOM     13  C   UNL     1     -17.965 -19.287  16.712  1.00  0.00     0.025 A 
ATOM     14  C   UNL     1     -17.511 -19.536  18.016  1.00  0.00     0.016 A 
ATOM     15  C   UNL     1     -16.917 -18.516  18.762  1.00  0.00     0.051 A 
ATOM     16  C   UNL     1     -16.768 -17.237  18.210  1.00  0.00     0.157 A 
ATOM     17  C   UNL     1     -17.837 -18.001  16.168  1.00  0.00     0.062 A 
ATOM     18  C   UNL     1     -17.225 -16.980  16.903  1.00  0.00     0.158 A 
BRANCH  16  19
ATOM     19  O   UNL     1     -16.176 -16.220  18.958  1.00  0.00    -0.504 OA
ATOM     20  H   UNL     1     -15.322 -16.373  19.489  1.00  0.00     0.293 HD
ENDBRANCH  16  19
BRANCH  18  21
ATOM     21  O   UNL     1     -17.062 -15.724  16.314  1.00  0.00    -0.504 OA
ATOM     22  H   UNL     1     -17.726 -15.352  15.646  1.00  0.00     0.293 HD
ENDBRANCH  18  21
ENDBRANCH   3  13
BRANCH  10  23
ATOM     23  O   UNL     1     -21.318 -23.996  13.649  1.00  0.00    -0.507 OA
ATOM     24  H   UNL     1     -21.173 -24.910  14.062  1.00  0.00     0.293 HD
ENDBRANCH  10  23
BRANCH  11  25
ATOM     25  O   UNL     1     -18.134 -22.498  10.325  1.00  0.00    -0.508 OA
ATOM     26  H   UNL     1     -17.515 -21.783   9.964  1.00  0.00     0.293 HD
ENDBRANCH  11  25
ENDBRANCH   1   2
BRANCH   1  27
ATOM     27  C   UNL     1     -21.145 -20.423  18.184  1.00  0.00     0.339 C 
ATOM     28  C   UNL     1     -21.040 -20.095  19.695  1.00  0.00     0.214 C 
ATOM     29  O   UNL     1     -21.255 -19.231  17.428  1.00  0.00    -0.332 OA
ATOM     30  C   UNL     1     -21.634 -18.705  20.016  1.00  0.00     0.180 C 
ATOM     31  C   UNL     1     -22.536 -18.643  17.607  1.00  0.00     0.179 C 
ATOM     32  C   UNL     1     -22.873 -18.443  19.131  1.00  0.00     0.177 C 
BRANCH  28  33
ATOM     33  O   UNL     1     -19.716 -20.182  20.159  1.00  0.00    -0.384 OA
ATOM     34  H   UNL     1     -19.733 -20.249  21.147  1.00  0.00     0.211 HD
ENDBRANCH  28  33
BRANCH  30  35
ATOM     35  O   UNL     1     -21.982 -18.654  21.378  1.00  0.00    -0.387 OA
ATOM     36  H   UNL     1     -22.393 -17.764  21.538  1.00  0.00     0.211 HD
ENDBRANCH  30  35
BRANCH  31  37
ATOM     37  C   UNL     1     -22.574 -17.354  16.776  1.00  0.00     0.191 C 
BRANCH  37  38
ATOM     38  O   UNL     1     -23.897 -16.994  16.491  1.00  0.00    -0.394 OA
ATOM     39  H   UNL     1     -23.974 -16.971  15.503  1.00  0.00     0.210 HD
ENDBRANCH  37  38
ENDBRANCH  31  37
BRANCH  32  40
ATOM     40  O   UNL     1     -23.447 -17.189  19.415  1.00  0.00    -0.387 OA
ATOM     41  H   UNL     1     -24.062 -16.959  18.670  1.00  0.00     0.211 HD
ENDBRANCH  32  40
ENDBRANCH   1  27
TORSDOF 12
ENDMDL
MODEL 3
REMARK VINA RESULT:    -6.535     11.603     16.058
REMARK INTER + INTRA:         -11.202
REMARK INTER:                  -9.974
REMARK INTRA:                  -1.228
REMARK UNBOUND:                -1.610
REMARK SMILES O=c1c(O[C@@H]2O[C@H](CO)[C@H](O)[C@@H](O)[C@@H]2O)c(-c2ccc(O)c(O)c2)oc2cc(O)cc(O)c12
REMARK SMILES IDX 4 1 3 2 16 3 25 4 2 5 26 6 1 7 33 8 27 9 31 10 28 11 30 12
REMARK SMILES IDX 17 13 18 14 19 15 20 16 24 17 22 18 21 19 23 21 32 23 29 25
REMARK SMILES IDX 5 27 14 28 6 29 12 30 7 31 10 32 15 33 13 35 8 37 9 38 11 40
REMARK H PARENT 21 20 23 22 32 24 29 26 15 34 13 36 9 39 11 41
REMARK Flexibility Score: inf
ROOT
ATOM      1  O   UNL     1     -19.312 -20.920  16.815  1.00  0.00    -0.454 OA
ENDROOT
BRANCH   1   2
ATOM      2  C   UNL     1     -20.312 -21.388  15.947  1.00  0.00     0.214 A 
ATOM      3  C   UNL     1     -21.634 -20.891  15.965  1.00  0.00     0.180 A 
ATOM      4  O   UNL     1     -22.518 -21.310  15.062  1.00  0.00    -0.452 OA
ATOM      5  C   UNL     1     -19.989 -22.393  15.028  1.00  0.00     0.239 A 
ATOM      6  C   UNL     1     -22.237 -22.229  14.146  1.00  0.00     0.146 A 
ATOM      7  O   UNL     1     -18.827 -22.885  15.042  1.00  0.00    -0.285 OA
ATOM      8  C   UNL     1     -20.955 -22.831  14.097  1.00  0.00     0.111 A 
ATOM      9  C   UNL     1     -23.232 -22.616  13.241  1.00  0.00     0.094 A 
ATOM     10  C   UNL     1     -20.704 -23.836  13.133  1.00  0.00     0.134 A 
ATOM     11  C   UNL     1     -22.972 -23.597  12.282  1.00  0.00     0.123 A 
ATOM     12  C   UNL     1     -21.713 -24.205  12.232  1.00  0.00     0.093 A 
BRANCH   3  13
ATOM     13  C   UNL     1     -22.091 -19.945  16.994  1.00  0.00     0.025 A 
ATOM     14  C   UNL     1     -22.221 -20.363  18.328  1.00  0.00     0.016 A 
ATOM     15  C   UNL     1     -22.607 -19.455  19.315  1.00  0.00     0.051 A 
ATOM     16  C   UNL     1     -22.863 -18.119  18.981  1.00  0.00     0.157 A 
ATOM     17  C   UNL     1     -22.370 -18.613  16.655  1.00  0.00     0.062 A 
ATOM     18  C   UNL     1     -22.738 -17.695  17.644  1.00  0.00     0.158 A 
BRANCH  16  19
ATOM     19  O   UNL     1     -23.250 -17.216  19.970  1.00  0.00    -0.504 OA
ATOM     20  H   UNL     1     -24.221 -16.944  20.097  1.00  0.00     0.293 HD
ENDBRANCH  16  19
BRANCH  18  21
ATOM     21  O   UNL     1     -22.955 -16.362  17.285  1.00  0.00    -0.504 OA
ATOM     22  H   UNL     1     -23.746 -16.080  16.720  1.00  0.00     0.293 HD
ENDBRANCH  18  21
ENDBRANCH   3  13
BRANCH  10  23
ATOM     23  O   UNL     1     -19.462 -24.468  13.066  1.00  0.00    -0.507 OA
ATOM     24  H   UNL     1     -18.594 -23.950  13.149  1.00  0.00     0.293 HD
ENDBRANCH  10  23
BRANCH  11  25
ATOM     25  O   UNL     1     -23.974 -23.966  11.389  1.00  0.00    -0.508 OA
ATOM     26  H   UNL     1     -24.242 -24.935  11.266  1.00  0.00     0.293 HD
ENDBRANCH  11  25
ENDBRANCH   1   2
BRANCH   1  27
ATOM     27  C   UNL     1     -18.521 -19.756  16.560  1.00  0.00     0.339 C 
ATOM     28  C   UNL     1     -18.270 -18.977  17.876  1.00  0.00     0.214 C 
ATOM     29  O   UNL     1     -17.292 -20.139  15.972  1.00  0.00    -0.332 OA
ATOM     30  C   UNL     1     -16.859 -18.349  17.903  1.00  0.00     0.180 C 
ATOM     31  C   UNL     1     -16.626 -19.008  15.427  1.00  0.00     0.179 C 
ATOM     32  C   UNL     1     -16.472 -17.858  16.489  1.00  0.00     0.177 C 
BRANCH  28  33
ATOM     33  O   UNL     1     -18.469 -19.785  19.008  1.00  0.00    -0.384 OA
ATOM     34  H   UNL     1     -19.003 -19.276  19.669  1.00  0.00     0.211 HD
ENDBRANCH  28  33
BRANCH  30  35
ATOM     35  O   UNL     1     -16.846 -17.278  18.815  1.00  0.00    -0.387 OA
ATOM     36  H   UNL     1     -16.816 -16.442  18.279  1.00  0.00     0.211 HD
ENDBRANCH  30  35
BRANCH  31  37
ATOM     37  C   UNL     1     -15.301 -19.496  14.826  1.00  0.00     0.191 C 
BRANCH  37  38
ATOM     38  O   UNL     1     -15.366 -19.491  13.427  1.00  0.00    -0.394 OA
ATOM     39  H   UNL     1     -14.726 -20.180  13.115  1.00  0.00     0.210 HD
ENDBRANCH  37  38
ENDBRANCH  31  37
BRANCH  32  40
ATOM     40  O   UNL     1     -15.196 -17.263  16.486  1.00  0.00    -0.387 OA
ATOM     41  H   UNL     1     -14.671 -17.665  17.227  1.00  0.00     0.211 HD
ENDBRANCH  32  40
ENDBRANCH   1  27
TORSDOF 12
ENDMDL
MODEL 4
REMARK VINA RESULT:    -6.369     11.379     17.168
REMARK INTER + INTRA:         -10.957
REMARK INTER:                  -9.539
REMARK INTRA:                  -1.418
REMARK UNBOUND:                -1.610
REMARK SMILES O=c1c(O[C@@H]2O[C@H](CO)[C@H](O)[C@@H](O)[C@@H]2O)c(-c2ccc(O)c(O)c2)oc2cc(O)cc(O)c12
REMARK SMILES IDX 4 1 3 2 16 3 25 4 2 5 26 6 1 7 33 8 27 9 31 10 28 11 30 12
REMARK SMILES IDX 17 13 18 14 19 15 20 16 24 17 22 18 21 19 23 21 32 23 29 25
REMARK SMILES IDX 5 27 14 28 6 29 12 30 7 31 10 32 15 33 13 35 8 37 9 38 11 40
REMARK H PARENT 21 20 23 22 32 24 29 26 15 34 13 36 9 39 11 41
REMARK Flexibility Score: inf
ROOT
ATOM      1  O   UNL     1     -20.618 -21.813  17.508  1.00  0.00    -0.454 OA
ENDROOT
BRANCH   1   2
ATOM      2  C   UNL     1     -19.589 -20.900  17.223  1.00  0.00     0.214 A 
ATOM      3  C   UNL     1     -19.709 -19.514  17.463  1.00  0.00     0.180 A 
ATOM      4  O   UNL     1     -18.672 -18.707  17.255  1.00  0.00    -0.452 OA
ATOM      5  C   UNL     1     -18.396 -21.381  16.672  1.00  0.00     0.239 A 
ATOM      6  C   UNL     1     -17.509 -19.132  16.776  1.00  0.00     0.146 A 
ATOM      7  O   UNL     1     -18.299 -22.610  16.400  1.00  0.00    -0.285 OA
ATOM      8  C   UNL     1     -17.321 -20.496  16.443  1.00  0.00     0.111 A 
ATOM      9  C   UNL     1     -16.474 -18.210  16.580  1.00  0.00     0.094 A 
ATOM     10  C   UNL     1     -16.081 -20.907  15.898  1.00  0.00     0.134 A 
ATOM     11  C   UNL     1     -15.248 -18.625  16.056  1.00  0.00     0.123 A 
ATOM     12  C   UNL     1     -15.056 -19.968  15.715  1.00  0.00     0.093 A 
BRANCH   3  13
ATOM     13  C   UNL     1     -20.979 -18.912  17.899  1.00  0.00     0.025 A 
ATOM     14  C   UNL     1     -21.346 -18.945  19.253  1.00  0.00     0.016 A 
ATOM     15  C   UNL     1     -22.527 -18.332  19.678  1.00  0.00     0.051 A 
ATOM     16  C   UNL     1     -23.350 -17.675  18.753  1.00  0.00     0.157 A 
ATOM     17  C   UNL     1     -21.814 -18.275  16.970  1.00  0.00     0.062 A 
ATOM     18  C   UNL     1     -22.988 -17.643  17.393  1.00  0.00     0.158 A 
BRANCH  16  19
ATOM     19  O   UNL     1     -24.529 -17.066  19.180  1.00  0.00    -0.504 OA
ATOM     20  H   UNL     1     -24.524 -16.179  19.677  1.00  0.00     0.293 HD
ENDBRANCH  16  19
BRANCH  18  21
ATOM     21  O   UNL     1     -23.772 -16.969  16.452  1.00  0.00    -0.504 OA
ATOM     22  H   UNL     1     -23.888 -15.963  16.471  1.00  0.00     0.293 HD
ENDBRANCH  18  21
ENDBRANCH   3  13
BRANCH  10  23
ATOM     23  O   UNL     1     -15.864 -22.237  15.537  1.00  0.00    -0.507 OA
ATOM     24  H   UNL     1     -15.213 -22.828  16.041  1.00  0.00     0.293 HD
ENDBRANCH  10  23
BRANCH  11  25
ATOM     25  O   UNL     1     -14.231 -17.693  15.870  1.00  0.00    -0.508 OA
ATOM     26  H   UNL     1     -14.365 -16.714  16.090  1.00  0.00     0.293 HD
ENDBRANCH  11  25
ENDBRANCH   1   2
BRANCH   1  27
ATOM     27  C   UNL     1     -21.423 -22.439  16.505  1.00  0.00     0.339 C 
ATOM     28  C   UNL     1     -22.901 -22.511  16.969  1.00  0.00     0.214 C 
ATOM     29  O   UNL     1     -21.322 -21.710  15.295  1.00  0.00    -0.332 OA
ATOM     30  C   UNL     1     -23.877 -22.305  15.789  1.00  0.00     0.180 C 
ATOM     31  C   UNL     1     -21.849 -22.465  14.213  1.00  0.00     0.179 C 
ATOM     32  C   UNL     1     -23.310 -22.968  14.513  1.00  0.00     0.177 C 
BRANCH  28  33
ATOM     33  O   UNL     1     -23.172 -21.591  17.996  1.00  0.00    -0.384 OA
ATOM     34  H   UNL     1     -24.079 -21.220  17.854  1.00  0.00     0.211 HD
ENDBRANCH  28  33
BRANCH  30  35
ATOM     35  O   UNL     1     -25.125 -22.862  16.119  1.00  0.00    -0.387 OA
ATOM     36  H   UNL     1     -25.570 -22.226  16.739  1.00  0.00     0.211 HD
ENDBRANCH  30  35
BRANCH  31  37
ATOM     37  C   UNL     1     -21.722 -21.609  12.946  1.00  0.00     0.191 C 
BRANCH  37  38
ATOM     38  O   UNL     1     -22.156 -20.301  13.193  1.00  0.00    -0.394 OA
ATOM     39  H   UNL     1     -22.155 -20.188  14.178  1.00  0.00     0.210 HD
ENDBRANCH  37  38
ENDBRANCH  31  37
BRANCH  32  40
ATOM     40  O   UNL     1     -24.188 -22.811  13.424  1.00  0.00    -0.387 OA
ATOM     41  H   UNL     1     -23.875 -22.035  12.888  1.00  0.00     0.211 HD
ENDBRANCH  32  40
ENDBRANCH   1  27
TORSDOF 12
ENDMDL
MODEL 5
REMARK VINA RESULT:    -6.335      1.713      5.006
REMARK INTER + INTRA:         -10.908
REMARK INTER:                  -9.652
REMARK INTRA:                  -1.256
REMARK UNBOUND:                -1.610
REMARK SMILES O=c1c(O[C@@H]2O[C@H](CO)[C@H](O)[C@@H](O)[C@@H]2O)c(-c2ccc(O)c(O)c2)oc2cc(O)cc(O)c12
REMARK SMILES IDX 4 1 3 2 16 3 25 4 2 5 26 6 1 7 33 8 27 9 31 10 28 11 30 12
REMARK SMILES IDX 17 13 18 14 19 15 20 16 24 17 22 18 21 19 23 21 32 23 29 25
REMARK SMILES IDX 5 27 14 28 6 29 12 30 7 31 10 32 15 33 13 35 8 37 9 38 11 40
REMARK H PARENT 21 20 23 22 32 24 29 26 15 34 13 36 9 39 11 41
REMARK Flexibility Score: inf
ROOT
ATOM      1  O   UNL     1      -6.451 -10.707  17.782  1.00  0.00    -0.454 OA
ENDROOT
BRANCH   1   2
ATOM      2  C   UNL     1      -7.637 -11.130  17.158  1.00  0.00     0.214 A 
ATOM      3  C   UNL     1      -8.310 -10.355  16.189  1.00  0.00     0.180 A 
ATOM      4  O   UNL     1      -9.381 -10.843  15.569  1.00  0.00    -0.452 OA
ATOM      5  C   UNL     1      -8.178 -12.370  17.516  1.00  0.00     0.239 A 
ATOM      6  C   UNL     1      -9.899 -12.034  15.848  1.00  0.00     0.146 A 
ATOM      7  O   UNL     1      -7.616 -13.046  18.422  1.00  0.00    -0.285 OA
ATOM      8  C   UNL     1      -9.328 -12.851  16.854  1.00  0.00     0.111 A 
ATOM      9  C   UNL     1     -11.035 -12.464  15.151  1.00  0.00     0.094 A 
ATOM     10  C   UNL     1      -9.930 -14.098  17.152  1.00  0.00     0.134 A 
ATOM     11  C   UNL     1     -11.614 -13.701  15.439  1.00  0.00     0.123 A 
ATOM     12  C   UNL     1     -11.063 -14.511  16.438  1.00  0.00     0.093 A 
BRANCH   3  13
ATOM     13  C   UNL     1      -7.890  -8.982  15.868  1.00  0.00     0.025 A 
ATOM     14  C   UNL     1      -8.231  -7.923  16.723  1.00  0.00     0.016 A 
ATOM     15  C   UNL     1      -7.793  -6.627  16.447  1.00  0.00     0.051 A 
ATOM     16  C   UNL     1      -7.004  -6.377  15.316  1.00  0.00     0.157 A 
ATOM     17  C   UNL     1      -7.121  -8.729  14.723  1.00  0.00     0.062 A 
ATOM     18  C   UNL     1      -6.663  -7.435  14.453  1.00  0.00     0.158 A 
BRANCH  16  19
ATOM     19  O   UNL     1      -6.570  -5.081  15.043  1.00  0.00    -0.504 OA
ATOM     20  H   UNL     1      -5.585  -4.831  15.057  1.00  0.00     0.293 HD
ENDBRANCH  16  19
BRANCH  18  21
ATOM     21  O   UNL     1      -5.852  -7.223  13.334  1.00  0.00    -0.504 OA
ATOM     22  H   UNL     1      -5.182  -7.912  13.017  1.00  0.00     0.293 HD
ENDBRANCH  18  21
ENDBRANCH   3  13
BRANCH  10  23
ATOM     23  O   UNL     1      -9.410 -14.922  18.151  1.00  0.00    -0.507 OA
ATOM     24  H   UNL     1      -8.749 -15.662  17.942  1.00  0.00     0.293 HD
ENDBRANCH  10  23
BRANCH  11  25
ATOM     25  O   UNL     1     -12.741 -14.112  14.733  1.00  0.00    -0.508 OA
ATOM     26  H   UNL     1     -13.363 -14.822  15.099  1.00  0.00     0.293 HD
ENDBRANCH  11  25
ENDBRANCH   1   2
BRANCH   1  27
ATOM     27  C   UNL     1      -6.401 -10.162  19.103  1.00  0.00     0.339 C 
ATOM     28  C   UNL     1      -5.439  -8.946  19.148  1.00  0.00     0.214 C 
ATOM     29  O   UNL     1      -7.702  -9.775  19.505  1.00  0.00    -0.332 OA
ATOM     30  C   UNL     1      -5.954  -7.851  20.109  1.00  0.00     0.180 C 
ATOM     31  C   UNL     1      -7.739  -9.526  20.904  1.00  0.00     0.179 C 
ATOM     32  C   UNL     1      -6.627  -8.501  21.339  1.00  0.00     0.177 C 
BRANCH  28  33
ATOM     33  O   UNL     1      -5.214  -8.410  17.869  1.00  0.00    -0.384 OA
ATOM     34  H   UNL     1      -5.578  -9.039  17.196  1.00  0.00     0.211 HD
ENDBRANCH  28  33
BRANCH  30  35
ATOM     35  O   UNL     1      -4.875  -7.043  20.509  1.00  0.00    -0.387 OA
ATOM     36  H   UNL     1      -4.524  -7.427  21.355  1.00  0.00     0.211 HD
ENDBRANCH  30  35
BRANCH  31  37
ATOM     37  C   UNL     1      -9.169  -9.097  21.260  1.00  0.00     0.191 C 
BRANCH  37  38
ATOM     38  O   UNL     1     -10.081  -9.618  20.335  1.00  0.00    -0.394 OA
ATOM     39  H   UNL     1     -10.008 -10.605  20.396  1.00  0.00     0.210 HD
ENDBRANCH  37  38
ENDBRANCH  31  37
BRANCH  32  40
ATOM     40  O   UNL     1      -7.090  -7.526  22.243  1.00  0.00    -0.387 OA
ATOM     41  H   UNL     1      -7.052  -7.914  23.156  1.00  0.00     0.211 HD
ENDBRANCH  32  40
ENDBRANCH   1  27
TORSDOF 12
ENDMDL
MODEL 6
REMARK VINA RESULT:    -6.301     11.500     14.564
REMARK INTER + INTRA:         -10.858
REMARK INTER:                  -9.719
REMARK INTRA:                  -1.139
REMARK UNBOUND:                -1.610
REMARK SMILES O=c1c(O[C@@H]2O[C@H](CO)[C@H](O)[C@@H](O)[C@@H]2O)c(-c2ccc(O)c(O)c2)oc2cc(O)cc(O)c12
REMARK SMILES IDX 4 1 3 2 16 3 25 4 2 5 26 6 1 7 33 8 27 9 31 10 28 11 30 12
REMARK SMILES IDX 17 13 18 14 19 15 20 16 24 17 22 18 21 19 23 21 32 23 29 25
REMARK SMILES IDX 5 27 14 28 6 29 12 30 7 31 10 32 15 33 13 35 8 37 9 38 11 40
REMARK H PARENT 21 20 23 22 32 24 29 26 15 34 13 36 9 39 11 41
REMARK Flexibility Score: inf
ROOT
ATOM      1  O   UNL     1     -16.180 -20.169  14.136  1.00  0.00    -0.454 OA
ENDROOT
BRANCH   1   2
ATOM      2  C   UNL     1     -17.467 -20.700  14.317  1.00  0.00     0.214 A 
ATOM      3  C   UNL     1     -18.331 -20.277  15.351  1.00  0.00     0.180 A 
ATOM      4  O   UNL     1     -19.571 -20.753  15.423  1.00  0.00    -0.452 OA
ATOM      5  C   UNL     1     -17.913 -21.696  13.441  1.00  0.00     0.239 A 
ATOM      6  C   UNL     1     -20.046 -21.665  14.583  1.00  0.00     0.146 A 
ATOM      7  O   UNL     1     -17.129 -22.122  12.548  1.00  0.00    -0.285 OA
ATOM      8  C   UNL     1     -19.228 -22.195  13.556  1.00  0.00     0.111 A 
ATOM      9  C   UNL     1     -21.363 -22.116  14.739  1.00  0.00     0.094 A 
ATOM     10  C   UNL     1     -19.755 -23.195  12.703  1.00  0.00     0.134 A 
ATOM     11  C   UNL     1     -21.881 -23.090  13.885  1.00  0.00     0.123 A 
ATOM     12  C   UNL     1     -21.078 -23.628  12.874  1.00  0.00     0.093 A 
BRANCH   3  13
ATOM     13  C   UNL     1     -17.884 -19.347  16.399  1.00  0.00     0.025 A 
ATOM     14  C   UNL     1     -17.762 -19.786  17.727  1.00  0.00     0.016 A 
ATOM     15  C   UNL     1     -17.292 -18.919  18.715  1.00  0.00     0.051 A 
ATOM     16  C   UNL     1     -16.934 -17.605  18.386  1.00  0.00     0.157 A 
ATOM     17  C   UNL     1     -17.549 -18.024  16.074  1.00  0.00     0.062 A 
ATOM     18  C   UNL     1     -17.059 -17.158  17.056  1.00  0.00     0.158 A 
BRANCH  16  19
ATOM     19  O   UNL     1     -16.467 -16.742  19.375  1.00  0.00    -0.504 OA
ATOM     20  H   UNL     1     -15.751 -16.046  19.185  1.00  0.00     0.293 HD
ENDBRANCH  16  19
BRANCH  18  21
ATOM     21  O   UNL     1     -16.680 -15.863  16.691  1.00  0.00    -0.504 OA
ATOM     22  H   UNL     1     -16.720 -15.542  15.732  1.00  0.00     0.293 HD
ENDBRANCH  18  21
ENDBRANCH   3  13
BRANCH  10  23
ATOM     23  O   UNL     1     -18.974 -23.758  11.694  1.00  0.00    -0.507 OA
ATOM     24  H   UNL     1     -19.187 -23.617  10.713  1.00  0.00     0.293 HD
ENDBRANCH  10  23
BRANCH  11  25
ATOM     25  O   UNL     1     -23.193 -23.524  14.055  1.00  0.00    -0.508 OA
ATOM     26  H   UNL     1     -23.941 -23.192  13.458  1.00  0.00     0.293 HD
ENDBRANCH  11  25
ENDBRANCH   1   2
BRANCH   1  27
ATOM     27  C   UNL     1     -14.977 -20.918  14.335  1.00  0.00     0.339 C 
ATOM     28  C   UNL     1     -13.831 -19.982  14.799  1.00  0.00     0.214 C 
ATOM     29  O   UNL     1     -15.205 -21.932  15.296  1.00  0.00    -0.332 OA
ATOM     30  C   UNL     1     -12.905 -20.683  15.818  1.00  0.00     0.180 C 
ATOM     31  C   UNL     1     -14.143 -22.876  15.287  1.00  0.00     0.179 C 
ATOM     32  C   UNL     1     -12.743 -22.175  15.446  1.00  0.00     0.177 C 
BRANCH  28  33
ATOM     33  O   UNL     1     -14.322 -18.778  15.329  1.00  0.00    -0.384 OA
ATOM     34  H   UNL     1     -14.754 -18.970  16.199  1.00  0.00     0.211 HD
ENDBRANCH  28  33
BRANCH  30  35
ATOM     35  O   UNL     1     -11.654 -20.040  15.824  1.00  0.00    -0.387 OA
ATOM     36  H   UNL     1     -11.368 -19.975  16.773  1.00  0.00     0.211 HD
ENDBRANCH  30  35
BRANCH  31  37
ATOM     37  C   UNL     1     -14.450 -23.928  16.361  1.00  0.00     0.191 C 
BRANCH  37  38
ATOM     38  O   UNL     1     -13.651 -25.064  16.175  1.00  0.00    -0.394 OA
ATOM     39  H   UNL     1     -13.260 -25.277  17.061  1.00  0.00     0.210 HD
ENDBRANCH  37  38
ENDBRANCH  31  37
BRANCH  32  40
ATOM     40  O   UNL     1     -11.888 -22.836  16.349  1.00  0.00    -0.387 OA
ATOM     41  H   UNL     1     -12.036 -23.813  16.249  1.00  0.00     0.211 HD
ENDBRANCH  32  40
ENDBRANCH   1  27
TORSDOF 12
ENDMDL
MODEL 7
REMARK VINA RESULT:    -6.271     11.635     15.912
REMARK INTER + INTRA:         -10.814
REMARK INTER:                  -9.800
REMARK INTRA:                  -1.015
REMARK UNBOUND:                -1.610
REMARK SMILES O=c1c(O[C@@H]2O[C@H](CO)[C@H](O)[C@@H](O)[C@@H]2O)c(-c2ccc(O)c(O)c2)oc2cc(O)cc(O)c12
REMARK SMILES IDX 4 1 3 2 16 3 25 4 2 5 26 6 1 7 33 8 27 9 31 10 28 11 30 12
REMARK SMILES IDX 17 13 18 14 19 15 20 16 24 17 22 18 21 19 23 21 32 23 29 25
REMARK SMILES IDX 5 27 14 28 6 29 12 30 7 31 10 32 15 33 13 35 8 37 9 38 11 40
REMARK H PARENT 21 20 23 22 32 24 29 26 15 34 13 36 9 39 11 41
REMARK Flexibility Score: inf
ROOT
ATOM      1  O   UNL     1     -20.338 -20.845  16.135  1.00  0.00    -0.454 OA
ENDROOT
BRANCH   1   2
ATOM      2  C   UNL     1     -19.416 -20.938  15.080  1.00  0.00     0.214 A 
ATOM      3  C   UNL     1     -18.159 -20.296  15.105  1.00  0.00     0.180 A 
ATOM      4  O   UNL     1     -17.291 -20.488  14.115  1.00  0.00    -0.452 OA
ATOM      5  C   UNL     1     -19.759 -21.692  13.952  1.00  0.00     0.239 A 
ATOM      6  C   UNL     1     -17.561 -21.234  13.049  1.00  0.00     0.146 A 
ATOM      7  O   UNL     1     -20.903 -22.223  13.895  1.00  0.00    -0.285 OA
ATOM      8  C   UNL     1     -18.823 -21.861  12.909  1.00  0.00     0.111 A 
ATOM      9  C   UNL     1     -16.589 -21.374  12.051  1.00  0.00     0.094 A 
ATOM     10  C   UNL     1     -19.091 -22.615  11.741  1.00  0.00     0.134 A 
ATOM     11  C   UNL     1     -16.854 -22.132  10.909  1.00  0.00     0.123 A 
ATOM     12  C   UNL     1     -18.102 -22.747  10.756  1.00  0.00     0.093 A 
BRANCH   3  13
ATOM     13  C   UNL     1     -17.785 -19.367  16.183  1.00  0.00     0.025 A 
ATOM     14  C   UNL     1     -17.660 -19.832  17.501  1.00  0.00     0.016 A 
ATOM     15  C   UNL     1     -17.259 -18.964  18.518  1.00  0.00     0.051 A 
ATOM     16  C   UNL     1     -16.974 -17.623  18.227  1.00  0.00     0.157 A 
ATOM     17  C   UNL     1     -17.523 -18.020  15.895  1.00  0.00     0.062 A 
ATOM     18  C   UNL     1     -17.102 -17.151  16.907  1.00  0.00     0.158 A 
BRANCH  16  19
ATOM     19  O   UNL     1     -16.575 -16.759  19.246  1.00  0.00    -0.504 OA
ATOM     20  H   UNL     1     -15.655 -16.823  19.673  1.00  0.00     0.293 HD
ENDBRANCH  16  19
BRANCH  18  21
ATOM     21  O   UNL     1     -16.794 -15.827  16.580  1.00  0.00    -0.504 OA
ATOM     22  H   UNL     1     -16.087 -15.594  15.894  1.00  0.00     0.293 HD
ENDBRANCH  18  21
ENDBRANCH   3  13
BRANCH  10  23
ATOM     23  O   UNL     1     -20.329 -23.230  11.556  1.00  0.00    -0.507 OA
ATOM     24  H   UNL     1     -21.119 -22.732  11.160  1.00  0.00     0.293 HD
ENDBRANCH  10  23
BRANCH  11  25
ATOM     25  O   UNL     1     -15.875 -22.262   9.929  1.00  0.00    -0.508 OA
ATOM     26  H   UNL     1     -15.081 -22.878  10.053  1.00  0.00     0.293 HD
ENDBRANCH  11  25
ENDBRANCH   1   2
BRANCH   1  27
ATOM     27  C   UNL     1     -20.896 -19.611  16.595  1.00  0.00     0.339 C 
ATOM     28  C   UNL     1     -22.094 -19.196  15.702  1.00  0.00     0.214 C 
ATOM     29  O   UNL     1     -21.311 -19.752  17.941  1.00  0.00    -0.332 OA
ATOM     30  C   UNL     1     -23.209 -18.516  16.529  1.00  0.00     0.180 C 
ATOM     31  C   UNL     1     -21.576 -18.481  18.518  1.00  0.00     0.179 C 
ATOM     32  C   UNL     1     -22.584 -17.647  17.644  1.00  0.00     0.177 C 
BRANCH  28  33
ATOM     33  O   UNL     1     -22.612 -20.286  14.983  1.00  0.00    -0.384 OA
ATOM     34  H   UNL     1     -22.123 -21.103  15.255  1.00  0.00     0.211 HD
ENDBRANCH  28  33
BRANCH  30  35
ATOM     35  O   UNL     1     -24.001 -17.728  15.676  1.00  0.00    -0.387 OA
ATOM     36  H   UNL     1     -23.390 -17.324  15.005  1.00  0.00     0.211 HD
ENDBRANCH  30  35
BRANCH  31  37
ATOM     37  C   UNL     1     -22.035 -18.714  19.964  1.00  0.00     0.191 C 
BRANCH  37  38
ATOM     38  O   UNL     1     -23.191 -19.504  19.989  1.00  0.00    -0.394 OA
ATOM     39  H   UNL     1     -23.308 -19.857  19.070  1.00  0.00     0.210 HD
ENDBRANCH  37  38
ENDBRANCH  31  37
BRANCH  32  40
ATOM     40  O   UNL     1     -23.578 -17.000  18.403  1.00  0.00    -0.387 OA
ATOM     41  H   UNL     1     -23.780 -17.570  19.191  1.00  0.00     0.211 HD
ENDBRANCH  32  40
ENDBRANCH   1  27
TORSDOF 12
ENDMDL
MODEL 8
REMARK VINA RESULT:    -6.253     12.427     15.026
REMARK INTER + INTRA:         -10.788
REMARK INTER:                  -9.311
REMARK INTRA:                  -1.477
REMARK UNBOUND:                -1.610
REMARK SMILES O=c1c(O[C@@H]2O[C@H](CO)[C@H](O)[C@@H](O)[C@@H]2O)c(-c2ccc(O)c(O)c2)oc2cc(O)cc(O)c12
REMARK SMILES IDX 4 1 3 2 16 3 25 4 2 5 26 6 1 7 33 8 27 9 31 10 28 11 30 12
REMARK SMILES IDX 17 13 18 14 19 15 20 16 24 17 22 18 21 19 23 21 32 23 29 25
REMARK SMILES IDX 5 27 14 28 6 29 12 30 7 31 10 32 15 33 13 35 8 37 9 38 11 40
REMARK H PARENT 21 20 23 22 32 24 29 26 15 34 13 36 9 39 11 41
REMARK Flexibility Score: inf
ROOT
ATOM      1  O   UNL     1     -13.758 -20.671  14.083  1.00  0.00    -0.454 OA
ENDROOT
BRANCH   1   2
ATOM      2  C   UNL     1     -15.098 -20.436  14.431  1.00  0.00     0.214 A 
ATOM      3  C   UNL     1     -16.181 -20.849  13.626  1.00  0.00     0.180 A 
ATOM      4  O   UNL     1     -17.431 -20.676  14.047  1.00  0.00    -0.452 OA
ATOM      5  C   UNL     1     -15.373 -19.758  15.624  1.00  0.00     0.239 A 
ATOM      6  C   UNL     1     -17.733 -20.077  15.193  1.00  0.00     0.146 A 
ATOM      7  O   UNL     1     -14.412 -19.334  16.324  1.00  0.00    -0.285 OA
ATOM      8  C   UNL     1     -16.711 -19.572  16.033  1.00  0.00     0.111 A 
ATOM      9  C   UNL     1     -19.078 -19.930  15.553  1.00  0.00     0.094 A 
ATOM     10  C   UNL     1     -17.071 -18.904  17.229  1.00  0.00     0.134 A 
ATOM     11  C   UNL     1     -19.425 -19.286  16.741  1.00  0.00     0.123 A 
ATOM     12  C   UNL     1     -18.424 -18.773  17.573  1.00  0.00     0.093 A 
BRANCH   3  13
ATOM     13  C   UNL     1     -15.974 -21.432  12.291  1.00  0.00     0.025 A 
ATOM     14  C   UNL     1     -16.228 -22.795  12.071  1.00  0.00     0.016 A 
ATOM     15  C   UNL     1     -16.079 -23.341  10.795  1.00  0.00     0.051 A 
ATOM     16  C   UNL     1     -15.680 -22.529   9.724  1.00  0.00     0.157 A 
ATOM     17  C   UNL     1     -15.552 -20.624  11.225  1.00  0.00     0.062 A 
ATOM     18  C   UNL     1     -15.420 -21.162   9.941  1.00  0.00     0.158 A 
BRANCH  16  19
ATOM     19  O   UNL     1     -15.531 -23.079   8.452  1.00  0.00    -0.504 OA
ATOM     20  H   UNL     1     -14.786 -23.736   8.236  1.00  0.00     0.293 HD
ENDBRANCH  16  19
BRANCH  18  21
ATOM     21  O   UNL     1     -15.051 -20.321   8.888  1.00  0.00    -0.504 OA
ATOM     22  H   UNL     1     -14.096 -20.015   8.754  1.00  0.00     0.293 HD
ENDBRANCH  18  21
ENDBRANCH   3  13
BRANCH  10  23
ATOM     23  O   UNL     1     -16.095 -18.373  18.073  1.00  0.00    -0.507 OA
ATOM     24  H   UNL     1     -15.395 -17.722  17.736  1.00  0.00     0.293 HD
ENDBRANCH  10  23
BRANCH  11  25
ATOM     25  O   UNL     1     -20.768 -19.151  17.082  1.00  0.00    -0.508 OA
ATOM     26  H   UNL     1     -21.063 -19.075  18.048  1.00  0.00     0.293 HD
ENDBRANCH  11  25
ENDBRANCH   1   2
BRANCH   1  27
ATOM     27  C   UNL     1     -13.113 -21.941  14.221  1.00  0.00     0.339 C 
ATOM     28  C   UNL     1     -12.336 -22.293  12.926  1.00  0.00     0.214 C 
ATOM     29  O   UNL     1     -12.234 -21.907  15.329  1.00  0.00    -0.332 OA
ATOM     30  C   UNL     1     -11.022 -23.042  13.240  1.00  0.00     0.180 C 
ATOM     31  C   UNL     1     -11.822 -23.221  15.679  1.00  0.00     0.179 C 
ATOM     32  C   UNL     1     -11.229 -23.991  14.442  1.00  0.00     0.177 C 
BRANCH  28  33
ATOM     33  O   UNL     1     -12.078 -21.154  12.145  1.00  0.00    -0.384 OA
ATOM     34  H   UNL     1     -12.882 -20.956  11.602  1.00  0.00     0.211 HD
ENDBRANCH  28  33
BRANCH  30  35
ATOM     35  O   UNL     1     -10.620 -23.767  12.104  1.00  0.00    -0.387 OA
ATOM     36  H   UNL     1      -9.922 -23.226  11.648  1.00  0.00     0.211 HD
ENDBRANCH  30  35
BRANCH  31  37
ATOM     37  C   UNL     1     -10.862 -23.103  16.871  1.00  0.00     0.191 C 
BRANCH  37  38
ATOM     38  O   UNL     1     -10.725 -24.340  17.513  1.00  0.00    -0.394 OA
ATOM     39  H   UNL     1      -9.887 -24.742  17.170  1.00  0.00     0.210 HD
ENDBRANCH  37  38
ENDBRANCH  31  37
BRANCH  32  40
ATOM     40  O   UNL     1     -10.050 -24.701  14.740  1.00  0.00    -0.387 OA
ATOM     41  H   UNL     1      -9.906 -25.370  14.020  1.00  0.00     0.211 HD
ENDBRANCH  32  40
ENDBRANCH   1  27
TORSDOF 12
ENDMDL
MODEL 9
REMARK VINA RESULT:    -6.221     11.475     15.023
REMARK INTER + INTRA:         -10.741
REMARK INTER:                  -9.138
REMARK INTRA:                  -1.602
REMARK UNBOUND:                -1.610
REMARK SMILES O=c1c(O[C@@H]2O[C@H](CO)[C@H](O)[C@@H](O)[C@@H]2O)c(-c2ccc(O)c(O)c2)oc2cc(O)cc(O)c12
REMARK SMILES IDX 4 1 3 2 16 3 25 4 2 5 26 6 1 7 33 8 27 9 31 10 28 11 30 12
REMARK SMILES IDX 17 13 18 14 19 15 20 16 24 17 22 18 21 19 23 21 32 23 29 25
REMARK SMILES IDX 5 27 14 28 6 29 12 30 7 31 10 32 15 33 13 35 8 37 9 38 11 40
REMARK H PARENT 21 20 23 22 32 24 29 26 15 34 13 36 9 39 11 41
REMARK Flexibility Score: inf
ROOT
ATOM      1  O   UNL     1     -16.900 -21.763  16.363  1.00  0.00    -0.454 OA
ENDROOT
BRANCH   1   2
ATOM      2  C   UNL     1     -18.237 -21.527  16.002  1.00  0.00     0.214 A 
ATOM      3  C   UNL     1     -18.888 -20.297  16.241  1.00  0.00     0.180 A 
ATOM      4  O   UNL     1     -20.128 -20.101  15.800  1.00  0.00    -0.452 OA
ATOM      5  C   UNL     1     -18.957 -22.556  15.385  1.00  0.00     0.239 A 
ATOM      6  C   UNL     1     -20.829 -21.037  15.171  1.00  0.00     0.146 A 
ATOM      7  O   UNL     1     -18.404 -23.678  15.219  1.00  0.00    -0.285 OA
ATOM      8  C   UNL     1     -20.279 -22.322  14.948  1.00  0.00     0.111 A 
ATOM      9  C   UNL     1     -22.132 -20.744  14.750  1.00  0.00     0.094 A 
ATOM     10  C   UNL     1     -21.070 -23.308  14.309  1.00  0.00     0.134 A 
ATOM     11  C   UNL     1     -22.900 -21.716  14.106  1.00  0.00     0.123 A 
ATOM     12  C   UNL     1     -22.370 -22.992  13.890  1.00  0.00     0.093 A 
BRANCH   3  13
ATOM     13  C   UNL     1     -18.249 -19.221  17.015  1.00  0.00     0.025 A 
ATOM     14  C   UNL     1     -18.142 -19.325  18.411  1.00  0.00     0.016 A 
ATOM     15  C   UNL     1     -17.494 -18.329  19.143  1.00  0.00     0.051 A 
ATOM     16  C   UNL     1     -16.941 -17.221  18.487  1.00  0.00     0.157 A 
ATOM     17  C   UNL     1     -17.717 -18.101  16.361  1.00  0.00     0.062 A 
ATOM     18  C   UNL     1     -17.049 -17.110  17.088  1.00  0.00     0.158 A 
BRANCH  16  19
ATOM     19  O   UNL     1     -16.296 -16.228  19.222  1.00  0.00    -0.504 OA
ATOM     20  H   UNL     1     -16.328 -16.207  20.238  1.00  0.00     0.293 HD
ENDBRANCH  16  19
BRANCH  18  21
ATOM     21  O   UNL     1     -16.481 -16.032  16.402  1.00  0.00    -0.504 OA
ATOM     22  H   UNL     1     -16.790 -15.080  16.548  1.00  0.00     0.293 HD
ENDBRANCH  18  21
ENDBRANCH   3  13
BRANCH  10  23
ATOM     23  O   UNL     1     -20.572 -24.593  14.090  1.00  0.00    -0.507 OA
ATOM     24  H   UNL     1     -21.135 -25.419  14.255  1.00  0.00     0.293 HD
ENDBRANCH  10  23
BRANCH  11  25
ATOM     25  O   UNL     1     -24.193 -21.405  13.693  1.00  0.00    -0.508 OA
ATOM     26  H   UNL     1     -24.938 -21.249  14.360  1.00  0.00     0.293 HD
ENDBRANCH  11  25
ENDBRANCH   1   2
BRANCH   1  27
ATOM     27  C   UNL     1     -15.790 -21.529  15.492  1.00  0.00     0.339 C 
ATOM     28  C   UNL     1     -14.797 -22.718  15.555  1.00  0.00     0.214 C 
ATOM     29  O   UNL     1     -16.258 -21.347  14.169  1.00  0.00    -0.332 OA
ATOM     30  C   UNL     1     -14.163 -23.000  14.174  1.00  0.00     0.180 C 
ATOM     31  C   UNL     1     -15.231 -20.811  13.346  1.00  0.00     0.179 C 
ATOM     32  C   UNL     1     -13.916 -21.672  13.425  1.00  0.00     0.177 C 
BRANCH  28  33
ATOM     33  O   UNL     1     -15.403 -23.880  16.063  1.00  0.00    -0.384 OA
ATOM     34  H   UNL     1     -14.833 -24.240  16.788  1.00  0.00     0.211 HD
ENDBRANCH  28  33
BRANCH  30  35
ATOM     35  O   UNL     1     -12.953 -23.695  14.355  1.00  0.00    -0.387 OA
ATOM     36  H   UNL     1     -13.189 -24.622  14.622  1.00  0.00     0.211 HD
ENDBRANCH  30  35
BRANCH  31  37
ATOM     37  C   UNL     1     -15.804 -20.659  11.930  1.00  0.00     0.191 C 
BRANCH  37  38
ATOM     38  O   UNL     1     -14.959 -19.867  11.143  1.00  0.00    -0.394 OA
ATOM     39  H   UNL     1     -14.910 -20.308  10.256  1.00  0.00     0.210 HD
ENDBRANCH  37  38
ENDBRANCH  31  37
BRANCH  32  40
ATOM     40  O   UNL     1     -13.321 -21.897  12.169  1.00  0.00    -0.387 OA
ATOM     41  H   UNL     1     -12.545 -21.283  12.084  1.00  0.00     0.211 HD
ENDBRANCH  32  40
ENDBRANCH   1  27
TORSDOF 12
ENDMDL
