MODEL 1
REMARK VINA RESULT:    -4.319      0.000      0.000
REMARK INTER + INTRA:         -17.935
REMARK INTER:                 -11.389
REMARK INTRA:                  -6.546
REMARK UNBOUND:                -6.546
REMARK SMILES CCCCCCCCCCCCCCCCCCCCCCCCCCCCCC(=O)[O-]
REMARK SMILES IDX 16 1 17 2 18 3 19 4 20 5 21 6 22 7 23 8 24 9 25 10 26 11
REMARK SMILES IDX 27 12 28 13 29 14 30 15 31 16 32 17 15 18 14 19 13 20 12 21
REMARK SMILES IDX 11 22 10 23 9 24 8 25 7 26 6 27 5 28 4 29 3 30 2 31 1 32
REMARK H PARENT
REMARK Flexibility Score: inf
ROOT
ATOM      1  C   UNL     1      34.334  27.875  15.114  1.00  0.00     0.000 C 
ENDROOT
BRANCH   1   2
ATOM      2  C   UNL     1      33.466  29.090  14.739  1.00  0.00     0.000 C 
BRANCH   2   3
ATOM      3  C   UNL     1      33.551  30.227  15.779  1.00  0.00     0.000 C 
BRANCH   3   4
ATOM      4  C   UNL     1      33.031  31.585  15.270  1.00  0.00     0.000 C 
BRANCH   4   5
ATOM      5  C   UNL     1      31.907  32.217  16.112  1.00  0.00     0.000 C 
BRANCH   5   6
ATOM      6  C   UNL     1      31.413  31.363  17.298  1.00  0.00     0.000 C 
BRANCH   6   7
ATOM      7  C   UNL     1      30.174  30.498  17.014  1.00  0.00     0.000 C 
BRANCH   7   8
ATOM      8  C   UNL     1      29.647  30.658  15.578  1.00  0.00     0.000 C 
BRANCH   8   9
ATOM      9  C   UNL     1      29.064  29.350  15.019  1.00  0.00     0.000 C 
BRANCH   9  10
ATOM     10  C   UNL     1      30.138  28.272  14.787  1.00  0.00     0.000 C 
BRANCH  10  11
ATOM     11  C   UNL     1      29.997  27.082  15.750  1.00  0.00     0.000 C 
BRANCH  11  12
ATOM     12  C   UNL     1      29.739  25.753  15.023  1.00  0.00     0.000 C 
BRANCH  12  13
ATOM     13  C   UNL     1      29.506  25.985  13.525  1.00  0.00     0.006 C 
BRANCH  13  14
ATOM     14  C   UNL     1      28.099  25.543  13.112  1.00  0.00     0.053 C 
BRANCH  14  15
ATOM     15  C   UNL     1      27.071  26.483  13.656  1.00  0.00     0.041 C 
ATOM     16  O   UNL     1      26.778  27.534  13.026  1.00  0.00    -0.550 OA
ATOM     17  O   UNL     1      26.465  26.222  14.878  1.00  0.00    -0.550 OA
ENDBRANCH  14  15
ENDBRANCH  13  14
ENDBRANCH  12  13
ENDBRANCH  11  12
ENDBRANCH  10  11
ENDBRANCH   9  10
ENDBRANCH   8   9
ENDBRANCH   7   8
ENDBRANCH   6   7
ENDBRANCH   5   6
ENDBRANCH   4   5
ENDBRANCH   3   4
ENDBRANCH   2   3
ENDBRANCH   1   2
BRANCH   1  18
ATOM     18  C   UNL     1      33.635  26.913  16.090  1.00  0.00     0.000 C 
BRANCH  18  19
ATOM     19  C   UNL     1      33.385  25.495  15.543  1.00  0.00     0.000 C 
BRANCH  19  20
ATOM     20  C   UNL     1      33.928  25.235  14.124  1.00  0.00     0.000 C 
BRANCH  20  21
ATOM     21  C   UNL     1      32.875  24.787  13.091  1.00  0.00     0.000 C 
BRANCH  21  22
ATOM     22  C   UNL     1      32.960  25.484  11.721  1.00  0.00     0.000 C 
BRANCH  22  23
ATOM     23  C   UNL     1      33.062  27.014  11.829  1.00  0.00     0.000 C 
BRANCH  23  24
ATOM     24  C   UNL     1      34.421  27.552  11.346  1.00  0.00    -0.000 C 
BRANCH  24  25
ATOM     25  C   UNL     1      34.362  28.880  10.564  1.00  0.00    -0.000 C 
BRANCH  25  26
ATOM     26  C   UNL     1      33.027  29.156   9.848  1.00  0.00    -0.000 C 
BRANCH  26  27
ATOM     27  C   UNL     1      32.573  30.620   9.990  1.00  0.00    -0.000 C 
BRANCH  27  28
ATOM     28  C   UNL     1      32.401  31.046  11.457  1.00  0.00    -0.000 C 
BRANCH  28  29
ATOM     29  C   UNL     1      31.182  30.387  12.121  1.00  0.00    -0.000 C 
BRANCH  29  30
ATOM     30  C   UNL     1      29.878  31.015  11.614  1.00  0.00    -0.000 C 
BRANCH  30  31
ATOM     31  C   UNL     1      28.827  29.941  11.313  1.00  0.00    -0.003 C 
ATOM     32  C   UNL     1      29.488  28.605  10.982  1.00  0.00     0.004 C 
ENDBRANCH  30  31
ENDBRANCH  29  30
ENDBRANCH  28  29
ENDBRANCH  27  28
ENDBRANCH  26  27
ENDBRANCH  25  26
ENDBRANCH  24  25
ENDBRANCH  23  24
ENDBRANCH  22  23
ENDBRANCH  21  22
ENDBRANCH  20  21
ENDBRANCH  19  20
ENDBRANCH  18  19
ENDBRANCH   1  18
TORSDOF 28
ENDMDL
MODEL 2
REMARK VINA RESULT:    -4.317      1.638      4.789
REMARK INTER + INTRA:         -17.929
REMARK INTER:                 -11.660
REMARK INTRA:                  -6.270
REMARK UNBOUND:                -6.546
REMARK SMILES CCCCCCCCCCCCCCCCCCCCCCCCCCCCCC(=O)[O-]
REMARK SMILES IDX 16 1 17 2 18 3 19 4 20 5 21 6 22 7 23 8 24 9 25 10 26 11
REMARK SMILES IDX 27 12 28 13 29 14 30 15 31 16 32 17 15 18 14 19 13 20 12 21
REMARK SMILES IDX 11 22 10 23 9 24 8 25 7 26 6 27 5 28 4 29 3 30 2 31 1 32
REMARK H PARENT
REMARK Flexibility Score: inf
ROOT
ATOM      1  C   UNL     1      33.002  31.606  15.354  1.00  0.00     0.000 C 
ENDROOT
BRANCH   1   2
ATOM      2  C   UNL     1      33.546  30.262  15.871  1.00  0.00     0.000 C 
BRANCH   2   3
ATOM      3  C   UNL     1      33.339  29.108  14.866  1.00  0.00     0.000 C 
BRANCH   3   4
ATOM      4  C   UNL     1      32.491  27.943  15.412  1.00  0.00     0.000 C 
BRANCH   4   5
ATOM      5  C   UNL     1      31.773  27.096  14.345  1.00  0.00     0.000 C 
BRANCH   5   6
ATOM      6  C   UNL     1      30.800  26.031  14.894  1.00  0.00     0.000 C 
BRANCH   6   7
ATOM      7  C   UNL     1      29.908  26.495  16.058  1.00  0.00     0.000 C 
BRANCH   7   8
ATOM      8  C   UNL     1      28.838  25.460  16.442  1.00  0.00     0.000 C 
BRANCH   8   9
ATOM      9  C   UNL     1      27.803  25.245  15.325  1.00  0.00     0.000 C 
BRANCH   9  10
ATOM     10  C   UNL     1      26.965  26.505  15.041  1.00  0.00     0.000 C 
BRANCH  10  11
ATOM     11  C   UNL     1      26.883  26.834  13.542  1.00  0.00     0.000 C 
BRANCH  11  12
ATOM     12  C   UNL     1      27.946  26.097  12.711  1.00  0.00     0.000 C 
BRANCH  12  13
ATOM     13  C   UNL     1      28.812  27.090  11.926  1.00  0.00     0.006 C 
BRANCH  13  14
ATOM     14  C   UNL     1      28.523  27.006  10.425  1.00  0.00     0.053 C 
BRANCH  14  15
ATOM     15  C   UNL     1      27.243  27.707  10.096  1.00  0.00     0.041 C 
ATOM     16  O   UNL     1      26.273  27.062   9.615  1.00  0.00    -0.550 OA
ATOM     17  O   UNL     1      27.132  29.079  10.282  1.00  0.00    -0.550 OA
ENDBRANCH  14  15
ENDBRANCH  13  14
ENDBRANCH  12  13
ENDBRANCH  11  12
ENDBRANCH  10  11
ENDBRANCH   9  10
ENDBRANCH   8   9
ENDBRANCH   7   8
ENDBRANCH   6   7
ENDBRANCH   5   6
ENDBRANCH   4   5
ENDBRANCH   3   4
ENDBRANCH   2   3
ENDBRANCH   1   2
BRANCH   1  18
ATOM     18  C   UNL     1      31.829  32.142  16.191  1.00  0.00     0.000 C 
BRANCH  18  19
ATOM     19  C   UNL     1      31.329  31.194  17.298  1.00  0.00     0.000 C 
BRANCH  19  20
ATOM     20  C   UNL     1      30.170  30.263  16.890  1.00  0.00     0.000 C 
BRANCH  20  21
ATOM     21  C   UNL     1      29.328  30.750  15.695  1.00  0.00     0.000 C 
BRANCH  21  22
ATOM     22  C   UNL     1      29.300  29.804  14.482  1.00  0.00     0.000 C 
BRANCH  22  23
ATOM     23  C   UNL     1      28.635  30.430  13.245  1.00  0.00     0.000 C 
BRANCH  23  24
ATOM     24  C   UNL     1      29.628  30.654  12.090  1.00  0.00    -0.000 C 
BRANCH  24  25
ATOM     25  C   UNL     1      31.110  30.751  12.506  1.00  0.00    -0.000 C 
BRANCH  25  26
ATOM     26  C   UNL     1      32.122  30.584  11.358  1.00  0.00    -0.000 C 
BRANCH  26  27
ATOM     27  C   UNL     1      31.937  29.260  10.596  1.00  0.00    -0.000 C 
BRANCH  27  28
ATOM     28  C   UNL     1      32.885  28.155  11.088  1.00  0.00    -0.000 C 
BRANCH  28  29
ATOM     29  C   UNL     1      34.318  28.666  11.306  1.00  0.00    -0.000 C 
BRANCH  29  30
ATOM     30  C   UNL     1      35.308  27.497  11.387  1.00  0.00    -0.000 C 
BRANCH  30  31
ATOM     31  C   UNL     1      35.460  27.001  12.829  1.00  0.00    -0.003 C 
ATOM     32  C   UNL     1      34.888  25.594  12.988  1.00  0.00     0.004 C 
ENDBRANCH  30  31
ENDBRANCH  29  30
ENDBRANCH  28  29
ENDBRANCH  27  28
ENDBRANCH  26  27
ENDBRANCH  25  26
ENDBRANCH  24  25
ENDBRANCH  23  24
ENDBRANCH  22  23
ENDBRANCH  21  22
ENDBRANCH  20  21
ENDBRANCH  19  20
ENDBRANCH  18  19
ENDBRANCH   1  18
TORSDOF 28
ENDMDL
MODEL 3
REMARK VINA RESULT:    -4.314      2.743      5.993
REMARK INTER + INTRA:         -17.921
REMARK INTER:                 -11.971
REMARK INTRA:                  -5.950
REMARK UNBOUND:                -6.546
REMARK SMILES CCCCCCCCCCCCCCCCCCCCCCCCCCCCCC(=O)[O-]
REMARK SMILES IDX 16 1 17 2 18 3 19 4 20 5 21 6 22 7 23 8 24 9 25 10 26 11
REMARK SMILES IDX 27 12 28 13 29 14 30 15 31 16 32 17 15 18 14 19 13 20 12 21
REMARK SMILES IDX 11 22 10 23 9 24 8 25 7 26 6 27 5 28 4 29 3 30 2 31 1 32
REMARK H PARENT
REMARK Flexibility Score: inf
ROOT
ATOM      1  C   UNL     1      31.373  31.367  17.377  1.00  0.00     0.000 C 
ENDROOT
BRANCH   1   2
ATOM      2  C   UNL     1      30.290  30.331  17.027  1.00  0.00     0.000 C 
BRANCH   2   3
ATOM      3  C   UNL     1      29.492  30.706  15.759  1.00  0.00     0.000 C 
BRANCH   3   4
ATOM      4  C   UNL     1      29.331  29.550  14.753  1.00  0.00     0.000 C 
BRANCH   4   5
ATOM      5  C   UNL     1      30.365  29.521  13.612  1.00  0.00     0.000 C 
BRANCH   5   6
ATOM      6  C   UNL     1      30.531  30.847  12.840  1.00  0.00     0.000 C 
BRANCH   6   7
ATOM      7  C   UNL     1      29.849  30.894  11.461  1.00  0.00     0.000 C 
BRANCH   7   8
ATOM      8  C   UNL     1      30.823  30.625  10.302  1.00  0.00     0.000 C 
BRANCH   8   9
ATOM      9  C   UNL     1      32.294  30.691  10.746  1.00  0.00     0.000 C 
BRANCH   9  10
ATOM     10  C   UNL     1      33.253  30.056   9.722  1.00  0.00     0.000 C 
BRANCH  10  11
ATOM     11  C   UNL     1      34.224  29.054  10.365  1.00  0.00     0.000 C 
BRANCH  11  12
ATOM     12  C   UNL     1      33.742  28.552  11.736  1.00  0.00     0.000 C 
BRANCH  12  13
ATOM     13  C   UNL     1      34.182  27.102  11.973  1.00  0.00     0.006 C 
BRANCH  13  14
ATOM     14  C   UNL     1      35.498  27.047  12.753  1.00  0.00     0.053 C 
BRANCH  14  15
ATOM     15  C   UNL     1      36.047  25.655  12.760  1.00  0.00     0.041 C 
ATOM     16  O   UNL     1      35.291  24.677  13.006  1.00  0.00    -0.550 OA
ATOM     17  O   UNL     1      37.400  25.438  12.535  1.00  0.00    -0.550 OA
ENDBRANCH  14  15
ENDBRANCH  13  14
ENDBRANCH  12  13
ENDBRANCH  11  12
ENDBRANCH  10  11
ENDBRANCH   9  10
ENDBRANCH   8   9
ENDBRANCH   7   8
ENDBRANCH   6   7
ENDBRANCH   5   6
ENDBRANCH   4   5
ENDBRANCH   3   4
ENDBRANCH   2   3
ENDBRANCH   1   2
BRANCH   1  18
ATOM     18  C   UNL     1      31.932  32.094  16.142  1.00  0.00     0.000 C 
BRANCH  18  19
ATOM     19  C   UNL     1      33.017  31.322  15.366  1.00  0.00     0.000 C 
BRANCH  19  20
ATOM     20  C   UNL     1      33.635  30.127  16.118  1.00  0.00     0.000 C 
BRANCH  20  21
ATOM     21  C   UNL     1      33.707  28.814  15.315  1.00  0.00     0.000 C 
BRANCH  21  22
ATOM     22  C   UNL     1      32.669  27.746  15.706  1.00  0.00     0.000 C 
BRANCH  22  23
ATOM     23  C   UNL     1      33.232  26.316  15.666  1.00  0.00     0.000 C 
BRANCH  23  24
ATOM     24  C   UNL     1      32.300  25.334  14.932  1.00  0.00    -0.000 C 
BRANCH  24  25
ATOM     25  C   UNL     1      31.048  25.969  14.293  1.00  0.00    -0.000 C 
BRANCH  25  26
ATOM     26  C   UNL     1      29.720  25.262  14.619  1.00  0.00    -0.000 C 
BRANCH  26  27
ATOM     27  C   UNL     1      28.913  25.993  15.706  1.00  0.00    -0.000 C 
BRANCH  27  28
ATOM     28  C   UNL     1      27.501  26.380  15.236  1.00  0.00    -0.000 C 
BRANCH  28  29
ATOM     29  C   UNL     1      27.348  26.300  13.709  1.00  0.00    -0.000 C 
BRANCH  29  30
ATOM     30  C   UNL     1      26.812  27.621  13.144  1.00  0.00    -0.000 C 
BRANCH  30  31
ATOM     31  C   UNL     1      27.369  27.890  11.743  1.00  0.00    -0.003 C 
ATOM     32  C   UNL     1      28.681  27.142  11.521  1.00  0.00     0.004 C 
ENDBRANCH  30  31
ENDBRANCH  29  30
ENDBRANCH  28  29
ENDBRANCH  27  28
ENDBRANCH  26  27
ENDBRANCH  25  26
ENDBRANCH  24  25
ENDBRANCH  23  24
ENDBRANCH  22  23
ENDBRANCH  21  22
ENDBRANCH  20  21
ENDBRANCH  19  20
ENDBRANCH  18  19
ENDBRANCH   1  18
TORSDOF 28
ENDMDL
MODEL 4
REMARK VINA RESULT:    -4.286      1.692      4.860
REMARK INTER + INTRA:         -17.848
REMARK INTER:                 -11.192
REMARK INTRA:                  -6.656
REMARK UNBOUND:                -6.546
REMARK SMILES CCCCCCCCCCCCCCCCCCCCCCCCCCCCCC(=O)[O-]
REMARK SMILES IDX 16 1 17 2 18 3 19 4 20 5 21 6 22 7 23 8 24 9 25 10 26 11
REMARK SMILES IDX 27 12 28 13 29 14 30 15 31 16 32 17 15 18 14 19 13 20 12 21
REMARK SMILES IDX 11 22 10 23 9 24 8 25 7 26 6 27 5 28 4 29 3 30 2 31 1 32
REMARK H PARENT
REMARK Flexibility Score: inf
ROOT
ATOM      1  C   UNL     1      33.514  28.644  15.436  1.00  0.00     0.000 C 
ENDROOT
BRANCH   1   2
ATOM      2  C   UNL     1      32.813  28.740  14.069  1.00  0.00     0.000 C 
BRANCH   2   3
ATOM      3  C   UNL     1      31.856  27.557  13.805  1.00  0.00     0.000 C 
BRANCH   3   4
ATOM      4  C   UNL     1      31.567  26.693  15.047  1.00  0.00     0.000 C 
BRANCH   4   5
ATOM      5  C   UNL     1      30.202  26.942  15.718  1.00  0.00     0.000 C 
BRANCH   5   6
ATOM      6  C   UNL     1      29.407  25.671  16.083  1.00  0.00     0.000 C 
BRANCH   6   7
ATOM      7  C   UNL     1      27.990  25.590  15.491  1.00  0.00     0.000 C 
BRANCH   7   8
ATOM      8  C   UNL     1      27.510  26.926  14.901  1.00  0.00     0.000 C 
BRANCH   8   9
ATOM      9  C   UNL     1      27.115  26.803  13.419  1.00  0.00     0.000 C 
BRANCH   9  10
ATOM     10  C   UNL     1      27.697  25.544  12.751  1.00  0.00     0.000 C 
BRANCH  10  11
ATOM     11  C   UNL     1      29.043  25.812  12.060  1.00  0.00     0.000 C 
BRANCH  11  12
ATOM     12  C   UNL     1      29.165  27.248  11.526  1.00  0.00     0.000 C 
BRANCH  12  13
ATOM     13  C   UNL     1      28.839  27.305  10.029  1.00  0.00     0.006 C 
BRANCH  13  14
ATOM     14  C   UNL     1      28.159  28.626   9.663  1.00  0.00     0.053 C 
BRANCH  14  15
ATOM     15  C   UNL     1      26.887  28.794  10.432  1.00  0.00     0.041 C 
ATOM     16  O   UNL     1      25.922  28.007  10.239  1.00  0.00    -0.550 OA
ATOM     17  O   UNL     1      26.751  29.842  11.333  1.00  0.00    -0.550 OA
ENDBRANCH  14  15
ENDBRANCH  13  14
ENDBRANCH  12  13
ENDBRANCH  11  12
ENDBRANCH  10  11
ENDBRANCH   9  10
ENDBRANCH   8   9
ENDBRANCH   7   8
ENDBRANCH   6   7
ENDBRANCH   5   6
ENDBRANCH   4   5
ENDBRANCH   3   4
ENDBRANCH   2   3
ENDBRANCH   1   2
BRANCH   1  18
ATOM     18  C   UNL     1      33.639  30.004  16.145  1.00  0.00     0.000 C 
BRANCH  18  19
ATOM     19  C   UNL     1      32.958  31.182  15.422  1.00  0.00     0.000 C 
BRANCH  19  20
ATOM     20  C   UNL     1      31.917  31.951  16.259  1.00  0.00     0.000 C 
BRANCH  20  21
ATOM     21  C   UNL     1      31.075  31.084  17.215  1.00  0.00     0.000 C 
BRANCH  21  22
ATOM     22  C   UNL     1      29.953  30.269  16.547  1.00  0.00     0.000 C 
BRANCH  22  23
ATOM     23  C   UNL     1      29.271  31.018  15.391  1.00  0.00     0.000 C 
BRANCH  23  24
ATOM     24  C   UNL     1      29.414  30.285  14.045  1.00  0.00    -0.000 C 
BRANCH  24  25
ATOM     25  C   UNL     1      29.808  31.177  12.849  1.00  0.00    -0.000 C 
BRANCH  25  26
ATOM     26  C   UNL     1      30.577  30.458  11.725  1.00  0.00    -0.000 C 
BRANCH  26  27
ATOM     27  C   UNL     1      31.985  31.041  11.507  1.00  0.00    -0.000 C 
BRANCH  27  28
ATOM     28  C   UNL     1      32.805  30.239  10.484  1.00  0.00    -0.000 C 
BRANCH  28  29
ATOM     29  C   UNL     1      32.274  28.810  10.295  1.00  0.00    -0.000 C 
BRANCH  29  30
ATOM     30  C   UNL     1      33.413  27.787  10.394  1.00  0.00    -0.000 C 
BRANCH  30  31
ATOM     31  C   UNL     1      34.712  28.449  10.864  1.00  0.00    -0.003 C 
ATOM     32  C   UNL     1      35.484  27.532  11.808  1.00  0.00     0.004 C 
ENDBRANCH  30  31
ENDBRANCH  29  30
ENDBRANCH  28  29
ENDBRANCH  27  28
ENDBRANCH  26  27
ENDBRANCH  25  26
ENDBRANCH  24  25
ENDBRANCH  23  24
ENDBRANCH  22  23
ENDBRANCH  21  22
ENDBRANCH  20  21
ENDBRANCH  19  20
ENDBRANCH  18  19
ENDBRANCH   1  18
TORSDOF 28
ENDMDL
MODEL 5
REMARK VINA RESULT:    -4.257      1.247      5.299
REMARK INTER + INTRA:         -17.771
REMARK INTER:                 -11.237
REMARK INTRA:                  -6.534
REMARK UNBOUND:                -6.546
REMARK SMILES CCCCCCCCCCCCCCCCCCCCCCCCCCCCCC(=O)[O-]
REMARK SMILES IDX 16 1 17 2 18 3 19 4 20 5 21 6 22 7 23 8 24 9 25 10 26 11
REMARK SMILES IDX 27 12 28 13 29 14 30 15 31 16 32 17 15 18 14 19 13 20 12 21
REMARK SMILES IDX 11 22 10 23 9 24 8 25 7 26 6 27 5 28 4 29 3 30 2 31 1 32
REMARK H PARENT
REMARK Flexibility Score: inf
ROOT
ATOM      1  C   UNL     1      29.153  29.662  14.643  1.00  0.00     0.000 C 
ENDROOT
BRANCH   1   2
ATOM      2  C   UNL     1      30.153  29.659  13.473  1.00  0.00     0.000 C 
BRANCH   2   3
ATOM      3  C   UNL     1      30.272  31.036  12.785  1.00  0.00     0.000 C 
BRANCH   3   4
ATOM      4  C   UNL     1      30.066  30.996  11.259  1.00  0.00     0.000 C 
BRANCH   4   5
ATOM      5  C   UNL     1      28.798  30.261  10.785  1.00  0.00     0.000 C 
BRANCH   5   6
ATOM      6  C   UNL     1      29.046  28.937  10.032  1.00  0.00     0.000 C 
BRANCH   6   7
ATOM      7  C   UNL     1      28.764  27.659  10.842  1.00  0.00     0.000 C 
BRANCH   7   8
ATOM      8  C   UNL     1      29.979  26.719  10.919  1.00  0.00     0.000 C 
BRANCH   8   9
ATOM      9  C   UNL     1      29.841  25.676  12.040  1.00  0.00     0.000 C 
BRANCH   9  10
ATOM     10  C   UNL     1      30.660  26.037  13.293  1.00  0.00     0.000 C 
BRANCH  10  11
ATOM     11  C   UNL     1      30.899  24.828  14.211  1.00  0.00     0.000 C 
BRANCH  11  12
ATOM     12  C   UNL     1      30.459  25.083  15.661  1.00  0.00     0.000 C 
BRANCH  12  13
ATOM     13  C   UNL     1      29.494  26.272  15.738  1.00  0.00     0.006 C 
BRANCH  13  14
ATOM     14  C   UNL     1      28.058  25.801  15.982  1.00  0.00     0.053 C 
BRANCH  14  15
ATOM     15  C   UNL     1      27.265  25.856  14.715  1.00  0.00     0.041 C 
ATOM     16  O   UNL     1      26.954  26.968  14.210  1.00  0.00    -0.550 OA
ATOM     17  O   UNL     1      26.832  24.681  14.112  1.00  0.00    -0.550 OA
ENDBRANCH  14  15
ENDBRANCH  13  14
ENDBRANCH  12  13
ENDBRANCH  11  12
ENDBRANCH  10  11
ENDBRANCH   9  10
ENDBRANCH   8   9
ENDBRANCH   7   8
ENDBRANCH   6   7
ENDBRANCH   5   6
ENDBRANCH   4   5
ENDBRANCH   3   4
ENDBRANCH   2   3
ENDBRANCH   1   2
BRANCH   1  18
ATOM     18  C   UNL     1      29.405  30.800  15.648  1.00  0.00     0.000 C 
BRANCH  18  19
ATOM     19  C   UNL     1      30.090  30.371  16.960  1.00  0.00     0.000 C 
BRANCH  19  20
ATOM     20  C   UNL     1      31.329  31.200  17.354  1.00  0.00     0.000 C 
BRANCH  20  21
ATOM     21  C   UNL     1      31.784  32.236  16.308  1.00  0.00     0.000 C 
BRANCH  21  22
ATOM     22  C   UNL     1      32.859  31.745  15.322  1.00  0.00     0.000 C 
BRANCH  22  23
ATOM     23  C   UNL     1      33.609  30.498  15.819  1.00  0.00     0.000 C 
BRANCH  23  24
ATOM     24  C   UNL     1      33.379  29.271  14.920  1.00  0.00    -0.000 C 
BRANCH  24  25
ATOM     25  C   UNL     1      32.721  28.061  15.615  1.00  0.00    -0.000 C 
BRANCH  25  26
ATOM     26  C   UNL     1      33.670  26.887  15.916  1.00  0.00    -0.000 C 
BRANCH  26  27
ATOM     27  C   UNL     1      34.865  26.830  14.948  1.00  0.00    -0.000 C 
BRANCH  27  28
ATOM     28  C   UNL     1      34.714  25.730  13.885  1.00  0.00    -0.000 C 
BRANCH  28  29
ATOM     29  C   UNL     1      34.404  26.298  12.492  1.00  0.00    -0.000 C 
BRANCH  29  30
ATOM     30  C   UNL     1      35.238  27.554  12.216  1.00  0.00    -0.000 C 
BRANCH  30  31
ATOM     31  C   UNL     1      34.562  28.450  11.173  1.00  0.00    -0.003 C 
ATOM     32  C   UNL     1      33.066  28.579  11.449  1.00  0.00     0.004 C 
ENDBRANCH  30  31
ENDBRANCH  29  30
ENDBRANCH  28  29
ENDBRANCH  27  28
ENDBRANCH  26  27
ENDBRANCH  25  26
ENDBRANCH  24  25
ENDBRANCH  23  24
ENDBRANCH  22  23
ENDBRANCH  21  22
ENDBRANCH  20  21
ENDBRANCH  19  20
ENDBRANCH  18  19
ENDBRANCH   1  18
TORSDOF 28
ENDMDL
MODEL 6
REMARK VINA RESULT:    -4.256      1.334      3.888
REMARK INTER + INTRA:         -17.767
REMARK INTER:                 -11.288
REMARK INTRA:                  -6.479
REMARK UNBOUND:                -6.546
REMARK SMILES CCCCCCCCCCCCCCCCCCCCCCCCCCCCCC(=O)[O-]
REMARK SMILES IDX 16 1 17 2 18 3 19 4 20 5 21 6 22 7 23 8 24 9 25 10 26 11
REMARK SMILES IDX 27 12 28 13 29 14 30 15 31 16 32 17 15 18 14 19 13 20 12 21
REMARK SMILES IDX 11 22 10 23 9 24 8 25 7 26 6 27 5 28 4 29 3 30 2 31 1 32
REMARK H PARENT
REMARK Flexibility Score: inf
ROOT
ATOM      1  C   UNL     1      30.228  30.480  17.024  1.00  0.00     0.000 C 
ENDROOT
BRANCH   1   2
ATOM      2  C   UNL     1      31.463  31.364  17.277  1.00  0.00     0.000 C 
BRANCH   2   3
ATOM      3  C   UNL     1      31.881  32.175  16.031  1.00  0.00     0.000 C 
BRANCH   3   4
ATOM      4  C   UNL     1      32.890  31.451  15.119  1.00  0.00     0.000 C 
BRANCH   4   5
ATOM      5  C   UNL     1      33.622  30.258  15.764  1.00  0.00     0.000 C 
BRANCH   5   6
ATOM      6  C   UNL     1      33.433  28.904  15.048  1.00  0.00     0.000 C 
BRANCH   6   7
ATOM      7  C   UNL     1      32.373  27.977  15.667  1.00  0.00     0.000 C 
BRANCH   7   8
ATOM      8  C   UNL     1      32.627  26.491  15.365  1.00  0.00     0.000 C 
BRANCH   8   9
ATOM      9  C   UNL     1      31.325  25.675  15.304  1.00  0.00     0.000 C 
BRANCH   9  10
ATOM     10  C   UNL     1      30.074  26.531  15.573  1.00  0.00     0.000 C 
BRANCH  10  11
ATOM     11  C   UNL     1      28.905  25.706  16.136  1.00  0.00     0.000 C 
BRANCH  11  12
ATOM     12  C   UNL     1      27.589  25.943  15.378  1.00  0.00     0.000 C 
BRANCH  12  13
ATOM     13  C   UNL     1      27.860  26.457  13.959  1.00  0.00     0.006 C 
BRANCH  13  14
ATOM     14  C   UNL     1      26.708  27.334  13.462  1.00  0.00     0.053 C 
BRANCH  14  15
ATOM     15  C   UNL     1      26.867  27.635  12.005  1.00  0.00     0.041 C 
ATOM     16  O   UNL     1      27.266  28.771  11.633  1.00  0.00    -0.550 OA
ATOM     17  O   UNL     1      26.536  26.677  11.055  1.00  0.00    -0.550 OA
ENDBRANCH  14  15
ENDBRANCH  13  14
ENDBRANCH  12  13
ENDBRANCH  11  12
ENDBRANCH  10  11
ENDBRANCH   9  10
ENDBRANCH   8   9
ENDBRANCH   7   8
ENDBRANCH   6   7
ENDBRANCH   5   6
ENDBRANCH   4   5
ENDBRANCH   3   4
ENDBRANCH   2   3
ENDBRANCH   1   2
BRANCH   1  18
ATOM     18  C   UNL     1      29.413  30.922  15.797  1.00  0.00     0.000 C 
BRANCH  18  19
ATOM     19  C   UNL     1      29.144  29.814  14.759  1.00  0.00     0.000 C 
BRANCH  19  20
ATOM     20  C   UNL     1      30.063  29.839  13.522  1.00  0.00     0.000 C 
BRANCH  20  21
ATOM     21  C   UNL     1      29.846  31.028  12.567  1.00  0.00     0.000 C 
BRANCH  21  22
ATOM     22  C   UNL     1      30.642  30.970  11.252  1.00  0.00     0.000 C 
BRANCH  22  23
ATOM     23  C   UNL     1      32.134  30.666  11.464  1.00  0.00     0.000 C 
BRANCH  23  24
ATOM     24  C   UNL     1      32.922  30.617  10.142  1.00  0.00    -0.000 C 
BRANCH  24  25
ATOM     25  C   UNL     1      34.079  29.598  10.103  1.00  0.00    -0.000 C 
BRANCH  25  26
ATOM     26  C   UNL     1      34.061  28.636   8.901  1.00  0.00    -0.000 C 
BRANCH  26  27
ATOM     27  C   UNL     1      33.869  27.169   9.323  1.00  0.00    -0.000 C 
BRANCH  27  28
ATOM     28  C   UNL     1      34.129  26.945  10.822  1.00  0.00    -0.000 C 
BRANCH  28  29
ATOM     29  C   UNL     1      32.967  26.218  11.517  1.00  0.00    -0.000 C 
BRANCH  29  30
ATOM     30  C   UNL     1      31.886  27.212  11.957  1.00  0.00    -0.000 C 
BRANCH  30  31
ATOM     31  C   UNL     1      30.509  26.804  11.422  1.00  0.00    -0.003 C 
ATOM     32  C   UNL     1      30.212  27.491  10.092  1.00  0.00     0.004 C 
ENDBRANCH  30  31
ENDBRANCH  29  30
ENDBRANCH  28  29
ENDBRANCH  27  28
ENDBRANCH  26  27
ENDBRANCH  25  26
ENDBRANCH  24  25
ENDBRANCH  23  24
ENDBRANCH  22  23
ENDBRANCH  21  22
ENDBRANCH  20  21
ENDBRANCH  19  20
ENDBRANCH  18  19
ENDBRANCH   1  18
TORSDOF 28
ENDMDL
MODEL 7
REMARK VINA RESULT:    -4.229      1.230      5.120
REMARK INTER + INTRA:         -17.698
REMARK INTER:                 -11.875
REMARK INTRA:                  -5.823
REMARK UNBOUND:                -6.546
REMARK SMILES CCCCCCCCCCCCCCCCCCCCCCCCCCCCCC(=O)[O-]
REMARK SMILES IDX 16 1 17 2 18 3 19 4 20 5 21 6 22 7 23 8 24 9 25 10 26 11
REMARK SMILES IDX 27 12 28 13 29 14 30 15 31 16 32 17 15 18 14 19 13 20 12 21
REMARK SMILES IDX 11 22 10 23 9 24 8 25 7 26 6 27 5 28 4 29 3 30 2 31 1 32
REMARK H PARENT
REMARK Flexibility Score: inf
ROOT
ATOM      1  C   UNL     1      32.687  27.803  15.438  1.00  0.00     0.000 C 
ENDROOT
BRANCH   1   2
ATOM      2  C   UNL     1      33.923  26.926  15.707  1.00  0.00     0.000 C 
BRANCH   2   3
ATOM      3  C   UNL     1      33.898  25.601  14.916  1.00  0.00     0.000 C 
BRANCH   3   4
ATOM      4  C   UNL     1      34.939  25.525  13.782  1.00  0.00     0.000 C 
BRANCH   4   5
ATOM      5  C   UNL     1      35.535  26.877  13.345  1.00  0.00     0.000 C 
BRANCH   5   6
ATOM      6  C   UNL     1      34.898  27.501  12.085  1.00  0.00     0.000 C 
BRANCH   6   7
ATOM      7  C   UNL     1      34.339  26.494  11.065  1.00  0.00     0.000 C 
BRANCH   7   8
ATOM      8  C   UNL     1      32.856  26.733  10.737  1.00  0.00     0.000 C 
BRANCH   8   9
ATOM      9  C   UNL     1      31.969  26.720  11.993  1.00  0.00     0.000 C 
BRANCH   9  10
ATOM     10  C   UNL     1      31.304  25.353  12.237  1.00  0.00     0.000 C 
BRANCH  10  11
ATOM     11  C   UNL     1      29.892  25.482  12.832  1.00  0.00     0.000 C 
BRANCH  11  12
ATOM     12  C   UNL     1      29.688  26.793  13.606  1.00  0.00     0.000 C 
BRANCH  12  13
ATOM     13  C   UNL     1      28.543  26.659  14.617  1.00  0.00     0.006 C 
BRANCH  13  14
ATOM     14  C   UNL     1      27.283  27.371  14.118  1.00  0.00     0.053 C 
BRANCH  14  15
ATOM     15  C   UNL     1      26.422  26.430  13.336  1.00  0.00     0.041 C 
ATOM     16  O   UNL     1      26.185  26.652  12.119  1.00  0.00    -0.550 OA
ATOM     17  O   UNL     1      25.847  25.330  13.960  1.00  0.00    -0.550 OA
ENDBRANCH  14  15
ENDBRANCH  13  14
ENDBRANCH  12  13
ENDBRANCH  11  12
ENDBRANCH  10  11
ENDBRANCH   9  10
ENDBRANCH   8   9
ENDBRANCH   7   8
ENDBRANCH   6   7
ENDBRANCH   5   6
ENDBRANCH   4   5
ENDBRANCH   3   4
ENDBRANCH   2   3
ENDBRANCH   1   2
BRANCH   1  18
ATOM     18  C   UNL     1      33.033  29.143  14.766  1.00  0.00     0.000 C 
BRANCH  18  19
ATOM     19  C   UNL     1      33.468  30.263  15.731  1.00  0.00     0.000 C 
BRANCH  19  20
ATOM     20  C   UNL     1      32.893  31.658  15.417  1.00  0.00     0.000 C 
BRANCH  20  21
ATOM     21  C   UNL     1      31.765  32.129  16.355  1.00  0.00     0.000 C 
BRANCH  21  22
ATOM     22  C   UNL     1      31.157  31.036  17.252  1.00  0.00     0.000 C 
BRANCH  22  23
ATOM     23  C   UNL     1      30.007  30.272  16.575  1.00  0.00     0.000 C 
BRANCH  23  24
ATOM     24  C   UNL     1      29.395  31.048  15.394  1.00  0.00    -0.000 C 
BRANCH  24  25
ATOM     25  C   UNL     1      29.454  30.327  14.032  1.00  0.00    -0.000 C 
BRANCH  25  26
ATOM     26  C   UNL     1      30.156  31.111  12.908  1.00  0.00    -0.000 C 
BRANCH  26  27
ATOM     27  C   UNL     1      30.792  30.189  11.853  1.00  0.00    -0.000 C 
BRANCH  27  28
ATOM     28  C   UNL     1      32.205  30.639  11.448  1.00  0.00    -0.000 C 
BRANCH  28  29
ATOM     29  C   UNL     1      32.518  30.336   9.975  1.00  0.00    -0.000 C 
BRANCH  29  30
ATOM     30  C   UNL     1      34.032  30.268   9.741  1.00  0.00    -0.000 C 
BRANCH  30  31
ATOM     31  C   UNL     1      34.593  31.638   9.350  1.00  0.00    -0.003 C 
ATOM     32  C   UNL     1      34.027  32.101   8.010  1.00  0.00     0.004 C 
ENDBRANCH  30  31
ENDBRANCH  29  30
ENDBRANCH  28  29
ENDBRANCH  27  28
ENDBRANCH  26  27
ENDBRANCH  25  26
ENDBRANCH  24  25
ENDBRANCH  23  24
ENDBRANCH  22  23
ENDBRANCH  21  22
ENDBRANCH  20  21
ENDBRANCH  19  20
ENDBRANCH  18  19
ENDBRANCH   1  18
TORSDOF 28
ENDMDL
MODEL 8
REMARK VINA RESULT:    -4.229      2.401      4.932
REMARK INTER + INTRA:         -17.698
REMARK INTER:                 -11.047
REMARK INTRA:                  -6.651
REMARK UNBOUND:                -6.546
REMARK SMILES CCCCCCCCCCCCCCCCCCCCCCCCCCCCCC(=O)[O-]
REMARK SMILES IDX 16 1 17 2 18 3 19 4 20 5 21 6 22 7 23 8 24 9 25 10 26 11
REMARK SMILES IDX 27 12 28 13 29 14 30 15 31 16 32 17 15 18 14 19 13 20 12 21
REMARK SMILES IDX 11 22 10 23 9 24 8 25 7 26 6 27 5 28 4 29 3 30 2 31 1 32
REMARK H PARENT
REMARK Flexibility Score: inf
ROOT
ATOM      1  C   UNL     1      34.736  27.639  12.741  1.00  0.00     0.000 C 
ENDROOT
BRANCH   1   2
ATOM      2  C   UNL     1      34.928  26.851  14.049  1.00  0.00     0.000 C 
BRANCH   2   3
ATOM      3  C   UNL     1      34.405  27.612  15.286  1.00  0.00     0.000 C 
BRANCH   3   4
ATOM      4  C   UNL     1      33.727  28.956  14.957  1.00  0.00     0.000 C 
BRANCH   4   5
ATOM      5  C   UNL     1      33.274  29.780  16.177  1.00  0.00     0.000 C 
BRANCH   5   6
ATOM      6  C   UNL     1      32.874  31.240  15.874  1.00  0.00     0.000 C 
BRANCH   6   7
ATOM      7  C   UNL     1      31.628  31.747  16.619  1.00  0.00     0.000 C 
BRANCH   7   8
ATOM      8  C   UNL     1      30.572  30.650  16.838  1.00  0.00     0.000 C 
BRANCH   8   9
ATOM      9  C   UNL     1      29.570  30.562  15.675  1.00  0.00     0.000 C 
BRANCH   9  10
ATOM     10  C   UNL     1      29.792  31.656  14.614  1.00  0.00     0.000 C 
BRANCH  10  11
ATOM     11  C   UNL     1      29.781  31.100  13.182  1.00  0.00     0.000 C 
BRANCH  11  12
ATOM     12  C   UNL     1      30.799  29.967  12.974  1.00  0.00     0.000 C 
BRANCH  12  13
ATOM     13  C   UNL     1      31.961  30.432  12.088  1.00  0.00     0.006 C 
BRANCH  13  14
ATOM     14  C   UNL     1      32.018  29.627  10.787  1.00  0.00     0.053 C 
BRANCH  14  15
ATOM     15  C   UNL     1      32.415  30.505   9.643  1.00  0.00     0.041 C 
ATOM     16  O   UNL     1      31.675  30.594   8.627  1.00  0.00    -0.550 OA
ATOM     17  O   UNL     1      33.621  31.193   9.678  1.00  0.00    -0.550 OA
ENDBRANCH  14  15
ENDBRANCH  13  14
ENDBRANCH  12  13
ENDBRANCH  11  12
ENDBRANCH  10  11
ENDBRANCH   9  10
ENDBRANCH   8   9
ENDBRANCH   7   8
ENDBRANCH   6   7
ENDBRANCH   5   6
ENDBRANCH   4   5
ENDBRANCH   3   4
ENDBRANCH   2   3
ENDBRANCH   1   2
BRANCH   1  18
ATOM     18  C   UNL     1      34.183  26.777  11.593  1.00  0.00     0.000 C 
BRANCH  18  19
ATOM     19  C   UNL     1      33.384  25.536  12.037  1.00  0.00     0.000 C 
BRANCH  19  20
ATOM     20  C   UNL     1      31.861  25.622  11.815  1.00  0.00     0.000 C 
BRANCH  20  21
ATOM     21  C   UNL     1      31.094  26.462  12.855  1.00  0.00     0.000 C 
BRANCH  21  22
ATOM     22  C   UNL     1      30.921  25.802  14.234  1.00  0.00     0.000 C 
BRANCH  22  23
ATOM     23  C   UNL     1      30.903  26.816  15.389  1.00  0.00     0.000 C 
BRANCH  23  24
ATOM     24  C   UNL     1      29.544  26.867  16.110  1.00  0.00    -0.000 C 
BRANCH  24  25
ATOM     25  C   UNL     1      28.519  25.807  15.658  1.00  0.00    -0.000 C 
BRANCH  25  26
ATOM     26  C   UNL     1      27.239  26.370  15.013  1.00  0.00    -0.000 C 
BRANCH  26  27
ATOM     27  C   UNL     1      27.458  26.812  13.556  1.00  0.00    -0.000 C 
BRANCH  27  28
ATOM     28  C   UNL     1      27.371  28.337  13.380  1.00  0.00    -0.000 C 
BRANCH  28  29
ATOM     29  C   UNL     1      27.288  28.755  11.904  1.00  0.00    -0.000 C 
BRANCH  29  30
ATOM     30  C   UNL     1      28.249  27.922  11.046  1.00  0.00    -0.000 C 
BRANCH  30  31
ATOM     31  C   UNL     1      28.692  28.698   9.802  1.00  0.00    -0.003 C 
ATOM     32  C   UNL     1      28.343  30.179   9.924  1.00  0.00     0.004 C 
ENDBRANCH  30  31
ENDBRANCH  29  30
ENDBRANCH  28  29
ENDBRANCH  27  28
ENDBRANCH  26  27
ENDBRANCH  25  26
ENDBRANCH  24  25
ENDBRANCH  23  24
ENDBRANCH  22  23
ENDBRANCH  21  22
ENDBRANCH  20  21
ENDBRANCH  19  20
ENDBRANCH  18  19
ENDBRANCH   1  18
TORSDOF 28
ENDMDL
MODEL 9
REMARK VINA RESULT:    -4.229      2.545      5.312
REMARK INTER + INTRA:         -17.696
REMARK INTER:                 -11.077
REMARK INTRA:                  -6.620
REMARK UNBOUND:                -6.546
REMARK SMILES CCCCCCCCCCCCCCCCCCCCCCCCCCCCCC(=O)[O-]
REMARK SMILES IDX 16 1 17 2 18 3 19 4 20 5 21 6 22 7 23 8 24 9 25 10 26 11
REMARK SMILES IDX 27 12 28 13 29 14 30 15 31 16 32 17 15 18 14 19 13 20 12 21
REMARK SMILES IDX 11 22 10 23 9 24 8 25 7 26 6 27 5 28 4 29 3 30 2 31 1 32
REMARK H PARENT
REMARK Flexibility Score: inf
ROOT
ATOM      1  C   UNL     1      32.904  31.521  15.541  1.00  0.00     0.000 C 
ENDROOT
BRANCH   1   2
ATOM      2  C   UNL     1      31.769  32.066  16.426  1.00  0.00     0.000 C 
BRANCH   2   3
ATOM      3  C   UNL     1      31.166  30.989  17.353  1.00  0.00     0.000 C 
BRANCH   3   4
ATOM      4  C   UNL     1      29.972  30.231  16.742  1.00  0.00     0.000 C 
BRANCH   4   5
ATOM      5  C   UNL     1      29.212  30.984  15.633  1.00  0.00     0.000 C 
BRANCH   5   6
ATOM      6  C   UNL     1      29.284  30.340  14.232  1.00  0.00     0.000 C 
BRANCH   6   7
ATOM      7  C   UNL     1      30.048  31.154  13.174  1.00  0.00     0.000 C 
BRANCH   7   8
ATOM      8  C   UNL     1      29.534  30.911  11.745  1.00  0.00     0.000 C 
BRANCH   8   9
ATOM      9  C   UNL     1      30.676  30.647  10.749  1.00  0.00     0.000 C 
BRANCH   9  10
ATOM     10  C   UNL     1      32.060  30.630  11.423  1.00  0.00     0.000 C 
BRANCH  10  11
ATOM     11  C   UNL     1      33.207  30.479  10.411  1.00  0.00     0.000 C 
BRANCH  11  12
ATOM     12  C   UNL     1      33.078  29.215   9.547  1.00  0.00     0.000 C 
BRANCH  12  13
ATOM     13  C   UNL     1      34.283  28.288   9.750  1.00  0.00     0.006 C 
BRANCH  13  14
ATOM     14  C   UNL     1      34.880  28.460  11.149  1.00  0.00     0.053 C 
BRANCH  14  15
ATOM     15  C   UNL     1      35.245  27.131  11.731  1.00  0.00     0.041 C 
ATOM     16  O   UNL     1      35.611  27.045  12.934  1.00  0.00    -0.550 OA
ATOM     17  O   UNL     1      35.221  25.991  10.937  1.00  0.00    -0.550 OA
ENDBRANCH  14  15
ENDBRANCH  13  14
ENDBRANCH  12  13
ENDBRANCH  11  12
ENDBRANCH  10  11
ENDBRANCH   9  10
ENDBRANCH   8   9
ENDBRANCH   7   8
ENDBRANCH   6   7
ENDBRANCH   5   6
ENDBRANCH   4   5
ENDBRANCH   3   4
ENDBRANCH   2   3
ENDBRANCH   1   2
BRANCH   1  18
ATOM     18  C   UNL     1      33.364  30.111  15.952  1.00  0.00     0.000 C 
BRANCH  18  19
ATOM     19  C   UNL     1      33.594  29.134  14.783  1.00  0.00     0.000 C 
BRANCH  19  20
ATOM     20  C   UNL     1      32.338  28.381  14.301  1.00  0.00     0.000 C 
BRANCH  20  21
ATOM     21  C   UNL     1      31.702  27.435  15.339  1.00  0.00     0.000 C 
BRANCH  21  22
ATOM     22  C   UNL     1      32.324  26.030  15.416  1.00  0.00     0.000 C 
BRANCH  22  23
ATOM     23  C   UNL     1      31.678  25.031  14.443  1.00  0.00     0.000 C 
BRANCH  23  24
ATOM     24  C   UNL     1      32.489  24.859  13.146  1.00  0.00    -0.000 C 
BRANCH  24  25
ATOM     25  C   UNL     1      31.681  25.005  11.840  1.00  0.00    -0.000 C 
BRANCH  25  26
ATOM     26  C   UNL     1      31.492  26.452  11.349  1.00  0.00    -0.000 C 
BRANCH  26  27
ATOM     27  C   UNL     1      30.014  26.802  11.098  1.00  0.00    -0.000 C 
BRANCH  27  28
ATOM     28  C   UNL     1      29.324  27.381  12.344  1.00  0.00    -0.000 C 
BRANCH  28  29
ATOM     29  C   UNL     1      28.452  26.344  13.068  1.00  0.00    -0.000 C 
BRANCH  29  30
ATOM     30  C   UNL     1      28.275  26.714  14.545  1.00  0.00    -0.000 C 
BRANCH  30  31
ATOM     31  C   UNL     1      27.902  25.487  15.383  1.00  0.00    -0.003 C 
ATOM     32  C   UNL     1      28.679  25.462  16.696  1.00  0.00     0.004 C 
ENDBRANCH  30  31
ENDBRANCH  29  30
ENDBRANCH  28  29
ENDBRANCH  27  28
ENDBRANCH  26  27
ENDBRANCH  25  26
ENDBRANCH  24  25
ENDBRANCH  23  24
ENDBRANCH  22  23
ENDBRANCH  21  22
ENDBRANCH  20  21
ENDBRANCH  19  20
ENDBRANCH  18  19
ENDBRANCH   1  18
TORSDOF 28
ENDMDL
