MODEL 1
REMARK VINA RESULT:    -6.560      0.000      0.000
REMARK INTER + INTRA:          -7.005
REMARK INTER:                  -7.136
REMARK INTRA:                   0.131
REMARK UNBOUND:                 0.131
REMARK SMILES C[C@H]1[C@H](C)CC[C@@]2(C(=O)[O-])CC[C@]3(C)C(=CC[C@@H]4[C@@]5(C)CC[C@H](O)C(C)(C)[C@H]5CC[C@@]43C)[C@@H]12
REMARK SMILES IDX 7 1 6 2 11 3 33 4 5 5 12 6 15 7 2 8 3 9 13 10 16 11 1 12
REMARK SMILES IDX 4 13 14 14 31 15 17 16 18 17 30 18 32 19 19 20 29 21 28 22
REMARK SMILES IDX 21 23 20 24 25 25 22 26 23 27 26 28 27 29 8 30 9 31 10 32
REMARK SMILES IDX 24 33
REMARK H PARENT 24 34
REMARK Flexibility Score: inf
ROOT
ATOM      1  C   UNL     1      14.927  24.881  40.743  1.00  0.00     0.017 C 
ATOM      2  C   UNL     1      16.165  24.028  40.345  1.00  0.00     0.014 C 
ATOM      3  C   UNL     1      13.668  23.952  40.862  1.00  0.00     0.014 C 
ATOM      4  C   UNL     1      15.258  25.635  42.086  1.00  0.00     0.030 C 
ATOM      5  C   UNL     1      17.413  24.893  40.119  1.00  0.00     0.004 C 
ATOM      6  C   UNL     1      13.526  23.163  42.185  1.00  0.00     0.013 C 
ATOM      7  C   UNL     1      15.098  24.665  43.275  1.00  0.00    -0.063 C 
ATOM      8  C   UNL     1      16.584  26.472  41.968  1.00  0.00    -0.003 C 
ATOM      9  C   UNL     1      17.805  25.696  41.371  1.00  0.00    -0.011 C 
ATOM     10  C   UNL     1      13.712  24.033  43.461  1.00  0.00    -0.006 C 
ATOM     11  C   UNL     1      16.163  24.055  43.836  1.00  0.00    -0.027 C 
ATOM     12  C   UNL     1      16.916  27.230  43.271  1.00  0.00     0.008 C 
ATOM     13  C   UNL     1      18.957  26.652  41.019  1.00  0.00     0.008 C 
ATOM     14  C   UNL     1      12.605  25.145  43.472  1.00  0.00     0.017 C 
ATOM     15  C   UNL     1      13.653  23.221  44.861  1.00  0.00    -0.020 C 
ATOM     16  C   UNL     1      16.127  22.617  44.267  1.00  0.00     0.032 C 
ATOM     17  C   UNL     1      14.857  22.197  45.054  1.00  0.00     0.006 C 
ATOM     18  C   UNL     1      12.295  22.476  45.055  1.00  0.00     0.008 C 
ATOM     19  C   UNL     1      13.755  24.275  46.030  1.00  0.00     0.012 C 
ATOM     20  C   UNL     1      14.522  20.628  44.999  1.00  0.00    -0.025 C 
ATOM     21  C   UNL     1      12.354  21.476  46.207  1.00  0.00     0.005 C 
ATOM     22  C   UNL     1      13.263  20.248  45.922  1.00  0.00     0.003 C 
ATOM     23  C   UNL     1      15.800  19.826  45.423  1.00  0.00     0.010 C 
ATOM     24  C   UNL     1      14.208  20.139  43.556  1.00  0.00     0.012 C 
ATOM     25  C   UNL     1      13.599  19.426  47.245  1.00  0.00    -0.006 C 
ATOM     26  C   UNL     1      16.136  19.856  46.921  1.00  0.00     0.033 C 
ATOM     27  C   UNL     1      14.922  19.966  47.861  1.00  0.00     0.120 C 
ATOM     28  C   UNL     1      12.474  19.549  48.319  1.00  0.00     0.014 C 
ATOM     29  C   UNL     1      13.681  17.902  46.942  1.00  0.00     0.014 C 
ENDROOT
BRANCH   1  30
ATOM     30  C   UNL     1      14.608  25.866  39.621  1.00  0.00     0.048 C 
ATOM     31  O   UNL     1      13.747  26.773  39.782  1.00  0.00    -0.550 OA
ATOM     32  O   UNL     1      15.172  25.700  38.361  1.00  0.00    -0.550 OA
ENDBRANCH   1  30
BRANCH  27  33
ATOM     33  O   UNL     1      15.228  19.300  49.064  1.00  0.00    -0.393 OA
ATOM     34  H   UNL     1      14.822  18.395  49.016  1.00  0.00     0.210 HD
ENDBRANCH  27  33
TORSDOF 2
ENDMDL
MODEL 2
REMARK VINA RESULT:    -6.026      1.923      3.387
REMARK INTER + INTRA:          -6.423
REMARK INTER:                  -6.689
REMARK INTRA:                   0.266
REMARK UNBOUND:                 0.131
REMARK SMILES C[C@H]1[C@H](C)CC[C@@]2(C(=O)[O-])CC[C@]3(C)C(=CC[C@@H]4[C@@]5(C)CC[C@H](O)C(C)(C)[C@H]5CC[C@@]43C)[C@@H]12
REMARK SMILES IDX 7 1 6 2 11 3 33 4 5 5 12 6 15 7 2 8 3 9 13 10 16 11 1 12
REMARK SMILES IDX 4 13 14 14 31 15 17 16 18 17 30 18 32 19 19 20 29 21 28 22
REMARK SMILES IDX 21 23 20 24 25 25 22 26 23 27 26 28 27 29 8 30 9 31 10 32
REMARK SMILES IDX 24 33
REMARK H PARENT 24 34
REMARK Flexibility Score: inf
ROOT
ATOM      1  C   UNL     1      16.660  25.211  38.484  1.00  0.00     0.017 C 
ATOM      2  C   UNL     1      16.659  23.761  37.923  1.00  0.00     0.014 C 
ATOM      3  C   UNL     1      15.255  25.534  39.104  1.00  0.00     0.014 C 
ATOM      4  C   UNL     1      17.831  25.334  39.531  1.00  0.00     0.030 C 
ATOM      5  C   UNL     1      17.977  23.414  37.216  1.00  0.00     0.004 C 
ATOM      6  C   UNL     1      15.002  24.999  40.534  1.00  0.00     0.013 C 
ATOM      7  C   UNL     1      17.393  24.708  40.871  1.00  0.00    -0.063 C 
ATOM      8  C   UNL     1      19.209  24.902  38.910  1.00  0.00    -0.003 C 
ATOM      9  C   UNL     1      19.193  23.534  38.151  1.00  0.00    -0.011 C 
ATOM     10  C   UNL     1      16.150  25.313  41.536  1.00  0.00    -0.006 C 
ATOM     11  C   UNL     1      17.764  23.458  41.220  1.00  0.00    -0.027 C 
ATOM     12  C   UNL     1      20.372  25.030  39.918  1.00  0.00     0.008 C 
ATOM     13  C   UNL     1      20.481  23.331  37.335  1.00  0.00     0.008 C 
ATOM     14  C   UNL     1      16.299  26.871  41.650  1.00  0.00     0.017 C 
ATOM     15  C   UNL     1      15.955  24.695  43.021  1.00  0.00    -0.020 C 
ATOM     16  C   UNL     1      16.823  22.502  41.893  1.00  0.00     0.032 C 
ATOM     17  C   UNL     1      15.992  23.104  43.057  1.00  0.00     0.006 C 
ATOM     18  C   UNL     1      14.649  25.205  43.706  1.00  0.00     0.008 C 
ATOM     19  C   UNL     1      17.154  25.204  43.912  1.00  0.00     0.012 C 
ATOM     20  C   UNL     1      14.621  22.330  43.375  1.00  0.00    -0.025 C 
ATOM     21  C   UNL     1      14.309  24.398  44.957  1.00  0.00     0.005 C 
ATOM     22  C   UNL     1      13.870  22.938  44.657  1.00  0.00     0.003 C 
ATOM     23  C   UNL     1      14.938  20.808  43.570  1.00  0.00     0.010 C 
ATOM     24  C   UNL     1      13.624  22.377  42.182  1.00  0.00     0.012 C 
ATOM     25  C   UNL     1      13.882  22.025  45.963  1.00  0.00    -0.006 C 
ATOM     26  C   UNL     1      15.630  20.438  44.890  1.00  0.00     0.033 C 
ATOM     27  C   UNL     1      15.270  21.332  46.090  1.00  0.00     0.120 C 
ATOM     28  C   UNL     1      13.627  22.849  47.263  1.00  0.00     0.014 C 
ATOM     29  C   UNL     1      12.720  20.991  45.924  1.00  0.00     0.014 C 
ENDROOT
BRANCH   1  30
ATOM     30  C   UNL     1      16.840  26.200  37.336  1.00  0.00     0.048 C 
ATOM     31  O   UNL     1      15.921  26.388  36.493  1.00  0.00    -0.550 OA
ATOM     32  O   UNL     1      18.069  26.817  37.129  1.00  0.00    -0.550 OA
ENDBRANCH   1  30
BRANCH  27  33
ATOM     33  O   UNL     1      15.341  20.555  47.262  1.00  0.00    -0.393 OA
ATOM     34  H   UNL     1      15.894  21.053  47.919  1.00  0.00     0.210 HD
ENDBRANCH  27  33
TORSDOF 2
ENDMDL
MODEL 3
REMARK VINA RESULT:    -5.570      7.962     10.249
REMARK INTER + INTRA:          -5.928
REMARK INTER:                  -5.906
REMARK INTRA:                  -0.023
REMARK UNBOUND:                 0.131
REMARK SMILES C[C@H]1[C@H](C)CC[C@@]2(C(=O)[O-])CC[C@]3(C)C(=CC[C@@H]4[C@@]5(C)CC[C@H](O)C(C)(C)[C@H]5CC[C@@]43C)[C@@H]12
REMARK SMILES IDX 7 1 6 2 11 3 33 4 5 5 12 6 15 7 2 8 3 9 13 10 16 11 1 12
REMARK SMILES IDX 4 13 14 14 31 15 17 16 18 17 30 18 32 19 19 20 29 21 28 22
REMARK SMILES IDX 21 23 20 24 25 25 22 26 23 27 26 28 27 29 8 30 9 31 10 32
REMARK SMILES IDX 24 33
REMARK H PARENT 24 34
REMARK Flexibility Score: inf
ROOT
ATOM      1  C   UNL     1      15.079  28.004  53.249  1.00  0.00     0.017 C 
ATOM      2  C   UNL     1      13.555  27.731  53.116  1.00  0.00     0.014 C 
ATOM      3  C   UNL     1      15.620  27.330  54.559  1.00  0.00     0.014 C 
ATOM      4  C   UNL     1      15.792  27.470  51.949  1.00  0.00     0.030 C 
ATOM      5  C   UNL     1      12.944  28.445  51.902  1.00  0.00     0.004 C 
ATOM      6  C   UNL     1      15.918  25.813  54.472  1.00  0.00     0.013 C 
ATOM      7  C   UNL     1      15.957  25.939  52.043  1.00  0.00    -0.063 C 
ATOM      8  C   UNL     1      15.158  28.084  50.649  1.00  0.00    -0.003 C 
ATOM      9  C   UNL     1      13.596  28.011  50.577  1.00  0.00    -0.011 C 
ATOM     10  C   UNL     1      16.767  25.409  53.233  1.00  0.00    -0.006 C 
ATOM     11  C   UNL     1      15.102  25.099  51.423  1.00  0.00    -0.027 C 
ATOM     12  C   UNL     1      15.854  27.583  49.365  1.00  0.00     0.008 C 
ATOM     13  C   UNL     1      13.047  28.883  49.435  1.00  0.00     0.008 C 
ATOM     14  C   UNL     1      18.152  26.143  53.317  1.00  0.00     0.017 C 
ATOM     15  C   UNL     1      17.026  23.819  53.067  1.00  0.00    -0.020 C 
ATOM     16  C   UNL     1      14.610  23.837  52.068  1.00  0.00     0.032 C 
ATOM     17  C   UNL     1      15.701  22.987  52.771  1.00  0.00     0.006 C 
ATOM     18  C   UNL     1      17.764  23.208  54.300  1.00  0.00     0.008 C 
ATOM     19  C   UNL     1      17.983  23.616  51.829  1.00  0.00     0.012 C 
ATOM     20  C   UNL     1      15.155  22.012  53.924  1.00  0.00    -0.025 C 
ATOM     21  C   UNL     1      17.732  21.682  54.284  1.00  0.00     0.005 C 
ATOM     22  C   UNL     1      16.319  21.085  54.530  1.00  0.00     0.003 C 
ATOM     23  C   UNL     1      13.986  21.147  53.339  1.00  0.00     0.010 C 
ATOM     24  C   UNL     1      14.516  22.794  55.107  1.00  0.00     0.012 C 
ATOM     25  C   UNL     1      16.242  19.540  54.146  1.00  0.00    -0.006 C 
ATOM     26  C   UNL     1      14.407  20.025  52.379  1.00  0.00     0.033 C 
ATOM     27  C   UNL     1      15.785  19.403  52.664  1.00  0.00     0.120 C 
ATOM     28  C   UNL     1      17.619  18.823  54.300  1.00  0.00     0.014 C 
ATOM     29  C   UNL     1      15.295  18.776  55.117  1.00  0.00     0.014 C 
ENDROOT
BRANCH   1  30
ATOM     30  C   UNL     1      15.312  29.502  53.431  1.00  0.00     0.048 C 
ATOM     31  O   UNL     1      16.235  30.094  52.808  1.00  0.00    -0.550 OA
ATOM     32  O   UNL     1      14.589  30.213  54.383  1.00  0.00    -0.550 OA
ENDBRANCH   1  30
BRANCH  27  33
ATOM     33  O   UNL     1      15.755  18.051  52.268  1.00  0.00    -0.393 OA
ATOM     34  H   UNL     1      16.567  17.881  51.723  1.00  0.00     0.210 HD
ENDBRANCH  27  33
TORSDOF 2
ENDMDL
MODEL 4
REMARK VINA RESULT:    -5.117      2.043      8.127
REMARK INTER + INTRA:          -5.435
REMARK INTER:                  -5.395
REMARK INTRA:                  -0.040
REMARK UNBOUND:                 0.131
REMARK SMILES C[C@H]1[C@H](C)CC[C@@]2(C(=O)[O-])CC[C@]3(C)C(=CC[C@@H]4[C@@]5(C)CC[C@H](O)C(C)(C)[C@H]5CC[C@@]43C)[C@@H]12
REMARK SMILES IDX 7 1 6 2 11 3 33 4 5 5 12 6 15 7 2 8 3 9 13 10 16 11 1 12
REMARK SMILES IDX 4 13 14 14 31 15 17 16 18 17 30 18 32 19 19 20 29 21 28 22
REMARK SMILES IDX 21 23 20 24 25 25 22 26 23 27 26 28 27 29 8 30 9 31 10 32
REMARK SMILES IDX 24 33
REMARK H PARENT 24 34
REMARK Flexibility Score: inf
ROOT
ATOM      1  C   UNL     1      13.338  19.848  48.983  1.00  0.00     0.017 C 
ATOM      2  C   UNL     1      13.742  21.226  49.576  1.00  0.00     0.014 C 
ATOM      3  C   UNL     1      11.992  19.994  48.189  1.00  0.00     0.014 C 
ATOM      4  C   UNL     1      14.524  19.330  48.083  1.00  0.00     0.030 C 
ATOM      5  C   UNL     1      15.004  21.133  50.446  1.00  0.00     0.004 C 
ATOM      6  C   UNL     1      12.106  20.558  46.752  1.00  0.00     0.013 C 
ATOM      7  C   UNL     1      14.483  20.044  46.716  1.00  0.00    -0.063 C 
ATOM      8  C   UNL     1      15.880  19.296  48.877  1.00  0.00    -0.003 C 
ATOM      9  C   UNL     1      16.219  20.607  49.663  1.00  0.00    -0.011 C 
ATOM     10  C   UNL     1      13.202  19.869  45.890  1.00  0.00    -0.006 C 
ATOM     11  C   UNL     1      15.283  21.097  46.446  1.00  0.00    -0.027 C 
ATOM     12  C   UNL     1      17.051  18.778  48.015  1.00  0.00     0.008 C 
ATOM     13  C   UNL     1      17.392  20.389  50.635  1.00  0.00     0.008 C 
ATOM     14  C   UNL     1      12.846  18.347  45.756  1.00  0.00     0.017 C 
ATOM     15  C   UNL     1      13.404  20.493  44.409  1.00  0.00    -0.020 C 
ATOM     16  C   UNL     1      14.796  22.298  45.689  1.00  0.00     0.032 C 
ATOM     17  C   UNL     1      13.964  21.983  44.418  1.00  0.00     0.006 C 
ATOM     18  C   UNL     1      12.097  20.429  43.558  1.00  0.00     0.008 C 
ATOM     19  C   UNL     1      14.470  19.605  43.657  1.00  0.00     0.012 C 
ATOM     20  C   UNL     1      12.972  23.159  43.955  1.00  0.00    -0.025 C 
ATOM     21  C   UNL     1      12.197  21.282  42.295  1.00  0.00     0.005 C 
ATOM     22  C   UNL     1      12.227  22.810  42.576  1.00  0.00     0.003 C 
ATOM     23  C   UNL     1      13.791  24.489  43.838  1.00  0.00     0.010 C 
ATOM     24  C   UNL     1      11.876  23.460  45.017  1.00  0.00     0.012 C 
ATOM     25  C   UNL     1      12.698  23.647  41.305  1.00  0.00    -0.006 C 
ATOM     26  C   UNL     1      14.723  24.591  42.622  1.00  0.00     0.033 C 
ATOM     27  C   UNL     1      14.241  23.845  41.365  1.00  0.00     0.120 C 
ATOM     28  C   UNL     1      12.349  22.932  39.963  1.00  0.00     0.014 C 
ATOM     29  C   UNL     1      11.943  25.006  41.228  1.00  0.00     0.014 C 
ENDROOT
BRANCH   1  30
ATOM     30  C   UNL     1      13.042  18.873  50.119  1.00  0.00     0.048 C 
ATOM     31  O   UNL     1      13.288  17.642  49.998  1.00  0.00    -0.550 OA
ATOM     32  O   UNL     1      12.378  19.309  51.261  1.00  0.00    -0.550 OA
ENDBRANCH   1  30
BRANCH  27  33
ATOM     33  O   UNL     1      14.705  24.537  40.230  1.00  0.00    -0.393 OA
ATOM     34  H   UNL     1      15.596  24.915  40.453  1.00  0.00     0.210 HD
ENDBRANCH  27  33
TORSDOF 2
ENDMDL
MODEL 5
REMARK VINA RESULT:    -5.054      1.581      7.840
REMARK INTER + INTRA:          -5.367
REMARK INTER:                  -5.337
REMARK INTRA:                  -0.030
REMARK UNBOUND:                 0.131
REMARK SMILES C[C@H]1[C@H](C)CC[C@@]2(C(=O)[O-])CC[C@]3(C)C(=CC[C@@H]4[C@@]5(C)CC[C@H](O)C(C)(C)[C@H]5CC[C@@]43C)[C@@H]12
REMARK SMILES IDX 7 1 6 2 11 3 33 4 5 5 12 6 15 7 2 8 3 9 13 10 16 11 1 12
REMARK SMILES IDX 4 13 14 14 31 15 17 16 18 17 30 18 32 19 19 20 29 21 28 22
REMARK SMILES IDX 21 23 20 24 25 25 22 26 23 27 26 28 27 29 8 30 9 31 10 32
REMARK SMILES IDX 24 33
REMARK H PARENT 24 34
REMARK Flexibility Score: inf
ROOT
ATOM      1  C   UNL     1      13.496  20.927  47.800  1.00  0.00     0.017 C 
ATOM      2  C   UNL     1      14.842  21.323  48.470  1.00  0.00     0.014 C 
ATOM      3  C   UNL     1      12.714  22.224  47.387  1.00  0.00     0.014 C 
ATOM      4  C   UNL     1      13.811  19.989  46.574  1.00  0.00     0.030 C 
ATOM      5  C   UNL     1      15.613  20.099  48.984  1.00  0.00     0.004 C 
ATOM      6  C   UNL     1      13.155  22.893  46.063  1.00  0.00     0.013 C 
ATOM      7  C   UNL     1      14.271  20.844  45.375  1.00  0.00    -0.063 C 
ATOM      8  C   UNL     1      14.685  18.754  47.001  1.00  0.00    -0.003 C 
ATOM      9  C   UNL     1      15.946  19.102  47.861  1.00  0.00    -0.011 C 
ATOM     10  C   UNL     1      13.283  21.903  44.870  1.00  0.00    -0.006 C 
ATOM     11  C   UNL     1      15.578  20.989  45.074  1.00  0.00    -0.027 C 
ATOM     12  C   UNL     1      14.992  17.815  45.815  1.00  0.00     0.008 C 
ATOM     13  C   UNL     1      16.569  17.837  48.476  1.00  0.00     0.008 C 
ATOM     14  C   UNL     1      11.878  21.254  44.609  1.00  0.00     0.017 C 
ATOM     15  C   UNL     1      13.823  22.556  43.490  1.00  0.00    -0.020 C 
ATOM     16  C   UNL     1      16.158  22.303  44.638  1.00  0.00     0.032 C 
ATOM     17  C   UNL     1      15.327  23.071  43.576  1.00  0.00     0.006 C 
ATOM     18  C   UNL     1      12.902  23.709  42.982  1.00  0.00     0.008 C 
ATOM     19  C   UNL     1      13.784  21.433  42.382  1.00  0.00     0.012 C 
ATOM     20  C   UNL     1      15.579  24.656  43.543  1.00  0.00    -0.025 C 
ATOM     21  C   UNL     1      13.564  24.519  41.870  1.00  0.00     0.005 C 
ATOM     22  C   UNL     1      14.772  25.370  42.352  1.00  0.00     0.003 C 
ATOM     23  C   UNL     1      17.119  24.917  43.422  1.00  0.00     0.010 C 
ATOM     24  C   UNL     1      15.162  25.350  44.872  1.00  0.00     0.012 C 
ATOM     25  C   UNL     1      15.658  25.900  41.138  1.00  0.00    -0.006 C 
ATOM     26  C   UNL     1      17.734  24.638  42.044  1.00  0.00     0.033 C 
ATOM     27  C   UNL     1      16.795  24.878  40.849  1.00  0.00     0.120 C 
ATOM     28  C   UNL     1      14.823  26.085  39.833  1.00  0.00     0.014 C 
ATOM     29  C   UNL     1      16.220  27.319  41.444  1.00  0.00     0.014 C 
ENDROOT
BRANCH   1  30
ATOM     30  C   UNL     1      12.609  20.221  48.823  1.00  0.00     0.048 C 
ATOM     31  O   UNL     1      11.944  19.197  48.505  1.00  0.00    -0.550 OA
ATOM     32  O   UNL     1      12.424  20.769  50.087  1.00  0.00    -0.550 OA
ENDBRANCH   1  30
BRANCH  27  33
ATOM     33  O   UNL     1      17.571  25.285  39.746  1.00  0.00    -0.393 OA
ATOM     34  H   UNL     1      18.468  25.538  40.088  1.00  0.00     0.210 HD
ENDBRANCH  27  33
TORSDOF 2
ENDMDL
MODEL 6
REMARK VINA RESULT:    -4.963      2.212      7.680
REMARK INTER + INTRA:          -5.267
REMARK INTER:                  -5.985
REMARK INTRA:                   0.717
REMARK UNBOUND:                 0.131
REMARK SMILES C[C@H]1[C@H](C)CC[C@@]2(C(=O)[O-])CC[C@]3(C)C(=CC[C@@H]4[C@@]5(C)CC[C@H](O)C(C)(C)[C@H]5CC[C@@]43C)[C@@H]12
REMARK SMILES IDX 7 1 6 2 11 3 33 4 5 5 12 6 15 7 2 8 3 9 13 10 16 11 1 12
REMARK SMILES IDX 4 13 14 14 31 15 17 16 18 17 30 18 32 19 19 20 29 21 28 22
REMARK SMILES IDX 21 23 20 24 25 25 22 26 23 27 26 28 27 29 8 30 9 31 10 32
REMARK SMILES IDX 24 33
REMARK H PARENT 24 34
REMARK Flexibility Score: inf
ROOT
ATOM      1  C   UNL     1      13.569  23.374  45.623  1.00  0.00     0.017 C 
ATOM      2  C   UNL     1      14.797  22.665  46.260  1.00  0.00     0.014 C 
ATOM      3  C   UNL     1      13.945  24.857  45.270  1.00  0.00     0.014 C 
ATOM      4  C   UNL     1      13.118  22.543  44.362  1.00  0.00     0.030 C 
ATOM      5  C   UNL     1      14.467  21.237  46.716  1.00  0.00     0.004 C 
ATOM      6  C   UNL     1      14.727  25.066  43.951  1.00  0.00     0.013 C 
ATOM      7  C   UNL     1      14.046  22.864  43.173  1.00  0.00    -0.063 C 
ATOM      8  C   UNL     1      12.851  21.038  44.728  1.00  0.00    -0.003 C 
ATOM      9  C   UNL     1      13.985  20.348  45.556  1.00  0.00    -0.011 C 
ATOM     10  C   UNL     1      14.107  24.331  42.728  1.00  0.00    -0.006 C 
ATOM     11  C   UNL     1      15.066  22.047  42.834  1.00  0.00    -0.027 C 
ATOM     12  C   UNL     1      12.394  20.210  43.507  1.00  0.00     0.008 C 
ATOM     13  C   UNL     1      13.523  18.992  46.117  1.00  0.00     0.008 C 
ATOM     14  C   UNL     1      12.659  24.888  42.494  1.00  0.00     0.017 C 
ATOM     15  C   UNL     1      14.948  24.461  41.350  1.00  0.00    -0.020 C 
ATOM     16  C   UNL     1      16.408  22.573  42.417  1.00  0.00     0.032 C 
ATOM     17  C   UNL     1      16.370  23.747  41.403  1.00  0.00     0.006 C 
ATOM     18  C   UNL     1      15.124  25.947  40.903  1.00  0.00     0.008 C 
ATOM     19  C   UNL     1      14.118  23.749  40.214  1.00  0.00     0.012 C 
ATOM     20  C   UNL     1      17.677  24.680  41.405  1.00  0.00    -0.025 C 
ATOM     21  C   UNL     1      16.162  26.089  39.793  1.00  0.00     0.005 C 
ATOM     22  C   UNL     1      17.617  25.804  40.260  1.00  0.00     0.003 C 
ATOM     23  C   UNL     1      18.943  23.771  41.243  1.00  0.00     0.010 C 
ATOM     24  C   UNL     1      17.883  25.408  42.765  1.00  0.00     0.012 C 
ATOM     25  C   UNL     1      18.613  25.596  39.033  1.00  0.00    -0.006 C 
ATOM     26  C   UNL     1      19.171  23.195  39.839  1.00  0.00     0.033 C 
ATOM     27  C   UNL     1      18.680  24.081  38.681  1.00  0.00     0.120 C 
ATOM     28  C   UNL     1      18.156  26.374  37.761  1.00  0.00     0.014 C 
ATOM     29  C   UNL     1      20.019  26.177  39.360  1.00  0.00     0.014 C 
ENDROOT
BRANCH   1  30
ATOM     30  C   UNL     1      12.446  23.468  46.653  1.00  0.00     0.048 C 
ATOM     31  O   UNL     1      11.875  22.431  47.085  1.00  0.00    -0.550 OA
ATOM     32  O   UNL     1      11.950  24.710  47.037  1.00  0.00    -0.550 OA
ENDBRANCH   1  30
BRANCH  27  33
ATOM     33  O   UNL     1      19.512  23.859  37.566  1.00  0.00    -0.393 OA
ATOM     34  H   UNL     1      18.941  23.514  36.830  1.00  0.00     0.210 HD
ENDBRANCH  27  33
TORSDOF 2
ENDMDL
MODEL 7
REMARK VINA RESULT:    -4.723      7.311      8.878
REMARK INTER + INTRA:          -5.006
REMARK INTER:                  -4.967
REMARK INTRA:                  -0.039
REMARK UNBOUND:                 0.131
REMARK SMILES C[C@H]1[C@H](C)CC[C@@]2(C(=O)[O-])CC[C@]3(C)C(=CC[C@@H]4[C@@]5(C)CC[C@H](O)C(C)(C)[C@H]5CC[C@@]43C)[C@@H]12
REMARK SMILES IDX 7 1 6 2 11 3 33 4 5 5 12 6 15 7 2 8 3 9 13 10 16 11 1 12
REMARK SMILES IDX 4 13 14 14 31 15 17 16 18 17 30 18 32 19 19 20 29 21 28 22
REMARK SMILES IDX 21 23 20 24 25 25 22 26 23 27 26 28 27 29 8 30 9 31 10 32
REMARK SMILES IDX 24 33
REMARK H PARENT 24 34
REMARK Flexibility Score: inf
ROOT
ATOM      1  C   UNL     1      13.359  27.350  50.818  1.00  0.00     0.017 C 
ATOM      2  C   UNL     1      14.517  27.401  49.782  1.00  0.00     0.014 C 
ATOM      3  C   UNL     1      12.461  26.094  50.539  1.00  0.00     0.014 C 
ATOM      4  C   UNL     1      13.989  27.342  52.262  1.00  0.00     0.030 C 
ATOM      5  C   UNL     1      15.380  28.662  49.941  1.00  0.00     0.004 C 
ATOM      6  C   UNL     1      12.987  24.745  51.087  1.00  0.00     0.013 C 
ATOM      7  C   UNL     1      14.487  25.921  52.599  1.00  0.00    -0.063 C 
ATOM      8  C   UNL     1      14.966  28.554  52.474  1.00  0.00    -0.003 C 
ATOM      9  C   UNL     1      16.020  28.761  51.336  1.00  0.00    -0.011 C 
ATOM     10  C   UNL     1      13.436  24.803  52.575  1.00  0.00    -0.006 C 
ATOM     11  C   UNL     1      15.788  25.582  52.477  1.00  0.00    -0.027 C 
ATOM     12  C   UNL     1      15.582  28.570  53.890  1.00  0.00     0.008 C 
ATOM     13  C   UNL     1      16.729  30.120  51.471  1.00  0.00     0.008 C 
ATOM     14  C   UNL     1      12.199  25.203  53.454  1.00  0.00     0.017 C 
ATOM     15  C   UNL     1      14.069  23.430  53.156  1.00  0.00    -0.020 C 
ATOM     16  C   UNL     1      16.221  24.256  51.921  1.00  0.00     0.032 C 
ATOM     17  C   UNL     1      15.450  23.028  52.472  1.00  0.00     0.006 C 
ATOM     18  C   UNL     1      13.071  22.234  53.064  1.00  0.00     0.008 C 
ATOM     19  C   UNL     1      14.363  23.649  54.690  1.00  0.00     0.012 C 
ATOM     20  C   UNL     1      15.462  21.741  51.511  1.00  0.00    -0.025 C 
ATOM     21  C   UNL     1      13.760  20.895  53.318  1.00  0.00     0.005 C 
ATOM     22  C   UNL     1      14.742  20.476  52.189  1.00  0.00     0.003 C 
ATOM     23  C   UNL     1      16.947  21.413  51.130  1.00  0.00     0.010 C 
ATOM     24  C   UNL     1      14.755  22.009  50.152  1.00  0.00     0.012 C 
ATOM     25  C   UNL     1      15.707  19.290  52.640  1.00  0.00    -0.006 C 
ATOM     26  C   UNL     1      17.793  20.779  52.243  1.00  0.00     0.033 C 
ATOM     27  C   UNL     1      17.015  19.892  53.231  1.00  0.00     0.120 C 
ATOM     28  C   UNL     1      15.055  18.377  53.723  1.00  0.00     0.014 C 
ATOM     29  C   UNL     1      15.998  18.332  51.448  1.00  0.00     0.014 C 
ENDROOT
BRANCH   1  30
ATOM     30  C   UNL     1      12.448  28.559  50.621  1.00  0.00     0.048 C 
ATOM     31  O   UNL     1      11.875  29.105  51.602  1.00  0.00    -0.550 OA
ATOM     32  O   UNL     1      12.137  29.000  49.339  1.00  0.00    -0.550 OA
ENDBRANCH   1  30
BRANCH  27  33
ATOM     33  O   UNL     1      17.875  18.875  53.691  1.00  0.00    -0.393 OA
ATOM     34  H   UNL     1      17.466  18.004  53.446  1.00  0.00     0.210 HD
ENDBRANCH  27  33
TORSDOF 2
ENDMDL
MODEL 8
REMARK VINA RESULT:    -4.670      4.472      7.603
REMARK INTER + INTRA:          -4.949
REMARK INTER:                  -4.906
REMARK INTRA:                  -0.043
REMARK UNBOUND:                 0.131
REMARK SMILES C[C@H]1[C@H](C)CC[C@@]2(C(=O)[O-])CC[C@]3(C)C(=CC[C@@H]4[C@@]5(C)CC[C@H](O)C(C)(C)[C@H]5CC[C@@]43C)[C@@H]12
REMARK SMILES IDX 7 1 6 2 11 3 33 4 5 5 12 6 15 7 2 8 3 9 13 10 16 11 1 12
REMARK SMILES IDX 4 13 14 14 31 15 17 16 18 17 30 18 32 19 19 20 29 21 28 22
REMARK SMILES IDX 21 23 20 24 25 25 22 26 23 27 26 28 27 29 8 30 9 31 10 32
REMARK SMILES IDX 24 33
REMARK H PARENT 24 34
REMARK Flexibility Score: inf
ROOT
ATOM      1  C   UNL     1      15.672  19.179  46.153  1.00  0.00     0.017 C 
ATOM      2  C   UNL     1      16.139  20.562  45.618  1.00  0.00     0.014 C 
ATOM      3  C   UNL     1      16.390  18.874  47.515  1.00  0.00     0.014 C 
ATOM      4  C   UNL     1      14.102  19.205  46.283  1.00  0.00     0.030 C 
ATOM      5  C   UNL     1      15.545  20.878  44.238  1.00  0.00     0.004 C 
ATOM      6  C   UNL     1      15.782  19.545  48.770  1.00  0.00     0.013 C 
ATOM      7  C   UNL     1      13.704  19.951  47.574  1.00  0.00    -0.063 C 
ATOM      8  C   UNL     1      13.416  19.617  44.930  1.00  0.00    -0.003 C 
ATOM      9  C   UNL     1      14.007  20.898  44.253  1.00  0.00    -0.011 C 
ATOM     10  C   UNL     1      14.241  19.376  48.891  1.00  0.00    -0.006 C 
ATOM     11  C   UNL     1      13.312  21.243  47.549  1.00  0.00    -0.027 C 
ATOM     12  C   UNL     1      11.876  19.634  45.035  1.00  0.00     0.008 C 
ATOM     13  C   UNL     1      13.489  21.059  42.813  1.00  0.00     0.008 C 
ATOM     14  C   UNL     1      13.913  17.845  48.988  1.00  0.00     0.017 C 
ATOM     15  C   UNL     1      13.562  20.138  50.149  1.00  0.00    -0.020 C 
ATOM     16  C   UNL     1      13.744  22.231  48.593  1.00  0.00     0.032 C 
ATOM     17  C   UNL     1      13.654  21.724  50.057  1.00  0.00     0.006 C 
ATOM     18  C   UNL     1      14.146  19.657  51.515  1.00  0.00     0.008 C 
ATOM     19  C   UNL     1      12.029  19.766  50.164  1.00  0.00     0.012 C 
ATOM     20  C   UNL     1      14.624  22.480  51.090  1.00  0.00    -0.025 C 
ATOM     21  C   UNL     1      13.739  20.577  52.664  1.00  0.00     0.005 C 
ATOM     22  C   UNL     1      14.399  21.983  52.601  1.00  0.00     0.003 C 
ATOM     23  C   UNL     1      14.391  24.024  50.960  1.00  0.00     0.010 C 
ATOM     24  C   UNL     1      16.128  22.275  50.749  1.00  0.00     0.012 C 
ATOM     25  C   UNL     1      13.689  23.026  53.574  1.00  0.00    -0.006 C 
ATOM     26  C   UNL     1      13.084  24.552  51.566  1.00  0.00     0.033 C 
ATOM     27  C   UNL     1      12.571  23.776  52.792  1.00  0.00     0.120 C 
ATOM     28  C   UNL     1      13.039  22.333  54.811  1.00  0.00     0.014 C 
ATOM     29  C   UNL     1      14.730  24.011  54.182  1.00  0.00     0.014 C 
ENDROOT
BRANCH   1  30
ATOM     30  C   UNL     1      16.128  18.083  45.194  1.00  0.00     0.048 C 
ATOM     31  O   UNL     1      15.414  17.064  44.988  1.00  0.00    -0.550 OA
ATOM     32  O   UNL     1      17.397  18.131  44.626  1.00  0.00    -0.550 OA
ENDBRANCH   1  30
BRANCH  27  33
ATOM     33  O   UNL     1      11.882  24.672  53.632  1.00  0.00    -0.393 OA
ATOM     34  H   UNL     1      11.419  25.332  53.051  1.00  0.00     0.210 HD
ENDBRANCH  27  33
TORSDOF 2
ENDMDL
MODEL 9
REMARK VINA RESULT:    -4.624      7.851     10.445
REMARK INTER + INTRA:          -4.899
REMARK INTER:                  -5.045
REMARK INTRA:                   0.146
REMARK UNBOUND:                 0.131
REMARK SMILES C[C@H]1[C@H](C)CC[C@@]2(C(=O)[O-])CC[C@]3(C)C(=CC[C@@H]4[C@@]5(C)CC[C@H](O)C(C)(C)[C@H]5CC[C@@]43C)[C@@H]12
REMARK SMILES IDX 7 1 6 2 11 3 33 4 5 5 12 6 15 7 2 8 3 9 13 10 16 11 1 12
REMARK SMILES IDX 4 13 14 14 31 15 17 16 18 17 30 18 32 19 19 20 29 21 28 22
REMARK SMILES IDX 21 23 20 24 25 25 22 26 23 27 26 28 27 29 8 30 9 31 10 32
REMARK SMILES IDX 24 33
REMARK H PARENT 24 34
REMARK Flexibility Score: inf
ROOT
ATOM      1  C   UNL     1      15.962  28.386  52.994  1.00  0.00     0.017 C 
ATOM      2  C   UNL     1      15.930  28.357  54.548  1.00  0.00     0.014 C 
ATOM      3  C   UNL     1      17.079  27.413  52.475  1.00  0.00     0.014 C 
ATOM      4  C   UNL     1      14.527  28.006  52.464  1.00  0.00     0.030 C 
ATOM      5  C   UNL     1      14.920  29.361  55.123  1.00  0.00     0.004 C 
ATOM      6  C   UNL     1      16.704  25.912  52.422  1.00  0.00     0.013 C 
ATOM      7  C   UNL     1      14.341  26.476  52.532  1.00  0.00    -0.063 C 
ATOM      8  C   UNL     1      13.418  28.931  53.084  1.00  0.00    -0.003 C 
ATOM      9  C   UNL     1      13.485  29.092  54.639  1.00  0.00    -0.011 C 
ATOM     10  C   UNL     1      15.339  25.628  51.733  1.00  0.00    -0.006 C 
ATOM     11  C   UNL     1      13.669  25.893  53.547  1.00  0.00    -0.027 C 
ATOM     12  C   UNL     1      12.007  28.583  52.564  1.00  0.00     0.008 C 
ATOM     13  C   UNL     1      12.567  30.227  55.124  1.00  0.00     0.008 C 
ATOM     14  C   UNL     1      15.415  26.133  50.249  1.00  0.00     0.017 C 
ATOM     15  C   UNL     1      14.878  24.075  51.735  1.00  0.00    -0.020 C 
ATOM     16  C   UNL     1      14.133  24.614  54.183  1.00  0.00     0.032 C 
ATOM     17  C   UNL     1      14.571  23.505  53.190  1.00  0.00     0.006 C 
ATOM     18  C   UNL     1      15.911  23.151  51.017  1.00  0.00     0.008 C 
ATOM     19  C   UNL     1      13.538  23.972  50.909  1.00  0.00     0.012 C 
ATOM     20  C   UNL     1      15.586  22.421  53.799  1.00  0.00    -0.025 C 
ATOM     21  C   UNL     1      15.636  21.673  51.285  1.00  0.00     0.005 C 
ATOM     22  C   UNL     1      15.910  21.245  52.754  1.00  0.00     0.003 C 
ATOM     23  C   UNL     1      14.976  21.850  55.125  1.00  0.00     0.010 C 
ATOM     24  C   UNL     1      16.942  23.053  54.226  1.00  0.00     0.012 C 
ATOM     25  C   UNL     1      15.275  19.823  53.094  1.00  0.00    -0.006 C 
ATOM     26  C   UNL     1      13.802  20.877  54.950  1.00  0.00     0.033 C 
ATOM     27  C   UNL     1      13.843  20.027  53.669  1.00  0.00     0.120 C 
ATOM     28  C   UNL     1      15.172  18.905  51.838  1.00  0.00     0.014 C 
ATOM     29  C   UNL     1      16.186  19.033  54.079  1.00  0.00     0.014 C 
ENDROOT
BRANCH   1  30
ATOM     30  C   UNL     1      16.375  29.776  52.520  1.00  0.00     0.048 C 
ATOM     31  O   UNL     1      16.341  30.081  51.297  1.00  0.00    -0.550 OA
ATOM     32  O   UNL     1      16.916  30.691  53.418  1.00  0.00    -0.550 OA
ENDBRANCH   1  30
BRANCH  27  33
ATOM     33  O   UNL     1      13.225  18.789  53.934  1.00  0.00    -0.393 OA
ATOM     34  H   UNL     1      13.937  18.149  54.199  1.00  0.00     0.210 HD
ENDBRANCH  27  33
TORSDOF 2
ENDMDL
