MODEL 1
REMARK VINA RESULT:    -4.528      0.000      0.000
REMARK INTER + INTRA:          -5.788
REMARK INTER:                  -5.454
REMARK INTRA:                  -0.334
REMARK UNBOUND:                -0.334
REMARK SMILES O=c1c(O)c(-c2ccc(O)c(O)c2)oc2cc(O)cc(O)c12
REMARK SMILES IDX 5 1 3 2 2 3 1 4 22 5 20 6 19 7 17 8 16 9 15 10 14 11 6 12
REMARK SMILES IDX 7 13 8 14 9 15 13 16 11 17 10 18 12 20 4 22 21 24 18 26
REMARK H PARENT 10 19 12 21 4 23 21 25 18 27
REMARK Flexibility Score: inf
ROOT
ATOM      1  C   UNL     1     175.174 176.699 149.835  1.00  0.00     0.180 A 
ATOM      2  C   UNL     1     176.367 176.750 150.576  1.00  0.00     0.208 A 
ATOM      3  C   UNL     1     176.955 177.998 150.838  1.00  0.00     0.238 A 
ATOM      4  O   UNL     1     178.051 178.032 151.455  1.00  0.00    -0.285 OA
ATOM      5  C   UNL     1     176.335 179.181 150.368  1.00  0.00     0.111 A 
ATOM      6  C   UNL     1     176.821 180.501 150.608  1.00  0.00     0.134 A 
ATOM      7  C   UNL     1     176.199 181.590 149.985  1.00  0.00     0.093 A 
ATOM      8  C   UNL     1     175.072 181.414 149.185  1.00  0.00     0.123 A 
ATOM      9  C   UNL     1     174.552 180.133 148.990  1.00  0.00     0.094 A 
ATOM     10  C   UNL     1     175.172 179.024 149.570  1.00  0.00     0.146 A 
ATOM     11  O   UNL     1     174.652 177.821 149.352  1.00  0.00    -0.452 OA
ENDROOT
BRANCH   1  12
ATOM     12  C   UNL     1     174.483 175.424 149.540  1.00  0.00     0.025 A 
ATOM     13  C   UNL     1     174.727 174.771 148.322  1.00  0.00     0.016 A 
ATOM     14  C   UNL     1     174.069 173.577 148.015  1.00  0.00     0.051 A 
ATOM     15  C   UNL     1     173.145 173.027 148.914  1.00  0.00     0.157 A 
ATOM     16  C   UNL     1     173.539 174.880 150.431  1.00  0.00     0.062 A 
ATOM     17  C   UNL     1     172.877 173.686 150.125  1.00  0.00     0.158 A 
BRANCH  15  18
ATOM     18  O   UNL     1     172.492 171.836 148.606  1.00  0.00    -0.504 OA
ATOM     19  H   UNL     1     171.657 171.822 148.032  1.00  0.00     0.293 HD
ENDBRANCH  15  18
BRANCH  17  20
ATOM     20  O   UNL     1     171.952 173.172 151.035  1.00  0.00    -0.504 OA
ATOM     21  H   UNL     1     170.955 173.197 150.860  1.00  0.00     0.293 HD
ENDBRANCH  17  20
ENDBRANCH   1  12
BRANCH   2  22
ATOM     22  O   UNL     1     176.974 175.569 151.012  1.00  0.00    -0.502 OA
ATOM     23  H   UNL     1     177.666 175.076 150.458  1.00  0.00     0.293 HD
ENDBRANCH   2  22
BRANCH   6  24
ATOM     24  O   UNL     1     177.885 180.797 151.465  1.00  0.00    -0.507 OA
ATOM     25  H   UNL     1     177.964 181.642 152.011  1.00  0.00     0.293 HD
ENDBRANCH   6  24
BRANCH   8  26
ATOM     26  O   UNL     1     174.468 182.522 148.593  1.00  0.00    -0.508 OA
ATOM     27  H   UNL     1     173.485 182.725 148.728  1.00  0.00     0.293 HD
ENDBRANCH   8  26
TORSDOF 6
ENDMDL
MODEL 2
REMARK VINA RESULT:    -4.521      4.473      6.812
REMARK INTER + INTRA:          -5.780
REMARK INTER:                  -5.449
REMARK INTRA:                  -0.331
REMARK UNBOUND:                -0.334
REMARK SMILES O=c1c(O)c(-c2ccc(O)c(O)c2)oc2cc(O)cc(O)c12
REMARK SMILES IDX 5 1 3 2 2 3 1 4 22 5 20 6 19 7 17 8 16 9 15 10 14 11 6 12
REMARK SMILES IDX 7 13 8 14 9 15 13 16 11 17 10 18 12 20 4 22 21 24 18 26
REMARK H PARENT 10 19 12 21 4 23 21 25 18 27
REMARK Flexibility Score: inf
ROOT
ATOM      1  C   UNL     1     176.727 173.016 149.824  1.00  0.00     0.180 A 
ATOM      2  C   UNL     1     176.775 171.817 150.557  1.00  0.00     0.208 A 
ATOM      3  C   UNL     1     178.022 171.223 150.810  1.00  0.00     0.238 A 
ATOM      4  O   UNL     1     178.053 170.122 151.419  1.00  0.00    -0.285 OA
ATOM      5  C   UNL     1     179.206 171.842 150.342  1.00  0.00     0.111 A 
ATOM      6  C   UNL     1     180.525 171.348 150.574  1.00  0.00     0.134 A 
ATOM      7  C   UNL     1     181.614 171.971 149.953  1.00  0.00     0.093 A 
ATOM      8  C   UNL     1     181.441 173.105 149.161  1.00  0.00     0.123 A 
ATOM      9  C   UNL     1     180.161 173.631 148.975  1.00  0.00     0.094 A 
ATOM     10  C   UNL     1     179.051 173.011 149.553  1.00  0.00     0.146 A 
ATOM     11  O   UNL     1     177.850 173.537 149.342  1.00  0.00    -0.452 OA
ENDROOT
BRANCH   1  12
ATOM     12  C   UNL     1     175.454 173.715 149.539  1.00  0.00     0.025 A 
ATOM     13  C   UNL     1     174.767 173.440 148.346  1.00  0.00     0.016 A 
ATOM     14  C   UNL     1     173.575 174.103 148.047  1.00  0.00     0.051 A 
ATOM     15  C   UNL     1     173.059 175.064 148.928  1.00  0.00     0.157 A 
ATOM     16  C   UNL     1     174.945 174.695 150.411  1.00  0.00     0.062 A 
ATOM     17  C   UNL     1     173.752 175.363 150.113  1.00  0.00     0.158 A 
BRANCH  15  18
ATOM     18  O   UNL     1     171.869 175.723 148.628  1.00  0.00    -0.504 OA
ATOM     19  H   UNL     1     171.583 175.892 147.671  1.00  0.00     0.293 HD
ENDBRANCH  15  18
BRANCH  17  20
ATOM     20  O   UNL     1     173.273 176.323 151.005  1.00  0.00    -0.504 OA
ATOM     21  H   UNL     1     172.528 176.123 151.661  1.00  0.00     0.293 HD
ENDBRANCH  17  20
ENDBRANCH   1  12
BRANCH   2  22
ATOM     22  O   UNL     1     175.593 171.212 150.991  1.00  0.00    -0.502 OA
ATOM     23  H   UNL     1     174.786 171.098 150.387  1.00  0.00     0.293 HD
ENDBRANCH   2  22
BRANCH   6  24
ATOM     24  O   UNL     1     180.819 170.277 151.423  1.00  0.00    -0.507 OA
ATOM     25  H   UNL     1     180.132 169.740 151.930  1.00  0.00     0.293 HD
ENDBRANCH   6  24
BRANCH   8  26
ATOM     26  O   UNL     1     182.549 173.709 148.571  1.00  0.00    -0.508 OA
ATOM     27  H   UNL     1     182.725 173.638 147.577  1.00  0.00     0.293 HD
ENDBRANCH   8  26
TORSDOF 6
ENDMDL
MODEL 3
REMARK VINA RESULT:    -4.491      3.744      9.607
REMARK INTER + INTRA:          -5.744
REMARK INTER:                  -5.437
REMARK INTRA:                  -0.307
REMARK UNBOUND:                -0.334
REMARK SMILES O=c1c(O)c(-c2ccc(O)c(O)c2)oc2cc(O)cc(O)c12
REMARK SMILES IDX 5 1 3 2 2 3 1 4 22 5 20 6 19 7 17 8 16 9 15 10 14 11 6 12
REMARK SMILES IDX 7 13 8 14 9 15 13 16 11 17 10 18 12 20 4 22 21 24 18 26
REMARK H PARENT 10 19 12 21 4 23 21 25 18 27
REMARK Flexibility Score: inf
ROOT
ATOM      1  C   UNL     1     173.066 171.483 149.791  1.00  0.00     0.180 A 
ATOM      2  C   UNL     1     171.872 171.437 150.531  1.00  0.00     0.208 A 
ATOM      3  C   UNL     1     171.280 170.192 150.794  1.00  0.00     0.238 A 
ATOM      4  O   UNL     1     170.183 170.162 151.409  1.00  0.00    -0.285 OA
ATOM      5  C   UNL     1     171.898 169.006 150.328  1.00  0.00     0.111 A 
ATOM      6  C   UNL     1     171.408 167.688 150.570  1.00  0.00     0.134 A 
ATOM      7  C   UNL     1     172.028 166.595 149.951  1.00  0.00     0.093 A 
ATOM      8  C   UNL     1     173.157 166.767 149.152  1.00  0.00     0.123 A 
ATOM      9  C   UNL     1     173.681 168.046 148.956  1.00  0.00     0.094 A 
ATOM     10  C   UNL     1     173.062 169.158 149.532  1.00  0.00     0.146 A 
ATOM     11  O   UNL     1     173.586 170.359 149.312  1.00  0.00    -0.452 OA
ENDROOT
BRANCH   1  12
ATOM     12  C   UNL     1     173.762 172.756 149.496  1.00  0.00     0.025 A 
ATOM     13  C   UNL     1     173.363 173.520 148.388  1.00  0.00     0.016 A 
ATOM     14  C   UNL     1     174.020 174.714 148.078  1.00  0.00     0.051 A 
ATOM     15  C   UNL     1     175.095 175.154 148.862  1.00  0.00     0.157 A 
ATOM     16  C   UNL     1     174.855 173.189 150.268  1.00  0.00     0.062 A 
ATOM     17  C   UNL     1     175.517 174.383 149.959  1.00  0.00     0.158 A 
BRANCH  15  18
ATOM     18  O   UNL     1     175.748 176.345 148.552  1.00  0.00    -0.504 OA
ATOM     19  H   UNL     1     176.747 176.376 148.389  1.00  0.00     0.293 HD
ENDBRANCH  15  18
BRANCH  17  20
ATOM     20  O   UNL     1     176.593 174.786 150.751  1.00  0.00    -0.504 OA
ATOM     21  H   UNL     1     176.717 175.749 151.039  1.00  0.00     0.293 HD
ENDBRANCH  17  20
ENDBRANCH   1  12
BRANCH   2  22
ATOM     22  O   UNL     1     171.268 172.622 150.962  1.00  0.00    -0.502 OA
ATOM     23  H   UNL     1     170.413 172.629 151.508  1.00  0.00     0.293 HD
ENDBRANCH   2  22
BRANCH   6  24
ATOM     24  O   UNL     1     170.341 167.396 151.426  1.00  0.00    -0.507 OA
ATOM     25  H   UNL     1     169.388 167.253 151.128  1.00  0.00     0.293 HD
ENDBRANCH   6  24
BRANCH   8  26
ATOM     26  O   UNL     1     173.760 165.656 148.564  1.00  0.00    -0.508 OA
ATOM     27  H   UNL     1     174.144 164.904 149.123  1.00  0.00     0.293 HD
ENDBRANCH   8  26
TORSDOF 6
ENDMDL
MODEL 4
REMARK VINA RESULT:    -4.483      4.403      6.798
REMARK INTER + INTRA:          -5.734
REMARK INTER:                  -5.438
REMARK INTRA:                  -0.296
REMARK UNBOUND:                -0.334
REMARK SMILES O=c1c(O)c(-c2ccc(O)c(O)c2)oc2cc(O)cc(O)c12
REMARK SMILES IDX 5 1 3 2 2 3 1 4 22 5 20 6 19 7 17 8 16 9 15 10 14 11 6 12
REMARK SMILES IDX 7 13 8 14 9 15 13 16 11 17 10 18 12 20 4 22 21 24 18 26
REMARK H PARENT 10 19 12 21 4 23 21 25 18 27
REMARK Flexibility Score: inf
ROOT
ATOM      1  C   UNL     1     171.468 175.162 149.791  1.00  0.00     0.180 A 
ATOM      2  C   UNL     1     171.428 176.352 150.537  1.00  0.00     0.208 A 
ATOM      3  C   UNL     1     170.184 176.945 150.809  1.00  0.00     0.238 A 
ATOM      4  O   UNL     1     170.160 178.039 151.430  1.00  0.00    -0.285 OA
ATOM      5  C   UNL     1     168.995 176.333 150.344  1.00  0.00     0.111 A 
ATOM      6  C   UNL     1     167.679 176.826 150.593  1.00  0.00     0.134 A 
ATOM      7  C   UNL     1     166.583 176.212 149.975  1.00  0.00     0.093 A 
ATOM      8  C   UNL     1     166.749 175.086 149.169  1.00  0.00     0.123 A 
ATOM      9  C   UNL     1     168.025 174.560 148.965  1.00  0.00     0.094 A 
ATOM     10  C   UNL     1     169.142 175.173 149.540  1.00  0.00     0.146 A 
ATOM     11  O   UNL     1     170.340 174.647 149.313  1.00  0.00    -0.452 OA
ENDROOT
BRANCH   1  12
ATOM     12  C   UNL     1     172.738 174.464 149.487  1.00  0.00     0.025 A 
ATOM     13  C   UNL     1     173.527 174.904 148.413  1.00  0.00     0.016 A 
ATOM     14  C   UNL     1     174.719 174.248 148.096  1.00  0.00     0.051 A 
ATOM     15  C   UNL     1     175.131 173.132 148.836  1.00  0.00     0.157 A 
ATOM     16  C   UNL     1     173.143 173.331 150.215  1.00  0.00     0.062 A 
ATOM     17  C   UNL     1     174.335 172.669 149.897  1.00  0.00     0.158 A 
BRANCH  15  18
ATOM     18  O   UNL     1     176.320 172.479 148.518  1.00  0.00    -0.504 OA
ATOM     19  H   UNL     1     176.500 171.528 148.817  1.00  0.00     0.293 HD
ENDBRANCH  15  18
BRANCH  17  20
ATOM     20  O   UNL     1     174.709 171.553 150.645  1.00  0.00    -0.504 OA
ATOM     21  H   UNL     1     175.638 171.152 150.585  1.00  0.00     0.293 HD
ENDBRANCH  17  20
ENDBRANCH   1  12
BRANCH   2  22
ATOM     22  O   UNL     1     172.615 176.951 150.968  1.00  0.00    -0.502 OA
ATOM     23  H   UNL     1     173.026 177.747 150.494  1.00  0.00     0.293 HD
ENDBRANCH   2  22
BRANCH   6  24
ATOM     24  O   UNL     1     167.394 177.888 151.456  1.00  0.00    -0.507 OA
ATOM     25  H   UNL     1     166.832 178.690 151.214  1.00  0.00     0.293 HD
ENDBRANCH   6  24
BRANCH   8  26
ATOM     26  O   UNL     1     165.634 174.490 148.582  1.00  0.00    -0.508 OA
ATOM     27  H   UNL     1     165.352 173.546 148.816  1.00  0.00     0.293 HD
ENDBRANCH   8  26
TORSDOF 6
ENDMDL
MODEL 5
REMARK VINA RESULT:    -4.294      4.004      6.792
REMARK INTER + INTRA:          -5.507
REMARK INTER:                  -5.344
REMARK INTRA:                  -0.163
REMARK UNBOUND:                -0.334
REMARK SMILES O=c1c(O)c(-c2ccc(O)c(O)c2)oc2cc(O)cc(O)c12
REMARK SMILES IDX 5 1 3 2 2 3 1 4 22 5 20 6 19 7 17 8 16 9 15 10 14 11 6 12
REMARK SMILES IDX 7 13 8 14 9 15 13 16 11 17 10 18 12 20 4 22 21 24 18 26
REMARK H PARENT 10 19 12 21 4 23 21 25 18 27
REMARK Flexibility Score: inf
ROOT
ATOM      1  C   UNL     1     170.351 175.065 150.089  1.00  0.00     0.180 A 
ATOM      2  C   UNL     1     171.065 176.231 150.414  1.00  0.00     0.208 A 
ATOM      3  C   UNL     1     172.440 176.288 150.134  1.00  0.00     0.238 A 
ATOM      4  O   UNL     1     173.084 177.314 150.477  1.00  0.00    -0.285 OA
ATOM      5  C   UNL     1     173.080 175.185 149.520  1.00  0.00     0.111 A 
ATOM      6  C   UNL     1     174.460 175.149 149.156  1.00  0.00     0.134 A 
ATOM      7  C   UNL     1     175.016 173.958 148.673  1.00  0.00     0.093 A 
ATOM      8  C   UNL     1     174.230 172.822 148.481  1.00  0.00     0.123 A 
ATOM      9  C   UNL     1     172.867 172.864 148.778  1.00  0.00     0.094 A 
ATOM     10  C   UNL     1     172.291 174.027 149.295  1.00  0.00     0.146 A 
ATOM     11  O   UNL     1     170.993 174.022 149.574  1.00  0.00    -0.452 OA
ENDROOT
BRANCH   1  12
ATOM     12  C   UNL     1     168.895 174.939 150.330  1.00  0.00     0.025 A 
ATOM     13  C   UNL     1     168.414 174.903 151.648  1.00  0.00     0.016 A 
ATOM     14  C   UNL     1     167.047 174.765 151.899  1.00  0.00     0.051 A 
ATOM     15  C   UNL     1     166.142 174.642 150.836  1.00  0.00     0.157 A 
ATOM     16  C   UNL     1     167.987 174.794 149.266  1.00  0.00     0.062 A 
ATOM     17  C   UNL     1     166.617 174.652 149.514  1.00  0.00     0.158 A 
BRANCH  15  18
ATOM     18  O   UNL     1     164.778 174.504 151.088  1.00  0.00    -0.504 OA
ATOM     19  H   UNL     1     164.411 173.714 151.605  1.00  0.00     0.293 HD
ENDBRANCH  15  18
BRANCH  17  20
ATOM     20  O   UNL     1     165.744 174.518 148.433  1.00  0.00    -0.504 OA
ATOM     21  H   UNL     1     165.351 173.623 148.168  1.00  0.00     0.293 HD
ENDBRANCH  17  20
ENDBRANCH   1  12
BRANCH   2  22
ATOM     22  O   UNL     1     170.417 177.299 151.039  1.00  0.00    -0.502 OA
ATOM     23  H   UNL     1     170.216 177.307 152.033  1.00  0.00     0.293 HD
ENDBRANCH   2  22
BRANCH   6  24
ATOM     24  O   UNL     1     175.314 176.254 149.221  1.00  0.00    -0.507 OA
ATOM     25  H   UNL     1     175.011 177.216 149.202  1.00  0.00     0.293 HD
ENDBRANCH   6  24
BRANCH   8  26
ATOM     26  O   UNL     1     174.813 171.659 147.983  1.00  0.00    -0.508 OA
ATOM     27  H   UNL     1     174.271 170.970 147.474  1.00  0.00     0.293 HD
ENDBRANCH   8  26
TORSDOF 6
ENDMDL
MODEL 6
REMARK VINA RESULT:    -4.274      4.024      7.237
REMARK INTER + INTRA:          -5.483
REMARK INTER:                  -5.224
REMARK INTRA:                  -0.258
REMARK UNBOUND:                -0.334
REMARK SMILES O=c1c(O)c(-c2ccc(O)c(O)c2)oc2cc(O)cc(O)c12
REMARK SMILES IDX 5 1 3 2 2 3 1 4 22 5 20 6 19 7 17 8 16 9 15 10 14 11 6 12
REMARK SMILES IDX 7 13 8 14 9 15 13 16 11 17 10 18 12 20 4 22 21 24 18 26
REMARK H PARENT 10 19 12 21 4 23 21 25 18 27
REMARK Flexibility Score: inf
ROOT
ATOM      1  C   UNL     1     177.689 173.161 150.094  1.00  0.00     0.180 A 
ATOM      2  C   UNL     1     176.960 172.001 150.406  1.00  0.00     0.208 A 
ATOM      3  C   UNL     1     175.588 171.957 150.110  1.00  0.00     0.238 A 
ATOM      4  O   UNL     1     174.931 170.937 150.441  1.00  0.00    -0.285 OA
ATOM      5  C   UNL     1     174.965 173.069 149.492  1.00  0.00     0.111 A 
ATOM      6  C   UNL     1     173.590 173.119 149.112  1.00  0.00     0.134 A 
ATOM      7  C   UNL     1     173.051 174.317 148.628  1.00  0.00     0.093 A 
ATOM      8  C   UNL     1     173.850 175.446 148.449  1.00  0.00     0.123 A 
ATOM      9  C   UNL     1     175.209 175.390 148.762  1.00  0.00     0.094 A 
ATOM     10  C   UNL     1     175.767 174.220 149.281  1.00  0.00     0.146 A 
ATOM     11  O   UNL     1     177.062 174.212 149.576  1.00  0.00    -0.452 OA
ENDROOT
BRANCH   1  12
ATOM     12  C   UNL     1     179.142 173.273 150.353  1.00  0.00     0.025 A 
ATOM     13  C   UNL     1     179.596 173.496 151.662  1.00  0.00     0.016 A 
ATOM     14  C   UNL     1     180.962 173.625 151.925  1.00  0.00     0.051 A 
ATOM     15  C   UNL     1     181.894 173.549 150.882  1.00  0.00     0.157 A 
ATOM     16  C   UNL     1     180.079 173.218 149.304  1.00  0.00     0.062 A 
ATOM     17  C   UNL     1     181.448 173.350 149.564  1.00  0.00     0.158 A 
BRANCH  15  18
ATOM     18  O   UNL     1     183.256 173.677 151.147  1.00  0.00    -0.504 OA
ATOM     19  H   UNL     1     183.597 173.900 152.074  1.00  0.00     0.293 HD
ENDBRANCH  15  18
BRANCH  17  20
ATOM     20  O   UNL     1     182.348 173.283 148.501  1.00  0.00    -0.504 OA
ATOM     21  H   UNL     1     183.080 172.584 148.459  1.00  0.00     0.293 HD
ENDBRANCH  17  20
ENDBRANCH   1  12
BRANCH   2  22
ATOM     22  O   UNL     1     177.591 170.924 151.035  1.00  0.00    -0.502 OA
ATOM     23  H   UNL     1     178.512 171.000 151.451  1.00  0.00     0.293 HD
ENDBRANCH   2  22
BRANCH   6  24
ATOM     24  O   UNL     1     172.726 172.022 149.163  1.00  0.00    -0.507 OA
ATOM     25  H   UNL     1     172.593 171.360 148.414  1.00  0.00     0.293 HD
ENDBRANCH   6  24
BRANCH   8  26
ATOM     26  O   UNL     1     173.284 176.617 147.949  1.00  0.00    -0.508 OA
ATOM     27  H   UNL     1     173.664 177.084 147.135  1.00  0.00     0.293 HD
ENDBRANCH   8  26
TORSDOF 6
ENDMDL
MODEL 7
REMARK VINA RESULT:    -4.248      4.212      7.265
REMARK INTER + INTRA:          -5.451
REMARK INTER:                  -5.285
REMARK INTRA:                  -0.166
REMARK UNBOUND:                -0.334
REMARK SMILES O=c1c(O)c(-c2ccc(O)c(O)c2)oc2cc(O)cc(O)c12
REMARK SMILES IDX 5 1 3 2 2 3 1 4 22 5 20 6 19 7 17 8 16 9 15 10 14 11 6 12
REMARK SMILES IDX 7 13 8 14 9 15 13 16 11 17 10 18 12 20 4 22 21 24 18 26
REMARK H PARENT 10 19 12 21 4 23 21 25 18 27
REMARK Flexibility Score: inf
ROOT
ATOM      1  C   UNL     1     173.043 170.539 150.123  1.00  0.00     0.180 A 
ATOM      2  C   UNL     1     171.881 171.250 150.467  1.00  0.00     0.208 A 
ATOM      3  C   UNL     1     171.815 172.625 150.188  1.00  0.00     0.238 A 
ATOM      4  O   UNL     1     170.794 173.266 150.548  1.00  0.00    -0.285 OA
ATOM      5  C   UNL     1     172.905 173.268 149.553  1.00  0.00     0.111 A 
ATOM      6  C   UNL     1     172.931 174.647 149.188  1.00  0.00     0.134 A 
ATOM      7  C   UNL     1     174.111 175.206 148.683  1.00  0.00     0.093 A 
ATOM      8  C   UNL     1     175.245 174.424 148.471  1.00  0.00     0.123 A 
ATOM      9  C   UNL     1     175.213 173.060 148.770  1.00  0.00     0.094 A 
ATOM     10  C   UNL     1     174.061 172.482 149.308  1.00  0.00     0.146 A 
ATOM     11  O   UNL     1     174.075 171.184 149.588  1.00  0.00    -0.452 OA
ENDROOT
BRANCH   1  12
ATOM     12  C   UNL     1     173.178 169.084 150.362  1.00  0.00     0.025 A 
ATOM     13  C   UNL     1     173.240 168.604 151.680  1.00  0.00     0.016 A 
ATOM     14  C   UNL     1     173.387 167.237 151.928  1.00  0.00     0.051 A 
ATOM     15  C   UNL     1     173.492 166.332 150.864  1.00  0.00     0.157 A 
ATOM     16  C   UNL     1     173.304 168.175 149.296  1.00  0.00     0.062 A 
ATOM     17  C   UNL     1     173.455 166.806 149.542  1.00  0.00     0.158 A 
BRANCH  15  18
ATOM     18  O   UNL     1     173.638 164.969 151.114  1.00  0.00    -0.504 OA
ATOM     19  H   UNL     1     174.110 164.357 150.460  1.00  0.00     0.293 HD
ENDBRANCH  15  18
BRANCH  17  20
ATOM     20  O   UNL     1     173.570 165.932 148.460  1.00  0.00    -0.504 OA
ATOM     21  H   UNL     1     174.470 165.641 148.098  1.00  0.00     0.293 HD
ENDBRANCH  17  20
ENDBRANCH   1  12
BRANCH   2  22
ATOM     22  O   UNL     1     170.826 170.600 151.112  1.00  0.00    -0.502 OA
ATOM     23  H   UNL     1     170.701 169.594 151.072  1.00  0.00     0.293 HD
ENDBRANCH   2  22
BRANCH   6  24
ATOM     24  O   UNL     1     171.825 175.498 149.272  1.00  0.00    -0.507 OA
ATOM     25  H   UNL     1     170.915 175.225 149.613  1.00  0.00     0.293 HD
ENDBRANCH   6  24
BRANCH   8  26
ATOM     26  O   UNL     1     176.398 175.009 147.952  1.00  0.00    -0.508 OA
ATOM     27  H   UNL     1     176.387 175.939 147.553  1.00  0.00     0.293 HD
ENDBRANCH   8  26
TORSDOF 6
ENDMDL
MODEL 8
REMARK VINA RESULT:    -4.109      3.282      5.837
REMARK INTER + INTRA:          -5.284
REMARK INTER:                  -4.953
REMARK INTRA:                  -0.331
REMARK UNBOUND:                -0.334
REMARK SMILES O=c1c(O)c(-c2ccc(O)c(O)c2)oc2cc(O)cc(O)c12
REMARK SMILES IDX 5 1 3 2 2 3 1 4 22 5 20 6 19 7 17 8 16 9 15 10 14 11 6 12
REMARK SMILES IDX 7 13 8 14 9 15 13 16 11 17 10 18 12 20 4 22 21 24 18 26
REMARK H PARENT 10 19 12 21 4 23 21 25 18 27
REMARK Flexibility Score: inf
ROOT
ATOM      1  C   UNL     1     173.386 172.285 149.724  1.00  0.00     0.180 A 
ATOM      2  C   UNL     1     172.992 173.368 148.920  1.00  0.00     0.208 A 
ATOM      3  C   UNL     1     173.748 174.550 148.950  1.00  0.00     0.238 A 
ATOM      4  O   UNL     1     173.358 175.534 148.269  1.00  0.00    -0.285 OA
ATOM      5  C   UNL     1     174.898 174.631 149.772  1.00  0.00     0.111 A 
ATOM      6  C   UNL     1     175.760 175.765 149.851  1.00  0.00     0.134 A 
ATOM      7  C   UNL     1     176.794 175.782 150.795  1.00  0.00     0.093 A 
ATOM      8  C   UNL     1     177.037 174.683 151.616  1.00  0.00     0.123 A 
ATOM      9  C   UNL     1     176.237 173.545 151.507  1.00  0.00     0.094 A 
ATOM     10  C   UNL     1     175.175 173.512 150.599  1.00  0.00     0.146 A 
ATOM     11  O   UNL     1     174.432 172.414 150.533  1.00  0.00    -0.452 OA
ENDROOT
BRANCH   1  12
ATOM     12  C   UNL     1     172.655 170.997 149.727  1.00  0.00     0.025 A 
ATOM     13  C   UNL     1     171.642 170.781 150.674  1.00  0.00     0.016 A 
ATOM     14  C   UNL     1     170.954 169.566 150.709  1.00  0.00     0.051 A 
ATOM     15  C   UNL     1     171.278 168.543 149.808  1.00  0.00     0.157 A 
ATOM     16  C   UNL     1     172.993 169.961 148.838  1.00  0.00     0.062 A 
ATOM     17  C   UNL     1     172.307 168.742 148.872  1.00  0.00     0.158 A 
BRANCH  15  18
ATOM     18  O   UNL     1     170.590 167.332 149.843  1.00  0.00    -0.504 OA
ATOM     19  H   UNL     1     169.697 167.216 149.378  1.00  0.00     0.293 HD
ENDBRANCH  15  18
BRANCH  17  20
ATOM     20  O   UNL     1     172.665 167.739 147.970  1.00  0.00    -0.504 OA
ATOM     21  H   UNL     1     172.627 167.879 146.968  1.00  0.00     0.293 HD
ENDBRANCH  17  20
ENDBRANCH   1  12
BRANCH   2  22
ATOM     22  O   UNL     1     171.841 173.274 148.132  1.00  0.00    -0.502 OA
ATOM     23  H   UNL     1     171.385 172.390 147.938  1.00  0.00     0.293 HD
ENDBRANCH   2  22
BRANCH   6  24
ATOM     24  O   UNL     1     175.662 176.880 149.012  1.00  0.00    -0.507 OA
ATOM     25  H   UNL     1     174.974 176.992 148.283  1.00  0.00     0.293 HD
ENDBRANCH   6  24
BRANCH   8  26
ATOM     26  O   UNL     1     178.086 174.728 152.533  1.00  0.00    -0.508 OA
ATOM     27  H   UNL     1     178.098 175.399 153.292  1.00  0.00     0.293 HD
ENDBRANCH   8  26
TORSDOF 6
ENDMDL
MODEL 9
REMARK VINA RESULT:    -4.080      1.653      7.107
REMARK INTER + INTRA:          -5.249
REMARK INTER:                  -4.919
REMARK INTRA:                  -0.330
REMARK UNBOUND:                -0.334
REMARK SMILES O=c1c(O)c(-c2ccc(O)c(O)c2)oc2cc(O)cc(O)c12
REMARK SMILES IDX 5 1 3 2 2 3 1 4 22 5 20 6 19 7 17 8 16 9 15 10 14 11 6 12
REMARK SMILES IDX 7 13 8 14 9 15 13 16 11 17 10 18 12 20 4 22 21 24 18 26
REMARK H PARENT 10 19 12 21 4 23 21 25 18 27
REMARK Flexibility Score: inf
ROOT
ATOM      1  C   UNL     1     174.698 175.789 149.722  1.00  0.00     0.180 A 
ATOM      2  C   UNL     1     175.113 174.723 148.905  1.00  0.00     0.208 A 
ATOM      3  C   UNL     1     174.388 173.521 148.932  1.00  0.00     0.238 A 
ATOM      4  O   UNL     1     174.797 172.553 148.239  1.00  0.00    -0.285 OA
ATOM      5  C   UNL     1     173.248 173.404 149.764  1.00  0.00     0.111 A 
ATOM      6  C   UNL     1     172.417 172.247 149.841  1.00  0.00     0.134 A 
ATOM      7  C   UNL     1     171.392 172.195 150.794  1.00  0.00     0.093 A 
ATOM      8  C   UNL     1     171.128 173.281 151.627  1.00  0.00     0.123 A 
ATOM      9  C   UNL     1     171.898 174.440 151.520  1.00  0.00     0.094 A 
ATOM     10  C   UNL     1     172.949 174.508 150.603  1.00  0.00     0.146 A 
ATOM     11  O   UNL     1     173.664 175.626 150.540  1.00  0.00    -0.452 OA
ENDROOT
BRANCH   1  12
ATOM     12  C   UNL     1     175.395 177.095 149.730  1.00  0.00     0.025 A 
ATOM     13  C   UNL     1     176.425 177.323 150.656  1.00  0.00     0.016 A 
ATOM     14  C   UNL     1     177.082 178.554 150.694  1.00  0.00     0.051 A 
ATOM     15  C   UNL     1     176.710 179.583 149.819  1.00  0.00     0.157 A 
ATOM     16  C   UNL     1     175.009 178.136 148.867  1.00  0.00     0.062 A 
ATOM     17  C   UNL     1     175.664 179.373 148.904  1.00  0.00     0.158 A 
BRANCH  15  18
ATOM     18  O   UNL     1     177.367 180.811 149.858  1.00  0.00    -0.504 OA
ATOM     19  H   UNL     1     176.858 181.683 149.933  1.00  0.00     0.293 HD
ENDBRANCH  15  18
BRANCH  17  20
ATOM     20  O   UNL     1     175.259 180.380 148.028  1.00  0.00    -0.504 OA
ATOM     21  H   UNL     1     175.381 181.362 148.246  1.00  0.00     0.293 HD
ENDBRANCH  17  20
ENDBRANCH   1  12
BRANCH   2  22
ATOM     22  O   UNL     1     176.253 174.853 148.108  1.00  0.00    -0.502 OA
ATOM     23  H   UNL     1     176.802 174.055 147.808  1.00  0.00     0.293 HD
ENDBRANCH   2  22
BRANCH   6  24
ATOM     24  O   UNL     1     172.535 171.142 148.992  1.00  0.00    -0.507 OA
ATOM     25  H   UNL     1     173.151 171.094 148.195  1.00  0.00     0.293 HD
ENDBRANCH   6  24
BRANCH   8  26
ATOM     26  O   UNL     1     170.090 173.201 152.554  1.00  0.00    -0.508 OA
ATOM     27  H   UNL     1     169.990 172.404 153.171  1.00  0.00     0.293 HD
ENDBRANCH   8  26
TORSDOF 6
ENDMDL
