MODEL 1
REMARK VINA RESULT:    -6.444      0.000      0.000
REMARK INTER + INTRA:          -7.926
REMARK INTER:                  -7.762
REMARK INTRA:                  -0.164
REMARK UNBOUND:                -0.164
REMARK SMILES O=c1c(O)c(-c2ccc(O)c(O)c2)oc2cc(O)cc(O)c12
REMARK SMILES IDX 5 1 3 2 2 3 1 4 22 5 20 6 19 7 17 8 16 9 15 10 14 11 6 12
REMARK SMILES IDX 7 13 8 14 9 15 13 16 11 17 10 18 12 20 4 22 21 24 18 26
REMARK H PARENT 10 19 12 21 4 23 21 25 18 27
REMARK Flexibility Score: inf
ROOT
ATOM      1  C   UNL     1      15.785  20.905 -11.713  1.00  0.00     0.180 A 
ATOM      2  C   UNL     1      16.724  21.046 -10.676  1.00  0.00     0.208 A 
ATOM      3  C   UNL     1      18.050  21.372 -10.999  1.00  0.00     0.238 A 
ATOM      4  O   UNL     1      18.867  21.571 -10.062  1.00  0.00    -0.285 OA
ATOM      5  C   UNL     1      18.437  21.494 -12.355  1.00  0.00     0.111 A 
ATOM      6  C   UNL     1      19.766  21.775 -12.799  1.00  0.00     0.134 A 
ATOM      7  C   UNL     1      20.008  21.979 -14.163  1.00  0.00     0.093 A 
ATOM      8  C   UNL     1      18.985  21.849 -15.106  1.00  0.00     0.123 A 
ATOM      9  C   UNL     1      17.698  21.521 -14.688  1.00  0.00     0.094 A 
ATOM     10  C   UNL     1      17.416  21.348 -13.330  1.00  0.00     0.146 A 
ATOM     11  O   UNL     1      16.170  21.057 -12.975  1.00  0.00    -0.452 OA
ENDROOT
BRANCH   1  12
ATOM     12  C   UNL     1      14.365  20.577 -11.452  1.00  0.00     0.025 A 
ATOM     13  C   UNL     1      13.537  21.445 -10.719  1.00  0.00     0.016 A 
ATOM     14  C   UNL     1      12.193  21.126 -10.507  1.00  0.00     0.051 A 
ATOM     15  C   UNL     1      11.654  19.946 -11.034  1.00  0.00     0.157 A 
ATOM     16  C   UNL     1      13.815  19.406 -11.998  1.00  0.00     0.062 A 
ATOM     17  C   UNL     1      12.470  19.083 -11.787  1.00  0.00     0.158 A 
BRANCH  15  18
ATOM     18  O   UNL     1      10.313  19.629 -10.820  1.00  0.00    -0.504 OA
ATOM     19  H   UNL     1       9.635  20.339 -10.565  1.00  0.00     0.293 HD
ENDBRANCH  15  18
BRANCH  17  20
ATOM     20  O   UNL     1      11.962  17.905 -12.333  1.00  0.00    -0.504 OA
ATOM     21  H   UNL     1      11.151  17.437 -11.944  1.00  0.00     0.293 HD
ENDBRANCH  17  20
ENDBRANCH   1  12
BRANCH   2  22
ATOM     22  O   UNL     1      16.339  20.846  -9.348  1.00  0.00    -0.502 OA
ATOM     23  H   UNL     1      15.425  21.111  -9.001  1.00  0.00     0.293 HD
ENDBRANCH   2  22
BRANCH   6  24
ATOM     24  O   UNL     1      20.877  21.841 -11.954  1.00  0.00    -0.507 OA
ATOM     25  H   UNL     1      21.323  21.045 -11.523  1.00  0.00     0.293 HD
ENDBRANCH   6  24
BRANCH   8  26
ATOM     26  O   UNL     1      19.240  22.037 -16.462  1.00  0.00    -0.508 OA
ATOM     27  H   UNL     1      19.767  21.360 -17.002  1.00  0.00     0.293 HD
ENDBRANCH   8  26
TORSDOF 6
ENDMDL
MODEL 2
REMARK VINA RESULT:    -6.404      2.230      3.832
REMARK INTER + INTRA:          -7.878
REMARK INTER:                  -7.558
REMARK INTRA:                  -0.321
REMARK UNBOUND:                -0.164
REMARK SMILES O=c1c(O)c(-c2ccc(O)c(O)c2)oc2cc(O)cc(O)c12
REMARK SMILES IDX 5 1 3 2 2 3 1 4 22 5 20 6 19 7 17 8 16 9 15 10 14 11 6 12
REMARK SMILES IDX 7 13 8 14 9 15 13 16 11 17 10 18 12 20 4 22 21 24 18 26
REMARK H PARENT 10 19 12 21 4 23 21 25 18 27
REMARK Flexibility Score: inf
ROOT
ATOM      1  C   UNL     1      12.712  19.956 -10.262  1.00  0.00     0.180 A 
ATOM      2  C   UNL     1      13.568  20.236  -9.183  1.00  0.00     0.208 A 
ATOM      3  C   UNL     1      14.833  20.786  -9.442  1.00  0.00     0.238 A 
ATOM      4  O   UNL     1      15.563  21.104  -8.467  1.00  0.00    -0.285 OA
ATOM      5  C   UNL     1      15.251  20.996 -10.778  1.00  0.00     0.111 A 
ATOM      6  C   UNL     1      16.530  21.507 -11.159  1.00  0.00     0.134 A 
ATOM      7  C   UNL     1      16.792  21.774 -12.508  1.00  0.00     0.093 A 
ATOM      8  C   UNL     1      15.847  21.490 -13.497  1.00  0.00     0.123 A 
ATOM      9  C   UNL     1      14.618  20.941 -13.141  1.00  0.00     0.094 A 
ATOM     10  C   UNL     1      14.311  20.698 -11.799  1.00  0.00     0.146 A 
ATOM     11  O   UNL     1      13.119  20.194 -11.504  1.00  0.00    -0.452 OA
ENDROOT
BRANCH   1  12
ATOM     12  C   UNL     1      11.358  19.389 -10.069  1.00  0.00     0.025 A 
ATOM     13  C   UNL     1      11.138  18.000 -10.076  1.00  0.00     0.016 A 
ATOM     14  C   UNL     1       9.855  17.488  -9.866  1.00  0.00     0.051 A 
ATOM     15  C   UNL     1       8.778  18.352  -9.634  1.00  0.00     0.157 A 
ATOM     16  C   UNL     1      10.278  20.250  -9.814  1.00  0.00     0.062 A 
ATOM     17  C   UNL     1       8.992  19.740  -9.604  1.00  0.00     0.158 A 
BRANCH  15  18
ATOM     18  O   UNL     1       7.498  17.838  -9.427  1.00  0.00    -0.504 OA
ATOM     19  H   UNL     1       7.195  17.522  -8.512  1.00  0.00     0.293 HD
ENDBRANCH  15  18
BRANCH  17  20
ATOM     20  O   UNL     1       7.942  20.627  -9.367  1.00  0.00    -0.504 OA
ATOM     21  H   UNL     1       6.985  20.408  -9.620  1.00  0.00     0.293 HD
ENDBRANCH  17  20
ENDBRANCH   1  12
BRANCH   2  22
ATOM     22  O   UNL     1      13.167  19.949  -7.875  1.00  0.00    -0.502 OA
ATOM     23  H   UNL     1      13.646  19.270  -7.296  1.00  0.00     0.293 HD
ENDBRANCH   2  22
BRANCH   6  24
ATOM     24  O   UNL     1      17.577  21.744 -10.264  1.00  0.00    -0.507 OA
ATOM     25  H   UNL     1      18.027  22.636 -10.125  1.00  0.00     0.293 HD
ENDBRANCH   6  24
BRANCH   8  26
ATOM     26  O   UNL     1      16.124  21.742 -14.838  1.00  0.00    -0.508 OA
ATOM     27  H   UNL     1      15.387  21.946 -15.504  1.00  0.00     0.293 HD
ENDBRANCH   8  26
TORSDOF 6
ENDMDL
MODEL 3
REMARK VINA RESULT:    -6.279      2.469      8.060
REMARK INTER + INTRA:          -7.728
REMARK INTER:                  -7.419
REMARK INTRA:                  -0.309
REMARK UNBOUND:                -0.164
REMARK SMILES O=c1c(O)c(-c2ccc(O)c(O)c2)oc2cc(O)cc(O)c12
REMARK SMILES IDX 5 1 3 2 2 3 1 4 22 5 20 6 19 7 17 8 16 9 15 10 14 11 6 12
REMARK SMILES IDX 7 13 8 14 9 15 13 16 11 17 10 18 12 20 4 22 21 24 18 26
REMARK H PARENT 10 19 12 21 4 23 21 25 18 27
REMARK Flexibility Score: inf
ROOT
ATOM      1  C   UNL     1      12.754  19.584 -10.851  1.00  0.00     0.180 A 
ATOM      2  C   UNL     1      11.782  20.445 -10.313  1.00  0.00     0.208 A 
ATOM      3  C   UNL     1      10.564  19.905  -9.871  1.00  0.00     0.238 A 
ATOM      4  O   UNL     1       9.729  20.671  -9.322  1.00  0.00    -0.285 OA
ATOM      5  C   UNL     1      10.308  18.522 -10.026  1.00  0.00     0.111 A 
ATOM      6  C   UNL     1       9.089  17.874  -9.655  1.00  0.00     0.134 A 
ATOM      7  C   UNL     1       8.991  16.481  -9.756  1.00  0.00     0.093 A 
ATOM      8  C   UNL     1      10.040  15.718 -10.273  1.00  0.00     0.123 A 
ATOM      9  C   UNL     1      11.212  16.346 -10.688  1.00  0.00     0.094 A 
ATOM     10  C   UNL     1      11.356  17.730 -10.565  1.00  0.00     0.146 A 
ATOM     11  O   UNL     1      12.499  18.285 -10.953  1.00  0.00    -0.452 OA
ENDROOT
BRANCH   1  12
ATOM     12  C   UNL     1      14.068  20.075 -11.325  1.00  0.00     0.025 A 
ATOM     13  C   UNL     1      15.220  19.970 -10.526  1.00  0.00     0.016 A 
ATOM     14  C   UNL     1      16.454  20.418 -11.004  1.00  0.00     0.051 A 
ATOM     15  C   UNL     1      16.558  20.964 -12.290  1.00  0.00     0.157 A 
ATOM     16  C   UNL     1      14.182  20.603 -12.621  1.00  0.00     0.062 A 
ATOM     17  C   UNL     1      15.416  21.053 -13.103  1.00  0.00     0.158 A 
BRANCH  15  18
ATOM     18  O   UNL     1      17.790  21.412 -12.764  1.00  0.00    -0.504 OA
ATOM     19  H   UNL     1      18.342  22.090 -12.250  1.00  0.00     0.293 HD
ENDBRANCH  15  18
BRANCH  17  20
ATOM     20  O   UNL     1      15.487  21.584 -14.391  1.00  0.00    -0.504 OA
ATOM     21  H   UNL     1      15.592  22.578 -14.559  1.00  0.00     0.293 HD
ENDBRANCH  17  20
ENDBRANCH   1  12
BRANCH   2  22
ATOM     22  O   UNL     1      12.024  21.820 -10.240  1.00  0.00    -0.502 OA
ATOM     23  H   UNL     1      12.825  22.205  -9.755  1.00  0.00     0.293 HD
ENDBRANCH   2  22
BRANCH   6  24
ATOM     24  O   UNL     1       7.948  18.548  -9.210  1.00  0.00    -0.507 OA
ATOM     25  H   UNL     1       7.692  18.672  -8.242  1.00  0.00     0.293 HD
ENDBRANCH   6  24
BRANCH   8  26
ATOM     26  O   UNL     1       9.925  14.335 -10.385  1.00  0.00    -0.508 OA
ATOM     27  H   UNL     1      10.740  13.732 -10.385  1.00  0.00     0.293 HD
ENDBRANCH   8  26
TORSDOF 6
ENDMDL
MODEL 4
REMARK VINA RESULT:    -6.277      2.541      3.891
REMARK INTER + INTRA:          -7.726
REMARK INTER:                  -7.397
REMARK INTRA:                  -0.329
REMARK UNBOUND:                -0.164
REMARK SMILES O=c1c(O)c(-c2ccc(O)c(O)c2)oc2cc(O)cc(O)c12
REMARK SMILES IDX 5 1 3 2 2 3 1 4 22 5 20 6 19 7 17 8 16 9 15 10 14 11 6 12
REMARK SMILES IDX 7 13 8 14 9 15 13 16 11 17 10 18 12 20 4 22 21 24 18 26
REMARK H PARENT 10 19 12 21 4 23 21 25 18 27
REMARK Flexibility Score: inf
ROOT
ATOM      1  C   UNL     1      12.781  18.912 -10.373  1.00  0.00     0.180 A 
ATOM      2  C   UNL     1      13.788  18.755  -9.404  1.00  0.00     0.208 A 
ATOM      3  C   UNL     1      15.057  19.304  -9.646  1.00  0.00     0.238 A 
ATOM      4  O   UNL     1      15.930  19.225  -8.743  1.00  0.00    -0.285 OA
ATOM      5  C   UNL     1      15.322  19.951 -10.877  1.00  0.00     0.111 A 
ATOM      6  C   UNL     1      16.586  20.505 -11.248  1.00  0.00     0.134 A 
ATOM      7  C   UNL     1      16.701  21.217 -12.448  1.00  0.00     0.093 A 
ATOM      8  C   UNL     1      15.617  21.341 -13.321  1.00  0.00     0.123 A 
ATOM      9  C   UNL     1      14.396  20.758 -12.993  1.00  0.00     0.094 A 
ATOM     10  C   UNL     1      14.239  20.074 -11.785  1.00  0.00     0.146 A 
ATOM     11  O   UNL     1      13.050  19.552 -11.504  1.00  0.00    -0.452 OA
ENDROOT
BRANCH   1  12
ATOM     12  C   UNL     1      11.415  18.374 -10.184  1.00  0.00     0.025 A 
ATOM     13  C   UNL     1      10.430  19.103  -9.494  1.00  0.00     0.016 A 
ATOM     14  C   UNL     1       9.140  18.586  -9.350  1.00  0.00     0.051 A 
ATOM     15  C   UNL     1       8.811  17.342  -9.903  1.00  0.00     0.157 A 
ATOM     16  C   UNL     1      11.074  17.138 -10.755  1.00  0.00     0.062 A 
ATOM     17  C   UNL     1       9.783  16.616 -10.613  1.00  0.00     0.158 A 
BRANCH  15  18
ATOM     18  O   UNL     1       7.523  16.828  -9.756  1.00  0.00    -0.504 OA
ATOM     19  H   UNL     1       7.302  15.871 -10.010  1.00  0.00     0.293 HD
ENDBRANCH  15  18
BRANCH  17  20
ATOM     20  O   UNL     1       9.485  15.379 -11.182  1.00  0.00    -0.504 OA
ATOM     21  H   UNL     1       9.169  15.289 -12.141  1.00  0.00     0.293 HD
ENDBRANCH  17  20
ENDBRANCH   1  12
BRANCH   2  22
ATOM     22  O   UNL     1      13.528  18.045  -8.228  1.00  0.00    -0.502 OA
ATOM     23  H   UNL     1      14.233  17.486  -7.764  1.00  0.00     0.293 HD
ENDBRANCH   2  22
BRANCH   6  24
ATOM     24  O   UNL     1      17.755  20.365 -10.494  1.00  0.00    -0.507 OA
ATOM     25  H   UNL     1      18.316  19.527 -10.449  1.00  0.00     0.293 HD
ENDBRANCH   6  24
BRANCH   8  26
ATOM     26  O   UNL     1      15.747  22.036 -14.521  1.00  0.00    -0.508 OA
ATOM     27  H   UNL     1      16.208  22.938 -14.565  1.00  0.00     0.293 HD
ENDBRANCH   8  26
TORSDOF 6
ENDMDL
MODEL 5
REMARK VINA RESULT:    -6.218      1.235      2.946
REMARK INTER + INTRA:          -7.654
REMARK INTER:                  -7.407
REMARK INTRA:                  -0.247
REMARK UNBOUND:                -0.164
REMARK SMILES O=c1c(O)c(-c2ccc(O)c(O)c2)oc2cc(O)cc(O)c12
REMARK SMILES IDX 5 1 3 2 2 3 1 4 22 5 20 6 19 7 17 8 16 9 15 10 14 11 6 12
REMARK SMILES IDX 7 13 8 14 9 15 13 16 11 17 10 18 12 20 4 22 21 24 18 26
REMARK H PARENT 10 19 12 21 4 23 21 25 18 27
REMARK Flexibility Score: inf
ROOT
ATOM      1  C   UNL     1      15.886  20.899 -11.878  1.00  0.00     0.180 A 
ATOM      2  C   UNL     1      16.281  21.272 -13.175  1.00  0.00     0.208 A 
ATOM      3  C   UNL     1      17.643  21.489 -13.435  1.00  0.00     0.238 A 
ATOM      4  O   UNL     1      17.998  21.749 -14.615  1.00  0.00    -0.285 OA
ATOM      5  C   UNL     1      18.587  21.389 -12.385  1.00  0.00     0.111 A 
ATOM      6  C   UNL     1      19.988  21.633 -12.524  1.00  0.00     0.134 A 
ATOM      7  C   UNL     1      20.840  21.398 -11.439  1.00  0.00     0.093 A 
ATOM      8  C   UNL     1      20.337  20.990 -10.201  1.00  0.00     0.123 A 
ATOM      9  C   UNL     1      18.967  20.803 -10.040  1.00  0.00     0.094 A 
ATOM     10  C   UNL     1      18.094  20.992 -11.114  1.00  0.00     0.146 A 
ATOM     11  O   UNL     1      16.797  20.781 -10.921  1.00  0.00    -0.452 OA
ENDROOT
BRANCH   1  12
ATOM     12  C   UNL     1      14.470  20.639 -11.530  1.00  0.00     0.025 A 
ATOM     13  C   UNL     1      13.714  21.570 -10.797  1.00  0.00     0.016 A 
ATOM     14  C   UNL     1      12.372  21.313 -10.502  1.00  0.00     0.051 A 
ATOM     15  C   UNL     1      11.764  20.131 -10.944  1.00  0.00     0.157 A 
ATOM     16  C   UNL     1      13.850  19.466 -11.990  1.00  0.00     0.062 A 
ATOM     17  C   UNL     1      12.508  19.204 -11.695  1.00  0.00     0.158 A 
BRANCH  15  18
ATOM     18  O   UNL     1      10.426  19.876 -10.647  1.00  0.00    -0.504 OA
ATOM     19  H   UNL     1       9.841  19.324 -11.265  1.00  0.00     0.293 HD
ENDBRANCH  15  18
BRANCH  17  20
ATOM     20  O   UNL     1      11.930  18.023 -12.158  1.00  0.00    -0.504 OA
ATOM     21  H   UNL     1      12.412  17.132 -12.110  1.00  0.00     0.293 HD
ENDBRANCH  17  20
ENDBRANCH   1  12
BRANCH   2  22
ATOM     22  O   UNL     1      15.325  21.441 -14.180  1.00  0.00    -0.502 OA
ATOM     23  H   UNL     1      15.558  21.400 -15.165  1.00  0.00     0.293 HD
ENDBRANCH   2  22
BRANCH   6  24
ATOM     24  O   UNL     1      20.585  22.125 -13.689  1.00  0.00    -0.507 OA
ATOM     25  H   UNL     1      20.747  21.586 -14.526  1.00  0.00     0.293 HD
ENDBRANCH   6  24
BRANCH   8  26
ATOM     26  O   UNL     1      21.192  20.776  -9.122  1.00  0.00    -0.508 OA
ATOM     27  H   UNL     1      21.706  19.910  -9.016  1.00  0.00     0.293 HD
ENDBRANCH   8  26
TORSDOF 6
ENDMDL
MODEL 6
REMARK VINA RESULT:    -6.132      3.075      5.750
REMARK INTER + INTRA:          -7.551
REMARK INTER:                  -7.244
REMARK INTRA:                  -0.307
REMARK UNBOUND:                -0.164
REMARK SMILES O=c1c(O)c(-c2ccc(O)c(O)c2)oc2cc(O)cc(O)c12
REMARK SMILES IDX 5 1 3 2 2 3 1 4 22 5 20 6 19 7 17 8 16 9 15 10 14 11 6 12
REMARK SMILES IDX 7 13 8 14 9 15 13 16 11 17 10 18 12 20 4 22 21 24 18 26
REMARK H PARENT 10 19 12 21 4 23 21 25 18 27
REMARK Flexibility Score: inf
ROOT
ATOM      1  C   UNL     1      11.701  18.937 -10.326  1.00  0.00     0.180 A 
ATOM      2  C   UNL     1      12.184  18.795 -11.638  1.00  0.00     0.208 A 
ATOM      3  C   UNL     1      13.419  19.370 -11.975  1.00  0.00     0.238 A 
ATOM      4  O   UNL     1      13.881  19.175 -13.130  1.00  0.00    -0.285 OA
ATOM      5  C   UNL     1      14.129  20.131 -11.015  1.00  0.00     0.111 A 
ATOM      6  C   UNL     1      15.368  20.798 -11.260  1.00  0.00     0.134 A 
ATOM      7  C   UNL     1      16.032  21.431 -10.202  1.00  0.00     0.093 A 
ATOM      8  C   UNL     1      15.472  21.477  -8.923  1.00  0.00     0.123 A 
ATOM      9  C   UNL     1      14.238  20.877  -8.687  1.00  0.00     0.094 A 
ATOM     10  C   UNL     1      13.569  20.205  -9.712  1.00  0.00     0.146 A 
ATOM     11  O   UNL     1      12.405  19.628  -9.437  1.00  0.00    -0.452 OA
ENDROOT
BRANCH   1  12
ATOM     12  C   UNL     1      10.415  18.347  -9.891  1.00  0.00     0.025 A 
ATOM     13  C   UNL     1      10.310  16.985  -9.558  1.00  0.00     0.016 A 
ATOM     14  C   UNL     1       9.091  16.455  -9.126  1.00  0.00     0.051 A 
ATOM     15  C   UNL     1       7.965  17.279  -9.006  1.00  0.00     0.157 A 
ATOM     16  C   UNL     1       9.289  19.173  -9.748  1.00  0.00     0.062 A 
ATOM     17  C   UNL     1       8.067  18.647  -9.316  1.00  0.00     0.158 A 
BRANCH  15  18
ATOM     18  O   UNL     1       6.750  16.749  -8.576  1.00  0.00    -0.504 OA
ATOM     19  H   UNL     1       6.667  16.265  -7.688  1.00  0.00     0.293 HD
ENDBRANCH  15  18
BRANCH  17  20
ATOM     20  O   UNL     1       6.966  19.495  -9.199  1.00  0.00    -0.504 OA
ATOM     21  H   UNL     1       6.252  19.553  -9.915  1.00  0.00     0.293 HD
ENDBRANCH  17  20
ENDBRANCH   1  12
BRANCH   2  22
ATOM     22  O   UNL     1      11.432  18.106 -12.594  1.00  0.00    -0.502 OA
ATOM     23  H   UNL     1      11.813  17.830 -13.490  1.00  0.00     0.293 HD
ENDBRANCH   2  22
BRANCH   6  24
ATOM     24  O   UNL     1      15.974  20.889 -12.517  1.00  0.00    -0.507 OA
ATOM     25  H   UNL     1      16.814  20.402 -12.790  1.00  0.00     0.293 HD
ENDBRANCH   6  24
BRANCH   8  26
ATOM     26  O   UNL     1      16.132  22.125  -7.882  1.00  0.00    -0.508 OA
ATOM     27  H   UNL     1      17.113  22.372  -7.947  1.00  0.00     0.293 HD
ENDBRANCH   8  26
TORSDOF 6
ENDMDL
MODEL 7
REMARK VINA RESULT:    -5.793      3.731      9.234
REMARK INTER + INTRA:          -7.142
REMARK INTER:                  -7.042
REMARK INTRA:                  -0.100
REMARK UNBOUND:                -0.164
REMARK SMILES O=c1c(O)c(-c2ccc(O)c(O)c2)oc2cc(O)cc(O)c12
REMARK SMILES IDX 5 1 3 2 2 3 1 4 22 5 20 6 19 7 17 8 16 9 15 10 14 11 6 12
REMARK SMILES IDX 7 13 8 14 9 15 13 16 11 17 10 18 12 20 4 22 21 24 18 26
REMARK H PARENT 10 19 12 21 4 23 21 25 18 27
REMARK Flexibility Score: inf
ROOT
ATOM      1  C   UNL     1      11.361  18.403 -10.139  1.00  0.00     0.180 A 
ATOM      2  C   UNL     1      10.166  19.066  -9.812  1.00  0.00     0.208 A 
ATOM      3  C   UNL     1       9.159  18.360  -9.136  1.00  0.00     0.238 A 
ATOM      4  O   UNL     1       8.123  18.981  -8.779  1.00  0.00    -0.285 OA
ATOM      5  C   UNL     1       9.334  16.986  -8.847  1.00  0.00     0.111 A 
ATOM      6  C   UNL     1       8.360  16.160  -8.206  1.00  0.00     0.134 A 
ATOM      7  C   UNL     1       8.686  14.839  -7.875  1.00  0.00     0.093 A 
ATOM      8  C   UNL     1       9.925  14.293  -8.218  1.00  0.00     0.123 A 
ATOM      9  C   UNL     1      10.861  15.074  -8.892  1.00  0.00     0.094 A 
ATOM     10  C   UNL     1      10.580  16.407  -9.203  1.00  0.00     0.146 A 
ATOM     11  O   UNL     1      11.510  17.121  -9.827  1.00  0.00    -0.452 OA
ENDROOT
BRANCH   1  12
ATOM     12  C   UNL     1      12.475  19.083 -10.839  1.00  0.00     0.025 A 
ATOM     13  C   UNL     1      12.907  18.663 -12.109  1.00  0.00     0.016 A 
ATOM     14  C   UNL     1      13.944  19.337 -12.761  1.00  0.00     0.051 A 
ATOM     15  C   UNL     1      14.554  20.446 -12.160  1.00  0.00     0.157 A 
ATOM     16  C   UNL     1      13.075  20.209 -10.251  1.00  0.00     0.062 A 
ATOM     17  C   UNL     1      14.114  20.885 -10.900  1.00  0.00     0.158 A 
BRANCH  15  18
ATOM     18  O   UNL     1      15.589  21.115 -12.811  1.00  0.00    -0.504 OA
ATOM     19  H   UNL     1      16.520  21.170 -12.411  1.00  0.00     0.293 HD
ENDBRANCH  15  18
BRANCH  17  20
ATOM     20  O   UNL     1      14.695  21.991 -10.279  1.00  0.00    -0.504 OA
ATOM     21  H   UNL     1      15.254  21.905  -9.438  1.00  0.00     0.293 HD
ENDBRANCH  17  20
ENDBRANCH   1  12
BRANCH   2  22
ATOM     22  O   UNL     1       9.983  20.404 -10.175  1.00  0.00    -0.502 OA
ATOM     23  H   UNL     1       9.984  20.710 -11.140  1.00  0.00     0.293 HD
ENDBRANCH   2  22
BRANCH   6  24
ATOM     24  O   UNL     1       7.061  16.575  -7.897  1.00  0.00    -0.507 OA
ATOM     25  H   UNL     1       6.815  17.169  -7.119  1.00  0.00     0.293 HD
ENDBRANCH   6  24
BRANCH   8  26
ATOM     26  O   UNL     1      10.233  12.973  -7.901  1.00  0.00    -0.508 OA
ATOM     27  H   UNL     1      11.188  12.633  -7.912  1.00  0.00     0.293 HD
ENDBRANCH   8  26
TORSDOF 6
ENDMDL
MODEL 8
REMARK VINA RESULT:    -5.455      3.178      5.078
REMARK INTER + INTRA:          -6.735
REMARK INTER:                  -6.417
REMARK INTRA:                  -0.318
REMARK UNBOUND:                -0.164
REMARK SMILES O=c1c(O)c(-c2ccc(O)c(O)c2)oc2cc(O)cc(O)c12
REMARK SMILES IDX 5 1 3 2 2 3 1 4 22 5 20 6 19 7 17 8 16 9 15 10 14 11 6 12
REMARK SMILES IDX 7 13 8 14 9 15 13 16 11 17 10 18 12 20 4 22 21 24 18 26
REMARK H PARENT 10 19 12 21 4 23 21 25 18 27
REMARK Flexibility Score: inf
ROOT
ATOM      1  C   UNL     1      12.433  19.135  -9.746  1.00  0.00     0.180 A 
ATOM      2  C   UNL     1      12.492  20.382 -10.391  1.00  0.00     0.208 A 
ATOM      3  C   UNL     1      13.747  20.955 -10.651  1.00  0.00     0.238 A 
ATOM      4  O   UNL     1      13.795  22.035 -11.296  1.00  0.00    -0.285 OA
ATOM      5  C   UNL     1      14.925  20.304 -10.211  1.00  0.00     0.111 A 
ATOM      6  C   UNL     1      16.248  20.815 -10.379  1.00  0.00     0.134 A 
ATOM      7  C   UNL     1      17.344  20.032  -9.999  1.00  0.00     0.093 A 
ATOM      8  C   UNL     1      17.165  18.783  -9.397  1.00  0.00     0.123 A 
ATOM      9  C   UNL     1      15.878  18.300  -9.179  1.00  0.00     0.094 A 
ATOM     10  C   UNL     1      14.764  19.041  -9.582  1.00  0.00     0.146 A 
ATOM     11  O   UNL     1      13.555  18.532  -9.374  1.00  0.00    -0.452 OA
ENDROOT
BRANCH   1  12
ATOM     12  C   UNL     1      11.148  18.460  -9.451  1.00  0.00     0.025 A 
ATOM     13  C   UNL     1      10.490  18.644  -8.222  1.00  0.00     0.016 A 
ATOM     14  C   UNL     1       9.266  18.017  -7.976  1.00  0.00     0.051 A 
ATOM     15  C   UNL     1       8.676  17.208  -8.956  1.00  0.00     0.157 A 
ATOM     16  C   UNL     1      10.542  17.666 -10.438  1.00  0.00     0.062 A 
ATOM     17  C   UNL     1       9.317  17.036 -10.195  1.00  0.00     0.158 A 
BRANCH  15  18
ATOM     18  O   UNL     1       7.455  16.582  -8.708  1.00  0.00    -0.504 OA
ATOM     19  H   UNL     1       6.824  16.333  -9.461  1.00  0.00     0.293 HD
ENDBRANCH  15  18
BRANCH  17  20
ATOM     20  O   UNL     1       8.751  16.244 -11.194  1.00  0.00    -0.504 OA
ATOM     21  H   UNL     1       9.295  15.887 -11.971  1.00  0.00     0.293 HD
ENDBRANCH  17  20
ENDBRANCH   1  12
BRANCH   2  22
ATOM     22  O   UNL     1      11.315  21.045 -10.749  1.00  0.00    -0.502 OA
ATOM     23  H   UNL     1      10.594  21.273 -10.076  1.00  0.00     0.293 HD
ENDBRANCH   2  22
BRANCH   6  24
ATOM     24  O   UNL     1      16.538  22.085 -10.888  1.00  0.00    -0.507 OA
ATOM     25  H   UNL     1      16.349  22.954 -10.413  1.00  0.00     0.293 HD
ENDBRANCH   6  24
BRANCH   8  26
ATOM     26  O   UNL     1      18.262  18.019  -9.006  1.00  0.00    -0.508 OA
ATOM     27  H   UNL     1      18.174  17.031  -8.800  1.00  0.00     0.293 HD
ENDBRANCH   8  26
TORSDOF 6
ENDMDL
