MODEL 1
REMARK VINA RESULT:    -6.924      0.000      0.000
REMARK INTER + INTRA:          -8.664
REMARK INTER:                  -8.341
REMARK INTRA:                  -0.324
REMARK UNBOUND:                -0.324
REMARK SMILES O=c1c(O)c(-c2ccc(O)c(O)c2)oc2cc(O)cc(O)c12
REMARK SMILES IDX 5 1 3 2 2 3 1 4 22 5 20 6 19 7 17 8 16 9 15 10 14 11 6 12
REMARK SMILES IDX 7 13 8 14 9 15 13 16 11 17 10 18 12 20 4 22 21 24 18 26
REMARK H PARENT 10 19 12 21 4 23 21 25 18 27
REMARK Flexibility Score: inf
ROOT
ATOM      1  C   UNL     1      54.222  11.402  90.059  1.00  0.00     0.180 A 
ATOM      2  C   UNL     1      54.958  12.505  90.525  1.00  0.00     0.208 A 
ATOM      3  C   UNL     1      54.930  13.702  89.791  1.00  0.00     0.238 A 
ATOM      4  O   UNL     1      55.634  14.669  90.185  1.00  0.00    -0.285 OA
ATOM      5  C   UNL     1      54.155  13.786  88.610  1.00  0.00     0.111 A 
ATOM      6  C   UNL     1      54.022  14.960  87.809  1.00  0.00     0.134 A 
ATOM      7  C   UNL     1      53.334  14.892  86.591  1.00  0.00     0.093 A 
ATOM      8  C   UNL     1      52.720  13.710  86.177  1.00  0.00     0.123 A 
ATOM      9  C   UNL     1      52.794  12.572  86.980  1.00  0.00     0.094 A 
ATOM     10  C   UNL     1      53.503  12.599  88.183  1.00  0.00     0.146 A 
ATOM     11  O   UNL     1      53.558  11.492  88.913  1.00  0.00    -0.452 OA
ENDROOT
BRANCH   1  12
ATOM     12  C   UNL     1      54.182  10.115  90.791  1.00  0.00     0.025 A 
ATOM     13  C   UNL     1      55.132   9.107  90.551  1.00  0.00     0.016 A 
ATOM     14  C   UNL     1      55.090   7.911  91.271  1.00  0.00     0.051 A 
ATOM     15  C   UNL     1      54.108   7.708  92.250  1.00  0.00     0.157 A 
ATOM     16  C   UNL     1      53.213   9.917  91.788  1.00  0.00     0.062 A 
ATOM     17  C   UNL     1      53.167   8.719  92.510  1.00  0.00     0.158 A 
BRANCH  15  18
ATOM     18  O   UNL     1      54.067   6.513  92.965  1.00  0.00    -0.504 OA
ATOM     19  H   UNL     1      53.407   6.369  93.720  1.00  0.00     0.293 HD
ENDBRANCH  15  18
BRANCH  17  20
ATOM     20  O   UNL     1      52.181   8.551  93.482  1.00  0.00    -0.504 OA
ATOM     21  H   UNL     1      51.610   9.321  93.808  1.00  0.00     0.293 HD
ENDBRANCH  17  20
ENDBRANCH   1  12
BRANCH   2  22
ATOM     22  O   UNL     1      55.734  12.395  91.683  1.00  0.00    -0.502 OA
ATOM     23  H   UNL     1      56.192  11.532  91.950  1.00  0.00     0.293 HD
ENDBRANCH   2  22
BRANCH   6  24
ATOM     24  O   UNL     1      54.518  16.215  88.176  1.00  0.00    -0.507 OA
ATOM     25  H   UNL     1      54.610  17.002  87.552  1.00  0.00     0.293 HD
ENDBRANCH   6  24
BRANCH   8  26
ATOM     26  O   UNL     1      52.031  13.682  84.966  1.00  0.00    -0.508 OA
ATOM     27  H   UNL     1      52.506  13.817  84.082  1.00  0.00     0.293 HD
ENDBRANCH   8  26
TORSDOF 6
ENDMDL
MODEL 2
REMARK VINA RESULT:    -6.653      1.224      2.974
REMARK INTER + INTRA:          -8.338
REMARK INTER:                  -8.007
REMARK INTRA:                  -0.331
REMARK UNBOUND:                -0.324
REMARK SMILES O=c1c(O)c(-c2ccc(O)c(O)c2)oc2cc(O)cc(O)c12
REMARK SMILES IDX 5 1 3 2 2 3 1 4 22 5 20 6 19 7 17 8 16 9 15 10 14 11 6 12
REMARK SMILES IDX 7 13 8 14 9 15 13 16 11 17 10 18 12 20 4 22 21 24 18 26
REMARK H PARENT 10 19 12 21 4 23 21 25 18 27
REMARK Flexibility Score: inf
ROOT
ATOM      1  C   UNL     1      53.320  10.765  89.186  1.00  0.00     0.180 A 
ATOM      2  C   UNL     1      52.486  10.475  88.093  1.00  0.00     0.208 A 
ATOM      3  C   UNL     1      52.215  11.485  87.156  1.00  0.00     0.238 A 
ATOM      4  O   UNL     1      51.423  11.235  86.209  1.00  0.00    -0.285 OA
ATOM      5  C   UNL     1      52.794  12.766  87.315  1.00  0.00     0.111 A 
ATOM      6  C   UNL     1      52.620  13.853  86.405  1.00  0.00     0.134 A 
ATOM      7  C   UNL     1      53.134  15.115  86.730  1.00  0.00     0.093 A 
ATOM      8  C   UNL     1      53.870  15.314  87.897  1.00  0.00     0.123 A 
ATOM      9  C   UNL     1      54.096  14.245  88.764  1.00  0.00     0.094 A 
ATOM     10  C   UNL     1      53.566  12.983  88.486  1.00  0.00     0.146 A 
ATOM     11  O   UNL     1      53.795  11.994  89.343  1.00  0.00    -0.452 OA
ENDROOT
BRANCH   1  12
ATOM     12  C   UNL     1      53.672   9.746  90.202  1.00  0.00     0.025 A 
ATOM     13  C   UNL     1      54.810   8.933  90.059  1.00  0.00     0.016 A 
ATOM     14  C   UNL     1      55.135   7.995  91.042  1.00  0.00     0.051 A 
ATOM     15  C   UNL     1      54.339   7.864  92.187  1.00  0.00     0.157 A 
ATOM     16  C   UNL     1      52.888   9.626  91.361  1.00  0.00     0.062 A 
ATOM     17  C   UNL     1      53.212   8.686  92.346  1.00  0.00     0.158 A 
BRANCH  15  18
ATOM     18  O   UNL     1      54.665   6.925  93.164  1.00  0.00    -0.504 OA
ATOM     19  H   UNL     1      54.015   6.198  93.439  1.00  0.00     0.293 HD
ENDBRANCH  15  18
BRANCH  17  20
ATOM     20  O   UNL     1      52.402   8.585  93.478  1.00  0.00    -0.504 OA
ATOM     21  H   UNL     1      52.561   9.145  94.306  1.00  0.00     0.293 HD
ENDBRANCH  17  20
ENDBRANCH   1  12
BRANCH   2  22
ATOM     22  O   UNL     1      51.906   9.209  87.967  1.00  0.00    -0.502 OA
ATOM     23  H   UNL     1      51.679   8.632  88.768  1.00  0.00     0.293 HD
ENDBRANCH   2  22
BRANCH   6  24
ATOM     24  O   UNL     1      51.981  13.739  85.167  1.00  0.00    -0.507 OA
ATOM     25  H   UNL     1      51.169  14.270  84.888  1.00  0.00     0.293 HD
ENDBRANCH   6  24
BRANCH   8  26
ATOM     26  O   UNL     1      54.379  16.579  88.181  1.00  0.00    -0.508 OA
ATOM     27  H   UNL     1      55.184  16.949  87.689  1.00  0.00     0.293 HD
ENDBRANCH   8  26
TORSDOF 6
ENDMDL
MODEL 3
REMARK VINA RESULT:    -6.544      1.388      3.302
REMARK INTER + INTRA:          -8.207
REMARK INTER:                  -7.892
REMARK INTRA:                  -0.315
REMARK UNBOUND:                -0.324
REMARK SMILES O=c1c(O)c(-c2ccc(O)c(O)c2)oc2cc(O)cc(O)c12
REMARK SMILES IDX 5 1 3 2 2 3 1 4 22 5 20 6 19 7 17 8 16 9 15 10 14 11 6 12
REMARK SMILES IDX 7 13 8 14 9 15 13 16 11 17 10 18 12 20 4 22 21 24 18 26
REMARK H PARENT 10 19 12 21 4 23 21 25 18 27
REMARK Flexibility Score: inf
ROOT
ATOM      1  C   UNL     1      53.238  10.922  89.234  1.00  0.00     0.180 A 
ATOM      2  C   UNL     1      52.435  10.625  88.120  1.00  0.00     0.208 A 
ATOM      3  C   UNL     1      52.198  11.627  87.165  1.00  0.00     0.238 A 
ATOM      4  O   UNL     1      51.433  11.370  86.197  1.00  0.00    -0.285 OA
ATOM      5  C   UNL     1      52.778  12.907  87.327  1.00  0.00     0.111 A 
ATOM      6  C   UNL     1      52.638  13.985  86.401  1.00  0.00     0.134 A 
ATOM      7  C   UNL     1      53.148  15.247  86.728  1.00  0.00     0.093 A 
ATOM      8  C   UNL     1      53.850  15.455  87.914  1.00  0.00     0.123 A 
ATOM      9  C   UNL     1      54.045  14.394  88.799  1.00  0.00     0.094 A 
ATOM     10  C   UNL     1      53.516  13.132  88.518  1.00  0.00     0.146 A 
ATOM     11  O   UNL     1      53.715  12.151  89.392  1.00  0.00    -0.452 OA
ENDROOT
BRANCH   1  12
ATOM     12  C   UNL     1      53.554   9.912  90.270  1.00  0.00     0.025 A 
ATOM     13  C   UNL     1      52.782   9.796  91.438  1.00  0.00     0.016 A 
ATOM     14  C   UNL     1      53.084   8.819  92.390  1.00  0.00     0.051 A 
ATOM     15  C   UNL     1      54.151   7.936  92.184  1.00  0.00     0.157 A 
ATOM     16  C   UNL     1      54.610   9.011  90.057  1.00  0.00     0.062 A 
ATOM     17  C   UNL     1      54.916   8.032  91.009  1.00  0.00     0.158 A 
BRANCH  15  18
ATOM     18  O   UNL     1      54.451   6.964  93.137  1.00  0.00    -0.504 OA
ATOM     19  H   UNL     1      55.227   7.073  93.779  1.00  0.00     0.293 HD
ENDBRANCH  15  18
BRANCH  17  20
ATOM     20  O   UNL     1      55.981   7.164  90.771  1.00  0.00    -0.504 OA
ATOM     21  H   UNL     1      56.364   7.023  89.844  1.00  0.00     0.293 HD
ENDBRANCH  17  20
ENDBRANCH   1  12
BRANCH   2  22
ATOM     22  O   UNL     1      51.852   9.361  87.990  1.00  0.00    -0.502 OA
ATOM     23  H   UNL     1      52.374   8.505  88.133  1.00  0.00     0.293 HD
ENDBRANCH   2  22
BRANCH   6  24
ATOM     24  O   UNL     1      52.035  13.861  85.146  1.00  0.00    -0.507 OA
ATOM     25  H   UNL     1      52.383  13.284  84.395  1.00  0.00     0.293 HD
ENDBRANCH   6  24
BRANCH   8  26
ATOM     26  O   UNL     1      54.358  16.720  88.200  1.00  0.00    -0.508 OA
ATOM     27  H   UNL     1      55.349  16.921  88.135  1.00  0.00     0.293 HD
ENDBRANCH   8  26
TORSDOF 6
ENDMDL
MODEL 4
REMARK VINA RESULT:    -6.304      2.953      7.522
REMARK INTER + INTRA:          -7.918
REMARK INTER:                  -7.789
REMARK INTRA:                  -0.129
REMARK UNBOUND:                -0.324
REMARK SMILES O=c1c(O)c(-c2ccc(O)c(O)c2)oc2cc(O)cc(O)c12
REMARK SMILES IDX 5 1 3 2 2 3 1 4 22 5 20 6 19 7 17 8 16 9 15 10 14 11 6 12
REMARK SMILES IDX 7 13 8 14 9 15 13 16 11 17 10 18 12 20 4 22 21 24 18 26
REMARK H PARENT 10 19 12 21 4 23 21 25 18 27
REMARK Flexibility Score: inf
ROOT
ATOM      1  C   UNL     1      52.550  15.161  88.391  1.00  0.00     0.180 A 
ATOM      2  C   UNL     1      52.496  14.861  87.019  1.00  0.00     0.208 A 
ATOM      3  C   UNL     1      52.800  13.558  86.594  1.00  0.00     0.238 A 
ATOM      4  O   UNL     1      52.803  13.310  85.359  1.00  0.00    -0.285 OA
ATOM      5  C   UNL     1      53.139  12.568  87.546  1.00  0.00     0.111 A 
ATOM      6  C   UNL     1      53.426  11.205  87.232  1.00  0.00     0.134 A 
ATOM      7  C   UNL     1      53.877  10.343  88.240  1.00  0.00     0.093 A 
ATOM      8  C   UNL     1      53.987  10.776  89.561  1.00  0.00     0.123 A 
ATOM      9  C   UNL     1      53.651  12.090  89.889  1.00  0.00     0.094 A 
ATOM     10  C   UNL     1      53.234  12.983  88.900  1.00  0.00     0.146 A 
ATOM     11  O   UNL     1      52.934  14.228  89.253  1.00  0.00    -0.452 OA
ENDROOT
BRANCH   1  12
ATOM     12  C   UNL     1      52.219  16.505  88.918  1.00  0.00     0.025 A 
ATOM     13  C   UNL     1      51.154  16.697  89.814  1.00  0.00     0.016 A 
ATOM     14  C   UNL     1      50.875  17.971  90.317  1.00  0.00     0.051 A 
ATOM     15  C   UNL     1      51.663  19.067  89.944  1.00  0.00     0.157 A 
ATOM     16  C   UNL     1      53.020  17.603  88.563  1.00  0.00     0.062 A 
ATOM     17  C   UNL     1      52.742  18.880  89.064  1.00  0.00     0.158 A 
BRANCH  15  18
ATOM     18  O   UNL     1      51.381  20.336  90.445  1.00  0.00    -0.504 OA
ATOM     19  H   UNL     1      52.018  20.812  91.074  1.00  0.00     0.293 HD
ENDBRANCH  15  18
BRANCH  17  20
ATOM     20  O   UNL     1      53.550  19.949  88.678  1.00  0.00    -0.504 OA
ATOM     21  H   UNL     1      54.497  19.817  88.348  1.00  0.00     0.293 HD
ENDBRANCH  17  20
ENDBRANCH   1  12
BRANCH   2  22
ATOM     22  O   UNL     1      52.181  15.860  86.093  1.00  0.00    -0.502 OA
ATOM     23  H   UNL     1      52.859  16.542  85.777  1.00  0.00     0.293 HD
ENDBRANCH   2  22
BRANCH   6  24
ATOM     24  O   UNL     1      53.260  10.646  85.961  1.00  0.00    -0.507 OA
ATOM     25  H   UNL     1      53.581   9.729  85.690  1.00  0.00     0.293 HD
ENDBRANCH   6  24
BRANCH   8  26
ATOM     26  O   UNL     1      54.423   9.888  90.541  1.00  0.00    -0.508 OA
ATOM     27  H   UNL     1      54.574  10.186  91.497  1.00  0.00     0.293 HD
ENDBRANCH   8  26
TORSDOF 6
ENDMDL
MODEL 5
REMARK VINA RESULT:    -6.215      1.688      7.141
REMARK INTER + INTRA:          -7.810
REMARK INTER:                  -7.774
REMARK INTRA:                  -0.037
REMARK UNBOUND:                -0.324
REMARK SMILES O=c1c(O)c(-c2ccc(O)c(O)c2)oc2cc(O)cc(O)c12
REMARK SMILES IDX 5 1 3 2 2 3 1 4 22 5 20 6 19 7 17 8 16 9 15 10 14 11 6 12
REMARK SMILES IDX 7 13 8 14 9 15 13 16 11 17 10 18 12 20 4 22 21 24 18 26
REMARK H PARENT 10 19 12 21 4 23 21 25 18 27
REMARK Flexibility Score: inf
ROOT
ATOM      1  C   UNL     1      53.214  11.409  89.003  1.00  0.00     0.180 A 
ATOM      2  C   UNL     1      53.651  10.112  88.684  1.00  0.00     0.208 A 
ATOM      3  C   UNL     1      53.616   9.119  89.676  1.00  0.00     0.238 A 
ATOM      4  O   UNL     1      54.059   7.973  89.399  1.00  0.00    -0.285 OA
ATOM      5  C   UNL     1      53.130   9.430  90.968  1.00  0.00     0.111 A 
ATOM      6  C   UNL     1      53.013   8.492  92.038  1.00  0.00     0.134 A 
ATOM      7  C   UNL     1      52.642   8.940  93.312  1.00  0.00     0.093 A 
ATOM      8  C   UNL     1      52.321  10.278  93.539  1.00  0.00     0.123 A 
ATOM      9  C   UNL     1      52.375  11.192  92.487  1.00  0.00     0.094 A 
ATOM     10  C   UNL     1      52.777  10.783  91.213  1.00  0.00     0.146 A 
ATOM     11  O   UNL     1      52.825  11.686  90.241  1.00  0.00    -0.452 OA
ENDROOT
BRANCH   1  12
ATOM     12  C   UNL     1      53.197  12.503  88.004  1.00  0.00     0.025 A 
ATOM     13  C   UNL     1      52.589  12.337  86.748  1.00  0.00     0.016 A 
ATOM     14  C   UNL     1      52.564  13.391  85.831  1.00  0.00     0.051 A 
ATOM     15  C   UNL     1      53.133  14.628  86.159  1.00  0.00     0.157 A 
ATOM     16  C   UNL     1      53.748  13.751  88.337  1.00  0.00     0.062 A 
ATOM     17  C   UNL     1      53.726  14.808  87.420  1.00  0.00     0.158 A 
BRANCH  15  18
ATOM     18  O   UNL     1      53.109  15.677  85.241  1.00  0.00    -0.504 OA
ATOM     19  H   UNL     1      53.959  16.030  84.817  1.00  0.00     0.293 HD
ENDBRANCH  15  18
BRANCH  17  20
ATOM     20  O   UNL     1      54.296  16.029  87.780  1.00  0.00    -0.504 OA
ATOM     21  H   UNL     1      53.794  16.904  87.692  1.00  0.00     0.293 HD
ENDBRANCH  17  20
ENDBRANCH   1  12
BRANCH   2  22
ATOM     22  O   UNL     1      54.148   9.831  87.408  1.00  0.00    -0.502 OA
ATOM     23  H   UNL     1      54.872   9.142  87.246  1.00  0.00     0.293 HD
ENDBRANCH   2  22
BRANCH   6  24
ATOM     24  O   UNL     1      53.220   7.117  91.896  1.00  0.00    -0.507 OA
ATOM     25  H   UNL     1      52.632   6.402  92.297  1.00  0.00     0.293 HD
ENDBRANCH   6  24
BRANCH   8  26
ATOM     26  O   UNL     1      51.941  10.686  94.816  1.00  0.00    -0.508 OA
ATOM     27  H   UNL     1      52.280  11.551  95.219  1.00  0.00     0.293 HD
ENDBRANCH   8  26
TORSDOF 6
ENDMDL
MODEL 6
REMARK VINA RESULT:    -6.112      1.971      7.207
REMARK INTER + INTRA:          -7.687
REMARK INTER:                  -7.368
REMARK INTRA:                  -0.319
REMARK UNBOUND:                -0.324
REMARK SMILES O=c1c(O)c(-c2ccc(O)c(O)c2)oc2cc(O)cc(O)c12
REMARK SMILES IDX 5 1 3 2 2 3 1 4 22 5 20 6 19 7 17 8 16 9 15 10 14 11 6 12
REMARK SMILES IDX 7 13 8 14 9 15 13 16 11 17 10 18 12 20 4 22 21 24 18 26
REMARK H PARENT 10 19 12 21 4 23 21 25 18 27
REMARK Flexibility Score: inf
ROOT
ATOM      1  C   UNL     1      53.173  11.163  91.757  1.00  0.00     0.180 A 
ATOM      2  C   UNL     1      52.266  11.557  92.756  1.00  0.00     0.208 A 
ATOM      3  C   UNL     1      51.729  10.582  93.611  1.00  0.00     0.238 A 
ATOM      4  O   UNL     1      50.875  10.934  94.469  1.00  0.00    -0.285 OA
ATOM      5  C   UNL     1      52.116   9.229  93.469  1.00  0.00     0.111 A 
ATOM      6  C   UNL     1      51.666   8.163  94.306  1.00  0.00     0.134 A 
ATOM      7  C   UNL     1      52.013   6.844  93.991  1.00  0.00     0.093 A 
ATOM      8  C   UNL     1      52.847   6.556  92.911  1.00  0.00     0.123 A 
ATOM      9  C   UNL     1      53.341   7.595  92.122  1.00  0.00     0.094 A 
ATOM     10  C   UNL     1      52.983   8.919  92.388  1.00  0.00     0.146 A 
ATOM     11  O   UNL     1      53.466   9.877  91.607  1.00  0.00    -0.452 OA
ENDROOT
BRANCH   1  12
ATOM     12  C   UNL     1      53.800  12.136  90.834  1.00  0.00     0.025 A 
ATOM     13  C   UNL     1      54.925  12.887  91.216  1.00  0.00     0.016 A 
ATOM     14  C   UNL     1      55.515  13.782  90.320  1.00  0.00     0.051 A 
ATOM     15  C   UNL     1      55.000  13.929  89.025  1.00  0.00     0.157 A 
ATOM     16  C   UNL     1      53.300  12.271  89.528  1.00  0.00     0.062 A 
ATOM     17  C   UNL     1      53.889  13.167  88.628  1.00  0.00     0.158 A 
BRANCH  15  18
ATOM     18  O   UNL     1      55.589  14.824  88.134  1.00  0.00    -0.504 OA
ATOM     19  H   UNL     1      55.964  14.517  87.244  1.00  0.00     0.293 HD
ENDBRANCH  15  18
BRANCH  17  20
ATOM     20  O   UNL     1      53.356  13.285  87.345  1.00  0.00    -0.504 OA
ATOM     21  H   UNL     1      53.420  14.144  86.812  1.00  0.00     0.293 HD
ENDBRANCH  17  20
ENDBRANCH   1  12
BRANCH   2  22
ATOM     22  O   UNL     1      51.879  12.897  92.866  1.00  0.00    -0.502 OA
ATOM     23  H   UNL     1      50.989  13.235  92.521  1.00  0.00     0.293 HD
ENDBRANCH   2  22
BRANCH   6  24
ATOM     24  O   UNL     1      50.905   8.350  95.464  1.00  0.00    -0.507 OA
ATOM     25  H   UNL     1      51.210   8.865  96.276  1.00  0.00     0.293 HD
ENDBRANCH   6  24
BRANCH   8  26
ATOM     26  O   UNL     1      53.185   5.233  92.637  1.00  0.00    -0.508 OA
ATOM     27  H   UNL     1      53.947   4.999  92.012  1.00  0.00     0.293 HD
ENDBRANCH   8  26
TORSDOF 6
ENDMDL
MODEL 7
REMARK VINA RESULT:    -6.109      1.655      7.284
REMARK INTER + INTRA:          -7.682
REMARK INTER:                  -7.375
REMARK INTRA:                  -0.308
REMARK UNBOUND:                -0.324
REMARK SMILES O=c1c(O)c(-c2ccc(O)c(O)c2)oc2cc(O)cc(O)c12
REMARK SMILES IDX 5 1 3 2 2 3 1 4 22 5 20 6 19 7 17 8 16 9 15 10 14 11 6 12
REMARK SMILES IDX 7 13 8 14 9 15 13 16 11 17 10 18 12 20 4 22 21 24 18 26
REMARK H PARENT 10 19 12 21 4 23 21 25 18 27
REMARK Flexibility Score: inf
ROOT
ATOM      1  C   UNL     1      54.080  10.609  91.002  1.00  0.00     0.180 A 
ATOM      2  C   UNL     1      54.736   9.427  90.616  1.00  0.00     0.208 A 
ATOM      3  C   UNL     1      54.449   8.235  91.300  1.00  0.00     0.238 A 
ATOM      4  O   UNL     1      55.080   7.191  90.985  1.00  0.00    -0.285 OA
ATOM      5  C   UNL     1      53.500   8.235  92.349  1.00  0.00     0.111 A 
ATOM      6  C   UNL     1      53.103   7.077  93.083  1.00  0.00     0.134 A 
ATOM      7  C   UNL     1      52.252   7.217  94.187  1.00  0.00     0.093 A 
ATOM      8  C   UNL     1      51.733   8.461  94.543  1.00  0.00     0.123 A 
ATOM      9  C   UNL     1      52.068   9.590  93.796  1.00  0.00     0.094 A 
ATOM     10  C   UNL     1      52.942   9.489  92.712  1.00  0.00     0.146 A 
ATOM     11  O   UNL     1      53.244  10.590  92.033  1.00  0.00    -0.452 OA
ENDROOT
BRANCH   1  12
ATOM     12  C   UNL     1      54.311  11.900  90.314  1.00  0.00     0.025 A 
ATOM     13  C   UNL     1      55.237  12.836  90.805  1.00  0.00     0.016 A 
ATOM     14  C   UNL     1      55.456  14.036  90.125  1.00  0.00     0.051 A 
ATOM     15  C   UNL     1      54.766  14.314  88.939  1.00  0.00     0.157 A 
ATOM     16  C   UNL     1      53.636  12.172  89.113  1.00  0.00     0.062 A 
ATOM     17  C   UNL     1      53.853  13.375  88.430  1.00  0.00     0.158 A 
BRANCH  15  18
ATOM     18  O   UNL     1      54.984  15.514  88.264  1.00  0.00    -0.504 OA
ATOM     19  H   UNL     1      54.719  16.405  88.667  1.00  0.00     0.293 HD
ENDBRANCH  15  18
BRANCH  17  20
ATOM     20  O   UNL     1      53.153  13.618  87.248  1.00  0.00    -0.504 OA
ATOM     21  H   UNL     1      52.448  12.981  86.899  1.00  0.00     0.293 HD
ENDBRANCH  17  20
ENDBRANCH   1  12
BRANCH   2  22
ATOM     22  O   UNL     1      55.687   9.453  89.591  1.00  0.00    -0.502 OA
ATOM     23  H   UNL     1      55.828  10.264  89.001  1.00  0.00     0.293 HD
ENDBRANCH   2  22
BRANCH   6  24
ATOM     24  O   UNL     1      53.490   5.774  92.755  1.00  0.00    -0.507 OA
ATOM     25  H   UNL     1      53.813   5.086  93.418  1.00  0.00     0.293 HD
ENDBRANCH   6  24
BRANCH   8  26
ATOM     26  O   UNL     1      50.877   8.561  95.637  1.00  0.00    -0.508 OA
ATOM     27  H   UNL     1      51.223   8.790  96.561  1.00  0.00     0.293 HD
ENDBRANCH   8  26
TORSDOF 6
ENDMDL
MODEL 8
REMARK VINA RESULT:    -6.028      1.783      2.158
REMARK INTER + INTRA:          -7.585
REMARK INTER:                  -7.252
REMARK INTRA:                  -0.333
REMARK UNBOUND:                -0.324
REMARK SMILES O=c1c(O)c(-c2ccc(O)c(O)c2)oc2cc(O)cc(O)c12
REMARK SMILES IDX 5 1 3 2 2 3 1 4 22 5 20 6 19 7 17 8 16 9 15 10 14 11 6 12
REMARK SMILES IDX 7 13 8 14 9 15 13 16 11 17 10 18 12 20 4 22 21 24 18 26
REMARK H PARENT 10 19 12 21 4 23 21 25 18 27
REMARK Flexibility Score: inf
ROOT
ATOM      1  C   UNL     1      52.793  11.300  90.818  1.00  0.00     0.180 A 
ATOM      2  C   UNL     1      52.841  12.478  91.583  1.00  0.00     0.208 A 
ATOM      3  C   UNL     1      52.655  13.714  90.943  1.00  0.00     0.238 A 
ATOM      4  O   UNL     1      52.753  14.768  91.625  1.00  0.00    -0.285 OA
ATOM      5  C   UNL     1      52.407  13.756  89.551  1.00  0.00     0.111 A 
ATOM      6  C   UNL     1      52.164  14.950  88.806  1.00  0.00     0.134 A 
ATOM      7  C   UNL     1      52.061  14.885  87.411  1.00  0.00     0.093 A 
ATOM      8  C   UNL     1      52.125  13.664  86.741  1.00  0.00     0.123 A 
ATOM      9  C   UNL     1      52.303  12.485  87.464  1.00  0.00     0.094 A 
ATOM     10  C   UNL     1      52.446  12.521  88.853  1.00  0.00     0.146 A 
ATOM     11  O   UNL     1      52.624  11.377  89.504  1.00  0.00    -0.452 OA
ENDROOT
BRANCH   1  12
ATOM     12  C   UNL     1      52.955   9.959  91.425  1.00  0.00     0.025 A 
ATOM     13  C   UNL     1      51.859   9.260  91.959  1.00  0.00     0.016 A 
ATOM     14  C   UNL     1      52.032   7.986  92.504  1.00  0.00     0.051 A 
ATOM     15  C   UNL     1      53.297   7.385  92.512  1.00  0.00     0.157 A 
ATOM     16  C   UNL     1      54.218   9.345  91.415  1.00  0.00     0.062 A 
ATOM     17  C   UNL     1      54.394   8.068  91.962  1.00  0.00     0.158 A 
BRANCH  15  18
ATOM     18  O   UNL     1      53.467   6.114  93.059  1.00  0.00    -0.504 OA
ATOM     19  H   UNL     1      52.686   5.479  93.178  1.00  0.00     0.293 HD
ENDBRANCH  15  18
BRANCH  17  20
ATOM     20  O   UNL     1      55.666   7.495  91.948  1.00  0.00    -0.504 OA
ATOM     21  H   UNL     1      56.148   7.273  91.086  1.00  0.00     0.293 HD
ENDBRANCH  17  20
ENDBRANCH   1  12
BRANCH   2  22
ATOM     22  O   UNL     1      53.109  12.416  92.954  1.00  0.00    -0.502 OA
ATOM     23  H   UNL     1      54.050  12.352  93.322  1.00  0.00     0.293 HD
ENDBRANCH   2  22
BRANCH   6  24
ATOM     24  O   UNL     1      51.990  16.209  89.387  1.00  0.00    -0.507 OA
ATOM     25  H   UNL     1      51.142  16.525  89.834  1.00  0.00     0.293 HD
ENDBRANCH   6  24
BRANCH   8  26
ATOM     26  O   UNL     1      52.002  13.634  85.353  1.00  0.00    -0.508 OA
ATOM     27  H   UNL     1      51.116  13.810  84.896  1.00  0.00     0.293 HD
ENDBRANCH   8  26
TORSDOF 6
ENDMDL
MODEL 9
REMARK VINA RESULT:    -5.867      2.057      6.857
REMARK INTER + INTRA:          -7.391
REMARK INTER:                  -7.330
REMARK INTRA:                  -0.061
REMARK UNBOUND:                -0.324
REMARK SMILES O=c1c(O)c(-c2ccc(O)c(O)c2)oc2cc(O)cc(O)c12
REMARK SMILES IDX 5 1 3 2 2 3 1 4 22 5 20 6 19 7 17 8 16 9 15 10 14 11 6 12
REMARK SMILES IDX 7 13 8 14 9 15 13 16 11 17 10 18 12 20 4 22 21 24 18 26
REMARK H PARENT 10 19 12 21 4 23 21 25 18 27
REMARK Flexibility Score: inf
ROOT
ATOM      1  C   UNL     1      53.216  12.148  88.168  1.00  0.00     0.180 A 
ATOM      2  C   UNL     1      54.235  12.241  89.132  1.00  0.00     0.208 A 
ATOM      3  C   UNL     1      54.432  11.169  90.018  1.00  0.00     0.238 A 
ATOM      4  O   UNL     1      55.310  11.281  90.914  1.00  0.00    -0.285 OA
ATOM      5  C   UNL     1      53.622  10.014  89.918  1.00  0.00     0.111 A 
ATOM      6  C   UNL     1      53.760   8.853  90.738  1.00  0.00     0.134 A 
ATOM      7  C   UNL     1      52.819   7.821  90.638  1.00  0.00     0.093 A 
ATOM      8  C   UNL     1      51.784   7.877  89.706  1.00  0.00     0.123 A 
ATOM      9  C   UNL     1      51.674   8.981  88.859  1.00  0.00     0.094 A 
ATOM     10  C   UNL     1      52.576  10.043  88.959  1.00  0.00     0.146 A 
ATOM     11  O   UNL     1      52.430  11.079  88.142  1.00  0.00    -0.452 OA
ENDROOT
BRANCH   1  12
ATOM     12  C   UNL     1      52.963  13.226  87.183  1.00  0.00     0.025 A 
ATOM     13  C   UNL     1      52.976  12.972  85.801  1.00  0.00     0.016 A 
ATOM     14  C   UNL     1      52.710  13.999  84.892  1.00  0.00     0.051 A 
ATOM     15  C   UNL     1      52.414  15.290  85.348  1.00  0.00     0.157 A 
ATOM     16  C   UNL     1      52.645  14.516  87.638  1.00  0.00     0.062 A 
ATOM     17  C   UNL     1      52.380  15.547  86.729  1.00  0.00     0.158 A 
BRANCH  15  18
ATOM     18  O   UNL     1      52.153  16.312  84.439  1.00  0.00    -0.504 OA
ATOM     19  H   UNL     1      52.083  17.279  84.734  1.00  0.00     0.293 HD
ENDBRANCH  15  18
BRANCH  17  20
ATOM     20  O   UNL     1      52.083  16.820  87.217  1.00  0.00    -0.504 OA
ATOM     21  H   UNL     1      51.640  17.526  86.643  1.00  0.00     0.293 HD
ENDBRANCH  17  20
ENDBRANCH   1  12
BRANCH   2  22
ATOM     22  O   UNL     1      55.010  13.401  89.228  1.00  0.00    -0.502 OA
ATOM     23  H   UNL     1      54.615  14.299  89.475  1.00  0.00     0.293 HD
ENDBRANCH   2  22
BRANCH   6  24
ATOM     24  O   UNL     1      54.812   8.654  91.637  1.00  0.00    -0.507 OA
ATOM     25  H   UNL     1      55.352   7.805  91.712  1.00  0.00     0.293 HD
ENDBRANCH   6  24
BRANCH   8  26
ATOM     26  O   UNL     1      50.875   6.826  89.623  1.00  0.00    -0.508 OA
ATOM     27  H   UNL     1      50.866   6.078  90.306  1.00  0.00     0.293 HD
ENDBRANCH   8  26
TORSDOF 6
ENDMDL
