MODEL 1
REMARK VINA RESULT:    -3.935      0.000      0.000
REMARK INTER + INTRA:         -14.657
REMARK INTER:                 -10.376
REMARK INTRA:                  -4.281
REMARK UNBOUND:                -4.281
REMARK SMILES CCCCCCCCCCCCCCCCCCCCCCCCCCCCCC(=O)[O-]
REMARK SMILES IDX 16 1 17 2 18 3 19 4 20 5 21 6 22 7 23 8 24 9 25 10 26 11
REMARK SMILES IDX 27 12 28 13 29 14 30 15 31 16 32 17 15 18 14 19 13 20 12 21
REMARK SMILES IDX 11 22 10 23 9 24 8 25 7 26 6 27 5 28 4 29 3 30 2 31 1 32
REMARK H PARENT
REMARK Flexibility Score: inf
ROOT
ATOM      1  C   UNL     1      -5.400  -1.765   0.867  1.00  0.00     0.000 C 
ENDROOT
BRANCH   1   2
ATOM      2  C   UNL     1      -5.064  -0.279   0.633  1.00  0.00     0.000 C 
BRANCH   2   3
ATOM      3  C   UNL     1      -6.273   0.654   0.866  1.00  0.00     0.000 C 
BRANCH   3   4
ATOM      4  C   UNL     1      -6.814   1.298  -0.426  1.00  0.00     0.000 C 
BRANCH   4   5
ATOM      5  C   UNL     1      -7.491   2.673  -0.237  1.00  0.00     0.000 C 
BRANCH   5   6
ATOM      6  C   UNL     1      -6.743   3.829  -0.922  1.00  0.00     0.000 C 
BRANCH   6   7
ATOM      7  C   UNL     1      -5.413   3.374  -1.558  1.00  0.00     0.000 C 
BRANCH   7   8
ATOM      8  C   UNL     1      -4.188   3.914  -0.800  1.00  0.00     0.000 C 
BRANCH   8   9
ATOM      9  C   UNL     1      -3.300   2.794  -0.218  1.00  0.00     0.000 C 
BRANCH   9  10
ATOM     10  C   UNL     1      -3.082   2.912   1.303  1.00  0.00     0.000 C 
BRANCH  10  11
ATOM     11  C   UNL     1      -4.015   3.952   1.947  1.00  0.00     0.000 C 
BRANCH  11  12
ATOM     12  C   UNL     1      -5.182   3.313   2.724  1.00  0.00     0.000 C 
BRANCH  12  13
ATOM     13  C   UNL     1      -5.676   4.118   3.941  1.00  0.00     0.006 C 
BRANCH  13  14
ATOM     14  C   UNL     1      -4.535   4.762   4.738  1.00  0.00     0.053 C 
BRANCH  14  15
ATOM     15  C   UNL     1      -4.683   6.251   4.752  1.00  0.00     0.041 C 
ATOM     16  O   UNL     1      -3.684   6.991   4.543  1.00  0.00    -0.550 OA
ATOM     17  O   UNL     1      -5.933   6.822   4.958  1.00  0.00    -0.550 OA
ENDBRANCH  14  15
ENDBRANCH  13  14
ENDBRANCH  12  13
ENDBRANCH  11  12
ENDBRANCH  10  11
ENDBRANCH   9  10
ENDBRANCH   8   9
ENDBRANCH   7   8
ENDBRANCH   6   7
ENDBRANCH   5   6
ENDBRANCH   4   5
ENDBRANCH   3   4
ENDBRANCH   2   3
ENDBRANCH   1   2
BRANCH   1  18
ATOM     18  C   UNL     1      -6.785  -2.137   0.302  1.00  0.00     0.000 C 
BRANCH  18  19
ATOM     19  C   UNL     1      -7.732  -2.748   1.358  1.00  0.00     0.000 C 
BRANCH  19  20
ATOM     20  C   UNL     1      -7.083  -3.035   2.729  1.00  0.00     0.000 C 
BRANCH  20  21
ATOM     21  C   UNL     1      -7.617  -4.262   3.487  1.00  0.00     0.000 C 
BRANCH  21  22
ATOM     22  C   UNL     1      -7.423  -4.165   5.009  1.00  0.00     0.000 C 
BRANCH  22  23
ATOM     23  C   UNL     1      -7.676  -2.751   5.553  1.00  0.00     0.000 C 
BRANCH  23  24
ATOM     24  C   UNL     1      -6.989  -2.471   6.905  1.00  0.00    -0.000 C 
BRANCH  24  25
ATOM     25  C   UNL     1      -6.364  -3.733   7.522  1.00  0.00    -0.000 C 
BRANCH  25  26
ATOM     26  C   UNL     1      -4.979  -3.455   8.146  1.00  0.00    -0.000 C 
BRANCH  26  27
ATOM     27  C   UNL     1      -4.182  -2.354   7.418  1.00  0.00    -0.000 C 
BRANCH  27  28
ATOM     28  C   UNL     1      -2.700  -2.689   7.161  1.00  0.00    -0.000 C 
BRANCH  28  29
ATOM     29  C   UNL     1      -2.429  -3.492   5.873  1.00  0.00    -0.000 C 
BRANCH  29  30
ATOM     30  C   UNL     1      -3.597  -3.535   4.870  1.00  0.00    -0.000 C 
BRANCH  30  31
ATOM     31  C   UNL     1      -4.000  -4.946   4.404  1.00  0.00    -0.003 C 
ATOM     32  C   UNL     1      -3.941  -5.982   5.525  1.00  0.00     0.004 C 
ENDBRANCH  30  31
ENDBRANCH  29  30
ENDBRANCH  28  29
ENDBRANCH  27  28
ENDBRANCH  26  27
ENDBRANCH  25  26
ENDBRANCH  24  25
ENDBRANCH  23  24
ENDBRANCH  22  23
ENDBRANCH  21  22
ENDBRANCH  20  21
ENDBRANCH  19  20
ENDBRANCH  18  19
ENDBRANCH   1  18
TORSDOF 28
ENDMDL
MODEL 2
REMARK VINA RESULT:    -3.832      1.953      5.121
REMARK INTER + INTRA:         -14.385
REMARK INTER:                 -10.733
REMARK INTRA:                  -3.652
REMARK UNBOUND:                -4.281
REMARK SMILES CCCCCCCCCCCCCCCCCCCCCCCCCCCCCC(=O)[O-]
REMARK SMILES IDX 16 1 17 2 18 3 19 4 20 5 21 6 22 7 23 8 24 9 25 10 26 11
REMARK SMILES IDX 27 12 28 13 29 14 30 15 31 16 32 17 15 18 14 19 13 20 12 21
REMARK SMILES IDX 11 22 10 23 9 24 8 25 7 26 6 27 5 28 4 29 3 30 2 31 1 32
REMARK H PARENT
REMARK Flexibility Score: inf
ROOT
ATOM      1  C   UNL     1      -6.561  -3.212   7.043  1.00  0.00     0.000 C 
ENDROOT
BRANCH   1   2
ATOM      2  C   UNL     1      -7.430  -3.224   5.771  1.00  0.00     0.000 C 
BRANCH   2   3
ATOM      3  C   UNL     1      -8.148  -1.879   5.523  1.00  0.00     0.000 C 
BRANCH   3   4
ATOM      4  C   UNL     1      -8.550  -1.657   4.050  1.00  0.00     0.000 C 
BRANCH   4   5
ATOM      5  C   UNL     1      -7.646  -2.358   3.013  1.00  0.00     0.000 C 
BRANCH   5   6
ATOM      6  C   UNL     1      -7.692  -1.712   1.618  1.00  0.00     0.000 C 
BRANCH   6   7
ATOM      7  C   UNL     1      -6.516  -2.160   0.724  1.00  0.00     0.000 C 
BRANCH   7   8
ATOM      8  C   UNL     1      -5.292  -1.239   0.862  1.00  0.00     0.000 C 
BRANCH   8   9
ATOM      9  C   UNL     1      -5.674   0.238   1.093  1.00  0.00     0.000 C 
BRANCH   9  10
ATOM     10  C   UNL     1      -6.058   0.981  -0.201  1.00  0.00     0.000 C 
BRANCH  10  11
ATOM     11  C   UNL     1      -5.194   2.232  -0.434  1.00  0.00     0.000 C 
BRANCH  11  12
ATOM     12  C   UNL     1      -3.719   2.027  -0.040  1.00  0.00     0.000 C 
BRANCH  12  13
ATOM     13  C   UNL     1      -3.214   2.933   1.098  1.00  0.00     0.006 C 
BRANCH  13  14
ATOM     14  C   UNL     1      -4.237   3.995   1.518  1.00  0.00     0.053 C 
BRANCH  14  15
ATOM     15  C   UNL     1      -4.611   3.819   2.956  1.00  0.00     0.041 C 
ATOM     16  O   UNL     1      -3.796   4.127   3.868  1.00  0.00    -0.550 OA
ATOM     17  O   UNL     1      -5.876   3.350   3.292  1.00  0.00    -0.550 OA
ENDBRANCH  14  15
ENDBRANCH  13  14
ENDBRANCH  12  13
ENDBRANCH  11  12
ENDBRANCH  10  11
ENDBRANCH   9  10
ENDBRANCH   8   9
ENDBRANCH   7   8
ENDBRANCH   6   7
ENDBRANCH   5   6
ENDBRANCH   4   5
ENDBRANCH   3   4
ENDBRANCH   2   3
ENDBRANCH   1   2
BRANCH   1  18
ATOM     18  C   UNL     1      -6.189  -1.779   7.473  1.00  0.00     0.000 C 
BRANCH  18  19
ATOM     19  C   UNL     1      -4.776  -1.672   8.086  1.00  0.00     0.000 C 
BRANCH  19  20
ATOM     20  C   UNL     1      -4.138  -3.016   8.497  1.00  0.00     0.000 C 
BRANCH  20  21
ATOM     21  C   UNL     1      -2.832  -3.393   7.778  1.00  0.00     0.000 C 
BRANCH  21  22
ATOM     22  C   UNL     1      -2.688  -2.730   6.398  1.00  0.00     0.000 C 
BRANCH  22  23
ATOM     23  C   UNL     1      -2.686  -3.747   5.246  1.00  0.00     0.000 C 
BRANCH  23  24
ATOM     24  C   UNL     1      -3.950  -3.693   4.364  1.00  0.00    -0.000 C 
BRANCH  24  25
ATOM     25  C   UNL     1      -4.725  -5.021   4.362  1.00  0.00    -0.000 C 
BRANCH  25  26
ATOM     26  C   UNL     1      -4.299  -5.949   5.521  1.00  0.00    -0.000 C 
BRANCH  26  27
ATOM     27  C   UNL     1      -3.660  -7.272   5.053  1.00  0.00    -0.000 C 
BRANCH  27  28
ATOM     28  C   UNL     1      -2.284  -7.581   5.673  1.00  0.00    -0.000 C 
BRANCH  28  29
ATOM     29  C   UNL     1      -1.085  -7.395   4.720  1.00  0.00    -0.000 C 
BRANCH  29  30
ATOM     30  C   UNL     1      -0.338  -6.056   4.861  1.00  0.00    -0.000 C 
BRANCH  30  31
ATOM     31  C   UNL     1       0.769  -5.819   3.819  1.00  0.00    -0.003 C 
ATOM     32  C   UNL     1       2.151  -5.640   4.448  1.00  0.00     0.004 C 
ENDBRANCH  30  31
ENDBRANCH  29  30
ENDBRANCH  28  29
ENDBRANCH  27  28
ENDBRANCH  26  27
ENDBRANCH  25  26
ENDBRANCH  24  25
ENDBRANCH  23  24
ENDBRANCH  22  23
ENDBRANCH  21  22
ENDBRANCH  20  21
ENDBRANCH  19  20
ENDBRANCH  18  19
ENDBRANCH   1  18
TORSDOF 28
ENDMDL
MODEL 3
REMARK VINA RESULT:    -3.758      4.581      9.234
REMARK INTER + INTRA:         -14.190
REMARK INTER:                 -11.101
REMARK INTRA:                  -3.089
REMARK UNBOUND:                -4.281
REMARK SMILES CCCCCCCCCCCCCCCCCCCCCCCCCCCCCC(=O)[O-]
REMARK SMILES IDX 16 1 17 2 18 3 19 4 20 5 21 6 22 7 23 8 24 9 25 10 26 11
REMARK SMILES IDX 27 12 28 13 29 14 30 15 31 16 32 17 15 18 14 19 13 20 12 21
REMARK SMILES IDX 11 22 10 23 9 24 8 25 7 26 6 27 5 28 4 29 3 30 2 31 1 32
REMARK H PARENT
REMARK Flexibility Score: inf
ROOT
ATOM      1  C   UNL     1      -6.498  -7.010  -2.659  1.00  0.00     0.000 C 
ENDROOT
BRANCH   1   2
ATOM      2  C   UNL     1      -6.656  -7.500  -1.207  1.00  0.00     0.000 C 
BRANCH   2   3
ATOM      3  C   UNL     1      -8.015  -7.111  -0.586  1.00  0.00     0.000 C 
BRANCH   3   4
ATOM      4  C   UNL     1      -7.963  -6.915   0.943  1.00  0.00     0.000 C 
BRANCH   4   5
ATOM      5  C   UNL     1      -7.241  -8.037   1.721  1.00  0.00     0.000 C 
BRANCH   5   6
ATOM      6  C   UNL     1      -7.100  -7.753   3.226  1.00  0.00     0.000 C 
BRANCH   6   7
ATOM      7  C   UNL     1      -5.649  -7.921   3.723  1.00  0.00     0.000 C 
BRANCH   7   8
ATOM      8  C   UNL     1      -5.157  -6.698   4.516  1.00  0.00     0.000 C 
BRANCH   8   9
ATOM      9  C   UNL     1      -5.922  -5.405   4.162  1.00  0.00     0.000 C 
BRANCH   9  10
ATOM     10  C   UNL     1      -5.356  -4.149   4.852  1.00  0.00     0.000 C 
BRANCH  10  11
ATOM     11  C   UNL     1      -3.978  -3.750   4.296  1.00  0.00     0.000 C 
BRANCH  11  12
ATOM     12  C   UNL     1      -2.962  -3.400   5.400  1.00  0.00     0.000 C 
BRANCH  12  13
ATOM     13  C   UNL     1      -1.932  -4.502   5.715  1.00  0.00     0.006 C 
BRANCH  13  14
ATOM     14  C   UNL     1      -1.674  -5.438   4.527  1.00  0.00     0.053 C 
BRANCH  14  15
ATOM     15  C   UNL     1      -1.047  -6.714   4.996  1.00  0.00     0.041 C 
ATOM     16  O   UNL     1      -1.570  -7.824   4.705  1.00  0.00    -0.550 OA
ATOM     17  O   UNL     1       0.137  -6.679   5.722  1.00  0.00    -0.550 OA
ENDBRANCH  14  15
ENDBRANCH  13  14
ENDBRANCH  12  13
ENDBRANCH  11  12
ENDBRANCH  10  11
ENDBRANCH   9  10
ENDBRANCH   8   9
ENDBRANCH   7   8
ENDBRANCH   6   7
ENDBRANCH   5   6
ENDBRANCH   4   5
ENDBRANCH   3   4
ENDBRANCH   2   3
ENDBRANCH   1   2
BRANCH   1  18
ATOM     18  C   UNL     1      -5.326  -6.021  -2.809  1.00  0.00     0.000 C 
BRANCH  18  19
ATOM     19  C   UNL     1      -5.740  -4.547  -2.608  1.00  0.00     0.000 C 
BRANCH  19  20
ATOM     20  C   UNL     1      -7.147  -4.186  -3.133  1.00  0.00     0.000 C 
BRANCH  20  21
ATOM     21  C   UNL     1      -8.054  -3.415  -2.161  1.00  0.00     0.000 C 
BRANCH  21  22
ATOM     22  C   UNL     1      -7.552  -3.450  -0.708  1.00  0.00     0.000 C 
BRANCH  22  23
ATOM     23  C   UNL     1      -7.714  -2.102   0.010  1.00  0.00     0.000 C 
BRANCH  23  24
ATOM     24  C   UNL     1      -6.739  -1.902   1.189  1.00  0.00    -0.000 C 
BRANCH  24  25
ATOM     25  C   UNL     1      -5.302  -1.613   0.724  1.00  0.00    -0.000 C 
BRANCH  25  26
ATOM     26  C   UNL     1      -4.956  -0.110   0.798  1.00  0.00    -0.000 C 
BRANCH  26  27
ATOM     27  C   UNL     1      -5.952   0.794   0.042  1.00  0.00    -0.000 C 
BRANCH  27  28
ATOM     28  C   UNL     1      -5.405   2.181  -0.342  1.00  0.00    -0.000 C 
BRANCH  28  29
ATOM     29  C   UNL     1      -3.868   2.311  -0.290  1.00  0.00    -0.000 C 
BRANCH  29  30
ATOM     30  C   UNL     1      -3.325   3.229   0.820  1.00  0.00    -0.000 C 
BRANCH  30  31
ATOM     31  C   UNL     1      -4.388   4.091   1.526  1.00  0.00    -0.003 C 
ATOM     32  C   UNL     1      -4.621   3.678   2.978  1.00  0.00     0.004 C 
ENDBRANCH  30  31
ENDBRANCH  29  30
ENDBRANCH  28  29
ENDBRANCH  27  28
ENDBRANCH  26  27
ENDBRANCH  25  26
ENDBRANCH  24  25
ENDBRANCH  23  24
ENDBRANCH  22  23
ENDBRANCH  21  22
ENDBRANCH  20  21
ENDBRANCH  19  20
ENDBRANCH  18  19
ENDBRANCH   1  18
TORSDOF 28
ENDMDL
MODEL 4
REMARK VINA RESULT:    -3.757      3.754      9.226
REMARK INTER + INTRA:         -14.188
REMARK INTER:                  -9.810
REMARK INTRA:                  -4.378
REMARK UNBOUND:                -4.281
REMARK SMILES CCCCCCCCCCCCCCCCCCCCCCCCCCCCCC(=O)[O-]
REMARK SMILES IDX 16 1 17 2 18 3 19 4 20 5 21 6 22 7 23 8 24 9 25 10 26 11
REMARK SMILES IDX 27 12 28 13 29 14 30 15 31 16 32 17 15 18 14 19 13 20 12 21
REMARK SMILES IDX 11 22 10 23 9 24 8 25 7 26 6 27 5 28 4 29 3 30 2 31 1 32
REMARK H PARENT
REMARK Flexibility Score: inf
ROOT
ATOM      1  C   UNL     1      -5.303  -0.198   0.922  1.00  0.00     0.000 C 
ENDROOT
BRANCH   1   2
ATOM      2  C   UNL     1      -5.297  -1.715   0.649  1.00  0.00     0.000 C 
BRANCH   2   3
ATOM      3  C   UNL     1      -6.603  -2.211  -0.009  1.00  0.00     0.000 C 
BRANCH   3   4
ATOM      4  C   UNL     1      -7.792  -2.302   0.970  1.00  0.00     0.000 C 
BRANCH   4   5
ATOM      5  C   UNL     1      -7.480  -2.997   2.314  1.00  0.00     0.000 C 
BRANCH   5   6
ATOM      6  C   UNL     1      -7.994  -2.226   3.541  1.00  0.00     0.000 C 
BRANCH   6   7
ATOM      7  C   UNL     1      -8.483  -3.165   4.664  1.00  0.00     0.000 C 
BRANCH   7   8
ATOM      8  C   UNL     1      -7.681  -2.989   5.965  1.00  0.00     0.000 C 
BRANCH   8   9
ATOM      9  C   UNL     1      -6.711  -4.158   6.236  1.00  0.00     0.000 C 
BRANCH   9  10
ATOM     10  C   UNL     1      -5.235  -3.802   5.973  1.00  0.00     0.000 C 
BRANCH  10  11
ATOM     11  C   UNL     1      -4.789  -4.178   4.549  1.00  0.00     0.000 C 
BRANCH  11  12
ATOM     12  C   UNL     1      -3.379  -3.663   4.204  1.00  0.00     0.000 C 
BRANCH  12  13
ATOM     13  C   UNL     1      -2.273  -4.071   5.196  1.00  0.00     0.006 C 
BRANCH  13  14
ATOM     14  C   UNL     1      -1.580  -5.385   4.815  1.00  0.00     0.053 C 
BRANCH  14  15
ATOM     15  C   UNL     1      -2.085  -6.507   5.667  1.00  0.00     0.041 C 
ATOM     16  O   UNL     1      -2.435  -7.598   5.141  1.00  0.00    -0.550 OA
ATOM     17  O   UNL     1      -2.133  -6.361   7.049  1.00  0.00    -0.550 OA
ENDBRANCH  14  15
ENDBRANCH  13  14
ENDBRANCH  12  13
ENDBRANCH  11  12
ENDBRANCH  10  11
ENDBRANCH   9  10
ENDBRANCH   8   9
ENDBRANCH   7   8
ENDBRANCH   6   7
ENDBRANCH   5   6
ENDBRANCH   4   5
ENDBRANCH   3   4
ENDBRANCH   2   3
ENDBRANCH   1   2
BRANCH   1  18
ATOM     18  C   UNL     1      -6.277   0.550  -0.008  1.00  0.00     0.000 C 
BRANCH  18  19
ATOM     19  C   UNL     1      -7.014   1.716   0.688  1.00  0.00     0.000 C 
BRANCH  19  20
ATOM     20  C   UNL     1      -7.253   1.527   2.201  1.00  0.00     0.000 C 
BRANCH  20  21
ATOM     21  C   UNL     1      -6.658   2.607   3.120  1.00  0.00     0.000 C 
BRANCH  21  22
ATOM     22  C   UNL     1      -5.948   3.732   2.350  1.00  0.00     0.000 C 
BRANCH  22  23
ATOM     23  C   UNL     1      -4.461   3.857   2.714  1.00  0.00     0.000 C 
BRANCH  23  24
ATOM     24  C   UNL     1      -3.538   4.079   1.498  1.00  0.00    -0.000 C 
BRANCH  24  25
ATOM     25  C   UNL     1      -3.123   2.761   0.823  1.00  0.00    -0.000 C 
BRANCH  25  26
ATOM     26  C   UNL     1      -3.468   2.740  -0.682  1.00  0.00    -0.000 C 
BRANCH  26  27
ATOM     27  C   UNL     1      -3.914   4.110  -1.234  1.00  0.00    -0.000 C 
BRANCH  27  28
ATOM     28  C   UNL     1      -5.290   4.113  -1.926  1.00  0.00    -0.000 C 
BRANCH  28  29
ATOM     29  C   UNL     1      -6.428   4.753  -1.105  1.00  0.00    -0.000 C 
BRANCH  29  30
ATOM     30  C   UNL     1      -7.851   4.463  -1.619  1.00  0.00    -0.000 C 
BRANCH  30  31
ATOM     31  C   UNL     1      -7.970   3.233  -2.536  1.00  0.00    -0.003 C 
ATOM     32  C   UNL     1      -9.222   2.402  -2.258  1.00  0.00     0.004 C 
ENDBRANCH  30  31
ENDBRANCH  29  30
ENDBRANCH  28  29
ENDBRANCH  27  28
ENDBRANCH  26  27
ENDBRANCH  25  26
ENDBRANCH  24  25
ENDBRANCH  23  24
ENDBRANCH  22  23
ENDBRANCH  21  22
ENDBRANCH  20  21
ENDBRANCH  19  20
ENDBRANCH  18  19
ENDBRANCH   1  18
TORSDOF 28
ENDMDL
MODEL 5
REMARK VINA RESULT:    -3.753      1.698      2.322
REMARK INTER + INTRA:         -14.177
REMARK INTER:                 -10.211
REMARK INTRA:                  -3.966
REMARK UNBOUND:                -4.281
REMARK SMILES CCCCCCCCCCCCCCCCCCCCCCCCCCCCCC(=O)[O-]
REMARK SMILES IDX 16 1 17 2 18 3 19 4 20 5 21 6 22 7 23 8 24 9 25 10 26 11
REMARK SMILES IDX 27 12 28 13 29 14 30 15 31 16 32 17 15 18 14 19 13 20 12 21
REMARK SMILES IDX 11 22 10 23 9 24 8 25 7 26 6 27 5 28 4 29 3 30 2 31 1 32
REMARK H PARENT
REMARK Flexibility Score: inf
ROOT
ATOM      1  C   UNL     1      -5.382  -1.375   1.063  1.00  0.00     0.000 C 
ENDROOT
BRANCH   1   2
ATOM      2  C   UNL     1      -5.150   0.109   0.717  1.00  0.00     0.000 C 
BRANCH   2   3
ATOM      3  C   UNL     1      -6.375   0.766   0.045  1.00  0.00     0.000 C 
BRANCH   3   4
ATOM      4  C   UNL     1      -6.025   2.012  -0.794  1.00  0.00     0.000 C 
BRANCH   4   5
ATOM      5  C   UNL     1      -4.601   2.568  -0.575  1.00  0.00     0.000 C 
BRANCH   5   6
ATOM      6  C   UNL     1      -4.248   3.744  -1.502  1.00  0.00     0.000 C 
BRANCH   6   7
ATOM      7  C   UNL     1      -4.119   5.078  -0.736  1.00  0.00     0.000 C 
BRANCH   7   8
ATOM      8  C   UNL     1      -5.468   5.804  -0.594  1.00  0.00     0.000 C 
BRANCH   8   9
ATOM      9  C   UNL     1      -5.601   6.569   0.740  1.00  0.00     0.000 C 
BRANCH   9  10
ATOM     10  C   UNL     1      -6.897   6.243   1.506  1.00  0.00     0.000 C 
BRANCH  10  11
ATOM     11  C   UNL     1      -7.631   5.025   0.920  1.00  0.00     0.000 C 
BRANCH  11  12
ATOM     12  C   UNL     1      -7.633   3.810   1.867  1.00  0.00     0.000 C 
BRANCH  12  13
ATOM     13  C   UNL     1      -6.683   3.921   3.075  1.00  0.00     0.006 C 
BRANCH  13  14
ATOM     14  C   UNL     1      -5.393   3.111   2.901  1.00  0.00     0.053 C 
BRANCH  14  15
ATOM     15  C   UNL     1      -4.196   3.986   3.103  1.00  0.00     0.041 C 
ATOM     16  O   UNL     1      -4.213   4.895   3.976  1.00  0.00    -0.550 OA
ATOM     17  O   UNL     1      -3.046   3.774   2.351  1.00  0.00    -0.550 OA
ENDBRANCH  14  15
ENDBRANCH  13  14
ENDBRANCH  12  13
ENDBRANCH  11  12
ENDBRANCH  10  11
ENDBRANCH   9  10
ENDBRANCH   8   9
ENDBRANCH   7   8
ENDBRANCH   6   7
ENDBRANCH   5   6
ENDBRANCH   4   5
ENDBRANCH   3   4
ENDBRANCH   2   3
ENDBRANCH   1   2
BRANCH   1  18
ATOM     18  C   UNL     1      -6.608  -1.952   0.331  1.00  0.00     0.000 C 
BRANCH  18  19
ATOM     19  C   UNL     1      -7.571  -2.720   1.262  1.00  0.00     0.000 C 
BRANCH  19  20
ATOM     20  C   UNL     1      -7.303  -2.539   2.772  1.00  0.00     0.000 C 
BRANCH  20  21
ATOM     21  C   UNL     1      -6.833  -3.792   3.530  1.00  0.00     0.000 C 
BRANCH  21  22
ATOM     22  C   UNL     1      -7.245  -3.793   5.011  1.00  0.00     0.000 C 
BRANCH  22  23
ATOM     23  C   UNL     1      -7.852  -2.456   5.461  1.00  0.00     0.000 C 
BRANCH  23  24
ATOM     24  C   UNL     1      -7.258  -1.914   6.777  1.00  0.00    -0.000 C 
BRANCH  24  25
ATOM     25  C   UNL     1      -6.263  -2.892   7.423  1.00  0.00    -0.000 C 
BRANCH  25  26
ATOM     26  C   UNL     1      -4.945  -2.200   7.834  1.00  0.00    -0.000 C 
BRANCH  26  27
ATOM     27  C   UNL     1      -3.693  -3.073   7.616  1.00  0.00    -0.000 C 
BRANCH  27  28
ATOM     28  C   UNL     1      -2.910  -2.773   6.323  1.00  0.00    -0.000 C 
BRANCH  28  29
ATOM     29  C   UNL     1      -3.424  -3.509   5.068  1.00  0.00    -0.000 C 
BRANCH  29  30
ATOM     30  C   UNL     1      -2.462  -4.562   4.487  1.00  0.00    -0.000 C 
BRANCH  30  31
ATOM     31  C   UNL     1      -1.491  -5.186   5.505  1.00  0.00    -0.003 C 
ATOM     32  C   UNL     1      -0.476  -6.128   4.860  1.00  0.00     0.004 C 
ENDBRANCH  30  31
ENDBRANCH  29  30
ENDBRANCH  28  29
ENDBRANCH  27  28
ENDBRANCH  26  27
ENDBRANCH  25  26
ENDBRANCH  24  25
ENDBRANCH  23  24
ENDBRANCH  22  23
ENDBRANCH  21  22
ENDBRANCH  20  21
ENDBRANCH  19  20
ENDBRANCH  18  19
ENDBRANCH   1  18
TORSDOF 28
ENDMDL
MODEL 6
REMARK VINA RESULT:    -3.704      1.956      3.195
REMARK INTER + INTRA:         -14.047
REMARK INTER:                 -10.174
REMARK INTRA:                  -3.874
REMARK UNBOUND:                -4.281
REMARK SMILES CCCCCCCCCCCCCCCCCCCCCCCCCCCCCC(=O)[O-]
REMARK SMILES IDX 16 1 17 2 18 3 19 4 20 5 21 6 22 7 23 8 24 9 25 10 26 11
REMARK SMILES IDX 27 12 28 13 29 14 30 15 31 16 32 17 15 18 14 19 13 20 12 21
REMARK SMILES IDX 11 22 10 23 9 24 8 25 7 26 6 27 5 28 4 29 3 30 2 31 1 32
REMARK H PARENT
REMARK Flexibility Score: inf
ROOT
ATOM      1  C   UNL     1      -5.169  -0.177   0.531  1.00  0.00     0.000 C 
ENDROOT
BRANCH   1   2
ATOM      2  C   UNL     1      -6.217   0.771   1.146  1.00  0.00     0.000 C 
BRANCH   2   3
ATOM      3  C   UNL     1      -7.040   1.528   0.080  1.00  0.00     0.000 C 
BRANCH   3   4
ATOM      4  C   UNL     1      -6.505   2.942  -0.224  1.00  0.00     0.000 C 
BRANCH   4   5
ATOM      5  C   UNL     1      -5.593   3.043  -1.466  1.00  0.00     0.000 C 
BRANCH   5   6
ATOM      6  C   UNL     1      -4.205   3.635  -1.167  1.00  0.00     0.000 C 
BRANCH   6   7
ATOM      7  C   UNL     1      -3.338   2.693  -0.306  1.00  0.00     0.000 C 
BRANCH   7   8
ATOM      8  C   UNL     1      -3.135   3.227   1.123  1.00  0.00     0.000 C 
BRANCH   8   9
ATOM      9  C   UNL     1      -3.546   4.706   1.275  1.00  0.00     0.000 C 
BRANCH   9  10
ATOM     10  C   UNL     1      -4.446   4.970   2.498  1.00  0.00     0.000 C 
BRANCH  10  11
ATOM     11  C   UNL     1      -4.843   3.671   3.221  1.00  0.00     0.000 C 
BRANCH  11  12
ATOM     12  C   UNL     1      -6.361   3.549   3.448  1.00  0.00     0.000 C 
BRANCH  12  13
ATOM     13  C   UNL     1      -6.805   3.561   4.923  1.00  0.00     0.006 C 
BRANCH  13  14
ATOM     14  C   UNL     1      -7.657   2.343   5.303  1.00  0.00     0.053 C 
BRANCH  14  15
ATOM     15  C   UNL     1      -7.522   2.048   6.764  1.00  0.00     0.041 C 
ATOM     16  O   UNL     1      -6.981   2.886   7.535  1.00  0.00    -0.550 OA
ATOM     17  O   UNL     1      -8.028   0.862   7.282  1.00  0.00    -0.550 OA
ENDBRANCH  14  15
ENDBRANCH  13  14
ENDBRANCH  12  13
ENDBRANCH  11  12
ENDBRANCH  10  11
ENDBRANCH   9  10
ENDBRANCH   8   9
ENDBRANCH   7   8
ENDBRANCH   6   7
ENDBRANCH   5   6
ENDBRANCH   4   5
ENDBRANCH   3   4
ENDBRANCH   2   3
ENDBRANCH   1   2
BRANCH   1  18
ATOM     18  C   UNL     1      -5.408  -1.643   0.942  1.00  0.00     0.000 C 
BRANCH  18  19
ATOM     19  C   UNL     1      -6.725  -2.227   0.386  1.00  0.00     0.000 C 
BRANCH  19  20
ATOM     20  C   UNL     1      -7.867  -2.358   1.416  1.00  0.00     0.000 C 
BRANCH  20  21
ATOM     21  C   UNL     1      -7.898  -3.663   2.229  1.00  0.00     0.000 C 
BRANCH  21  22
ATOM     22  C   UNL     1      -7.711  -3.440   3.738  1.00  0.00     0.000 C 
BRANCH  22  23
ATOM     23  C   UNL     1      -6.888  -4.552   4.407  1.00  0.00     0.000 C 
BRANCH  23  24
ATOM     24  C   UNL     1      -5.567  -4.060   5.033  1.00  0.00    -0.000 C 
BRANCH  24  25
ATOM     25  C   UNL     1      -4.507  -3.708   3.975  1.00  0.00    -0.000 C 
BRANCH  25  26
ATOM     26  C   UNL     1      -3.071  -3.792   4.537  1.00  0.00    -0.000 C 
BRANCH  26  27
ATOM     27  C   UNL     1      -2.819  -5.040   5.408  1.00  0.00    -0.000 C 
BRANCH  27  28
ATOM     28  C   UNL     1      -2.327  -4.743   6.838  1.00  0.00    -0.000 C 
BRANCH  28  29
ATOM     29  C   UNL     1      -2.541  -3.290   7.309  1.00  0.00    -0.000 C 
BRANCH  29  30
ATOM     30  C   UNL     1      -3.828  -3.047   8.119  1.00  0.00    -0.000 C 
BRANCH  30  31
ATOM     31  C   UNL     1      -4.495  -1.680   7.882  1.00  0.00    -0.003 C 
ATOM     32  C   UNL     1      -5.766  -1.486   8.708  1.00  0.00     0.004 C 
ENDBRANCH  30  31
ENDBRANCH  29  30
ENDBRANCH  28  29
ENDBRANCH  27  28
ENDBRANCH  26  27
ENDBRANCH  25  26
ENDBRANCH  24  25
ENDBRANCH  23  24
ENDBRANCH  22  23
ENDBRANCH  21  22
ENDBRANCH  20  21
ENDBRANCH  19  20
ENDBRANCH  18  19
ENDBRANCH   1  18
TORSDOF 28
ENDMDL
MODEL 7
REMARK VINA RESULT:    -3.699      2.338      4.067
REMARK INTER + INTRA:         -14.036
REMARK INTER:                  -9.838
REMARK INTRA:                  -4.198
REMARK UNBOUND:                -4.281
REMARK SMILES CCCCCCCCCCCCCCCCCCCCCCCCCCCCCC(=O)[O-]
REMARK SMILES IDX 16 1 17 2 18 3 19 4 20 5 21 6 22 7 23 8 24 9 25 10 26 11
REMARK SMILES IDX 27 12 28 13 29 14 30 15 31 16 32 17 15 18 14 19 13 20 12 21
REMARK SMILES IDX 11 22 10 23 9 24 8 25 7 26 6 27 5 28 4 29 3 30 2 31 1 32
REMARK H PARENT
REMARK Flexibility Score: inf
ROOT
ATOM      1  C   UNL     1      -5.258   0.027   0.819  1.00  0.00     0.000 C 
ENDROOT
BRANCH   1   2
ATOM      2  C   UNL     1      -6.383   0.645  -0.034  1.00  0.00     0.000 C 
BRANCH   2   3
ATOM      3  C   UNL     1      -7.210   1.698   0.737  1.00  0.00     0.000 C 
BRANCH   3   4
ATOM      4  C   UNL     1      -7.127   1.548   2.269  1.00  0.00     0.000 C 
BRANCH   4   5
ATOM      5  C   UNL     1      -7.657   2.754   3.074  1.00  0.00     0.000 C 
BRANCH   5   6
ATOM      6  C   UNL     1      -6.643   3.314   4.087  1.00  0.00     0.000 C 
BRANCH   6   7
ATOM      7  C   UNL     1      -5.763   4.428   3.484  1.00  0.00     0.000 C 
BRANCH   7   8
ATOM      8  C   UNL     1      -4.377   3.914   3.059  1.00  0.00     0.000 C 
BRANCH   8   9
ATOM      9  C   UNL     1      -4.171   3.933   1.530  1.00  0.00     0.000 C 
BRANCH   9  10
ATOM     10  C   UNL     1      -3.109   2.929   1.042  1.00  0.00     0.000 C 
BRANCH  10  11
ATOM     11  C   UNL     1      -3.205   2.669  -0.472  1.00  0.00     0.000 C 
BRANCH  11  12
ATOM     12  C   UNL     1      -4.362   3.434  -1.142  1.00  0.00     0.000 C 
BRANCH  12  13
ATOM     13  C   UNL     1      -3.943   4.397  -2.269  1.00  0.00     0.006 C 
BRANCH  13  14
ATOM     14  C   UNL     1      -3.858   5.857  -1.809  1.00  0.00     0.053 C 
BRANCH  14  15
ATOM     15  C   UNL     1      -4.612   6.745  -2.749  1.00  0.00     0.041 C 
ATOM     16  O   UNL     1      -4.131   7.857  -3.097  1.00  0.00    -0.550 OA
ATOM     17  O   UNL     1      -5.830   6.327  -3.271  1.00  0.00    -0.550 OA
ENDBRANCH  14  15
ENDBRANCH  13  14
ENDBRANCH  12  13
ENDBRANCH  11  12
ENDBRANCH  10  11
ENDBRANCH   9  10
ENDBRANCH   8   9
ENDBRANCH   7   8
ENDBRANCH   6   7
ENDBRANCH   5   6
ENDBRANCH   4   5
ENDBRANCH   3   4
ENDBRANCH   2   3
ENDBRANCH   1   2
BRANCH   1  18
ATOM     18  C   UNL     1      -5.277  -1.513   0.765  1.00  0.00     0.000 C 
BRANCH  18  19
ATOM     19  C   UNL     1      -6.511  -2.085   0.035  1.00  0.00     0.000 C 
BRANCH  19  20
ATOM     20  C   UNL     1      -7.539  -2.793   0.945  1.00  0.00     0.000 C 
BRANCH  20  21
ATOM     21  C   UNL     1      -8.218  -1.915   2.009  1.00  0.00     0.000 C 
BRANCH  21  22
ATOM     22  C   UNL     1      -7.962  -2.399   3.446  1.00  0.00     0.000 C 
BRANCH  22  23
ATOM     23  C   UNL     1      -7.222  -3.744   3.498  1.00  0.00     0.000 C 
BRANCH  23  24
ATOM     24  C   UNL     1      -6.561  -4.039   4.860  1.00  0.00    -0.000 C 
BRANCH  24  25
ATOM     25  C   UNL     1      -5.191  -4.724   4.715  1.00  0.00    -0.000 C 
BRANCH  25  26
ATOM     26  C   UNL     1      -4.115  -3.766   4.160  1.00  0.00    -0.000 C 
BRANCH  26  27
ATOM     27  C   UNL     1      -2.949  -3.510   5.137  1.00  0.00    -0.000 C 
BRANCH  27  28
ATOM     28  C   UNL     1      -3.132  -4.124   6.538  1.00  0.00    -0.000 C 
BRANCH  28  29
ATOM     29  C   UNL     1      -2.605  -3.258   7.701  1.00  0.00    -0.000 C 
BRANCH  29  30
ATOM     30  C   UNL     1      -3.691  -2.599   8.571  1.00  0.00    -0.000 C 
BRANCH  30  31
ATOM     31  C   UNL     1      -4.858  -1.972   7.788  1.00  0.00    -0.003 C 
ATOM     32  C   UNL     1      -6.217  -2.552   8.177  1.00  0.00     0.004 C 
ENDBRANCH  30  31
ENDBRANCH  29  30
ENDBRANCH  28  29
ENDBRANCH  27  28
ENDBRANCH  26  27
ENDBRANCH  25  26
ENDBRANCH  24  25
ENDBRANCH  23  24
ENDBRANCH  22  23
ENDBRANCH  21  22
ENDBRANCH  20  21
ENDBRANCH  19  20
ENDBRANCH  18  19
ENDBRANCH   1  18
TORSDOF 28
ENDMDL
MODEL 8
REMARK VINA RESULT:    -3.651      3.465      9.279
REMARK INTER + INTRA:         -13.909
REMARK INTER:                  -9.884
REMARK INTRA:                  -4.025
REMARK UNBOUND:                -4.281
REMARK SMILES CCCCCCCCCCCCCCCCCCCCCCCCCCCCCC(=O)[O-]
REMARK SMILES IDX 16 1 17 2 18 3 19 4 20 5 21 6 22 7 23 8 24 9 25 10 26 11
REMARK SMILES IDX 27 12 28 13 29 14 30 15 31 16 32 17 15 18 14 19 13 20 12 21
REMARK SMILES IDX 11 22 10 23 9 24 8 25 7 26 6 27 5 28 4 29 3 30 2 31 1 32
REMARK H PARENT
REMARK Flexibility Score: inf
ROOT
ATOM      1  C   UNL     1      -5.265  -0.172   0.751  1.00  0.00     0.000 C 
ENDROOT
BRANCH   1   2
ATOM      2  C   UNL     1      -5.358  -1.707   0.847  1.00  0.00     0.000 C 
BRANCH   2   3
ATOM      3  C   UNL     1      -6.751  -2.249   0.456  1.00  0.00     0.000 C 
BRANCH   3   4
ATOM      4  C   UNL     1      -7.574  -2.759   1.656  1.00  0.00     0.000 C 
BRANCH   4   5
ATOM      5  C   UNL     1      -6.771  -2.965   2.959  1.00  0.00     0.000 C 
BRANCH   5   6
ATOM      6  C   UNL     1      -7.505  -3.816   4.009  1.00  0.00     0.000 C 
BRANCH   6   7
ATOM      7  C   UNL     1      -7.044  -5.289   3.999  1.00  0.00     0.000 C 
BRANCH   7   8
ATOM      8  C   UNL     1      -5.978  -5.576   5.070  1.00  0.00     0.000 C 
BRANCH   8   9
ATOM      9  C   UNL     1      -4.754  -6.332   4.512  1.00  0.00     0.000 C 
BRANCH   9  10
ATOM     10  C   UNL     1      -3.408  -5.688   4.898  1.00  0.00     0.000 C 
BRANCH  10  11
ATOM     11  C   UNL     1      -3.315  -4.219   4.452  1.00  0.00     0.000 C 
BRANCH  11  12
ATOM     12  C   UNL     1      -2.815  -3.282   5.568  1.00  0.00     0.000 C 
BRANCH  12  13
ATOM     13  C   UNL     1      -3.793  -3.083   6.741  1.00  0.00     0.006 C 
BRANCH  13  14
ATOM     14  C   UNL     1      -3.087  -2.973   8.098  1.00  0.00     0.053 C 
BRANCH  14  15
ATOM     15  C   UNL     1      -2.916  -4.328   8.709  1.00  0.00     0.041 C 
ATOM     16  O   UNL     1      -3.675  -5.277   8.372  1.00  0.00    -0.550 OA
ATOM     17  O   UNL     1      -1.894  -4.555   9.623  1.00  0.00    -0.550 OA
ENDBRANCH  14  15
ENDBRANCH  13  14
ENDBRANCH  12  13
ENDBRANCH  11  12
ENDBRANCH  10  11
ENDBRANCH   9  10
ENDBRANCH   8   9
ENDBRANCH   7   8
ENDBRANCH   6   7
ENDBRANCH   5   6
ENDBRANCH   4   5
ENDBRANCH   3   4
ENDBRANCH   2   3
ENDBRANCH   1   2
BRANCH   1  18
ATOM     18  C   UNL     1      -6.463   0.432  -0.008  1.00  0.00     0.000 C 
BRANCH  18  19
ATOM     19  C   UNL     1      -7.143   1.594   0.748  1.00  0.00     0.000 C 
BRANCH  19  20
ATOM     20  C   UNL     1      -6.646   1.813   2.193  1.00  0.00     0.000 C 
BRANCH  20  21
ATOM     21  C   UNL     1      -6.384   3.271   2.604  1.00  0.00     0.000 C 
BRANCH  21  22
ATOM     22  C   UNL     1      -4.905   3.559   2.908  1.00  0.00     0.000 C 
BRANCH  22  23
ATOM     23  C   UNL     1      -4.118   4.006   1.666  1.00  0.00     0.000 C 
BRANCH  23  24
ATOM     24  C   UNL     1      -2.988   3.038   1.262  1.00  0.00    -0.000 C 
BRANCH  24  25
ATOM     25  C   UNL     1      -3.206   2.426  -0.132  1.00  0.00    -0.000 C 
BRANCH  25  26
ATOM     26  C   UNL     1      -4.260   3.201  -0.953  1.00  0.00    -0.000 C 
BRANCH  26  27
ATOM     27  C   UNL     1      -3.654   4.256  -1.901  1.00  0.00    -0.000 C 
BRANCH  27  28
ATOM     28  C   UNL     1      -4.357   5.626  -1.880  1.00  0.00    -0.000 C 
BRANCH  28  29
ATOM     29  C   UNL     1      -5.685   5.662  -1.096  1.00  0.00    -0.000 C 
BRANCH  29  30
ATOM     30  C   UNL     1      -6.954   5.472  -1.948  1.00  0.00    -0.000 C 
BRANCH  30  31
ATOM     31  C   UNL     1      -7.940   4.418  -1.415  1.00  0.00    -0.003 C 
ATOM     32  C   UNL     1      -8.097   3.221  -2.352  1.00  0.00     0.004 C 
ENDBRANCH  30  31
ENDBRANCH  29  30
ENDBRANCH  28  29
ENDBRANCH  27  28
ENDBRANCH  26  27
ENDBRANCH  25  26
ENDBRANCH  24  25
ENDBRANCH  23  24
ENDBRANCH  22  23
ENDBRANCH  21  22
ENDBRANCH  20  21
ENDBRANCH  19  20
ENDBRANCH  18  19
ENDBRANCH   1  18
TORSDOF 28
ENDMDL
MODEL 9
REMARK VINA RESULT:    -3.650      1.618      3.136
REMARK INTER + INTRA:         -13.905
REMARK INTER:                  -9.399
REMARK INTRA:                  -4.506
REMARK UNBOUND:                -4.281
REMARK SMILES CCCCCCCCCCCCCCCCCCCCCCCCCCCCCC(=O)[O-]
REMARK SMILES IDX 16 1 17 2 18 3 19 4 20 5 21 6 22 7 23 8 24 9 25 10 26 11
REMARK SMILES IDX 27 12 28 13 29 14 30 15 31 16 32 17 15 18 14 19 13 20 12 21
REMARK SMILES IDX 11 22 10 23 9 24 8 25 7 26 6 27 5 28 4 29 3 30 2 31 1 32
REMARK H PARENT
REMARK Flexibility Score: inf
ROOT
ATOM      1  C   UNL     1      -5.563   0.086   0.859  1.00  0.00     0.000 C 
ENDROOT
BRANCH   1   2
ATOM      2  C   UNL     1      -6.678   0.667  -0.032  1.00  0.00     0.000 C 
BRANCH   2   3
ATOM      3  C   UNL     1      -7.580   1.674   0.716  1.00  0.00     0.000 C 
BRANCH   3   4
ATOM      4  C   UNL     1      -7.892   1.262   2.169  1.00  0.00     0.000 C 
BRANCH   4   5
ATOM      5  C   UNL     1      -8.115   2.436   3.147  1.00  0.00     0.000 C 
BRANCH   5   6
ATOM      6  C   UNL     1      -6.873   2.787   3.984  1.00  0.00     0.000 C 
BRANCH   6   7
ATOM      7  C   UNL     1      -6.300   4.176   3.632  1.00  0.00     0.000 C 
BRANCH   7   8
ATOM      8  C   UNL     1      -4.804   4.118   3.276  1.00  0.00     0.000 C 
BRANCH   8   9
ATOM      9  C   UNL     1      -4.490   3.093   2.166  1.00  0.00     0.000 C 
BRANCH   9  10
ATOM     10  C   UNL     1      -3.211   3.421   1.372  1.00  0.00     0.000 C 
BRANCH  10  11
ATOM     11  C   UNL     1      -3.094   2.589   0.084  1.00  0.00     0.000 C 
BRANCH  11  12
ATOM     12  C   UNL     1      -4.170   2.941  -0.961  1.00  0.00     0.000 C 
BRANCH  12  13
ATOM     13  C   UNL     1      -4.421   4.448  -1.159  1.00  0.00     0.006 C 
BRANCH  13  14
ATOM     14  C   UNL     1      -5.881   4.849  -0.920  1.00  0.00     0.053 C 
BRANCH  14  15
ATOM     15  C   UNL     1      -5.972   5.857   0.182  1.00  0.00     0.041 C 
ATOM     16  O   UNL     1      -7.077   6.089   0.743  1.00  0.00    -0.550 OA
ATOM     17  O   UNL     1      -4.827   6.515   0.617  1.00  0.00    -0.550 OA
ENDBRANCH  14  15
ENDBRANCH  13  14
ENDBRANCH  12  13
ENDBRANCH  11  12
ENDBRANCH  10  11
ENDBRANCH   9  10
ENDBRANCH   8   9
ENDBRANCH   7   8
ENDBRANCH   6   7
ENDBRANCH   5   6
ENDBRANCH   4   5
ENDBRANCH   3   4
ENDBRANCH   2   3
ENDBRANCH   1   2
BRANCH   1  18
ATOM     18  C   UNL     1      -5.461  -1.446   0.726  1.00  0.00     0.000 C 
BRANCH  18  19
ATOM     19  C   UNL     1      -6.679  -2.082   0.022  1.00  0.00     0.000 C 
BRANCH  19  20
ATOM     20  C   UNL     1      -7.541  -3.003   0.912  1.00  0.00     0.000 C 
BRANCH  20  21
ATOM     21  C   UNL     1      -8.532  -2.299   1.854  1.00  0.00     0.000 C 
BRANCH  21  22
ATOM     22  C   UNL     1      -8.100  -2.342   3.328  1.00  0.00     0.000 C 
BRANCH  22  23
ATOM     23  C   UNL     1      -6.937  -3.313   3.580  1.00  0.00     0.000 C 
BRANCH  23  24
ATOM     24  C   UNL     1      -6.979  -3.990   4.966  1.00  0.00    -0.000 C 
BRANCH  24  25
ATOM     25  C   UNL     1      -7.072  -2.974   6.117  1.00  0.00    -0.000 C 
BRANCH  25  26
ATOM     26  C   UNL     1      -6.308  -3.443   7.374  1.00  0.00    -0.000 C 
BRANCH  26  27
ATOM     27  C   UNL     1      -4.946  -4.097   7.063  1.00  0.00    -0.000 C 
BRANCH  27  28
ATOM     28  C   UNL     1      -3.724  -3.187   7.290  1.00  0.00    -0.000 C 
BRANCH  28  29
ATOM     29  C   UNL     1      -2.830  -2.978   6.050  1.00  0.00    -0.000 C 
BRANCH  29  30
ATOM     30  C   UNL     1      -3.306  -3.693   4.772  1.00  0.00    -0.000 C 
BRANCH  30  31
ATOM     31  C   UNL     1      -2.603  -5.030   4.478  1.00  0.00    -0.003 C 
ATOM     32  C   UNL     1      -1.322  -5.221   5.290  1.00  0.00     0.004 C 
ENDBRANCH  30  31
ENDBRANCH  29  30
ENDBRANCH  28  29
ENDBRANCH  27  28
ENDBRANCH  26  27
ENDBRANCH  25  26
ENDBRANCH  24  25
ENDBRANCH  23  24
ENDBRANCH  22  23
ENDBRANCH  21  22
ENDBRANCH  20  21
ENDBRANCH  19  20
ENDBRANCH  18  19
ENDBRANCH   1  18
TORSDOF 28
ENDMDL
