MODEL 1
REMARK VINA RESULT:    -6.501      0.000      0.000
REMARK INTER + INTRA:          -9.709
REMARK INTER:                  -8.592
REMARK INTRA:                  -1.118
REMARK UNBOUND:                -1.118
REMARK SMILES CC[C@@H](C=C[C@@H](C)[C@@H]1CC[C@@H]2[C@H]3CC=C4C[C@H](O)CC[C@@]4(C)[C@@H]3CC[C@]21C)C(C)C
REMARK SMILES IDX 6 1 7 2 5 3 4 4 3 5 2 6 1 7 28 8 29 9 30 10 8 11 9 12 26 13
REMARK SMILES IDX 10 14 11 15 25 16 27 17 12 18 24 19 23 20 13 21 21 22 14 23
REMARK SMILES IDX 15 24 20 25 22 26 16 27 19 28 17 29 18 30
REMARK H PARENT 18 31
REMARK Flexibility Score: inf
ROOT
ATOM      1  C   UNL     1      37.514   5.622  42.201  1.00  0.00     0.012 C 
ATOM      2  C   UNL     1      37.797   4.416  43.125  1.00  0.00     0.012 C 
ENDROOT
BRANCH   1   3
ATOM      3  C   UNL     1      36.152   5.414  41.580  1.00  0.00    -0.028 C 
ATOM      4  C   UNL     1      35.022   5.808  42.177  1.00  0.00    -0.027 C 
BRANCH   4   5
ATOM      5  C   UNL     1      33.650   5.589  41.561  1.00  0.00     0.014 C 
BRANCH   5   6
ATOM      6  C   UNL     1      32.982   4.390  42.291  1.00  0.00     0.004 C 
ATOM      7  C   UNL     1      31.731   4.808  43.064  1.00  0.00     0.004 C 
ENDBRANCH   5   6
BRANCH   5   8
ATOM      8  C   UNL     1      33.700   5.406  40.005  1.00  0.00    -0.011 C 
ATOM      9  C   UNL     1      33.542   6.756  39.271  1.00  0.00     0.008 C 
ATOM     10  C   UNL     1      32.615   4.461  39.495  1.00  0.00     0.008 C 
ENDBRANCH   5   8
ENDBRANCH   4   5
ENDBRANCH   1   3
BRANCH   1  11
ATOM     11  C   UNL     1      38.537   5.918  41.043  1.00  0.00     0.002 C 
ATOM     12  C   UNL     1      39.949   5.303  41.207  1.00  0.00     0.005 C 
ATOM     13  C   UNL     1      38.790   7.375  40.574  1.00  0.00    -0.026 C 
ATOM     14  C   UNL     1      40.918   6.240  40.483  1.00  0.00     0.005 C 
ATOM     15  C   UNL     1      40.010   7.149  39.674  1.00  0.00    -0.001 C 
ATOM     16  C   UNL     1      37.672   7.997  39.694  1.00  0.00     0.007 C 
ATOM     17  C   UNL     1      39.079   8.292  41.797  1.00  0.00     0.012 C 
ATOM     18  C   UNL     1      40.573   8.449  39.078  1.00  0.00     0.000 C 
ATOM     19  C   UNL     1      38.157   9.286  38.969  1.00  0.00     0.005 C 
ATOM     20  C   UNL     1      39.475   9.069  38.162  1.00  0.00     0.003 C 
ATOM     21  C   UNL     1      41.810   8.165  38.230  1.00  0.00     0.031 C 
ATOM     22  C   UNL     1      39.996  10.343  37.341  1.00  0.00    -0.008 C 
ATOM     23  C   UNL     1      42.347   9.450  37.697  1.00  0.00    -0.027 C 
ATOM     24  C   UNL     1      41.542  10.462  37.323  1.00  0.00    -0.065 C 
ATOM     25  C   UNL     1      39.568  10.187  35.849  1.00  0.00     0.014 C 
ATOM     26  C   UNL     1      39.391  11.663  37.915  1.00  0.00     0.016 C 
ATOM     27  C   UNL     1      42.146  11.575  36.481  1.00  0.00     0.063 C 
ATOM     28  C   UNL     1      40.164  11.264  34.906  1.00  0.00     0.033 C 
ATOM     29  C   UNL     1      41.715  11.355  35.015  1.00  0.00     0.118 C 
BRANCH  29  30
ATOM     30  O   UNL     1      42.148  12.420  34.196  1.00  0.00    -0.393 OA
ATOM     31  H   UNL     1      41.455  13.133  34.247  1.00  0.00     0.210 HD
ENDBRANCH  29  30
ENDBRANCH   1  11
TORSDOF 6
ENDMDL
MODEL 2
REMARK VINA RESULT:    -6.193      4.563     10.784
REMARK INTER + INTRA:          -9.301
REMARK INTER:                  -7.760
REMARK INTRA:                  -1.541
REMARK UNBOUND:                -1.118
REMARK SMILES CC[C@@H](C=C[C@@H](C)[C@@H]1CC[C@@H]2[C@H]3CC=C4C[C@H](O)CC[C@@]4(C)[C@@H]3CC[C@]21C)C(C)C
REMARK SMILES IDX 6 1 7 2 5 3 4 4 3 5 2 6 1 7 28 8 29 9 30 10 8 11 9 12 26 13
REMARK SMILES IDX 10 14 11 15 25 16 27 17 12 18 24 19 23 20 13 21 21 22 14 23
REMARK SMILES IDX 15 24 20 25 22 26 16 27 19 28 17 29 18 30
REMARK H PARENT 18 31
REMARK Flexibility Score: inf
ROOT
ATOM      1  C   UNL     1      40.988  13.093  30.692  1.00  0.00     0.012 C 
ATOM      2  C   UNL     1      40.012  13.874  29.784  1.00  0.00     0.012 C 
ENDROOT
BRANCH   1   3
ATOM      3  C   UNL     1      42.014  12.432  29.801  1.00  0.00    -0.028 C 
ATOM      4  C   UNL     1      42.338  11.138  29.914  1.00  0.00    -0.027 C 
BRANCH   4   5
ATOM      5  C   UNL     1      43.379  10.475  29.027  1.00  0.00     0.014 C 
BRANCH   5   6
ATOM      6  C   UNL     1      42.808   9.107  28.559  1.00  0.00     0.004 C 
ATOM      7  C   UNL     1      41.325   8.953  28.894  1.00  0.00     0.004 C 
ENDBRANCH   5   6
BRANCH   5   8
ATOM      8  C   UNL     1      44.780  10.348  29.717  1.00  0.00    -0.011 C 
ATOM      9  C   UNL     1      45.398   8.950  29.492  1.00  0.00     0.008 C 
ATOM     10  C   UNL     1      44.712  10.597  31.222  1.00  0.00     0.008 C 
ENDBRANCH   5   8
ENDBRANCH   4   5
ENDBRANCH   1   3
BRANCH   1  11
ATOM     11  C   UNL     1      40.388  11.993  31.644  1.00  0.00     0.002 C 
ATOM     12  C   UNL     1      38.876  11.701  31.481  1.00  0.00     0.005 C 
ATOM     13  C   UNL     1      40.615  12.073  33.176  1.00  0.00    -0.026 C 
ATOM     14  C   UNL     1      38.371  11.246  32.851  1.00  0.00     0.005 C 
ATOM     15  C   UNL     1      39.642  10.983  33.639  1.00  0.00    -0.001 C 
ATOM     16  C   UNL     1      42.032  11.669  33.665  1.00  0.00     0.007 C 
ATOM     17  C   UNL     1      40.255  13.494  33.699  1.00  0.00     0.012 C 
ATOM     18  C   UNL     1      39.571  10.843  35.168  1.00  0.00     0.000 C 
ATOM     19  C   UNL     1      42.065  11.418  35.200  1.00  0.00     0.005 C 
ATOM     20  C   UNL     1      40.978  10.402  35.672  1.00  0.00     0.003 C 
ATOM     21  C   UNL     1      38.555   9.776  35.568  1.00  0.00     0.031 C 
ATOM     22  C   UNL     1      40.999  10.052  37.236  1.00  0.00    -0.008 C 
ATOM     23  C   UNL     1      38.490   9.691  37.056  1.00  0.00    -0.027 C 
ATOM     24  C   UNL     1      39.580   9.850  37.830  1.00  0.00    -0.065 C 
ATOM     25  C   UNL     1      41.737   8.692  37.437  1.00  0.00     0.014 C 
ATOM     26  C   UNL     1      41.735  11.163  38.048  1.00  0.00     0.016 C 
ATOM     27  C   UNL     1      39.489   9.408  39.281  1.00  0.00     0.063 C 
ATOM     28  C   UNL     1      41.669   8.145  38.886  1.00  0.00     0.033 C 
ATOM     29  C   UNL     1      40.208   8.048  39.416  1.00  0.00     0.118 C 
BRANCH  29  30
ATOM     30  O   UNL     1      40.260   7.635  40.765  1.00  0.00    -0.393 OA
ATOM     31  H   UNL     1      39.592   6.903  40.876  1.00  0.00     0.210 HD
ENDBRANCH  29  30
ENDBRANCH   1  11
TORSDOF 6
ENDMDL
MODEL 3
REMARK VINA RESULT:    -6.174     12.365     14.567
REMARK INTER + INTRA:          -9.276
REMARK INTER:                  -8.226
REMARK INTRA:                  -1.050
REMARK UNBOUND:                -1.118
REMARK SMILES CC[C@@H](C=C[C@@H](C)[C@@H]1CC[C@@H]2[C@H]3CC=C4C[C@H](O)CC[C@@]4(C)[C@@H]3CC[C@]21C)C(C)C
REMARK SMILES IDX 6 1 7 2 5 3 4 4 3 5 2 6 1 7 28 8 29 9 30 10 8 11 9 12 26 13
REMARK SMILES IDX 10 14 11 15 25 16 27 17 12 18 24 19 23 20 13 21 21 22 14 23
REMARK SMILES IDX 15 24 20 25 22 26 16 27 19 28 17 29 18 30
REMARK H PARENT 18 31
REMARK Flexibility Score: inf
ROOT
ATOM      1  C   UNL     1      28.824  14.935  38.178  1.00  0.00     0.012 C 
ATOM      2  C   UNL     1      27.938  13.822  38.779  1.00  0.00     0.012 C 
ENDROOT
BRANCH   1   3
ATOM      3  C   UNL     1      29.155  15.908  39.286  1.00  0.00    -0.028 C 
ATOM      4  C   UNL     1      28.284  16.220  40.252  1.00  0.00    -0.027 C 
BRANCH   4   5
ATOM      5  C   UNL     1      28.609  17.208  41.361  1.00  0.00     0.014 C 
BRANCH   5   6
ATOM      6  C   UNL     1      30.041  17.756  41.109  1.00  0.00     0.004 C 
ATOM      7  C   UNL     1      30.040  19.249  40.781  1.00  0.00     0.004 C 
ENDBRANCH   5   6
BRANCH   5   8
ATOM      8  C   UNL     1      28.431  16.600  42.794  1.00  0.00    -0.011 C 
ATOM      9  C   UNL     1      29.290  15.329  42.981  1.00  0.00     0.008 C 
ATOM     10  C   UNL     1      26.979  16.236  43.096  1.00  0.00     0.008 C 
ENDBRANCH   5   8
ENDBRANCH   4   5
ENDBRANCH   1   3
BRANCH   1  11
ATOM     11  C   UNL     1      28.254  15.755  36.963  1.00  0.00     0.002 C 
ATOM     12  C   UNL     1      26.712  15.879  36.888  1.00  0.00     0.005 C 
ATOM     13  C   UNL     1      28.697  15.423  35.515  1.00  0.00    -0.026 C 
ATOM     14  C   UNL     1      26.357  16.006  35.405  1.00  0.00     0.005 C 
ATOM     15  C   UNL     1      27.692  16.277  34.734  1.00  0.00    -0.001 C 
ATOM     16  C   UNL     1      30.120  15.906  35.123  1.00  0.00     0.007 C 
ATOM     17  C   UNL     1      28.559  13.896  35.246  1.00  0.00     0.012 C 
ATOM     18  C   UNL     1      27.819  16.123  33.210  1.00  0.00     0.000 C 
ATOM     19  C   UNL     1      30.339  15.871  33.582  1.00  0.00     0.005 C 
ATOM     20  C   UNL     1      29.231  16.637  32.795  1.00  0.00     0.003 C 
ATOM     21  C   UNL     1      26.766  16.960  32.490  1.00  0.00     0.031 C 
ATOM     22  C   UNL     1      29.431  16.692  31.205  1.00  0.00    -0.008 C 
ATOM     23  C   UNL     1      26.898  16.761  31.018  1.00  0.00    -0.027 C 
ATOM     24  C   UNL     1      28.096  16.601  30.422  1.00  0.00    -0.065 C 
ATOM     25  C   UNL     1      30.049  18.073  30.825  1.00  0.00     0.014 C 
ATOM     26  C   UNL     1      30.382  15.553  30.722  1.00  0.00     0.016 C 
ATOM     27  C   UNL     1      28.161  16.752  28.912  1.00  0.00     0.063 C 
ATOM     28  C   UNL     1      30.127  18.331  29.298  1.00  0.00     0.033 C 
ATOM     29  C   UNL     1      28.751  18.143  28.593  1.00  0.00     0.118 C 
BRANCH  29  30
ATOM     30  O   UNL     1      28.946  18.304  27.204  1.00  0.00    -0.393 OA
ATOM     31  H   UNL     1      29.874  18.004  27.000  1.00  0.00     0.210 HD
ENDBRANCH  29  30
ENDBRANCH   1  11
TORSDOF 6
ENDMDL
MODEL 4
REMARK VINA RESULT:    -6.039      6.822     11.243
REMARK INTER + INTRA:          -9.098
REMARK INTER:                  -7.691
REMARK INTRA:                  -1.408
REMARK UNBOUND:                -1.118
REMARK SMILES CC[C@@H](C=C[C@@H](C)[C@@H]1CC[C@@H]2[C@H]3CC=C4C[C@H](O)CC[C@@]4(C)[C@@H]3CC[C@]21C)C(C)C
REMARK SMILES IDX 6 1 7 2 5 3 4 4 3 5 2 6 1 7 28 8 29 9 30 10 8 11 9 12 26 13
REMARK SMILES IDX 10 14 11 15 25 16 27 17 12 18 24 19 23 20 13 21 21 22 14 23
REMARK SMILES IDX 15 24 20 25 22 26 16 27 19 28 17 29 18 30
REMARK H PARENT 18 31
REMARK Flexibility Score: inf
ROOT
ATOM      1  C   UNL     1      44.852  13.663  33.815  1.00  0.00     0.012 C 
ATOM      2  C   UNL     1      46.120  14.544  33.874  1.00  0.00     0.012 C 
ENDROOT
BRANCH   1   3
ATOM      3  C   UNL     1      44.651  13.058  35.185  1.00  0.00    -0.028 C 
ATOM      4  C   UNL     1      43.436  12.824  35.697  1.00  0.00    -0.027 C 
BRANCH   4   5
ATOM      5  C   UNL     1      43.231  12.228  37.080  1.00  0.00     0.014 C 
BRANCH   5   6
ATOM      6  C   UNL     1      44.600  11.683  37.574  1.00  0.00     0.004 C 
ATOM      7  C   UNL     1      44.471  10.315  38.244  1.00  0.00     0.004 C 
ENDBRANCH   5   6
BRANCH   5   8
ATOM      8  C   UNL     1      42.094  11.150  37.119  1.00  0.00    -0.011 C 
ATOM      9  C   UNL     1      41.526  10.876  35.708  1.00  0.00     0.008 C 
ATOM     10  C   UNL     1      40.935  11.560  38.023  1.00  0.00     0.008 C 
ENDBRANCH   5   8
ENDBRANCH   4   5
ENDBRANCH   1   3
BRANCH   1  11
ATOM     11  C   UNL     1      44.811  12.500  32.758  1.00  0.00     0.002 C 
ATOM     12  C   UNL     1      46.125  12.239  31.980  1.00  0.00     0.005 C 
ATOM     13  C   UNL     1      43.697  12.458  31.681  1.00  0.00    -0.026 C 
ATOM     14  C   UNL     1      45.719  11.684  30.614  1.00  0.00     0.005 C 
ATOM     15  C   UNL     1      44.248  11.346  30.781  1.00  0.00    -0.001 C 
ATOM     16  C   UNL     1      42.299  12.000  32.181  1.00  0.00     0.007 C 
ATOM     17  C   UNL     1      43.583  13.837  30.969  1.00  0.00     0.012 C 
ATOM     18  C   UNL     1      43.383  11.088  29.536  1.00  0.00     0.000 C 
ATOM     19  C   UNL     1      41.355  11.631  31.000  1.00  0.00     0.005 C 
ATOM     20  C   UNL     1      41.986  10.593  30.021  1.00  0.00     0.003 C 
ATOM     21  C   UNL     1      44.005  10.005  28.659  1.00  0.00     0.031 C 
ATOM     22  C   UNL     1      41.040  10.122  28.816  1.00  0.00    -0.008 C 
ATOM     23  C   UNL     1      43.158   9.805  27.448  1.00  0.00    -0.027 C 
ATOM     24  C   UNL     1      41.814   9.890  27.492  1.00  0.00    -0.065 C 
ATOM     25  C   UNL     1      40.410   8.743  29.182  1.00  0.00     0.014 C 
ATOM     26  C   UNL     1      39.901  11.158  28.563  1.00  0.00     0.016 C 
ATOM     27  C   UNL     1      41.030   9.338  26.313  1.00  0.00     0.063 C 
ATOM     28  C   UNL     1      39.614   8.085  28.025  1.00  0.00     0.033 C 
ATOM     29  C   UNL     1      40.455   7.964  26.720  1.00  0.00     0.118 C 
BRANCH  29  30
ATOM     30  O   UNL     1      39.618   7.446  25.708  1.00  0.00    -0.393 OA
ATOM     31  H   UNL     1      39.059   6.733  26.123  1.00  0.00     0.210 HD
ENDBRANCH  29  30
ENDBRANCH   1  11
TORSDOF 6
ENDMDL
MODEL 5
REMARK VINA RESULT:    -5.943      1.790      3.108
REMARK INTER + INTRA:          -8.971
REMARK INTER:                  -7.717
REMARK INTRA:                  -1.254
REMARK UNBOUND:                -1.118
REMARK SMILES CC[C@@H](C=C[C@@H](C)[C@@H]1CC[C@@H]2[C@H]3CC=C4C[C@H](O)CC[C@@]4(C)[C@@H]3CC[C@]21C)C(C)C
REMARK SMILES IDX 6 1 7 2 5 3 4 4 3 5 2 6 1 7 28 8 29 9 30 10 8 11 9 12 26 13
REMARK SMILES IDX 10 14 11 15 25 16 27 17 12 18 24 19 23 20 13 21 21 22 14 23
REMARK SMILES IDX 15 24 20 25 22 26 16 27 19 28 17 29 18 30
REMARK H PARENT 18 31
REMARK Flexibility Score: inf
ROOT
ATOM      1  C   UNL     1      34.450   5.570  41.819  1.00  0.00     0.012 C 
ATOM      2  C   UNL     1      33.860   4.574  42.841  1.00  0.00     0.012 C 
ENDROOT
BRANCH   1   3
ATOM      3  C   UNL     1      33.812   5.284  40.479  1.00  0.00    -0.028 C 
ATOM      4  C   UNL     1      32.854   6.060  39.958  1.00  0.00    -0.027 C 
BRANCH   4   5
ATOM      5  C   UNL     1      32.203   5.767  38.616  1.00  0.00     0.014 C 
BRANCH   5   6
ATOM      6  C   UNL     1      30.972   4.852  38.871  1.00  0.00     0.004 C 
ATOM      7  C   UNL     1      30.197   5.259  40.124  1.00  0.00     0.004 C 
ENDBRANCH   5   6
BRANCH   5   8
ATOM      8  C   UNL     1      33.202   5.169  37.567  1.00  0.00    -0.011 C 
ATOM      9  C   UNL     1      34.043   6.276  36.893  1.00  0.00     0.008 C 
ATOM     10  C   UNL     1      32.491   4.382  36.470  1.00  0.00     0.008 C 
ENDBRANCH   5   8
ENDBRANCH   4   5
ENDBRANCH   1   3
BRANCH   1  11
ATOM     11  C   UNL     1      36.011   5.586  41.622  1.00  0.00     0.002 C 
ATOM     12  C   UNL     1      36.851   4.997  42.782  1.00  0.00     0.005 C 
ATOM     13  C   UNL     1      36.739   6.898  41.230  1.00  0.00    -0.026 C 
ATOM     14  C   UNL     1      38.191   5.733  42.766  1.00  0.00     0.005 C 
ATOM     15  C   UNL     1      38.193   6.457  41.431  1.00  0.00    -0.001 C 
ATOM     16  C   UNL     1      36.586   7.330  39.746  1.00  0.00     0.007 C 
ATOM     17  C   UNL     1      36.303   8.057  42.171  1.00  0.00     0.012 C 
ATOM     18  C   UNL     1      39.209   7.583  41.180  1.00  0.00     0.000 C 
ATOM     19  C   UNL     1      37.626   8.419  39.351  1.00  0.00     0.005 C 
ATOM     20  C   UNL     1      39.093   8.005  39.685  1.00  0.00     0.003 C 
ATOM     21  C   UNL     1      40.632   7.097  41.440  1.00  0.00     0.031 C 
ATOM     22  C   UNL     1      40.220   9.057  39.245  1.00  0.00    -0.008 C 
ATOM     23  C   UNL     1      41.585   8.223  41.219  1.00  0.00    -0.027 C 
ATOM     24  C   UNL     1      41.396   9.142  40.252  1.00  0.00    -0.065 C 
ATOM     25  C   UNL     1      40.852   8.583  37.899  1.00  0.00     0.014 C 
ATOM     26  C   UNL     1      39.611  10.481  39.054  1.00  0.00     0.016 C 
ATOM     27  C   UNL     1      42.572  10.029  39.879  1.00  0.00     0.063 C 
ATOM     28  C   UNL     1      42.082   9.413  37.453  1.00  0.00     0.033 C 
ATOM     29  C   UNL     1      43.174   9.499  38.560  1.00  0.00     0.118 C 
BRANCH  29  30
ATOM     30  O   UNL     1      44.201  10.349  38.095  1.00  0.00    -0.393 OA
ATOM     31  H   UNL     1      44.832  10.492  38.853  1.00  0.00     0.210 HD
ENDBRANCH  29  30
ENDBRANCH   1  11
TORSDOF 6
ENDMDL
MODEL 6
REMARK VINA RESULT:    -5.928     11.937     14.546
REMARK INTER + INTRA:          -8.952
REMARK INTER:                  -7.579
REMARK INTRA:                  -1.372
REMARK UNBOUND:                -1.118
REMARK SMILES CC[C@@H](C=C[C@@H](C)[C@@H]1CC[C@@H]2[C@H]3CC=C4C[C@H](O)CC[C@@]4(C)[C@@H]3CC[C@]21C)C(C)C
REMARK SMILES IDX 6 1 7 2 5 3 4 4 3 5 2 6 1 7 28 8 29 9 30 10 8 11 9 12 26 13
REMARK SMILES IDX 10 14 11 15 25 16 27 17 12 18 24 19 23 20 13 21 21 22 14 23
REMARK SMILES IDX 15 24 20 25 22 26 16 27 19 28 17 29 18 30
REMARK H PARENT 18 31
REMARK Flexibility Score: inf
ROOT
ATOM      1  C   UNL     1      29.490  14.897  38.185  1.00  0.00     0.012 C 
ATOM      2  C   UNL     1      28.554  14.233  39.220  1.00  0.00     0.012 C 
ENDROOT
BRANCH   1   3
ATOM      3  C   UNL     1      30.433  15.807  38.938  1.00  0.00    -0.028 C 
ATOM      4  C   UNL     1      30.435  17.135  38.775  1.00  0.00    -0.027 C 
BRANCH   4   5
ATOM      5  C   UNL     1      31.391  18.051  39.521  1.00  0.00     0.014 C 
BRANCH   5   6
ATOM      6  C   UNL     1      30.553  18.934  40.488  1.00  0.00     0.004 C 
ATOM      7  C   UNL     1      29.256  18.249  40.919  1.00  0.00     0.004 C 
ENDBRANCH   5   6
BRANCH   5   8
ATOM      8  C   UNL     1      32.307  18.891  38.566  1.00  0.00    -0.011 C 
ATOM      9  C   UNL     1      31.736  20.309  38.337  1.00  0.00     0.008 C 
ATOM     10  C   UNL     1      32.486  18.229  37.202  1.00  0.00     0.008 C 
ENDBRANCH   5   8
ENDBRANCH   4   5
ENDBRANCH   1   3
BRANCH   1  11
ATOM     11  C   UNL     1      28.832  15.731  37.025  1.00  0.00     0.002 C 
ATOM     12  C   UNL     1      27.289  15.860  37.069  1.00  0.00     0.005 C 
ATOM     13  C   UNL     1      29.162  15.409  35.544  1.00  0.00    -0.026 C 
ATOM     14  C   UNL     1      26.823  16.001  35.619  1.00  0.00     0.005 C 
ATOM     15  C   UNL     1      28.104  16.274  34.849  1.00  0.00    -0.001 C 
ATOM     16  C   UNL     1      30.553  15.891  35.049  1.00  0.00     0.007 C 
ATOM     17  C   UNL     1      28.997  13.886  35.274  1.00  0.00     0.012 C 
ATOM     18  C   UNL     1      28.114  16.132  33.319  1.00  0.00     0.000 C 
ATOM     19  C   UNL     1      30.653  15.868  33.496  1.00  0.00     0.005 C 
ATOM     20  C   UNL     1      29.491  16.645  32.802  1.00  0.00     0.003 C 
ATOM     21  C   UNL     1      27.011  16.979  32.689  1.00  0.00     0.031 C 
ATOM     22  C   UNL     1      29.570  16.714  31.202  1.00  0.00    -0.008 C 
ATOM     23  C   UNL     1      27.031  16.792  31.209  1.00  0.00    -0.027 C 
ATOM     24  C   UNL     1      28.179  16.634  30.523  1.00  0.00    -0.065 C 
ATOM     25  C   UNL     1      30.163  18.096  30.788  1.00  0.00     0.014 C 
ATOM     26  C   UNL     1      30.477  15.575  30.639  1.00  0.00     0.016 C 
ATOM     27  C   UNL     1      28.129  16.798  29.013  1.00  0.00     0.063 C 
ATOM     28  C   UNL     1      30.125  18.366  29.261  1.00  0.00     0.033 C 
ATOM     29  C   UNL     1      28.698  18.190  28.662  1.00  0.00     0.118 C 
BRANCH  29  30
ATOM     30  O   UNL     1      28.788  18.362  27.264  1.00  0.00    -0.393 OA
ATOM     31  H   UNL     1      29.073  17.490  26.876  1.00  0.00     0.210 HD
ENDBRANCH  29  30
ENDBRANCH   1  11
TORSDOF 6
ENDMDL
MODEL 7
REMARK VINA RESULT:    -5.924      5.728     10.094
REMARK INTER + INTRA:          -8.946
REMARK INTER:                  -7.634
REMARK INTRA:                  -1.313
REMARK UNBOUND:                -1.118
REMARK SMILES CC[C@@H](C=C[C@@H](C)[C@@H]1CC[C@@H]2[C@H]3CC=C4C[C@H](O)CC[C@@]4(C)[C@@H]3CC[C@]21C)C(C)C
REMARK SMILES IDX 6 1 7 2 5 3 4 4 3 5 2 6 1 7 28 8 29 9 30 10 8 11 9 12 26 13
REMARK SMILES IDX 10 14 11 15 25 16 27 17 12 18 24 19 23 20 13 21 21 22 14 23
REMARK SMILES IDX 15 24 20 25 22 26 16 27 19 28 17 29 18 30
REMARK H PARENT 18 31
REMARK Flexibility Score: inf
ROOT
ATOM      1  C   UNL     1      43.305  13.866  36.445  1.00  0.00     0.012 C 
ATOM      2  C   UNL     1      44.038  14.861  37.371  1.00  0.00     0.012 C 
ENDROOT
BRANCH   1   3
ATOM      3  C   UNL     1      42.695  12.792  37.316  1.00  0.00    -0.028 C 
ATOM      4  C   UNL     1      42.761  11.492  37.007  1.00  0.00    -0.027 C 
BRANCH   4   5
ATOM      5  C   UNL     1      42.137  10.411  37.875  1.00  0.00     0.014 C 
BRANCH   5   6
ATOM      6  C   UNL     1      43.207   9.943  38.900  1.00  0.00     0.004 C 
ATOM      7  C   UNL     1      44.630  10.109  38.369  1.00  0.00     0.004 C 
ENDBRANCH   5   6
BRANCH   5   8
ATOM      8  C   UNL     1      41.531   9.230  37.041  1.00  0.00    -0.011 C 
ATOM      9  C   UNL     1      40.048   9.486  36.692  1.00  0.00     0.008 C 
ATOM     10  C   UNL     1      41.619   7.895  37.775  1.00  0.00     0.008 C 
ENDBRANCH   5   8
ENDBRANCH   4   5
ENDBRANCH   1   3
BRANCH   1  11
ATOM     11  C   UNL     1      44.141  13.160  35.315  1.00  0.00     0.002 C 
ATOM     12  C   UNL     1      45.647  13.519  35.254  1.00  0.00     0.005 C 
ATOM     13  C   UNL     1      43.662  13.205  33.840  1.00  0.00    -0.026 C 
ATOM     14  C   UNL     1      46.069  13.377  33.791  1.00  0.00     0.005 C 
ATOM     15  C   UNL     1      44.908  12.642  33.146  1.00  0.00    -0.001 C 
ATOM     16  C   UNL     1      42.474  12.267  33.494  1.00  0.00     0.007 C 
ATOM     17  C   UNL     1      43.326  14.667  33.428  1.00  0.00     0.012 C 
ATOM     18  C   UNL     1      44.786  12.611  31.614  1.00  0.00     0.000 C 
ATOM     19  C   UNL     1      42.303  12.093  31.957  1.00  0.00     0.005 C 
ATOM     20  C   UNL     1      43.619  11.645  31.248  1.00  0.00     0.003 C 
ATOM     21  C   UNL     1      46.071  12.085  30.979  1.00  0.00     0.031 C 
ATOM     22  C   UNL     1      43.496  11.387  29.670  1.00  0.00    -0.008 C 
ATOM     23  C   UNL     1      45.928  12.100  29.494  1.00  0.00    -0.027 C 
ATOM     24  C   UNL     1      44.760  11.822  28.884  1.00  0.00    -0.065 C 
ATOM     25  C   UNL     1      43.352   9.854  29.422  1.00  0.00     0.014 C 
ATOM     26  C   UNL     1      42.253  12.123  29.080  1.00  0.00     0.016 C 
ATOM     27  C   UNL     1      44.792  11.523  27.395  1.00  0.00     0.063 C 
ATOM     28  C   UNL     1      43.406   9.449  27.927  1.00  0.00     0.033 C 
ATOM     29  C   UNL     1      44.677   9.994  27.209  1.00  0.00     0.118 C 
BRANCH  29  30
ATOM     30  O   UNL     1      44.585   9.656  25.842  1.00  0.00    -0.393 OA
ATOM     31  H   UNL     1      45.200   8.888  25.685  1.00  0.00     0.210 HD
ENDBRANCH  29  30
ENDBRANCH   1  11
TORSDOF 6
ENDMDL
MODEL 8
REMARK VINA RESULT:    -5.869     13.788     17.711
REMARK INTER + INTRA:          -8.874
REMARK INTER:                  -7.342
REMARK INTRA:                  -1.532
REMARK UNBOUND:                -1.118
REMARK SMILES CC[C@@H](C=C[C@@H](C)[C@@H]1CC[C@@H]2[C@H]3CC=C4C[C@H](O)CC[C@@]4(C)[C@@H]3CC[C@]21C)C(C)C
REMARK SMILES IDX 6 1 7 2 5 3 4 4 3 5 2 6 1 7 28 8 29 9 30 10 8 11 9 12 26 13
REMARK SMILES IDX 10 14 11 15 25 16 27 17 12 18 24 19 23 20 13 21 21 22 14 23
REMARK SMILES IDX 15 24 20 25 22 26 16 27 19 28 17 29 18 30
REMARK H PARENT 18 31
REMARK Flexibility Score: inf
ROOT
ATOM      1  C   UNL     1      37.438  19.395  28.625  1.00  0.00     0.012 C 
ATOM      2  C   UNL     1      38.863  19.031  29.098  1.00  0.00     0.012 C 
ENDROOT
BRANCH   1   3
ATOM      3  C   UNL     1      37.487  20.795  28.058  1.00  0.00    -0.028 C 
ATOM      4  C   UNL     1      36.547  21.711  28.321  1.00  0.00    -0.027 C 
BRANCH   4   5
ATOM      5  C   UNL     1      36.588  23.116  27.741  1.00  0.00     0.014 C 
BRANCH   5   6
ATOM      6  C   UNL     1      36.844  24.109  28.909  1.00  0.00     0.004 C 
ATOM      7  C   UNL     1      36.487  23.509  30.269  1.00  0.00     0.004 C 
ENDBRANCH   5   6
BRANCH   5   8
ATOM      8  C   UNL     1      35.310  23.470  26.907  1.00  0.00    -0.011 C 
ATOM      9  C   UNL     1      34.455  22.215  26.620  1.00  0.00     0.008 C 
ATOM     10  C   UNL     1      35.650  24.124  25.570  1.00  0.00     0.008 C 
ENDBRANCH   5   8
ENDBRANCH   4   5
ENDBRANCH   1   3
BRANCH   1  11
ATOM     11  C   UNL     1      36.275  19.338  29.682  1.00  0.00     0.002 C 
ATOM     12  C   UNL     1      36.693  19.032  31.142  1.00  0.00     0.005 C 
ATOM     13  C   UNL     1      35.030  18.448  29.431  1.00  0.00    -0.026 C 
ATOM     14  C   UNL     1      35.509  18.315  31.792  1.00  0.00     0.005 C 
ATOM     15  C   UNL     1      34.370  18.529  30.812  1.00  0.00    -0.001 C 
ATOM     16  C   UNL     1      34.011  18.998  28.396  1.00  0.00     0.007 C 
ATOM     17  C   UNL     1      35.469  17.009  29.034  1.00  0.00     0.012 C 
ATOM     18  C   UNL     1      33.098  17.673  30.928  1.00  0.00     0.000 C 
ATOM     19  C   UNL     1      32.646  18.256  28.477  1.00  0.00     0.005 C 
ATOM     20  C   UNL     1      32.051  18.236  29.920  1.00  0.00     0.003 C 
ATOM     21  C   UNL     1      32.513  17.760  32.335  1.00  0.00     0.031 C 
ATOM     22  C   UNL     1      30.614  17.540  30.060  1.00  0.00    -0.008 C 
ATOM     23  C   UNL     1      31.302  16.894  32.419  1.00  0.00    -0.027 C 
ATOM     24  C   UNL     1      30.450  16.753  31.386  1.00  0.00    -0.065 C 
ATOM     25  C   UNL     1      29.520  18.651  30.092  1.00  0.00     0.014 C 
ATOM     26  C   UNL     1      30.339  16.580  28.862  1.00  0.00     0.016 C 
ATOM     27  C   UNL     1      29.087  16.144  31.671  1.00  0.00     0.063 C 
ATOM     28  C   UNL     1      28.096  18.125  30.408  1.00  0.00     0.033 C 
ATOM     29  C   UNL     1      28.050  17.287  31.720  1.00  0.00     0.118 C 
BRANCH  29  30
ATOM     30  O   UNL     1      26.742  16.778  31.867  1.00  0.00    -0.393 OA
ATOM     31  H   UNL     1      26.236  17.020  31.044  1.00  0.00     0.210 HD
ENDBRANCH  29  30
ENDBRANCH   1  11
TORSDOF 6
ENDMDL
