MODEL 1
REMARK VINA RESULT:    -4.856      0.000      0.000
REMARK INTER + INTRA:         -10.298
REMARK INTER:                  -8.831
REMARK INTRA:                  -1.467
REMARK UNBOUND:                -1.467
REMARK SMILES CCCCCCCCCCCCCCCC(=O)[O-]
REMARK SMILES IDX 9 1 10 2 11 3 12 4 13 5 14 6 15 7 16 8 17 9 18 10 8 11 7 12
REMARK SMILES IDX 6 13 5 14 4 15 3 16 2 17 1 18
REMARK H PARENT
REMARK Flexibility Score: inf
ROOT
ATOM      1  C   UNL     1       1.600 -36.303  19.809  1.00  0.00     0.000 C 
ENDROOT
BRANCH   1   2
ATOM      2  C   UNL     1       0.623 -36.819  20.880  1.00  0.00     0.000 C 
BRANCH   2   3
ATOM      3  C   UNL     1      -0.294 -35.711  21.423  1.00  0.00     0.000 C 
BRANCH   3   4
ATOM      4  C   UNL     1      -1.772 -36.141  21.470  1.00  0.00     0.000 C 
BRANCH   4   5
ATOM      5  C   UNL     1      -2.620 -35.238  22.380  1.00  0.00     0.000 C 
BRANCH   5   6
ATOM      6  C   UNL     1      -1.817 -34.075  22.981  1.00  0.00     0.006 C 
BRANCH   6   7
ATOM      7  C   UNL     1      -2.746 -32.945  23.435  1.00  0.00     0.053 C 
BRANCH   7   8
ATOM      8  C   UNL     1      -1.977 -31.907  24.190  1.00  0.00     0.041 C 
ATOM      9  O   UNL     1      -2.526 -30.820  24.510  1.00  0.00    -0.550 OA
ATOM     10  O   UNL     1      -0.639 -32.119  24.496  1.00  0.00    -0.550 OA
ENDBRANCH   7   8
ENDBRANCH   6   7
ENDBRANCH   5   6
ENDBRANCH   4   5
ENDBRANCH   3   4
ENDBRANCH   2   3
ENDBRANCH   1   2
BRANCH   1  11
ATOM     11  C   UNL     1       1.910 -37.356  18.730  1.00  0.00     0.000 C 
BRANCH  11  12
ATOM     12  C   UNL     1       3.045 -36.980  17.756  1.00  0.00    -0.000 C 
BRANCH  12  13
ATOM     13  C   UNL     1       4.260 -36.286  18.403  1.00  0.00    -0.000 C 
BRANCH  13  14
ATOM     14  C   UNL     1       5.283 -37.237  19.050  1.00  0.00    -0.000 C 
BRANCH  14  15
ATOM     15  C   UNL     1       5.458 -36.991  20.556  1.00  0.00    -0.000 C 
BRANCH  15  16
ATOM     16  C   UNL     1       4.613 -37.979  21.374  1.00  0.00    -0.000 C 
BRANCH  16  17
ATOM     17  C   UNL     1       3.897 -37.307  22.557  1.00  0.00    -0.003 C 
ATOM     18  C   UNL     1       4.114 -35.794  22.596  1.00  0.00     0.004 C 
ENDBRANCH  16  17
ENDBRANCH  15  16
ENDBRANCH  14  15
ENDBRANCH  13  14
ENDBRANCH  12  13
ENDBRANCH  11  12
ENDBRANCH   1  11
TORSDOF 14
ENDMDL
MODEL 2
REMARK VINA RESULT:    -4.732      1.021      2.656
REMARK INTER + INTRA:         -10.073
REMARK INTER:                  -8.498
REMARK INTRA:                  -1.574
REMARK UNBOUND:                -1.467
REMARK SMILES CCCCCCCCCCCCCCCC(=O)[O-]
REMARK SMILES IDX 9 1 10 2 11 3 12 4 13 5 14 6 15 7 16 8 17 9 18 10 8 11 7 12
REMARK SMILES IDX 6 13 5 14 4 15 3 16 2 17 1 18
REMARK H PARENT
REMARK Flexibility Score: inf
ROOT
ATOM      1  C   UNL     1       0.983 -35.823  20.850  1.00  0.00     0.000 C 
ENDROOT
BRANCH   1   2
ATOM      2  C   UNL     1       0.353 -37.207  20.614  1.00  0.00     0.000 C 
BRANCH   2   3
ATOM      3  C   UNL     1      -1.010 -37.359  21.309  1.00  0.00     0.000 C 
BRANCH   3   4
ATOM      4  C   UNL     1      -1.896 -36.110  21.148  1.00  0.00     0.000 C 
BRANCH   4   5
ATOM      5  C   UNL     1      -3.120 -36.131  22.078  1.00  0.00     0.000 C 
BRANCH   5   6
ATOM      6  C   UNL     1      -3.299 -34.818  22.855  1.00  0.00     0.006 C 
BRANCH   6   7
ATOM      7  C   UNL     1      -1.981 -34.043  22.931  1.00  0.00     0.053 C 
BRANCH   7   8
ATOM      8  C   UNL     1      -2.145 -32.814  23.770  1.00  0.00     0.041 C 
ATOM      9  O   UNL     1      -1.181 -32.384  24.456  1.00  0.00    -0.550 OA
ATOM     10  O   UNL     1      -3.376 -32.175  23.833  1.00  0.00    -0.550 OA
ENDBRANCH   7   8
ENDBRANCH   6   7
ENDBRANCH   5   6
ENDBRANCH   4   5
ENDBRANCH   3   4
ENDBRANCH   2   3
ENDBRANCH   1   2
BRANCH   1  11
ATOM     11  C   UNL     1       2.264 -35.891  21.701  1.00  0.00     0.000 C 
BRANCH  11  12
ATOM     12  C   UNL     1       2.809 -37.312  21.950  1.00  0.00    -0.000 C 
BRANCH  12  13
ATOM     13  C   UNL     1       4.305 -37.386  22.316  1.00  0.00    -0.000 C 
BRANCH  13  14
ATOM     14  C   UNL     1       5.237 -36.568  21.405  1.00  0.00    -0.000 C 
BRANCH  14  15
ATOM     15  C   UNL     1       5.744 -37.369  20.196  1.00  0.00    -0.000 C 
BRANCH  15  16
ATOM     16  C   UNL     1       5.122 -36.845  18.893  1.00  0.00    -0.000 C 
BRANCH  16  17
ATOM     17  C   UNL     1       3.907 -37.672  18.442  1.00  0.00    -0.003 C 
ATOM     18  C   UNL     1       2.829 -36.821  17.771  1.00  0.00     0.004 C 
ENDBRANCH  16  17
ENDBRANCH  15  16
ENDBRANCH  14  15
ENDBRANCH  13  14
ENDBRANCH  12  13
ENDBRANCH  11  12
ENDBRANCH   1  11
TORSDOF 14
ENDMDL
MODEL 3
REMARK VINA RESULT:    -4.709     20.796     22.479
REMARK INTER + INTRA:         -10.030
REMARK INTER:                  -8.494
REMARK INTRA:                  -1.536
REMARK UNBOUND:                -1.467
REMARK SMILES CCCCCCCCCCCCCCCC(=O)[O-]
REMARK SMILES IDX 9 1 10 2 11 3 12 4 13 5 14 6 15 7 16 8 17 9 18 10 8 11 7 12
REMARK SMILES IDX 6 13 5 14 4 15 3 16 2 17 1 18
REMARK H PARENT
REMARK Flexibility Score: inf
ROOT
ATOM      1  C   UNL     1      -8.565 -19.569  33.726  1.00  0.00     0.000 C 
ENDROOT
BRANCH   1   2
ATOM      2  C   UNL     1      -8.523 -18.385  32.744  1.00  0.00     0.000 C 
BRANCH   2   3
ATOM      3  C   UNL     1      -7.108 -18.119  32.203  1.00  0.00     0.000 C 
BRANCH   3   4
ATOM      4  C   UNL     1      -6.089 -19.169  32.680  1.00  0.00     0.000 C 
BRANCH   4   5
ATOM      5  C   UNL     1      -4.745 -18.544  33.089  1.00  0.00     0.000 C 
BRANCH   5   6
ATOM      6  C   UNL     1      -4.670 -18.221  34.588  1.00  0.00     0.006 C 
BRANCH   6   7
ATOM      7  C   UNL     1      -5.216 -19.381  35.426  1.00  0.00     0.053 C 
BRANCH   7   8
ATOM      8  C   UNL     1      -4.262 -20.534  35.407  1.00  0.00     0.041 C 
ATOM      9  O   UNL     1      -4.688 -21.705  35.227  1.00  0.00    -0.550 OA
ATOM     10  O   UNL     1      -2.909 -20.321  35.640  1.00  0.00    -0.550 OA
ENDBRANCH   7   8
ENDBRANCH   6   7
ENDBRANCH   5   6
ENDBRANCH   4   5
ENDBRANCH   3   4
ENDBRANCH   2   3
ENDBRANCH   1   2
BRANCH   1  11
ATOM     11  C   UNL     1      -9.627 -20.617  33.349  1.00  0.00     0.000 C 
BRANCH  11  12
ATOM     12  C   UNL     1     -11.047 -20.328  33.877  1.00  0.00    -0.000 C 
BRANCH  12  13
ATOM     13  C   UNL     1     -12.010 -19.691  32.856  1.00  0.00    -0.000 C 
BRANCH  13  14
ATOM     14  C   UNL     1     -11.865 -20.212  31.415  1.00  0.00    -0.000 C 
BRANCH  14  15
ATOM     15  C   UNL     1     -11.148 -19.217  30.489  1.00  0.00    -0.000 C 
BRANCH  15  16
ATOM     16  C   UNL     1     -10.040 -19.916  29.687  1.00  0.00    -0.000 C 
BRANCH  16  17
ATOM     17  C   UNL     1      -9.258 -18.945  28.789  1.00  0.00    -0.003 C 
ATOM     18  C   UNL     1      -9.690 -19.017  27.324  1.00  0.00     0.004 C 
ENDBRANCH  16  17
ENDBRANCH  15  16
ENDBRANCH  14  15
ENDBRANCH  13  14
ENDBRANCH  12  13
ENDBRANCH  11  12
ENDBRANCH   1  11
TORSDOF 14
ENDMDL
MODEL 4
REMARK VINA RESULT:    -4.628     20.921     22.400
REMARK INTER + INTRA:          -9.882
REMARK INTER:                  -8.501
REMARK INTRA:                  -1.381
REMARK UNBOUND:                -1.467
REMARK SMILES CCCCCCCCCCCCCCCC(=O)[O-]
REMARK SMILES IDX 9 1 10 2 11 3 12 4 13 5 14 6 15 7 16 8 17 9 18 10 8 11 7 12
REMARK SMILES IDX 6 13 5 14 4 15 3 16 2 17 1 18
REMARK H PARENT
REMARK Flexibility Score: inf
ROOT
ATOM      1  C   UNL     1      -7.982 -18.773  30.888  1.00  0.00     0.000 C 
ENDROOT
BRANCH   1   2
ATOM      2  C   UNL     1      -7.816 -18.082  32.253  1.00  0.00     0.000 C 
BRANCH   2   3
ATOM      3  C   UNL     1      -6.890 -18.864  33.200  1.00  0.00     0.000 C 
BRANCH   3   4
ATOM      4  C   UNL     1      -7.460 -20.244  33.574  1.00  0.00     0.000 C 
BRANCH   4   5
ATOM      5  C   UNL     1      -6.424 -21.142  34.268  1.00  0.00     0.000 C 
BRANCH   5   6
ATOM      6  C   UNL     1      -5.576 -20.385  35.301  1.00  0.00     0.006 C 
BRANCH   6   7
ATOM      7  C   UNL     1      -4.172 -20.990  35.407  1.00  0.00     0.053 C 
BRANCH   7   8
ATOM      8  C   UNL     1      -3.161 -20.077  34.787  1.00  0.00     0.041 C 
ATOM      9  O   UNL     1      -3.520 -18.973  34.300  1.00  0.00    -0.550 OA
ATOM     10  O   UNL     1      -1.831 -20.468  34.702  1.00  0.00    -0.550 OA
ENDBRANCH   7   8
ENDBRANCH   6   7
ENDBRANCH   5   6
ENDBRANCH   4   5
ENDBRANCH   3   4
ENDBRANCH   2   3
ENDBRANCH   1   2
BRANCH   1  11
ATOM     11  C   UNL     1      -9.439 -18.765  30.390  1.00  0.00     0.000 C 
BRANCH  11  12
ATOM     12  C   UNL     1     -10.152 -20.132  30.433  1.00  0.00    -0.000 C 
BRANCH  12  13
ATOM     13  C   UNL     1     -11.489 -20.151  31.200  1.00  0.00    -0.000 C 
BRANCH  13  14
ATOM     14  C   UNL     1     -11.436 -19.540  32.612  1.00  0.00    -0.000 C 
BRANCH  14  15
ATOM     15  C   UNL     1     -10.962 -20.541  33.677  1.00  0.00    -0.000 C 
BRANCH  15  16
ATOM     16  C   UNL     1     -12.123 -20.958  34.591  1.00  0.00    -0.000 C 
BRANCH  16  17
ATOM     17  C   UNL     1     -11.685 -21.932  35.697  1.00  0.00    -0.003 C 
ATOM     18  C   UNL     1     -10.392 -22.672  35.354  1.00  0.00     0.004 C 
ENDBRANCH  16  17
ENDBRANCH  15  16
ENDBRANCH  14  15
ENDBRANCH  13  14
ENDBRANCH  12  13
ENDBRANCH  11  12
ENDBRANCH   1  11
TORSDOF 14
ENDMDL
MODEL 5
REMARK VINA RESULT:    -4.623      3.260      7.532
REMARK INTER + INTRA:          -9.874
REMARK INTER:                  -8.711
REMARK INTRA:                  -1.163
REMARK UNBOUND:                -1.467
REMARK SMILES CCCCCCCCCCCCCCCC(=O)[O-]
REMARK SMILES IDX 9 1 10 2 11 3 12 4 13 5 14 6 15 7 16 8 17 9 18 10 8 11 7 12
REMARK SMILES IDX 6 13 5 14 4 15 3 16 2 17 1 18
REMARK H PARENT
REMARK Flexibility Score: inf
ROOT
ATOM      1  C   UNL     1       0.855 -35.873  21.488  1.00  0.00     0.000 C 
ENDROOT
BRANCH   1   2
ATOM      2  C   UNL     1       1.187 -37.347  21.194  1.00  0.00     0.000 C 
BRANCH   2   3
ATOM      3  C   UNL     1       1.207 -37.657  19.688  1.00  0.00     0.000 C 
BRANCH   3   4
ATOM      4  C   UNL     1       2.028 -36.629  18.887  1.00  0.00     0.000 C 
BRANCH   4   5
ATOM      5  C   UNL     1       3.361 -37.204  18.382  1.00  0.00     0.000 C 
BRANCH   5   6
ATOM      6  C   UNL     1       4.573 -36.663  19.154  1.00  0.00     0.006 C 
BRANCH   6   7
ATOM      7  C   UNL     1       4.887 -37.542  20.368  1.00  0.00     0.053 C 
BRANCH   7   8
ATOM      8  C   UNL     1       4.986 -36.708  21.607  1.00  0.00     0.041 C 
ATOM      9  O   UNL     1       4.295 -35.663  21.722  1.00  0.00    -0.550 OA
ATOM     10  O   UNL     1       5.880 -37.058  22.611  1.00  0.00    -0.550 OA
ENDBRANCH   7   8
ENDBRANCH   6   7
ENDBRANCH   5   6
ENDBRANCH   4   5
ENDBRANCH   3   4
ENDBRANCH   2   3
ENDBRANCH   1   2
BRANCH   1  11
ATOM     11  C   UNL     1      -0.576 -35.490  21.071  1.00  0.00     0.000 C 
BRANCH  11  12
ATOM     12  C   UNL     1      -1.484 -35.005  22.220  1.00  0.00    -0.000 C 
BRANCH  12  13
ATOM     13  C   UNL     1      -2.874 -35.667  22.282  1.00  0.00    -0.000 C 
BRANCH  13  14
ATOM     14  C   UNL     1      -3.011 -36.967  21.469  1.00  0.00    -0.000 C 
BRANCH  14  15
ATOM     15  C   UNL     1      -3.655 -36.745  20.092  1.00  0.00    -0.000 C 
BRANCH  15  16
ATOM     16  C   UNL     1      -3.656 -38.043  19.272  1.00  0.00    -0.000 C 
BRANCH  16  17
ATOM     17  C   UNL     1      -4.441 -37.912  17.957  1.00  0.00    -0.003 C 
ATOM     18  C   UNL     1      -4.901 -36.479  17.684  1.00  0.00     0.004 C 
ENDBRANCH  16  17
ENDBRANCH  15  16
ENDBRANCH  14  15
ENDBRANCH  13  14
ENDBRANCH  12  13
ENDBRANCH  11  12
ENDBRANCH   1  11
TORSDOF 14
ENDMDL
MODEL 6
REMARK VINA RESULT:    -4.604     21.336     22.640
REMARK INTER + INTRA:          -9.838
REMARK INTER:                  -7.676
REMARK INTRA:                  -2.163
REMARK UNBOUND:                -1.467
REMARK SMILES CCCCCCCCCCCCCCCC(=O)[O-]
REMARK SMILES IDX 9 1 10 2 11 3 12 4 13 5 14 6 15 7 16 8 17 9 18 10 8 11 7 12
REMARK SMILES IDX 6 13 5 14 4 15 3 16 2 17 1 18
REMARK H PARENT
REMARK Flexibility Score: inf
ROOT
ATOM      1  C   UNL     1      -8.111 -18.790  30.851  1.00  0.00     0.000 C 
ENDROOT
BRANCH   1   2
ATOM      2  C   UNL     1      -9.250 -18.701  29.820  1.00  0.00     0.000 C 
BRANCH   2   3
ATOM      3  C   UNL     1     -10.641 -18.756  30.475  1.00  0.00     0.000 C 
BRANCH   3   4
ATOM      4  C   UNL     1     -11.111 -20.198  30.737  1.00  0.00     0.000 C 
BRANCH   4   5
ATOM      5  C   UNL     1     -12.188 -20.278  31.831  1.00  0.00     0.000 C 
BRANCH   5   6
ATOM      6  C   UNL     1     -12.006 -19.214  32.924  1.00  0.00     0.006 C 
BRANCH   6   7
ATOM      7  C   UNL     1     -11.892 -19.863  34.307  1.00  0.00     0.053 C 
BRANCH   7   8
ATOM      8  C   UNL     1     -13.231 -19.910  34.974  1.00  0.00     0.041 C 
ATOM      9  O   UNL     1     -13.948 -18.877  35.027  1.00  0.00    -0.550 OA
ATOM     10  O   UNL     1     -13.663 -21.081  35.583  1.00  0.00    -0.550 OA
ENDBRANCH   7   8
ENDBRANCH   6   7
ENDBRANCH   5   6
ENDBRANCH   4   5
ENDBRANCH   3   4
ENDBRANCH   2   3
ENDBRANCH   1   2
BRANCH   1  11
ATOM     11  C   UNL     1      -8.396 -17.976  32.125  1.00  0.00     0.000 C 
BRANCH  11  12
ATOM     12  C   UNL     1      -8.347 -18.781  33.440  1.00  0.00    -0.000 C 
BRANCH  12  13
ATOM     13  C   UNL     1      -8.251 -20.310  33.270  1.00  0.00    -0.000 C 
BRANCH  13  14
ATOM     14  C   UNL     1      -7.268 -21.009  34.226  1.00  0.00    -0.000 C 
BRANCH  14  15
ATOM     15  C   UNL     1      -5.800 -20.676  33.922  1.00  0.00    -0.000 C 
BRANCH  15  16
ATOM     16  C   UNL     1      -5.163 -19.898  35.082  1.00  0.00    -0.000 C 
BRANCH  16  17
ATOM     17  C   UNL     1      -4.787 -18.459  34.695  1.00  0.00    -0.003 C 
ATOM     18  C   UNL     1      -4.637 -18.274  33.185  1.00  0.00     0.004 C 
ENDBRANCH  16  17
ENDBRANCH  15  16
ENDBRANCH  14  15
ENDBRANCH  13  14
ENDBRANCH  12  13
ENDBRANCH  11  12
ENDBRANCH   1  11
TORSDOF 14
ENDMDL
MODEL 7
REMARK VINA RESULT:    -4.574      2.382      6.780
REMARK INTER + INTRA:          -9.785
REMARK INTER:                  -8.263
REMARK INTRA:                  -1.522
REMARK UNBOUND:                -1.467
REMARK SMILES CCCCCCCCCCCCCCCC(=O)[O-]
REMARK SMILES IDX 9 1 10 2 11 3 12 4 13 5 14 6 15 7 16 8 17 9 18 10 8 11 7 12
REMARK SMILES IDX 6 13 5 14 4 15 3 16 2 17 1 18
REMARK H PARENT
REMARK Flexibility Score: inf
ROOT
ATOM      1  C   UNL     1       1.443 -36.213  19.617  1.00  0.00     0.000 C 
ENDROOT
BRANCH   1   2
ATOM      2  C   UNL     1       1.908 -37.196  18.528  1.00  0.00     0.000 C 
BRANCH   2   3
ATOM      3  C   UNL     1       3.150 -36.693  17.773  1.00  0.00     0.000 C 
BRANCH   3   4
ATOM      4  C   UNL     1       4.368 -36.517  18.697  1.00  0.00     0.000 C 
BRANCH   4   5
ATOM      5  C   UNL     1       4.749 -37.817  19.426  1.00  0.00     0.000 C 
BRANCH   5   6
ATOM      6  C   UNL     1       5.445 -37.563  20.771  1.00  0.00     0.006 C 
BRANCH   6   7
ATOM      7  C   UNL     1       4.421 -37.439  21.903  1.00  0.00     0.053 C 
BRANCH   7   8
ATOM      8  C   UNL     1       4.512 -36.091  22.546  1.00  0.00     0.041 C 
ATOM      9  O   UNL     1       5.623 -35.505  22.632  1.00  0.00    -0.550 OA
ATOM     10  O   UNL     1       3.379 -35.504  23.094  1.00  0.00    -0.550 OA
ENDBRANCH   7   8
ENDBRANCH   6   7
ENDBRANCH   5   6
ENDBRANCH   4   5
ENDBRANCH   3   4
ENDBRANCH   2   3
ENDBRANCH   1   2
BRANCH   1  11
ATOM     11  C   UNL     1       0.911 -36.926  20.873  1.00  0.00     0.000 C 
BRANCH  11  12
ATOM     12  C   UNL     1      -0.020 -38.125  20.599  1.00  0.00    -0.000 C 
BRANCH  12  13
ATOM     13  C   UNL     1      -1.350 -38.115  21.379  1.00  0.00    -0.000 C 
BRANCH  13  14
ATOM     14  C   UNL     1      -2.596 -37.793  20.534  1.00  0.00    -0.000 C 
BRANCH  14  15
ATOM     15  C   UNL     1      -3.094 -36.353  20.729  1.00  0.00    -0.000 C 
BRANCH  15  16
ATOM     16  C   UNL     1      -2.826 -35.871  22.162  1.00  0.00    -0.000 C 
BRANCH  16  17
ATOM     17  C   UNL     1      -1.803 -34.726  22.220  1.00  0.00    -0.003 C 
ATOM     18  C   UNL     1      -2.214 -33.613  23.184  1.00  0.00     0.004 C 
ENDBRANCH  16  17
ENDBRANCH  15  16
ENDBRANCH  14  15
ENDBRANCH  13  14
ENDBRANCH  12  13
ENDBRANCH  11  12
ENDBRANCH   1  11
TORSDOF 14
ENDMDL
MODEL 8
REMARK VINA RESULT:    -4.533     21.311     22.905
REMARK INTER + INTRA:          -9.710
REMARK INTER:                  -8.118
REMARK INTRA:                  -1.591
REMARK UNBOUND:                -1.467
REMARK SMILES CCCCCCCCCCCCCCCC(=O)[O-]
REMARK SMILES IDX 9 1 10 2 11 3 12 4 13 5 14 6 15 7 16 8 17 9 18 10 8 11 7 12
REMARK SMILES IDX 6 13 5 14 4 15 3 16 2 17 1 18
REMARK H PARENT
REMARK Flexibility Score: inf
ROOT
ATOM      1  C   UNL     1     -11.060 -20.133  30.709  1.00  0.00     0.000 C 
ENDROOT
BRANCH   1   2
ATOM      2  C   UNL     1     -10.332 -18.787  30.544  1.00  0.00     0.000 C 
BRANCH   2   3
ATOM      3  C   UNL     1      -8.904 -18.953  30.001  1.00  0.00     0.000 C 
BRANCH   3   4
ATOM      4  C   UNL     1      -7.848 -18.306  30.916  1.00  0.00     0.000 C 
BRANCH   4   5
ATOM      5  C   UNL     1      -8.262 -18.319  32.396  1.00  0.00     0.000 C 
BRANCH   5   6
ATOM      6  C   UNL     1      -7.292 -19.118  33.279  1.00  0.00     0.006 C 
BRANCH   6   7
ATOM      7  C   UNL     1      -5.890 -19.152  32.661  1.00  0.00     0.053 C 
BRANCH   7   8
ATOM      8  C   UNL     1      -4.851 -19.295  33.728  1.00  0.00     0.041 C 
ATOM      9  O   UNL     1      -4.903 -20.259  34.536  1.00  0.00    -0.550 OA
ATOM     10  O   UNL     1      -3.856 -18.336  33.862  1.00  0.00    -0.550 OA
ENDBRANCH   7   8
ENDBRANCH   6   7
ENDBRANCH   5   6
ENDBRANCH   4   5
ENDBRANCH   3   4
ENDBRANCH   2   3
ENDBRANCH   1   2
BRANCH   1  11
ATOM     11  C   UNL     1     -12.032 -20.141  31.903  1.00  0.00     0.000 C 
BRANCH  11  12
ATOM     12  C   UNL     1     -11.873 -18.962  32.883  1.00  0.00    -0.000 C 
BRANCH  12  13
ATOM     13  C   UNL     1     -12.013 -19.325  34.375  1.00  0.00    -0.000 C 
BRANCH  13  14
ATOM     14  C   UNL     1     -12.774 -20.633  34.656  1.00  0.00    -0.000 C 
BRANCH  14  15
ATOM     15  C   UNL     1     -12.222 -21.396  35.870  1.00  0.00    -0.000 C 
BRANCH  15  16
ATOM     16  C   UNL     1     -11.644 -22.755  35.446  1.00  0.00    -0.000 C 
BRANCH  16  17
ATOM     17  C   UNL     1     -10.108 -22.783  35.489  1.00  0.00    -0.003 C 
ATOM     18  C   UNL     1      -9.470 -22.012  34.334  1.00  0.00     0.004 C 
ENDBRANCH  16  17
ENDBRANCH  15  16
ENDBRANCH  14  15
ENDBRANCH  13  14
ENDBRANCH  12  13
ENDBRANCH  11  12
ENDBRANCH   1  11
TORSDOF 14
ENDMDL
MODEL 9
REMARK VINA RESULT:    -4.500     20.795     22.056
REMARK INTER + INTRA:          -9.650
REMARK INTER:                  -8.096
REMARK INTRA:                  -1.554
REMARK UNBOUND:                -1.467
REMARK SMILES CCCCCCCCCCCCCCCC(=O)[O-]
REMARK SMILES IDX 9 1 10 2 11 3 12 4 13 5 14 6 15 7 16 8 17 9 18 10 8 11 7 12
REMARK SMILES IDX 6 13 5 14 4 15 3 16 2 17 1 18
REMARK H PARENT
REMARK Flexibility Score: inf
ROOT
ATOM      1  C   UNL     1      -9.297 -18.962  29.761  1.00  0.00     0.000 C 
ENDROOT
BRANCH   1   2
ATOM      2  C   UNL     1     -10.627 -18.798  30.518  1.00  0.00     0.000 C 
BRANCH   2   3
ATOM      3  C   UNL     1     -11.352 -20.137  30.733  1.00  0.00     0.000 C 
BRANCH   3   4
ATOM      4  C   UNL     1     -12.212 -20.142  32.009  1.00  0.00     0.000 C 
BRANCH   4   5
ATOM      5  C   UNL     1     -11.768 -19.077  33.024  1.00  0.00     0.000 C 
BRANCH   5   6
ATOM      6  C   UNL     1     -11.432 -19.670  34.401  1.00  0.00     0.006 C 
BRANCH   6   7
ATOM      7  C   UNL     1     -10.532 -20.902  34.262  1.00  0.00     0.053 C 
BRANCH   7   8
ATOM      8  C   UNL     1     -10.954 -21.968  35.223  1.00  0.00     0.041 C 
ATOM      9  O   UNL     1     -12.000 -21.825  35.909  1.00  0.00    -0.550 OA
ATOM     10  O   UNL     1     -10.164 -23.097  35.399  1.00  0.00    -0.550 OA
ENDBRANCH   7   8
ENDBRANCH   6   7
ENDBRANCH   5   6
ENDBRANCH   4   5
ENDBRANCH   3   4
ENDBRANCH   2   3
ENDBRANCH   1   2
BRANCH   1  11
ATOM     11  C   UNL     1      -8.072 -18.625  30.631  1.00  0.00     0.000 C 
BRANCH  11  12
ATOM     12  C   UNL     1      -8.382 -18.344  32.115  1.00  0.00    -0.000 C 
BRANCH  12  13
ATOM     13  C   UNL     1      -7.437 -19.026  33.124  1.00  0.00    -0.000 C 
BRANCH  13  14
ATOM     14  C   UNL     1      -5.936 -18.834  32.839  1.00  0.00    -0.000 C 
BRANCH  14  15
ATOM     15  C   UNL     1      -5.108 -20.096  33.124  1.00  0.00    -0.000 C 
BRANCH  15  16
ATOM     16  C   UNL     1      -4.339 -19.959  34.445  1.00  0.00    -0.000 C 
BRANCH  16  17
ATOM     17  C   UNL     1      -4.432 -21.221  35.318  1.00  0.00    -0.003 C 
ATOM     18  C   UNL     1      -5.845 -21.803  35.366  1.00  0.00     0.004 C 
ENDBRANCH  16  17
ENDBRANCH  15  16
ENDBRANCH  14  15
ENDBRANCH  13  14
ENDBRANCH  12  13
ENDBRANCH  11  12
ENDBRANCH   1  11
TORSDOF 14
ENDMDL
