MODEL 1
REMARK VINA RESULT:    -5.370      0.000      0.000
REMARK INTER + INTRA:          -6.622
REMARK INTER:                  -6.312
REMARK INTRA:                  -0.310
REMARK UNBOUND:                -0.310
REMARK SMILES O=c1cc(-c2ccc(O)c(O)c2)oc2cc(O)cc(O)c12
REMARK SMILES IDX 4 1 3 2 2 3 1 4 21 5 19 6 18 7 16 8 15 9 14 10 13 11 5 12
REMARK SMILES IDX 6 13 7 14 8 15 12 16 10 17 9 18 11 20 20 22 17 24
REMARK H PARENT 9 19 11 21 20 23 17 25
REMARK Flexibility Score: inf
ROOT
ATOM      1  C   UNL     1      52.895   7.459 -47.891  1.00  0.00     0.138 A 
ATOM      2  C   UNL     1      51.861   6.585 -48.255  1.00  0.00     0.100 A 
ATOM      3  C   UNL     1      51.464   6.503 -49.590  1.00  0.00     0.197 A 
ATOM      4  O   UNL     1      50.496   5.752 -49.875  1.00  0.00    -0.289 OA
ATOM      5  C   UNL     1      52.133   7.273 -50.572  1.00  0.00     0.107 A 
ATOM      6  C   UNL     1      51.837   7.246 -51.969  1.00  0.00     0.134 A 
ATOM      7  C   UNL     1      52.501   8.128 -52.831  1.00  0.00     0.093 A 
ATOM      8  C   UNL     1      53.487   8.993 -52.359  1.00  0.00     0.123 A 
ATOM      9  C   UNL     1      53.819   8.993 -51.004  1.00  0.00     0.094 A 
ATOM     10  C   UNL     1      53.151   8.150 -50.112  1.00  0.00     0.146 A 
ATOM     11  O   UNL     1      53.485   8.195 -48.827  1.00  0.00    -0.456 OA
ENDROOT
BRANCH   1  12
ATOM     12  C   UNL     1      53.359   7.583 -46.486  1.00  0.00     0.021 A 
ATOM     13  C   UNL     1      52.515   7.297 -45.400  1.00  0.00     0.016 A 
ATOM     14  C   UNL     1      52.978   7.433 -44.089  1.00  0.00     0.051 A 
ATOM     15  C   UNL     1      54.282   7.864 -43.832  1.00  0.00     0.157 A 
ATOM     16  C   UNL     1      54.666   8.030 -46.227  1.00  0.00     0.062 A 
ATOM     17  C   UNL     1      55.138   8.169 -44.916  1.00  0.00     0.158 A 
BRANCH  15  18
ATOM     18  O   UNL     1      54.682   7.977 -42.499  1.00  0.00    -0.504 OA
ATOM     19  H   UNL     1      55.608   7.750 -42.166  1.00  0.00     0.293 HD
ENDBRANCH  15  18
BRANCH  17  20
ATOM     20  O   UNL     1      56.452   8.608 -44.738  1.00  0.00    -0.504 OA
ATOM     21  H   UNL     1      57.135   8.130 -44.170  1.00  0.00     0.293 HD
ENDBRANCH  17  20
ENDBRANCH   1  12
BRANCH   6  22
ATOM     22  O   UNL     1      50.927   6.365 -52.560  1.00  0.00    -0.507 OA
ATOM     23  H   UNL     1      50.852   6.185 -53.549  1.00  0.00     0.293 HD
ENDBRANCH   6  22
BRANCH   8  24
ATOM     24  O   UNL     1      54.137   9.846 -53.250  1.00  0.00    -0.508 OA
ATOM     25  H   UNL     1      53.623  10.496 -53.832  1.00  0.00     0.293 HD
ENDBRANCH   8  24
TORSDOF 5
ENDMDL
MODEL 2
REMARK VINA RESULT:    -5.347     13.314     15.255
REMARK INTER + INTRA:          -6.595
REMARK INTER:                  -6.291
REMARK INTRA:                  -0.304
REMARK UNBOUND:                -0.310
REMARK SMILES O=c1cc(-c2ccc(O)c(O)c2)oc2cc(O)cc(O)c12
REMARK SMILES IDX 4 1 3 2 2 3 1 4 21 5 19 6 18 7 16 8 15 9 14 10 13 11 5 12
REMARK SMILES IDX 6 13 7 14 8 15 12 16 10 17 9 18 11 20 20 22 17 24
REMARK H PARENT 9 19 11 21 20 23 17 25
REMARK Flexibility Score: inf
ROOT
ATOM      1  C   UNL     1      59.827  -3.340 -48.823  1.00  0.00     0.138 A 
ATOM      2  C   UNL     1      59.663  -2.181 -48.052  1.00  0.00     0.100 A 
ATOM      3  C   UNL     1      60.035  -2.188 -46.707  1.00  0.00     0.197 A 
ATOM      4  O   UNL     1      59.822  -1.150 -46.029  1.00  0.00    -0.289 OA
ATOM      5  C   UNL     1      60.608  -3.352 -46.140  1.00  0.00     0.107 A 
ATOM      6  C   UNL     1      61.056  -3.465 -44.790  1.00  0.00     0.134 A 
ATOM      7  C   UNL     1      61.515  -4.701 -44.316  1.00  0.00     0.093 A 
ATOM      8  C   UNL     1      61.598  -5.809 -45.157  1.00  0.00     0.123 A 
ATOM      9  C   UNL     1      61.210  -5.698 -46.493  1.00  0.00     0.094 A 
ATOM     10  C   UNL     1      60.714  -4.489 -46.986  1.00  0.00     0.146 A 
ATOM     11  O   UNL     1      60.338  -4.430 -48.260  1.00  0.00    -0.456 OA
ENDROOT
BRANCH   1  12
ATOM     12  C   UNL     1      59.452  -3.388 -50.259  1.00  0.00     0.021 A 
ATOM     13  C   UNL     1      58.353  -2.670 -50.760  1.00  0.00     0.016 A 
ATOM     14  C   UNL     1      58.019  -2.742 -52.115  1.00  0.00     0.051 A 
ATOM     15  C   UNL     1      58.763  -3.535 -52.994  1.00  0.00     0.157 A 
ATOM     16  C   UNL     1      60.191  -4.195 -51.140  1.00  0.00     0.062 A 
ATOM     17  C   UNL     1      59.863  -4.273 -52.499  1.00  0.00     0.158 A 
BRANCH  15  18
ATOM     18  O   UNL     1      58.376  -3.560 -54.335  1.00  0.00    -0.504 OA
ATOM     19  H   UNL     1      58.582  -2.824 -54.996  1.00  0.00     0.293 HD
ENDBRANCH  15  18
BRANCH  17  20
ATOM     20  O   UNL     1      60.650  -5.090 -53.314  1.00  0.00    -0.504 OA
ATOM     21  H   UNL     1      60.285  -5.838 -53.885  1.00  0.00     0.293 HD
ENDBRANCH  17  20
ENDBRANCH   1  12
BRANCH   6  22
ATOM     22  O   UNL     1      61.093  -2.399 -43.885  1.00  0.00    -0.507 OA
ATOM     23  H   UNL     1      61.408  -1.467 -44.100  1.00  0.00     0.293 HD
ENDBRANCH   6  22
BRANCH   8  24
ATOM     24  O   UNL     1      62.075  -7.019 -44.655  1.00  0.00    -0.508 OA
ATOM     25  H   UNL     1      62.894  -7.469 -45.045  1.00  0.00     0.293 HD
ENDBRANCH   8  24
TORSDOF 5
ENDMDL
MODEL 3
REMARK VINA RESULT:    -5.203      1.983      6.969
REMARK INTER + INTRA:          -6.426
REMARK INTER:                  -6.164
REMARK INTRA:                  -0.261
REMARK UNBOUND:                -0.310
REMARK SMILES O=c1cc(-c2ccc(O)c(O)c2)oc2cc(O)cc(O)c12
REMARK SMILES IDX 4 1 3 2 2 3 1 4 21 5 19 6 18 7 16 8 15 9 14 10 13 11 5 12
REMARK SMILES IDX 6 13 7 14 8 15 12 16 10 17 9 18 11 20 20 22 17 24
REMARK H PARENT 9 19 11 21 20 23 17 25
REMARK Flexibility Score: inf
ROOT
ATOM      1  C   UNL     1      53.592   7.569 -47.615  1.00  0.00     0.138 A 
ATOM      2  C   UNL     1      52.525   6.830 -47.085  1.00  0.00     0.100 A 
ATOM      3  C   UNL     1      52.448   6.619 -45.707  1.00  0.00     0.197 A 
ATOM      4  O   UNL     1      51.510   5.904 -45.269  1.00  0.00    -0.289 OA
ATOM      5  C   UNL     1      53.426   7.184 -44.852  1.00  0.00     0.107 A 
ATOM      6  C   UNL     1      53.430   7.064 -43.430  1.00  0.00     0.134 A 
ATOM      7  C   UNL     1      54.506   7.583 -42.698  1.00  0.00     0.093 A 
ATOM      8  C   UNL     1      55.545   8.266 -43.328  1.00  0.00     0.123 A 
ATOM      9  C   UNL     1      55.526   8.433 -44.714  1.00  0.00     0.094 A 
ATOM     10  C   UNL     1      54.485   7.896 -45.476  1.00  0.00     0.146 A 
ATOM     11  O   UNL     1      54.514   8.062 -46.794  1.00  0.00    -0.456 OA
ENDROOT
BRANCH   1  12
ATOM     12  C   UNL     1      53.721   7.826 -49.072  1.00  0.00     0.021 A 
ATOM     13  C   UNL     1      53.425   9.082 -49.630  1.00  0.00     0.016 A 
ATOM     14  C   UNL     1      53.547   9.290 -51.005  1.00  0.00     0.051 A 
ATOM     15  C   UNL     1      53.954   8.256 -51.853  1.00  0.00     0.157 A 
ATOM     16  C   UNL     1      54.118   6.783 -49.925  1.00  0.00     0.062 A 
ATOM     17  C   UNL     1      54.242   6.984 -51.305  1.00  0.00     0.158 A 
BRANCH  15  18
ATOM     18  O   UNL     1      54.057   8.533 -53.217  1.00  0.00    -0.504 OA
ATOM     19  H   UNL     1      54.800   8.187 -53.809  1.00  0.00     0.293 HD
ENDBRANCH  15  18
BRANCH  17  20
ATOM     20  O   UNL     1      54.650   5.902 -52.088  1.00  0.00    -0.504 OA
ATOM     21  H   UNL     1      55.465   5.339 -51.892  1.00  0.00     0.293 HD
ENDBRANCH  17  20
ENDBRANCH   1  12
BRANCH   6  22
ATOM     22  O   UNL     1      52.403   6.471 -42.690  1.00  0.00    -0.507 OA
ATOM     23  H   UNL     1      51.628   5.959 -43.081  1.00  0.00     0.293 HD
ENDBRANCH   6  22
BRANCH   8  24
ATOM     24  O   UNL     1      56.591   8.782 -42.566  1.00  0.00    -0.508 OA
ATOM     25  H   UNL     1      57.340   9.320 -42.987  1.00  0.00     0.293 HD
ENDBRANCH   8  24
TORSDOF 5
ENDMDL
MODEL 4
REMARK VINA RESULT:    -5.192      2.307      7.521
REMARK INTER + INTRA:          -6.413
REMARK INTER:                  -6.150
REMARK INTRA:                  -0.263
REMARK UNBOUND:                -0.310
REMARK SMILES O=c1cc(-c2ccc(O)c(O)c2)oc2cc(O)cc(O)c12
REMARK SMILES IDX 4 1 3 2 2 3 1 4 21 5 19 6 18 7 16 8 15 9 14 10 13 11 5 12
REMARK SMILES IDX 6 13 7 14 8 15 12 16 10 17 9 18 11 20 20 22 17 24
REMARK H PARENT 9 19 11 21 20 23 17 25
REMARK Flexibility Score: inf
ROOT
ATOM      1  C   UNL     1      54.180   7.315 -46.025  1.00  0.00     0.138 A 
ATOM      2  C   UNL     1      53.187   6.557 -45.387  1.00  0.00     0.100 A 
ATOM      3  C   UNL     1      53.160   6.489 -43.994  1.00  0.00     0.197 A 
ATOM      4  O   UNL     1      52.292   5.756 -43.454  1.00  0.00    -0.289 OA
ATOM      5  C   UNL     1      54.111   7.213 -43.234  1.00  0.00     0.107 A 
ATOM      6  C   UNL     1      54.159   7.246 -41.808  1.00  0.00     0.134 A 
ATOM      7  C   UNL     1      55.208   7.919 -41.168  1.00  0.00     0.093 A 
ATOM      8  C   UNL     1      56.174   8.609 -41.899  1.00  0.00     0.123 A 
ATOM      9  C   UNL     1      56.109   8.625 -43.294  1.00  0.00     0.094 A 
ATOM     10  C   UNL     1      55.095   7.934 -43.962  1.00  0.00     0.146 A 
ATOM     11  O   UNL     1      55.080   7.960 -45.291  1.00  0.00    -0.456 OA
ENDROOT
BRANCH   1  12
ATOM     12  C   UNL     1      54.253   7.425 -47.504  1.00  0.00     0.021 A 
ATOM     13  C   UNL     1      55.046   6.556 -48.272  1.00  0.00     0.016 A 
ATOM     14  C   UNL     1      55.102   6.691 -49.661  1.00  0.00     0.051 A 
ATOM     15  C   UNL     1      54.382   7.697 -50.312  1.00  0.00     0.157 A 
ATOM     16  C   UNL     1      53.540   8.445 -48.157  1.00  0.00     0.062 A 
ATOM     17  C   UNL     1      53.592   8.588 -49.549  1.00  0.00     0.158 A 
BRANCH  15  18
ATOM     18  O   UNL     1      54.481   7.775 -51.703  1.00  0.00    -0.504 OA
ATOM     19  H   UNL     1      54.692   8.625 -52.207  1.00  0.00     0.293 HD
ENDBRANCH  15  18
BRANCH  17  20
ATOM     20  O   UNL     1      52.848   9.619 -50.127  1.00  0.00    -0.504 OA
ATOM     21  H   UNL     1      53.251  10.467 -50.498  1.00  0.00     0.293 HD
ENDBRANCH  17  20
ENDBRANCH   1  12
BRANCH   6  22
ATOM     22  O   UNL     1      53.199   6.659 -40.978  1.00  0.00    -0.507 OA
ATOM     23  H   UNL     1      52.464   6.042 -41.286  1.00  0.00     0.293 HD
ENDBRANCH   6  22
BRANCH   8  24
ATOM     24  O   UNL     1      57.194   9.280 -41.228  1.00  0.00    -0.508 OA
ATOM     25  H   UNL     1      57.918   8.780 -40.727  1.00  0.00     0.293 HD
ENDBRANCH   8  24
TORSDOF 5
ENDMDL
MODEL 5
REMARK VINA RESULT:    -5.184      1.798      1.959
REMARK INTER + INTRA:          -6.403
REMARK INTER:                  -6.140
REMARK INTRA:                  -0.263
REMARK UNBOUND:                -0.310
REMARK SMILES O=c1cc(-c2ccc(O)c(O)c2)oc2cc(O)cc(O)c12
REMARK SMILES IDX 4 1 3 2 2 3 1 4 21 5 19 6 18 7 16 8 15 9 14 10 13 11 5 12
REMARK SMILES IDX 6 13 7 14 8 15 12 16 10 17 9 18 11 20 20 22 17 24
REMARK H PARENT 9 19 11 21 20 23 17 25
REMARK Flexibility Score: inf
ROOT
ATOM      1  C   UNL     1      54.219   7.128 -48.359  1.00  0.00     0.138 A 
ATOM      2  C   UNL     1      54.675   5.930 -48.928  1.00  0.00     0.100 A 
ATOM      3  C   UNL     1      54.682   5.784 -50.315  1.00  0.00     0.197 A 
ATOM      4  O   UNL     1      55.043   4.677 -50.792  1.00  0.00    -0.289 OA
ATOM      5  C   UNL     1      54.266   6.858 -51.139  1.00  0.00     0.107 A 
ATOM      6  C   UNL     1      54.263   6.835 -52.567  1.00  0.00     0.134 A 
ATOM      7  C   UNL     1      53.734   7.924 -53.273  1.00  0.00     0.093 A 
ATOM      8  C   UNL     1      53.264   9.055 -52.608  1.00  0.00     0.123 A 
ATOM      9  C   UNL     1      53.307   9.108 -51.213  1.00  0.00     0.094 A 
ATOM     10  C   UNL     1      53.796   8.025 -50.479  1.00  0.00     0.146 A 
ATOM     11  O   UNL     1      53.804   8.109 -49.153  1.00  0.00    -0.456 OA
ENDROOT
BRANCH   1  12
ATOM     12  C   UNL     1      54.193   7.339 -46.889  1.00  0.00     0.021 A 
ATOM     13  C   UNL     1      53.054   7.046 -46.120  1.00  0.00     0.016 A 
ATOM     14  C   UNL     1      53.057   7.265 -44.741  1.00  0.00     0.051 A 
ATOM     15  C   UNL     1      54.185   7.787 -44.101  1.00  0.00     0.157 A 
ATOM     16  C   UNL     1      55.322   7.877 -46.248  1.00  0.00     0.062 A 
ATOM     17  C   UNL     1      55.333   8.099 -44.866  1.00  0.00     0.158 A 
BRANCH  15  18
ATOM     18  O   UNL     1      54.122   7.979 -42.720  1.00  0.00    -0.504 OA
ATOM     19  H   UNL     1      53.298   8.302 -42.232  1.00  0.00     0.293 HD
ENDBRANCH  15  18
BRANCH  17  20
ATOM     20  O   UNL     1      56.495   8.627 -44.299  1.00  0.00    -0.504 OA
ATOM     21  H   UNL     1      56.654   8.704 -43.305  1.00  0.00     0.293 HD
ENDBRANCH  17  20
ENDBRANCH   1  12
BRANCH   6  22
ATOM     22  O   UNL     1      54.782   5.789 -53.335  1.00  0.00    -0.507 OA
ATOM     23  H   UNL     1      54.965   5.832 -54.325  1.00  0.00     0.293 HD
ENDBRANCH   6  22
BRANCH   8  24
ATOM     24  O   UNL     1      52.759  10.125 -53.344  1.00  0.00    -0.508 OA
ATOM     25  H   UNL     1      51.767  10.331 -53.368  1.00  0.00     0.293 HD
ENDBRANCH   8  24
TORSDOF 5
ENDMDL
MODEL 6
REMARK VINA RESULT:    -5.118     12.168     14.938
REMARK INTER + INTRA:          -6.326
REMARK INTER:                  -6.026
REMARK INTRA:                  -0.299
REMARK UNBOUND:                -0.310
REMARK SMILES O=c1cc(-c2ccc(O)c(O)c2)oc2cc(O)cc(O)c12
REMARK SMILES IDX 4 1 3 2 2 3 1 4 21 5 19 6 18 7 16 8 15 9 14 10 13 11 5 12
REMARK SMILES IDX 6 13 7 14 8 15 12 16 10 17 9 18 11 20 20 22 17 24
REMARK H PARENT 9 19 11 21 20 23 17 25
REMARK Flexibility Score: inf
ROOT
ATOM      1  C   UNL     1      53.514  -4.439 -52.486  1.00  0.00     0.138 A 
ATOM      2  C   UNL     1      53.997  -4.047 -51.229  1.00  0.00     0.100 A 
ATOM      3  C   UNL     1      53.802  -4.877 -50.125  1.00  0.00     0.197 A 
ATOM      4  O   UNL     1      54.197  -4.471 -49.002  1.00  0.00    -0.289 OA
ATOM      5  C   UNL     1      53.152  -6.125 -50.288  1.00  0.00     0.107 A 
ATOM      6  C   UNL     1      52.927  -7.069 -49.240  1.00  0.00     0.134 A 
ATOM      7  C   UNL     1      52.183  -8.227 -49.503  1.00  0.00     0.093 A 
ATOM      8  C   UNL     1      51.708  -8.503 -50.784  1.00  0.00     0.123 A 
ATOM      9  C   UNL     1      51.964  -7.612 -51.827  1.00  0.00     0.094 A 
ATOM     10  C   UNL     1      52.673  -6.431 -51.590  1.00  0.00     0.146 A 
ATOM     11  O   UNL     1      52.880  -5.600 -52.606  1.00  0.00    -0.456 OA
ENDROOT
BRANCH   1  12
ATOM     12  C   UNL     1      53.697  -3.597 -53.695  1.00  0.00     0.021 A 
ATOM     13  C   UNL     1      54.874  -2.860 -53.912  1.00  0.00     0.016 A 
ATOM     14  C   UNL     1      55.013  -2.068 -55.054  1.00  0.00     0.051 A 
ATOM     15  C   UNL     1      53.984  -1.986 -55.997  1.00  0.00     0.157 A 
ATOM     16  C   UNL     1      52.658  -3.503 -54.636  1.00  0.00     0.062 A 
ATOM     17  C   UNL     1      52.789  -2.712 -55.784  1.00  0.00     0.158 A 
BRANCH  15  18
ATOM     18  O   UNL     1      54.189  -1.178 -57.117  1.00  0.00    -0.504 OA
ATOM     19  H   UNL     1      53.530  -0.484 -57.440  1.00  0.00     0.293 HD
ENDBRANCH  15  18
BRANCH  17  20
ATOM     20  O   UNL     1      51.717  -2.677 -56.678  1.00  0.00    -0.504 OA
ATOM     21  H   UNL     1      50.856  -3.189 -56.548  1.00  0.00     0.293 HD
ENDBRANCH  17  20
ENDBRANCH   1  12
BRANCH   6  22
ATOM     22  O   UNL     1      53.426  -6.931 -47.942  1.00  0.00    -0.507 OA
ATOM     23  H   UNL     1      54.269  -6.439 -47.693  1.00  0.00     0.293 HD
ENDBRANCH   6  22
BRANCH   8  24
ATOM     24  O   UNL     1      50.985  -9.673 -51.011  1.00  0.00    -0.508 OA
ATOM     25  H   UNL     1      51.372 -10.438 -51.551  1.00  0.00     0.293 HD
ENDBRANCH   8  24
TORSDOF 5
ENDMDL
MODEL 7
REMARK VINA RESULT:    -5.072      2.217      7.765
REMARK INTER + INTRA:          -6.272
REMARK INTER:                  -6.008
REMARK INTRA:                  -0.264
REMARK UNBOUND:                -0.310
REMARK SMILES O=c1cc(-c2ccc(O)c(O)c2)oc2cc(O)cc(O)c12
REMARK SMILES IDX 4 1 3 2 2 3 1 4 21 5 19 6 18 7 16 8 15 9 14 10 13 11 5 12
REMARK SMILES IDX 6 13 7 14 8 15 12 16 10 17 9 18 11 20 20 22 17 24
REMARK H PARENT 9 19 11 21 20 23 17 25
REMARK Flexibility Score: inf
ROOT
ATOM      1  C   UNL     1      54.335   7.570 -46.135  1.00  0.00     0.138 A 
ATOM      2  C   UNL     1      55.320   8.250 -45.406  1.00  0.00     0.100 A 
ATOM      3  C   UNL     1      55.275   8.242 -44.011  1.00  0.00     0.197 A 
ATOM      4  O   UNL     1      56.140   8.909 -43.387  1.00  0.00    -0.289 OA
ATOM      5  C   UNL     1      54.258   7.517 -43.343  1.00  0.00     0.107 A 
ATOM      6  C   UNL     1      54.132   7.409 -41.925  1.00  0.00     0.134 A 
ATOM      7  C   UNL     1      53.025   6.746 -41.379  1.00  0.00     0.093 A 
ATOM      8  C   UNL     1      52.074   6.137 -42.197  1.00  0.00     0.123 A 
ATOM      9  C   UNL     1      52.213   6.194 -43.585  1.00  0.00     0.094 A 
ATOM     10  C   UNL     1      53.287   6.878 -44.160  1.00  0.00     0.146 A 
ATOM     11  O   UNL     1      53.373   6.923 -45.486  1.00  0.00    -0.456 OA
ENDROOT
BRANCH   1  12
ATOM     12  C   UNL     1      54.336   7.543 -47.620  1.00  0.00     0.021 A 
ATOM     13  C   UNL     1      55.074   6.589 -48.342  1.00  0.00     0.016 A 
ATOM     14  C   UNL     1      55.063   6.595 -49.738  1.00  0.00     0.051 A 
ATOM     15  C   UNL     1      54.330   7.552 -50.444  1.00  0.00     0.157 A 
ATOM     16  C   UNL     1      53.610   8.514 -48.330  1.00  0.00     0.062 A 
ATOM     17  C   UNL     1      53.594   8.527 -49.730  1.00  0.00     0.158 A 
BRANCH  15  18
ATOM     18  O   UNL     1      54.361   7.501 -51.839  1.00  0.00    -0.504 OA
ATOM     19  H   UNL     1      54.299   8.314 -52.436  1.00  0.00     0.293 HD
ENDBRANCH  15  18
BRANCH  17  20
ATOM     20  O   UNL     1      52.841   9.517 -50.365  1.00  0.00    -0.504 OA
ATOM     21  H   UNL     1      52.207   9.340 -51.130  1.00  0.00     0.293 HD
ENDBRANCH  17  20
ENDBRANCH   1  12
BRANCH   6  22
ATOM     22  O   UNL     1      55.067   7.911 -41.015  1.00  0.00    -0.507 OA
ATOM     23  H   UNL     1      55.160   7.614 -40.056  1.00  0.00     0.293 HD
ENDBRANCH   6  22
BRANCH   8  24
ATOM     24  O   UNL     1      50.995   5.472 -41.618  1.00  0.00    -0.508 OA
ATOM     25  H   UNL     1      50.520   5.841 -40.803  1.00  0.00     0.293 HD
ENDBRANCH   8  24
TORSDOF 5
ENDMDL
MODEL 8
REMARK VINA RESULT:    -5.070      2.188      2.715
REMARK INTER + INTRA:          -6.270
REMARK INTER:                  -6.005
REMARK INTRA:                  -0.264
REMARK UNBOUND:                -0.310
REMARK SMILES O=c1cc(-c2ccc(O)c(O)c2)oc2cc(O)cc(O)c12
REMARK SMILES IDX 4 1 3 2 2 3 1 4 21 5 19 6 18 7 16 8 15 9 14 10 13 11 5 12
REMARK SMILES IDX 6 13 7 14 8 15 12 16 10 17 9 18 11 20 20 22 17 24
REMARK H PARENT 9 19 11 21 20 23 17 25
REMARK Flexibility Score: inf
ROOT
ATOM      1  C   UNL     1      54.018   7.524 -48.188  1.00  0.00     0.138 A 
ATOM      2  C   UNL     1      53.505   8.565 -48.975  1.00  0.00     0.100 A 
ATOM      3  C   UNL     1      53.501   8.441 -50.365  1.00  0.00     0.197 A 
ATOM      4  O   UNL     1      53.085   9.415 -51.044  1.00  0.00    -0.289 OA
ATOM      5  C   UNL     1      53.980   7.253 -50.968  1.00  0.00     0.107 A 
ATOM      6  C   UNL     1      53.994   7.002 -52.373  1.00  0.00     0.134 A 
ATOM      7  C   UNL     1      54.585   5.828 -52.858  1.00  0.00     0.093 A 
ATOM      8  C   UNL     1      55.110   4.873 -51.989  1.00  0.00     0.123 A 
ATOM      9  C   UNL     1      55.058   5.085 -50.610  1.00  0.00     0.094 A 
ATOM     10  C   UNL     1      54.506   6.262 -50.097  1.00  0.00     0.146 A 
ATOM     11  O   UNL     1      54.492   6.433 -48.779  1.00  0.00    -0.456 OA
ENDROOT
BRANCH   1  12
ATOM     12  C   UNL     1      54.044   7.601 -46.705  1.00  0.00     0.021 A 
ATOM     13  C   UNL     1      52.943   7.208 -45.925  1.00  0.00     0.016 A 
ATOM     14  C   UNL     1      52.993   7.301 -44.533  1.00  0.00     0.051 A 
ATOM     15  C   UNL     1      54.132   7.795 -43.889  1.00  0.00     0.157 A 
ATOM     16  C   UNL     1      55.183   8.110 -46.059  1.00  0.00     0.062 A 
ATOM     17  C   UNL     1      55.241   8.207 -44.663  1.00  0.00     0.158 A 
BRANCH  15  18
ATOM     18  O   UNL     1      54.117   7.859 -42.494  1.00  0.00    -0.504 OA
ATOM     19  H   UNL     1      53.613   7.211 -41.905  1.00  0.00     0.293 HD
ENDBRANCH  15  18
BRANCH  17  20
ATOM     20  O   UNL     1      56.411   8.714 -44.093  1.00  0.00    -0.504 OA
ATOM     21  H   UNL     1      56.538   9.680 -43.828  1.00  0.00     0.293 HD
ENDBRANCH  17  20
ENDBRANCH   1  12
BRANCH   6  22
ATOM     22  O   UNL     1      53.425   7.852 -53.327  1.00  0.00    -0.507 OA
ATOM     23  H   UNL     1      52.811   8.624 -53.123  1.00  0.00     0.293 HD
ENDBRANCH   6  22
BRANCH   8  24
ATOM     24  O   UNL     1      55.677   3.710 -52.507  1.00  0.00    -0.508 OA
ATOM     25  H   UNL     1      55.888   3.617 -53.494  1.00  0.00     0.293 HD
ENDBRANCH   8  24
TORSDOF 5
ENDMDL
MODEL 9
REMARK VINA RESULT:    -4.967      2.082      4.061
REMARK INTER + INTRA:          -6.148
REMARK INTER:                  -5.878
REMARK INTRA:                  -0.270
REMARK UNBOUND:                -0.310
REMARK SMILES O=c1cc(-c2ccc(O)c(O)c2)oc2cc(O)cc(O)c12
REMARK SMILES IDX 4 1 3 2 2 3 1 4 21 5 19 6 18 7 16 8 15 9 14 10 13 11 5 12
REMARK SMILES IDX 6 13 7 14 8 15 12 16 10 17 9 18 11 20 20 22 17 24
REMARK H PARENT 9 19 11 21 20 23 17 25
REMARK Flexibility Score: inf
ROOT
ATOM      1  C   UNL     1      53.459   7.908 -50.734  1.00  0.00     0.138 A 
ATOM      2  C   UNL     1      53.988   8.899 -51.573  1.00  0.00     0.100 A 
ATOM      3  C   UNL     1      53.292   9.273 -52.723  1.00  0.00     0.197 A 
ATOM      4  O   UNL     1      53.820  10.124 -53.484  1.00  0.00    -0.289 OA
ATOM      5  C   UNL     1      52.041   8.676 -53.015  1.00  0.00     0.107 A 
ATOM      6  C   UNL     1      51.226   9.003 -54.141  1.00  0.00     0.134 A 
ATOM      7  C   UNL     1      50.054   8.273 -54.379  1.00  0.00     0.093 A 
ATOM      8  C   UNL     1      49.638   7.272 -53.503  1.00  0.00     0.123 A 
ATOM      9  C   UNL     1      50.401   6.978 -52.371  1.00  0.00     0.094 A 
ATOM     10  C   UNL     1      51.593   7.664 -52.125  1.00  0.00     0.146 A 
ATOM     11  O   UNL     1      52.299   7.341 -51.047  1.00  0.00    -0.456 OA
ENDROOT
BRANCH   1  12
ATOM     12  C   UNL     1      54.155   7.475 -49.496  1.00  0.00     0.021 A 
ATOM     13  C   UNL     1      55.312   6.679 -49.538  1.00  0.00     0.016 A 
ATOM     14  C   UNL     1      55.939   6.279 -48.356  1.00  0.00     0.051 A 
ATOM     15  C   UNL     1      55.425   6.653 -47.111  1.00  0.00     0.157 A 
ATOM     16  C   UNL     1      53.631   7.839 -48.244  1.00  0.00     0.062 A 
ATOM     17  C   UNL     1      54.253   7.442 -47.054  1.00  0.00     0.158 A 
BRANCH  15  18
ATOM     18  O   UNL     1      56.102   6.221 -45.969  1.00  0.00    -0.504 OA
ATOM     19  H   UNL     1      56.997   6.583 -45.672  1.00  0.00     0.293 HD
ENDBRANCH  15  18
BRANCH  17  20
ATOM     20  O   UNL     1      53.678   7.852 -45.849  1.00  0.00    -0.504 OA
ATOM     21  H   UNL     1      52.762   7.566 -45.534  1.00  0.00     0.293 HD
ENDBRANCH  17  20
ENDBRANCH   1  12
BRANCH   6  22
ATOM     22  O   UNL     1      51.506  10.039 -55.037  1.00  0.00    -0.507 OA
ATOM     23  H   UNL     1      51.113  10.966 -54.993  1.00  0.00     0.293 HD
ENDBRANCH   6  22
BRANCH   8  24
ATOM     24  O   UNL     1      48.458   6.578 -53.763  1.00  0.00    -0.508 OA
ATOM     25  H   UNL     1      48.287   5.658 -53.374  1.00  0.00     0.293 HD
ENDBRANCH   8  24
TORSDOF 5
ENDMDL
