MODEL 1
REMARK VINA RESULT:    -3.525      0.000      0.000
REMARK INTER + INTRA:          -4.572
REMARK INTER:                  -4.246
REMARK INTRA:                  -0.326
REMARK UNBOUND:                -0.326
REMARK SMILES O=c1c(O)c(-c2ccc(O)cc2O)oc2cc(O)cc(O)c12
REMARK SMILES IDX 5 1 3 2 2 3 1 4 22 5 20 6 19 7 17 8 16 9 15 10 14 11 6 12
REMARK SMILES IDX 8 13 7 14 9 15 11 16 12 17 10 18 13 20 4 22 21 24 18 26
REMARK H PARENT 10 19 13 21 4 23 21 25 18 27
REMARK Flexibility Score: inf
ROOT
ATOM      1  C   UNL     1      16.315  -0.519  26.983  1.00  0.00     0.184 A 
ATOM      2  C   UNL     1      15.643  -1.027  28.108  1.00  0.00     0.208 A 
ATOM      3  C   UNL     1      16.303  -1.953  28.932  1.00  0.00     0.238 A 
ATOM      4  O   UNL     1      15.706  -2.424  29.938  1.00  0.00    -0.285 OA
ATOM      5  C   UNL     1      17.625  -2.336  28.627  1.00  0.00     0.111 A 
ATOM      6  C   UNL     1      18.362  -3.259  29.406  1.00  0.00     0.134 A 
ATOM      7  C   UNL     1      19.678  -3.583  29.043  1.00  0.00     0.093 A 
ATOM      8  C   UNL     1      20.270  -3.003  27.919  1.00  0.00     0.123 A 
ATOM      9  C   UNL     1      19.546  -2.090  27.144  1.00  0.00     0.094 A 
ATOM     10  C   UNL     1      18.234  -1.756  27.489  1.00  0.00     0.146 A 
ATOM     11  O   UNL     1      17.567  -0.889  26.733  1.00  0.00    -0.451 OA
ENDROOT
BRANCH   1  12
ATOM     12  C   UNL     1      15.675   0.448  26.068  1.00  0.00     0.063 A 
ATOM     13  C   UNL     1      14.664   0.905  23.903  1.00  0.00     0.047 A 
ATOM     14  C   UNL     1      15.279   0.018  24.792  1.00  0.00     0.020 A 
ATOM     15  C   UNL     1      14.427   2.231  24.286  1.00  0.00     0.119 A 
ATOM     16  C   UNL     1      14.798   2.662  25.563  1.00  0.00     0.093 A 
ATOM     17  C   UNL     1      15.408   1.775  26.463  1.00  0.00     0.130 A 
BRANCH  15  18
ATOM     18  O   UNL     1      13.820   3.125  23.407  1.00  0.00    -0.508 OA
ATOM     19  H   UNL     1      14.178   4.064  23.276  1.00  0.00     0.293 HD
ENDBRANCH  15  18
BRANCH  17  20
ATOM     20  O   UNL     1      15.729   2.205  27.750  1.00  0.00    -0.507 OA
ATOM     21  H   UNL     1      15.040   2.646  28.350  1.00  0.00     0.293 HD
ENDBRANCH  17  20
ENDBRANCH   1  12
BRANCH   2  22
ATOM     22  O   UNL     1      14.349  -0.593  28.408  1.00  0.00    -0.502 OA
ATOM     23  H   UNL     1      13.694  -0.306  27.691  1.00  0.00     0.293 HD
ENDBRANCH   2  22
BRANCH   6  24
ATOM     24  O   UNL     1      17.801  -3.855  30.536  1.00  0.00    -0.507 OA
ATOM     25  H   UNL     1      18.022  -3.537  31.473  1.00  0.00     0.293 HD
ENDBRANCH   6  24
BRANCH   8  26
ATOM     26  O   UNL     1      21.578  -3.340  27.580  1.00  0.00    -0.508 OA
ATOM     27  H   UNL     1      21.784  -4.142  26.995  1.00  0.00     0.293 HD
ENDBRANCH   8  26
TORSDOF 6
ENDMDL
MODEL 2
REMARK VINA RESULT:    -2.528     11.544     13.723
REMARK INTER + INTRA:          -3.371
REMARK INTER:                  -3.276
REMARK INTRA:                  -0.095
REMARK UNBOUND:                -0.326
REMARK SMILES O=c1c(O)c(-c2ccc(O)cc2O)oc2cc(O)cc(O)c12
REMARK SMILES IDX 5 1 3 2 2 3 1 4 22 5 20 6 19 7 17 8 16 9 15 10 14 11 6 12
REMARK SMILES IDX 8 13 7 14 9 15 11 16 12 17 10 18 13 20 4 22 21 24 18 26
REMARK H PARENT 10 19 13 21 4 23 21 25 18 27
REMARK Flexibility Score: inf
ROOT
ATOM      1  C   UNL     1      13.464 -13.006  29.681  1.00  0.00     0.184 A 
ATOM      2  C   UNL     1      13.713 -13.519  28.395  1.00  0.00     0.208 A 
ATOM      3  C   UNL     1      14.481 -14.686  28.268  1.00  0.00     0.238 A 
ATOM      4  O   UNL     1      14.720 -15.150  27.119  1.00  0.00    -0.285 OA
ATOM      5  C   UNL     1      14.968 -15.328  29.426  1.00  0.00     0.111 A 
ATOM      6  C   UNL     1      15.746 -16.510  29.385  1.00  0.00     0.134 A 
ATOM      7  C   UNL     1      16.185 -17.095  30.582  1.00  0.00     0.093 A 
ATOM      8  C   UNL     1      15.863 -16.524  31.816  1.00  0.00     0.123 A 
ATOM      9  C   UNL     1      15.095 -15.355  31.861  1.00  0.00     0.094 A 
ATOM     10  C   UNL     1      14.649 -14.757  30.680  1.00  0.00     0.146 A 
ATOM     11  O   UNL     1      13.924 -13.645  30.752  1.00  0.00    -0.451 OA
ENDROOT
BRANCH   1  12
ATOM     12  C   UNL     1      12.673 -11.775  29.885  1.00  0.00     0.063 A 
ATOM     13  C   UNL     1      12.557  -9.497  30.728  1.00  0.00     0.047 A 
ATOM     14  C   UNL     1      13.275 -10.679  30.524  1.00  0.00     0.020 A 
ATOM     15  C   UNL     1      11.234  -9.392  30.284  1.00  0.00     0.119 A 
ATOM     16  C   UNL     1      10.635 -10.471  29.627  1.00  0.00     0.093 A 
ATOM     17  C   UNL     1      11.350 -11.658  29.411  1.00  0.00     0.130 A 
BRANCH  15  18
ATOM     18  O   UNL     1      10.508  -8.220  30.486  1.00  0.00    -0.508 OA
ATOM     19  H   UNL     1       9.746  -7.956  29.870  1.00  0.00     0.293 HD
ENDBRANCH  15  18
BRANCH  17  20
ATOM     20  O   UNL     1      10.757 -12.709  28.712  1.00  0.00    -0.507 OA
ATOM     21  H   UNL     1      10.644 -13.627  29.126  1.00  0.00     0.293 HD
ENDBRANCH  17  20
ENDBRANCH   1  12
BRANCH   2  22
ATOM     22  O   UNL     1      13.178 -12.884  27.271  1.00  0.00    -0.502 OA
ATOM     23  H   UNL     1      12.907 -13.394  26.438  1.00  0.00     0.293 HD
ENDBRANCH   2  22
BRANCH   6  24
ATOM     24  O   UNL     1      16.084 -17.107  28.170  1.00  0.00    -0.507 OA
ATOM     25  H   UNL     1      15.560 -16.926  27.322  1.00  0.00     0.293 HD
ENDBRANCH   6  24
BRANCH   8  26
ATOM     26  O   UNL     1      16.311 -17.125  32.989  1.00  0.00    -0.508 OA
ATOM     27  H   UNL     1      17.272 -17.426  33.096  1.00  0.00     0.293 HD
ENDBRANCH   8  26
TORSDOF 6
ENDMDL
MODEL 3
REMARK VINA RESULT:    -2.391      1.158      2.815
REMARK INTER + INTRA:          -3.206
REMARK INTER:                  -2.896
REMARK INTRA:                  -0.310
REMARK UNBOUND:                -0.326
REMARK SMILES O=c1c(O)c(-c2ccc(O)cc2O)oc2cc(O)cc(O)c12
REMARK SMILES IDX 5 1 3 2 2 3 1 4 22 5 20 6 19 7 17 8 16 9 15 10 14 11 6 12
REMARK SMILES IDX 8 13 7 14 9 15 11 16 12 17 10 18 13 20 4 22 21 24 18 26
REMARK H PARENT 10 19 13 21 4 23 21 25 18 27
REMARK Flexibility Score: inf
ROOT
ATOM      1  C   UNL     1      16.792  -0.583  26.602  1.00  0.00     0.184 A 
ATOM      2  C   UNL     1      18.002  -1.064  26.071  1.00  0.00     0.208 A 
ATOM      3  C   UNL     1      18.750  -1.988  26.818  1.00  0.00     0.238 A 
ATOM      4  O   UNL     1      19.843  -2.419  26.357  1.00  0.00    -0.285 OA
ATOM      5  C   UNL     1      18.265  -2.428  28.067  1.00  0.00     0.111 A 
ATOM      6  C   UNL     1      18.954  -3.360  28.880  1.00  0.00     0.134 A 
ATOM      7  C   UNL     1      18.402  -3.755  30.106  1.00  0.00     0.093 A 
ATOM      8  C   UNL     1      17.176  -3.240  30.536  1.00  0.00     0.123 A 
ATOM      9  C   UNL     1      16.491  -2.318  29.737  1.00  0.00     0.094 A 
ATOM     10  C   UNL     1      17.026  -1.911  28.513  1.00  0.00     0.146 A 
ATOM     11  O   UNL     1      16.356  -1.031  27.775  1.00  0.00    -0.451 OA
ENDROOT
BRANCH   1  12
ATOM     12  C   UNL     1      15.963   0.400  25.874  1.00  0.00     0.063 A 
ATOM     13  C   UNL     1      14.683   0.971  23.887  1.00  0.00     0.047 A 
ATOM     14  C   UNL     1      15.476   0.068  24.600  1.00  0.00     0.020 A 
ATOM     15  C   UNL     1      14.358   2.213  24.445  1.00  0.00     0.119 A 
ATOM     16  C   UNL     1      14.820   2.543  25.722  1.00  0.00     0.093 A 
ATOM     17  C   UNL     1      15.610   1.639  26.448  1.00  0.00     0.130 A 
BRANCH  15  18
ATOM     18  O   UNL     1      13.573   3.124  23.741  1.00  0.00    -0.508 OA
ATOM     19  H   UNL     1      13.175   2.893  22.837  1.00  0.00     0.293 HD
ENDBRANCH  15  18
BRANCH  17  20
ATOM     20  O   UNL     1      16.023   1.960  27.740  1.00  0.00    -0.507 OA
ATOM     21  H   UNL     1      16.550   1.306  28.309  1.00  0.00     0.293 HD
ENDBRANCH  17  20
ENDBRANCH   1  12
BRANCH   2  22
ATOM     22  O   UNL     1      18.433  -0.643  24.810  1.00  0.00    -0.502 OA
ATOM     23  H   UNL     1      18.743   0.305  24.633  1.00  0.00     0.293 HD
ENDBRANCH   2  22
BRANCH   6  24
ATOM     24  O   UNL     1      20.180  -3.895  28.479  1.00  0.00    -0.507 OA
ATOM     25  H   UNL     1      20.999  -3.313  28.348  1.00  0.00     0.293 HD
ENDBRANCH   6  24
BRANCH   8  26
ATOM     26  O   UNL     1      16.649  -3.650  31.758  1.00  0.00    -0.508 OA
ATOM     27  H   UNL     1      16.924  -4.526  32.186  1.00  0.00     0.293 HD
ENDBRANCH   8  26
TORSDOF 6
ENDMDL
MODEL 4
REMARK VINA RESULT:    -2.039     10.923     13.757
REMARK INTER + INTRA:          -2.782
REMARK INTER:                  -2.500
REMARK INTRA:                  -0.282
REMARK UNBOUND:                -0.326
REMARK SMILES O=c1c(O)c(-c2ccc(O)cc2O)oc2cc(O)cc(O)c12
REMARK SMILES IDX 5 1 3 2 2 3 1 4 22 5 20 6 19 7 17 8 16 9 15 10 14 11 6 12
REMARK SMILES IDX 8 13 7 14 9 15 11 16 12 17 10 18 13 20 4 22 21 24 18 26
REMARK H PARENT 10 19 13 21 4 23 21 25 18 27
REMARK Flexibility Score: inf
ROOT
ATOM      1  C   UNL     1      13.513 -13.048  28.485  1.00  0.00     0.184 A 
ATOM      2  C   UNL     1      12.241 -12.794  27.940  1.00  0.00     0.208 A 
ATOM      3  C   UNL     1      11.461 -11.767  28.492  1.00  0.00     0.238 A 
ATOM      4  O   UNL     1      10.314 -11.536  28.019  1.00  0.00    -0.285 OA
ATOM      5  C   UNL     1      11.973 -11.002  29.560  1.00  0.00     0.111 A 
ATOM      6  C   UNL     1      11.253  -9.946  30.170  1.00  0.00     0.134 A 
ATOM      7  C   UNL     1      11.834  -9.225  31.223  1.00  0.00     0.093 A 
ATOM      8  C   UNL     1      13.118  -9.536  31.677  1.00  0.00     0.123 A 
ATOM      9  C   UNL     1      13.834 -10.579  31.079  1.00  0.00     0.094 A 
ATOM     10  C   UNL     1      13.271 -11.310  30.029  1.00  0.00     0.146 A 
ATOM     11  O   UNL     1      13.971 -12.298  29.481  1.00  0.00    -0.451 OA
ENDROOT
BRANCH   1  12
ATOM     12  C   UNL     1      14.381 -14.123  27.959  1.00  0.00     0.063 A 
ATOM     13  C   UNL     1      15.558 -15.105  26.072  1.00  0.00     0.047 A 
ATOM     14  C   UNL     1      14.734 -14.108  26.601  1.00  0.00     0.020 A 
ATOM     15  C   UNL     1      16.049 -16.123  26.900  1.00  0.00     0.119 A 
ATOM     16  C   UNL     1      15.721 -16.132  28.258  1.00  0.00     0.093 A 
ATOM     17  C   UNL     1      14.900 -15.130  28.798  1.00  0.00     0.130 A 
BRANCH  15  18
ATOM     18  O   UNL     1      16.868 -17.125  26.383  1.00  0.00    -0.508 OA
ATOM     19  H   UNL     1      16.553 -18.086  26.319  1.00  0.00     0.293 HD
ENDBRANCH  15  18
BRANCH  17  20
ATOM     20  O   UNL     1      14.620 -15.125  30.164  1.00  0.00    -0.507 OA
ATOM     21  H   UNL     1      15.140 -14.543  30.811  1.00  0.00     0.293 HD
ENDBRANCH  17  20
ENDBRANCH   1  12
BRANCH   2  22
ATOM     22  O   UNL     1      11.782 -13.541  26.851  1.00  0.00    -0.502 OA
ATOM     23  H   UNL     1      11.853 -14.551  26.819  1.00  0.00     0.293 HD
ENDBRANCH   2  22
BRANCH   6  24
ATOM     24  O   UNL     1       9.969  -9.609  29.740  1.00  0.00    -0.507 OA
ATOM     25  H   UNL     1       9.780  -8.739  29.255  1.00  0.00     0.293 HD
ENDBRANCH   6  24
BRANCH   8  26
ATOM     26  O   UNL     1      13.673  -8.804  32.724  1.00  0.00    -0.508 OA
ATOM     27  H   UNL     1      14.626  -8.958  33.031  1.00  0.00     0.293 HD
ENDBRANCH   8  26
TORSDOF 6
ENDMDL
MODEL 5
REMARK VINA RESULT:    -1.923     11.147     13.876
REMARK INTER + INTRA:          -2.642
REMARK INTER:                  -2.365
REMARK INTRA:                  -0.277
REMARK UNBOUND:                -0.326
REMARK SMILES O=c1c(O)c(-c2ccc(O)cc2O)oc2cc(O)cc(O)c12
REMARK SMILES IDX 5 1 3 2 2 3 1 4 22 5 20 6 19 7 17 8 16 9 15 10 14 11 6 12
REMARK SMILES IDX 8 13 7 14 9 15 11 16 12 17 10 18 13 20 4 22 21 24 18 26
REMARK H PARENT 10 19 13 21 4 23 21 25 18 27
REMARK Flexibility Score: inf
ROOT
ATOM      1  C   UNL     1      13.941 -12.924  28.865  1.00  0.00     0.184 A 
ATOM      2  C   UNL     1      14.600 -12.178  29.859  1.00  0.00     0.208 A 
ATOM      3  C   UNL     1      13.912 -11.129  30.488  1.00  0.00     0.238 A 
ATOM      4  O   UNL     1      14.496 -10.446  31.373  1.00  0.00    -0.285 OA
ATOM      5  C   UNL     1      12.575 -10.860  30.128  1.00  0.00     0.111 A 
ATOM      6  C   UNL     1      11.809  -9.825  30.716  1.00  0.00     0.134 A 
ATOM      7  C   UNL     1      10.481  -9.626  30.310  1.00  0.00     0.093 A 
ATOM      8  C   UNL     1       9.904 -10.439  29.332  1.00  0.00     0.123 A 
ATOM      9  C   UNL     1      10.657 -11.464  28.747  1.00  0.00     0.094 A 
ATOM     10  C   UNL     1      11.982 -11.677  29.136  1.00  0.00     0.146 A 
ATOM     11  O   UNL     1      12.676 -12.654  28.561  1.00  0.00    -0.451 OA
ENDROOT
BRANCH   1  12
ATOM     12  C   UNL     1      14.612 -14.033  28.155  1.00  0.00     0.063 A 
ATOM     13  C   UNL     1      15.543 -14.913  26.089  1.00  0.00     0.047 A 
ATOM     14  C   UNL     1      14.904 -13.887  26.790  1.00  0.00     0.020 A 
ATOM     15  C   UNL     1      15.909 -16.093  26.748  1.00  0.00     0.119 A 
ATOM     16  C   UNL     1      15.642 -16.237  28.112  1.00  0.00     0.093 A 
ATOM     17  C   UNL     1      15.007 -15.208  28.825  1.00  0.00     0.130 A 
BRANCH  15  18
ATOM     18  O   UNL     1      16.542 -17.125  26.058  1.00  0.00    -0.508 OA
ATOM     19  H   UNL     1      16.341 -18.098  26.259  1.00  0.00     0.293 HD
ENDBRANCH  15  18
BRANCH  17  20
ATOM     20  O   UNL     1      14.791 -15.345  30.196  1.00  0.00    -0.507 OA
ATOM     21  H   UNL     1      15.524 -15.161  30.871  1.00  0.00     0.293 HD
ENDBRANCH  17  20
ENDBRANCH   1  12
BRANCH   2  22
ATOM     22  O   UNL     1      15.911 -12.499  30.224  1.00  0.00    -0.502 OA
ATOM     23  H   UNL     1      16.713 -12.002  29.857  1.00  0.00     0.293 HD
ENDBRANCH   2  22
BRANCH   6  24
ATOM     24  O   UNL     1      12.354  -8.996  31.697  1.00  0.00    -0.507 OA
ATOM     25  H   UNL     1      11.870  -8.809  32.568  1.00  0.00     0.293 HD
ENDBRANCH   6  24
BRANCH   8  26
ATOM     26  O   UNL     1       8.584 -10.221  28.948  1.00  0.00    -0.508 OA
ATOM     27  H   UNL     1       8.134  -9.323  29.083  1.00  0.00     0.293 HD
ENDBRANCH   8  26
TORSDOF 6
ENDMDL
MODEL 6
REMARK VINA RESULT:    -1.123      2.455      6.311
REMARK INTER + INTRA:          -1.678
REMARK INTER:                  -1.366
REMARK INTRA:                  -0.312
REMARK UNBOUND:                -0.326
REMARK SMILES O=c1c(O)c(-c2ccc(O)cc2O)oc2cc(O)cc(O)c12
REMARK SMILES IDX 5 1 3 2 2 3 1 4 22 5 20 6 19 7 17 8 16 9 15 10 14 11 6 12
REMARK SMILES IDX 8 13 7 14 9 15 11 16 12 17 10 18 13 20 4 22 21 24 18 26
REMARK H PARENT 10 19 13 21 4 23 21 25 18 27
REMARK Flexibility Score: inf
ROOT
ATOM      1  C   UNL     1      15.785  -1.715  26.948  1.00  0.00     0.184 A 
ATOM      2  C   UNL     1      15.845  -1.130  28.225  1.00  0.00     0.208 A 
ATOM      3  C   UNL     1      15.601   0.247  28.352  1.00  0.00     0.238 A 
ATOM      4  O   UNL     1      15.662   0.785  29.492  1.00  0.00    -0.285 OA
ATOM      5  C   UNL     1      15.283   1.005  27.207  1.00  0.00     0.111 A 
ATOM      6  C   UNL     1      15.020   2.396  27.248  1.00  0.00     0.134 A 
ATOM      7  C   UNL     1      14.702   3.079  26.066  1.00  0.00     0.093 A 
ATOM      8  C   UNL     1      14.640   2.402  24.845  1.00  0.00     0.123 A 
ATOM      9  C   UNL     1      14.900   1.028  24.798  1.00  0.00     0.094 A 
ATOM     10  C   UNL     1      15.220   0.330  25.965  1.00  0.00     0.146 A 
ATOM     11  O   UNL     1      15.467  -0.974  25.892  1.00  0.00    -0.451 OA
ENDROOT
BRANCH   1  12
ATOM     12  C   UNL     1      16.043  -3.155  26.742  1.00  0.00     0.063 A 
ATOM     13  C   UNL     1      15.190  -5.354  26.152  1.00  0.00     0.047 A 
ATOM     14  C   UNL     1      14.980  -3.988  26.361  1.00  0.00     0.020 A 
ATOM     15  C   UNL     1      16.469  -5.901  26.310  1.00  0.00     0.119 A 
ATOM     16  C   UNL     1      17.538  -5.075  26.668  1.00  0.00     0.093 A 
ATOM     17  C   UNL     1      17.337  -3.701  26.873  1.00  0.00     0.130 A 
BRANCH  15  18
ATOM     18  O   UNL     1      16.689  -7.262  26.109  1.00  0.00    -0.508 OA
ATOM     19  H   UNL     1      17.405  -7.595  25.472  1.00  0.00     0.293 HD
ENDBRANCH  15  18
BRANCH  17  20
ATOM     20  O   UNL     1      18.421  -2.880  27.182  1.00  0.00    -0.507 OA
ATOM     21  H   UNL     1      19.374  -3.225  27.157  1.00  0.00     0.293 HD
ENDBRANCH  17  20
ENDBRANCH   1  12
BRANCH   2  22
ATOM     22  O   UNL     1      16.118  -1.918  29.347  1.00  0.00    -0.502 OA
ATOM     23  H   UNL     1      16.926  -2.527  29.397  1.00  0.00     0.293 HD
ENDBRANCH   2  22
BRANCH   6  24
ATOM     24  O   UNL     1      15.071   3.101  28.451  1.00  0.00    -0.507 OA
ATOM     25  H   UNL     1      14.593   2.774  29.283  1.00  0.00     0.293 HD
ENDBRANCH   6  24
BRANCH   8  26
ATOM     26  O   UNL     1      14.321   3.104  23.685  1.00  0.00    -0.508 OA
ATOM     27  H   UNL     1      13.437   2.966  23.209  1.00  0.00     0.293 HD
ENDBRANCH   8  26
TORSDOF 6
ENDMDL
