MODEL 1
REMARK VINA RESULT:    -4.273      0.000      0.000
REMARK INTER + INTRA:         -16.090
REMARK INTER:                 -10.767
REMARK INTRA:                  -5.323
REMARK UNBOUND:                -5.323
REMARK SMILES CCCCCCCCCCCCCCCCCCCCCCCCCCCC(=O)[O-]
REMARK SMILES IDX 15 1 16 2 17 3 18 4 19 5 20 6 21 7 22 8 23 9 24 10 25 11
REMARK SMILES IDX 26 12 27 13 28 14 29 15 30 16 14 17 13 18 12 19 11 20 10 21
REMARK SMILES IDX 9 22 8 23 7 24 6 25 5 26 4 27 3 28 2 29 1 30
REMARK H PARENT
REMARK Flexibility Score: inf
ROOT
ATOM      1  C   UNL     1      53.461  38.663  50.749  1.00  0.00     0.000 C 
ENDROOT
BRANCH   1   2
ATOM      2  C   UNL     1      53.447  39.904  51.653  1.00  0.00     0.000 C 
BRANCH   2   3
ATOM      3  C   UNL     1      52.109  40.657  51.601  1.00  0.00     0.000 C 
BRANCH   3   4
ATOM      4  C   UNL     1      52.204  42.072  52.198  1.00  0.00     0.000 C 
BRANCH   4   5
ATOM      5  C   UNL     1      53.319  42.911  51.556  1.00  0.00     0.000 C 
BRANCH   5   6
ATOM      6  C   UNL     1      54.391  43.340  52.574  1.00  0.00     0.000 C 
BRANCH   6   7
ATOM      7  C   UNL     1      55.799  43.364  51.958  1.00  0.00     0.000 C 
BRANCH   7   8
ATOM      8  C   UNL     1      56.204  42.016  51.320  1.00  0.00     0.000 C 
BRANCH   8   9
ATOM      9  C   UNL     1      57.242  41.268  52.172  1.00  0.00     0.000 C 
BRANCH   9  10
ATOM     10  C   UNL     1      56.585  40.319  53.197  1.00  0.00     0.000 C 
BRANCH  10  11
ATOM     11  C   UNL     1      56.985  38.844  53.021  1.00  0.00     0.000 C 
BRANCH  11  12
ATOM     12  C   UNL     1      57.622  38.556  51.651  1.00  0.00     0.006 C 
BRANCH  12  13
ATOM     13  C   UNL     1      58.197  37.136  51.564  1.00  0.00     0.053 C 
BRANCH  13  14
ATOM     14  C   UNL     1      59.310  37.046  50.565  1.00  0.00     0.041 C 
ATOM     15  O   UNL     1      60.061  38.037  50.362  1.00  0.00    -0.550 OA
ATOM     16  O   UNL     1      59.497  35.880  49.833  1.00  0.00    -0.550 OA
ENDBRANCH  13  14
ENDBRANCH  12  13
ENDBRANCH  11  12
ENDBRANCH  10  11
ENDBRANCH   9  10
ENDBRANCH   8   9
ENDBRANCH   7   8
ENDBRANCH   6   7
ENDBRANCH   5   6
ENDBRANCH   4   5
ENDBRANCH   3   4
ENDBRANCH   2   3
ENDBRANCH   1   2
BRANCH   1  17
ATOM     17  C   UNL     1      54.767  38.583  49.944  1.00  0.00     0.000 C 
BRANCH  17  18
ATOM     18  C   UNL     1      54.888  39.696  48.890  1.00  0.00     0.000 C 
BRANCH  18  19
ATOM     19  C   UNL     1      54.517  39.215  47.476  1.00  0.00     0.000 C 
BRANCH  19  20
ATOM     20  C   UNL     1      53.365  40.024  46.850  1.00  0.00     0.000 C 
BRANCH  20  21
ATOM     21  C   UNL     1      52.238  40.424  47.820  1.00  0.00     0.000 C 
BRANCH  21  22
ATOM     22  C   UNL     1      52.240  41.926  48.151  1.00  0.00    -0.000 C 
BRANCH  22  23
ATOM     23  C   UNL     1      51.960  42.816  46.923  1.00  0.00    -0.000 C 
BRANCH  23  24
ATOM     24  C   UNL     1      52.336  44.301  47.081  1.00  0.00    -0.000 C 
BRANCH  24  25
ATOM     25  C   UNL     1      53.138  44.654  48.351  1.00  0.00    -0.000 C 
BRANCH  25  26
ATOM     26  C   UNL     1      54.640  44.924  48.101  1.00  0.00    -0.000 C 
BRANCH  26  27
ATOM     27  C   UNL     1      55.535  43.672  48.160  1.00  0.00    -0.000 C 
BRANCH  27  28
ATOM     28  C   UNL     1      55.670  42.968  46.798  1.00  0.00    -0.000 C 
BRANCH  28  29
ATOM     29  C   UNL     1      57.000  42.212  46.662  1.00  0.00    -0.003 C 
ATOM     30  C   UNL     1      57.732  42.062  47.996  1.00  0.00     0.004 C 
ENDBRANCH  28  29
ENDBRANCH  27  28
ENDBRANCH  26  27
ENDBRANCH  25  26
ENDBRANCH  24  25
ENDBRANCH  23  24
ENDBRANCH  22  23
ENDBRANCH  21  22
ENDBRANCH  20  21
ENDBRANCH  19  20
ENDBRANCH  18  19
ENDBRANCH  17  18
ENDBRANCH   1  17
TORSDOF 26
ENDMDL
MODEL 2
REMARK VINA RESULT:    -4.184      1.570      3.011
REMARK INTER + INTRA:         -15.866
REMARK INTER:                 -11.123
REMARK INTRA:                  -4.743
REMARK UNBOUND:                -5.323
REMARK SMILES CCCCCCCCCCCCCCCCCCCCCCCCCCCC(=O)[O-]
REMARK SMILES IDX 15 1 16 2 17 3 18 4 19 5 20 6 21 7 22 8 23 9 24 10 25 11
REMARK SMILES IDX 26 12 27 13 28 14 29 15 30 16 14 17 13 18 12 19 11 20 10 21
REMARK SMILES IDX 9 22 8 23 7 24 6 25 5 26 4 27 3 28 2 29 1 30
REMARK H PARENT
REMARK Flexibility Score: inf
ROOT
ATOM      1  C   UNL     1      51.780  39.938  50.381  1.00  0.00     0.000 C 
ENDROOT
BRANCH   1   2
ATOM      2  C   UNL     1      52.007  40.399  51.828  1.00  0.00     0.000 C 
BRANCH   2   3
ATOM      3  C   UNL     1      52.190  41.920  51.942  1.00  0.00     0.000 C 
BRANCH   3   4
ATOM      4  C   UNL     1      53.243  42.312  52.993  1.00  0.00     0.000 C 
BRANCH   4   5
ATOM      5  C   UNL     1      54.254  41.188  53.263  1.00  0.00     0.000 C 
BRANCH   5   6
ATOM      6  C   UNL     1      54.433  40.907  54.766  1.00  0.00     0.000 C 
BRANCH   6   7
ATOM      7  C   UNL     1      55.636  39.993  55.047  1.00  0.00     0.000 C 
BRANCH   7   8
ATOM      8  C   UNL     1      56.646  39.945  53.878  1.00  0.00     0.000 C 
BRANCH   8   9
ATOM      9  C   UNL     1      57.128  38.512  53.597  1.00  0.00     0.000 C 
BRANCH   9  10
ATOM     10  C   UNL     1      57.651  37.810  54.868  1.00  0.00     0.000 C 
BRANCH  10  11
ATOM     11  C   UNL     1      58.545  36.592  54.579  1.00  0.00     0.000 C 
BRANCH  11  12
ATOM     12  C   UNL     1      59.480  36.808  53.378  1.00  0.00     0.006 C 
BRANCH  12  13
ATOM     13  C   UNL     1      59.397  35.660  52.362  1.00  0.00     0.053 C 
BRANCH  13  14
ATOM     14  C   UNL     1      59.149  36.163  50.973  1.00  0.00     0.041 C 
ATOM     15  O   UNL     1      58.359  37.125  50.779  1.00  0.00    -0.550 OA
ATOM     16  O   UNL     1      59.762  35.548  49.889  1.00  0.00    -0.550 OA
ENDBRANCH  13  14
ENDBRANCH  12  13
ENDBRANCH  11  12
ENDBRANCH  10  11
ENDBRANCH   9  10
ENDBRANCH   8   9
ENDBRANCH   7   8
ENDBRANCH   6   7
ENDBRANCH   5   6
ENDBRANCH   4   5
ENDBRANCH   3   4
ENDBRANCH   2   3
ENDBRANCH   1   2
BRANCH   1  17
ATOM     17  C   UNL     1      52.254  41.006  49.384  1.00  0.00     0.000 C 
BRANCH  17  18
ATOM     18  C   UNL     1      51.916  40.653  47.925  1.00  0.00     0.000 C 
BRANCH  18  19
ATOM     19  C   UNL     1      53.142  40.732  46.998  1.00  0.00     0.000 C 
BRANCH  19  20
ATOM     20  C   UNL     1      53.355  42.138  46.405  1.00  0.00     0.000 C 
BRANCH  20  21
ATOM     21  C   UNL     1      52.175  43.111  46.576  1.00  0.00     0.000 C 
BRANCH  21  22
ATOM     22  C   UNL     1      52.552  44.374  47.368  1.00  0.00    -0.000 C 
BRANCH  22  23
ATOM     23  C   UNL     1      53.950  44.288  48.014  1.00  0.00    -0.000 C 
BRANCH  23  24
ATOM     24  C   UNL     1      53.965  44.167  49.550  1.00  0.00    -0.000 C 
BRANCH  24  25
ATOM     25  C   UNL     1      55.153  43.385  50.145  1.00  0.00    -0.000 C 
BRANCH  25  26
ATOM     26  C   UNL     1      55.552  42.126  49.342  1.00  0.00    -0.000 C 
BRANCH  26  27
ATOM     27  C   UNL     1      56.203  41.009  50.180  1.00  0.00    -0.000 C 
BRANCH  27  28
ATOM     28  C   UNL     1      56.490  39.738  49.362  1.00  0.00    -0.000 C 
BRANCH  28  29
ATOM     29  C   UNL     1      55.264  38.816  49.268  1.00  0.00    -0.003 C 
ATOM     30  C   UNL     1      54.914  38.164  50.607  1.00  0.00     0.004 C 
ENDBRANCH  28  29
ENDBRANCH  27  28
ENDBRANCH  26  27
ENDBRANCH  25  26
ENDBRANCH  24  25
ENDBRANCH  23  24
ENDBRANCH  22  23
ENDBRANCH  21  22
ENDBRANCH  20  21
ENDBRANCH  19  20
ENDBRANCH  18  19
ENDBRANCH  17  18
ENDBRANCH   1  17
TORSDOF 26
ENDMDL
MODEL 3
REMARK VINA RESULT:    -4.177      3.130      6.699
REMARK INTER + INTRA:         -15.848
REMARK INTER:                  -9.955
REMARK INTRA:                  -5.893
REMARK UNBOUND:                -5.323
REMARK SMILES CCCCCCCCCCCCCCCCCCCCCCCCCCCC(=O)[O-]
REMARK SMILES IDX 15 1 16 2 17 3 18 4 19 5 20 6 21 7 22 8 23 9 24 10 25 11
REMARK SMILES IDX 26 12 27 13 28 14 29 15 30 16 14 17 13 18 12 19 11 20 10 21
REMARK SMILES IDX 9 22 8 23 7 24 6 25 5 26 4 27 3 28 2 29 1 30
REMARK H PARENT
REMARK Flexibility Score: inf
ROOT
ATOM      1  C   UNL     1      55.124  40.537  47.493  1.00  0.00     0.000 C 
ENDROOT
BRANCH   1   2
ATOM      2  C   UNL     1      53.849  39.769  47.118  1.00  0.00     0.000 C 
BRANCH   2   3
ATOM      3  C   UNL     1      52.575  40.608  47.312  1.00  0.00     0.000 C 
BRANCH   3   4
ATOM      4  C   UNL     1      51.800  40.218  48.582  1.00  0.00     0.000 C 
BRANCH   4   5
ATOM      5  C   UNL     1      52.253  41.008  49.818  1.00  0.00     0.000 C 
BRANCH   5   6
ATOM      6  C   UNL     1      51.892  40.297  51.135  1.00  0.00     0.000 C 
BRANCH   6   7
ATOM      7  C   UNL     1      52.261  41.136  52.369  1.00  0.00     0.000 C 
BRANCH   7   8
ATOM      8  C   UNL     1      52.705  42.573  52.012  1.00  0.00     0.000 C 
BRANCH   8   9
ATOM      9  C   UNL     1      54.031  42.948  52.693  1.00  0.00     0.000 C 
BRANCH   9  10
ATOM     10  C   UNL     1      55.003  43.664  51.731  1.00  0.00     0.000 C 
BRANCH  10  11
ATOM     11  C   UNL     1      54.915  43.165  50.278  1.00  0.00     0.000 C 
BRANCH  11  12
ATOM     12  C   UNL     1      54.596  44.288  49.278  1.00  0.00     0.006 C 
BRANCH  12  13
ATOM     13  C   UNL     1      53.201  44.133  48.655  1.00  0.00     0.053 C 
BRANCH  13  14
ATOM     14  C   UNL     1      53.007  45.051  47.488  1.00  0.00     0.041 C 
ATOM     15  O   UNL     1      52.562  46.217  47.666  1.00  0.00    -0.550 OA
ATOM     16  O   UNL     1      53.284  44.611  46.200  1.00  0.00    -0.550 OA
ENDBRANCH  13  14
ENDBRANCH  12  13
ENDBRANCH  11  12
ENDBRANCH  10  11
ENDBRANCH   9  10
ENDBRANCH   8   9
ENDBRANCH   7   8
ENDBRANCH   6   7
ENDBRANCH   5   6
ENDBRANCH   4   5
ENDBRANCH   3   4
ENDBRANCH   2   3
ENDBRANCH   1   2
BRANCH   1  17
ATOM     17  C   UNL     1      55.762  39.956  48.764  1.00  0.00     0.000 C 
BRANCH  17  18
ATOM     18  C   UNL     1      55.130  38.621  49.193  1.00  0.00     0.000 C 
BRANCH  18  19
ATOM     19  C   UNL     1      55.076  38.456  50.722  1.00  0.00     0.000 C 
BRANCH  19  20
ATOM     20  C   UNL     1      55.517  39.723  51.478  1.00  0.00     0.000 C 
BRANCH  20  21
ATOM     21  C   UNL     1      56.004  39.493  52.920  1.00  0.00     0.000 C 
BRANCH  21  22
ATOM     22  C   UNL     1      56.965  40.591  53.408  1.00  0.00    -0.000 C 
BRANCH  22  23
ATOM     23  C   UNL     1      57.793  41.219  52.269  1.00  0.00    -0.000 C 
BRANCH  23  24
ATOM     24  C   UNL     1      59.015  40.401  51.808  1.00  0.00    -0.000 C 
BRANCH  24  25
ATOM     25  C   UNL     1      59.068  40.073  50.302  1.00  0.00    -0.000 C 
BRANCH  25  26
ATOM     26  C   UNL     1      58.784  38.592  49.963  1.00  0.00    -0.000 C 
BRANCH  26  27
ATOM     27  C   UNL     1      60.017  37.671  50.026  1.00  0.00    -0.000 C 
BRANCH  27  28
ATOM     28  C   UNL     1      59.927  36.627  51.152  1.00  0.00    -0.000 C 
BRANCH  28  29
ATOM     29  C   UNL     1      58.551  36.623  51.836  1.00  0.00    -0.003 C 
ATOM     30  C   UNL     1      58.625  37.015  53.312  1.00  0.00     0.004 C 
ENDBRANCH  28  29
ENDBRANCH  27  28
ENDBRANCH  26  27
ENDBRANCH  25  26
ENDBRANCH  24  25
ENDBRANCH  23  24
ENDBRANCH  22  23
ENDBRANCH  21  22
ENDBRANCH  20  21
ENDBRANCH  19  20
ENDBRANCH  18  19
ENDBRANCH  17  18
ENDBRANCH   1  17
TORSDOF 26
ENDMDL
MODEL 4
REMARK VINA RESULT:    -4.155      2.368      5.866
REMARK INTER + INTRA:         -15.794
REMARK INTER:                  -9.481
REMARK INTRA:                  -6.313
REMARK UNBOUND:                -5.323
REMARK SMILES CCCCCCCCCCCCCCCCCCCCCCCCCCCC(=O)[O-]
REMARK SMILES IDX 15 1 16 2 17 3 18 4 19 5 20 6 21 7 22 8 23 9 24 10 25 11
REMARK SMILES IDX 26 12 27 13 28 14 29 15 30 16 14 17 13 18 12 19 11 20 10 21
REMARK SMILES IDX 9 22 8 23 7 24 6 25 5 26 4 27 3 28 2 29 1 30
REMARK H PARENT
REMARK Flexibility Score: inf
ROOT
ATOM      1  C   UNL     1      53.170  41.438  47.675  1.00  0.00     0.000 C 
ENDROOT
BRANCH   1   2
ATOM      2  C   UNL     1      53.383  40.302  46.664  1.00  0.00     0.000 C 
BRANCH   2   3
ATOM      3  C   UNL     1      54.411  39.266  47.147  1.00  0.00     0.000 C 
BRANCH   3   4
ATOM      4  C   UNL     1      55.044  39.648  48.496  1.00  0.00     0.000 C 
BRANCH   4   5
ATOM      5  C   UNL     1      54.880  38.552  49.558  1.00  0.00     0.000 C 
BRANCH   5   6
ATOM      6  C   UNL     1      54.016  39.010  50.747  1.00  0.00     0.000 C 
BRANCH   6   7
ATOM      7  C   UNL     1      52.515  38.990  50.417  1.00  0.00     0.000 C 
BRANCH   7   8
ATOM      8  C   UNL     1      51.805  40.322  50.751  1.00  0.00     0.000 C 
BRANCH   8   9
ATOM      9  C   UNL     1      52.222  40.863  52.128  1.00  0.00     0.000 C 
BRANCH   9  10
ATOM     10  C   UNL     1      52.300  42.404  52.152  1.00  0.00     0.000 C 
BRANCH  10  11
ATOM     11  C   UNL     1      52.989  43.009  50.917  1.00  0.00     0.000 C 
BRANCH  11  12
ATOM     12  C   UNL     1      54.505  42.755  50.894  1.00  0.00     0.006 C 
BRANCH  12  13
ATOM     13  C   UNL     1      55.314  44.029  51.174  1.00  0.00     0.053 C 
BRANCH  13  14
ATOM     14  C   UNL     1      55.814  44.073  52.585  1.00  0.00     0.041 C 
ATOM     15  O   UNL     1      57.039  43.902  52.829  1.00  0.00    -0.550 OA
ATOM     16  O   UNL     1      54.926  44.267  53.635  1.00  0.00    -0.550 OA
ENDBRANCH  13  14
ENDBRANCH  12  13
ENDBRANCH  11  12
ENDBRANCH  10  11
ENDBRANCH   9  10
ENDBRANCH   8   9
ENDBRANCH   7   8
ENDBRANCH   6   7
ENDBRANCH   5   6
ENDBRANCH   4   5
ENDBRANCH   3   4
ENDBRANCH   2   3
ENDBRANCH   1   2
BRANCH   1  17
ATOM     17  C   UNL     1      51.912  42.250  47.332  1.00  0.00     0.000 C 
BRANCH  17  18
ATOM     18  C   UNL     1      52.233  43.590  46.650  1.00  0.00     0.000 C 
BRANCH  18  19
ATOM     19  C   UNL     1      52.841  44.619  47.619  1.00  0.00     0.000 C 
BRANCH  19  20
ATOM     20  C   UNL     1      54.334  44.885  47.352  1.00  0.00     0.000 C 
BRANCH  20  21
ATOM     21  C   UNL     1      54.914  44.193  46.104  1.00  0.00     0.000 C 
BRANCH  21  22
ATOM     22  C   UNL     1      56.317  43.610  46.342  1.00  0.00    -0.000 C 
BRANCH  22  23
ATOM     23  C   UNL     1      56.530  43.118  47.788  1.00  0.00    -0.000 C 
BRANCH  23  24
ATOM     24  C   UNL     1      57.684  42.116  47.985  1.00  0.00    -0.000 C 
BRANCH  24  25
ATOM     25  C   UNL     1      57.941  41.673  49.439  1.00  0.00    -0.000 C 
BRANCH  25  26
ATOM     26  C   UNL     1      58.364  40.193  49.587  1.00  0.00    -0.000 C 
BRANCH  26  27
ATOM     27  C   UNL     1      58.205  39.619  51.008  1.00  0.00    -0.000 C 
BRANCH  27  28
ATOM     28  C   UNL     1      57.404  40.544  51.940  1.00  0.00    -0.000 C 
BRANCH  28  29
ATOM     29  C   UNL     1      56.735  39.775  53.090  1.00  0.00    -0.003 C 
ATOM     30  C   UNL     1      55.532  40.518  53.675  1.00  0.00     0.004 C 
ENDBRANCH  28  29
ENDBRANCH  27  28
ENDBRANCH  26  27
ENDBRANCH  25  26
ENDBRANCH  24  25
ENDBRANCH  23  24
ENDBRANCH  22  23
ENDBRANCH  21  22
ENDBRANCH  20  21
ENDBRANCH  19  20
ENDBRANCH  18  19
ENDBRANCH  17  18
ENDBRANCH   1  17
TORSDOF 26
ENDMDL
MODEL 5
REMARK VINA RESULT:    -4.149      2.546      5.257
REMARK INTER + INTRA:         -15.779
REMARK INTER:                 -10.350
REMARK INTRA:                  -5.429
REMARK UNBOUND:                -5.323
REMARK SMILES CCCCCCCCCCCCCCCCCCCCCCCCCCCC(=O)[O-]
REMARK SMILES IDX 15 1 16 2 17 3 18 4 19 5 20 6 21 7 22 8 23 9 24 10 25 11
REMARK SMILES IDX 26 12 27 13 28 14 29 15 30 16 14 17 13 18 12 19 11 20 10 21
REMARK SMILES IDX 9 22 8 23 7 24 6 25 5 26 4 27 3 28 2 29 1 30
REMARK H PARENT
REMARK Flexibility Score: inf
ROOT
ATOM      1  C   UNL     1      54.358  40.045  47.044  1.00  0.00     0.000 C 
ENDROOT
BRANCH   1   2
ATOM      2  C   UNL     1      54.827  38.868  47.911  1.00  0.00     0.000 C 
BRANCH   2   3
ATOM      3  C   UNL     1      55.063  39.271  49.376  1.00  0.00     0.000 C 
BRANCH   3   4
ATOM      4  C   UNL     1      54.497  38.243  50.370  1.00  0.00     0.000 C 
BRANCH   4   5
ATOM      5  C   UNL     1      53.278  38.773  51.139  1.00  0.00     0.000 C 
BRANCH   5   6
ATOM      6  C   UNL     1      53.134  40.302  51.030  1.00  0.00     0.000 C 
BRANCH   6   7
ATOM      7  C   UNL     1      51.922  40.829  51.814  1.00  0.00     0.000 C 
BRANCH   7   8
ATOM      8  C   UNL     1      52.181  42.200  52.480  1.00  0.00     0.000 C 
BRANCH   8   9
ATOM      9  C   UNL     1      53.647  42.639  52.334  1.00  0.00     0.000 C 
BRANCH   9  10
ATOM     10  C   UNL     1      54.291  42.989  53.692  1.00  0.00     0.000 C 
BRANCH  10  11
ATOM     11  C   UNL     1      55.416  42.026  54.110  1.00  0.00     0.000 C 
BRANCH  11  12
ATOM     12  C   UNL     1      54.918  40.589  54.339  1.00  0.00     0.006 C 
BRANCH  12  13
ATOM     13  C   UNL     1      54.336  40.392  55.746  1.00  0.00     0.053 C 
BRANCH  13  14
ATOM     14  C   UNL     1      55.223  39.542  56.603  1.00  0.00     0.041 C 
ATOM     15  O   UNL     1      55.268  39.728  57.848  1.00  0.00    -0.550 OA
ATOM     16  O   UNL     1      56.026  38.568  56.024  1.00  0.00    -0.550 OA
ENDBRANCH  13  14
ENDBRANCH  12  13
ENDBRANCH  11  12
ENDBRANCH  10  11
ENDBRANCH   9  10
ENDBRANCH   8   9
ENDBRANCH   7   8
ENDBRANCH   6   7
ENDBRANCH   5   6
ENDBRANCH   4   5
ENDBRANCH   3   4
ENDBRANCH   2   3
ENDBRANCH   1   2
BRANCH   1  17
ATOM     17  C   UNL     1      52.838  40.002  46.834  1.00  0.00     0.000 C 
BRANCH  17  18
ATOM     18  C   UNL     1      52.073  40.906  47.816  1.00  0.00     0.000 C 
BRANCH  18  19
ATOM     19  C   UNL     1      52.323  42.403  47.562  1.00  0.00     0.000 C 
BRANCH  19  20
ATOM     20  C   UNL     1      52.761  43.161  48.829  1.00  0.00     0.000 C 
BRANCH  20  21
ATOM     21  C   UNL     1      54.135  43.850  48.743  1.00  0.00     0.000 C 
BRANCH  21  22
ATOM     22  C   UNL     1      55.307  42.864  48.881  1.00  0.00    -0.000 C 
BRANCH  22  23
ATOM     23  C   UNL     1      56.089  43.036  50.199  1.00  0.00    -0.000 C 
BRANCH  23  24
ATOM     24  C   UNL     1      57.201  42.000  50.451  1.00  0.00    -0.000 C 
BRANCH  24  25
ATOM     25  C   UNL     1      58.152  41.741  49.265  1.00  0.00    -0.000 C 
BRANCH  25  26
ATOM     26  C   UNL     1      58.645  40.280  49.152  1.00  0.00    -0.000 C 
BRANCH  26  27
ATOM     27  C   UNL     1      58.697  39.514  50.487  1.00  0.00    -0.000 C 
BRANCH  27  28
ATOM     28  C   UNL     1      58.307  38.033  50.343  1.00  0.00    -0.000 C 
BRANCH  28  29
ATOM     29  C   UNL     1      57.980  37.381  51.696  1.00  0.00    -0.003 C 
ATOM     30  C   UNL     1      57.292  38.346  52.663  1.00  0.00     0.004 C 
ENDBRANCH  28  29
ENDBRANCH  27  28
ENDBRANCH  26  27
ENDBRANCH  25  26
ENDBRANCH  24  25
ENDBRANCH  23  24
ENDBRANCH  22  23
ENDBRANCH  21  22
ENDBRANCH  20  21
ENDBRANCH  19  20
ENDBRANCH  18  19
ENDBRANCH  17  18
ENDBRANCH   1  17
TORSDOF 26
ENDMDL
MODEL 6
REMARK VINA RESULT:    -4.132      1.619      2.247
REMARK INTER + INTRA:         -15.737
REMARK INTER:                 -10.810
REMARK INTRA:                  -4.927
REMARK UNBOUND:                -5.323
REMARK SMILES CCCCCCCCCCCCCCCCCCCCCCCCCCCC(=O)[O-]
REMARK SMILES IDX 15 1 16 2 17 3 18 4 19 5 20 6 21 7 22 8 23 9 24 10 25 11
REMARK SMILES IDX 26 12 27 13 28 14 29 15 30 16 14 17 13 18 12 19 11 20 10 21
REMARK SMILES IDX 9 22 8 23 7 24 6 25 5 26 4 27 3 28 2 29 1 30
REMARK H PARENT
REMARK Flexibility Score: inf
ROOT
ATOM      1  C   UNL     1      53.839  38.841  50.733  1.00  0.00     0.000 C 
ENDROOT
BRANCH   1   2
ATOM      2  C   UNL     1      53.721  40.305  51.181  1.00  0.00     0.000 C 
BRANCH   2   3
ATOM      3  C   UNL     1      52.304  40.665  51.655  1.00  0.00     0.000 C 
BRANCH   3   4
ATOM      4  C   UNL     1      52.251  42.017  52.385  1.00  0.00     0.000 C 
BRANCH   4   5
ATOM      5  C   UNL     1      53.552  42.335  53.136  1.00  0.00     0.000 C 
BRANCH   5   6
ATOM      6  C   UNL     1      53.673  41.555  54.458  1.00  0.00     0.000 C 
BRANCH   6   7
ATOM      7  C   UNL     1      55.133  41.218  54.802  1.00  0.00     0.000 C 
BRANCH   7   8
ATOM      8  C   UNL     1      55.597  39.867  54.211  1.00  0.00     0.000 C 
BRANCH   8   9
ATOM      9  C   UNL     1      56.602  39.155  55.132  1.00  0.00     0.000 C 
BRANCH   9  10
ATOM     10  C   UNL     1      57.514  38.179  54.359  1.00  0.00     0.000 C 
BRANCH  10  11
ATOM     11  C   UNL     1      57.320  38.226  52.833  1.00  0.00     0.000 C 
BRANCH  11  12
ATOM     12  C   UNL     1      58.583  37.817  52.057  1.00  0.00     0.006 C 
BRANCH  12  13
ATOM     13  C   UNL     1      58.662  36.300  51.833  1.00  0.00     0.053 C 
BRANCH  13  14
ATOM     14  C   UNL     1      59.782  35.680  52.611  1.00  0.00     0.041 C 
ATOM     15  O   UNL     1      60.420  36.362  53.457  1.00  0.00    -0.550 OA
ATOM     16  O   UNL     1      60.145  34.359  52.379  1.00  0.00    -0.550 OA
ENDBRANCH  13  14
ENDBRANCH  12  13
ENDBRANCH  11  12
ENDBRANCH  10  11
ENDBRANCH   9  10
ENDBRANCH   8   9
ENDBRANCH   7   8
ENDBRANCH   6   7
ENDBRANCH   5   6
ENDBRANCH   4   5
ENDBRANCH   3   4
ENDBRANCH   2   3
ENDBRANCH   1   2
BRANCH   1  17
ATOM     17  C   UNL     1      55.079  38.634  49.851  1.00  0.00     0.000 C 
BRANCH  17  18
ATOM     18  C   UNL     1      55.194  39.679  48.728  1.00  0.00     0.000 C 
BRANCH  18  19
ATOM     19  C   UNL     1      54.670  39.157  47.378  1.00  0.00     0.000 C 
BRANCH  19  20
ATOM     20  C   UNL     1      53.518  40.009  46.812  1.00  0.00     0.000 C 
BRANCH  20  21
ATOM     21  C   UNL     1      52.240  40.042  47.670  1.00  0.00     0.000 C 
BRANCH  21  22
ATOM     22  C   UNL     1      51.849  41.464  48.106  1.00  0.00    -0.000 C 
BRANCH  22  23
ATOM     23  C   UNL     1      52.287  42.547  47.099  1.00  0.00    -0.000 C 
BRANCH  23  24
ATOM     24  C   UNL     1      52.649  43.914  47.710  1.00  0.00    -0.000 C 
BRANCH  24  25
ATOM     25  C   UNL     1      53.101  43.886  49.185  1.00  0.00    -0.000 C 
BRANCH  25  26
ATOM     26  C   UNL     1      54.561  43.421  49.393  1.00  0.00    -0.000 C 
BRANCH  26  27
ATOM     27  C   UNL     1      55.284  44.088  50.578  1.00  0.00    -0.000 C 
BRANCH  27  28
ATOM     28  C   UNL     1      56.775  43.716  50.656  1.00  0.00    -0.000 C 
BRANCH  28  29
ATOM     29  C   UNL     1      56.993  42.197  50.739  1.00  0.00    -0.003 C 
ATOM     30  C   UNL     1      57.716  41.775  52.019  1.00  0.00     0.004 C 
ENDBRANCH  28  29
ENDBRANCH  27  28
ENDBRANCH  26  27
ENDBRANCH  25  26
ENDBRANCH  24  25
ENDBRANCH  23  24
ENDBRANCH  22  23
ENDBRANCH  21  22
ENDBRANCH  20  21
ENDBRANCH  19  20
ENDBRANCH  18  19
ENDBRANCH  17  18
ENDBRANCH   1  17
TORSDOF 26
ENDMDL
MODEL 7
REMARK VINA RESULT:    -4.128      2.721      7.028
REMARK INTER + INTRA:         -15.726
REMARK INTER:                 -10.499
REMARK INTRA:                  -5.227
REMARK UNBOUND:                -5.323
REMARK SMILES CCCCCCCCCCCCCCCCCCCCCCCCCCCC(=O)[O-]
REMARK SMILES IDX 15 1 16 2 17 3 18 4 19 5 20 6 21 7 22 8 23 9 24 10 25 11
REMARK SMILES IDX 26 12 27 13 28 14 29 15 30 16 14 17 13 18 12 19 11 20 10 21
REMARK SMILES IDX 9 22 8 23 7 24 6 25 5 26 4 27 3 28 2 29 1 30
REMARK H PARENT
REMARK Flexibility Score: inf
ROOT
ATOM      1  C   UNL     1      52.617  39.074  50.853  1.00  0.00     0.000 C 
ENDROOT
BRANCH   1   2
ATOM      2  C   UNL     1      54.117  39.249  51.132  1.00  0.00     0.000 C 
BRANCH   2   3
ATOM      3  C   UNL     1      54.980  38.216  50.390  1.00  0.00     0.000 C 
BRANCH   3   4
ATOM      4  C   UNL     1      55.228  38.599  48.921  1.00  0.00     0.000 C 
BRANCH   4   5
ATOM      5  C   UNL     1      55.547  40.091  48.744  1.00  0.00     0.000 C 
BRANCH   5   6
ATOM      6  C   UNL     1      54.767  40.725  47.579  1.00  0.00     0.000 C 
BRANCH   6   7
ATOM      7  C   UNL     1      53.652  39.805  47.057  1.00  0.00     0.000 C 
BRANCH   7   8
ATOM      8  C   UNL     1      52.238  40.278  47.464  1.00  0.00     0.000 C 
BRANCH   8   9
ATOM      9  C   UNL     1      52.213  41.776  47.809  1.00  0.00     0.000 C 
BRANCH   9  10
ATOM     10  C   UNL     1      51.718  42.641  46.631  1.00  0.00     0.000 C 
BRANCH  10  11
ATOM     11  C   UNL     1      52.198  44.101  46.689  1.00  0.00     0.000 C 
BRANCH  11  12
ATOM     12  C   UNL     1      53.671  44.229  47.111  1.00  0.00     0.006 C 
BRANCH  12  13
ATOM     13  C   UNL     1      53.937  45.510  47.914  1.00  0.00     0.053 C 
BRANCH  13  14
ATOM     14  C   UNL     1      55.382  45.901  47.878  1.00  0.00     0.041 C 
ATOM     15  O   UNL     1      55.750  46.909  47.217  1.00  0.00    -0.550 OA
ATOM     16  O   UNL     1      56.329  45.134  48.546  1.00  0.00    -0.550 OA
ENDBRANCH  13  14
ENDBRANCH  12  13
ENDBRANCH  11  12
ENDBRANCH  10  11
ENDBRANCH   9  10
ENDBRANCH   8   9
ENDBRANCH   7   8
ENDBRANCH   6   7
ENDBRANCH   5   6
ENDBRANCH   4   5
ENDBRANCH   3   4
ENDBRANCH   2   3
ENDBRANCH   1   2
BRANCH   1  17
ATOM     17  C   UNL     1      51.848  40.370  51.148  1.00  0.00     0.000 C 
BRANCH  17  18
ATOM     18  C   UNL     1      52.428  41.151  52.339  1.00  0.00     0.000 C 
BRANCH  18  19
ATOM     19  C   UNL     1      52.224  42.671  52.207  1.00  0.00     0.000 C 
BRANCH  19  20
ATOM     20  C   UNL     1      52.754  43.233  50.875  1.00  0.00     0.000 C 
BRANCH  20  21
ATOM     21  C   UNL     1      54.251  42.996  50.609  1.00  0.00     0.000 C 
BRANCH  21  22
ATOM     22  C   UNL     1      55.159  43.712  51.624  1.00  0.00    -0.000 C 
BRANCH  22  23
ATOM     23  C   UNL     1      55.852  42.744  52.604  1.00  0.00    -0.000 C 
BRANCH  23  24
ATOM     24  C   UNL     1      55.471  42.916  54.087  1.00  0.00    -0.000 C 
BRANCH  24  25
ATOM     25  C   UNL     1      55.875  41.754  55.018  1.00  0.00    -0.000 C 
BRANCH  25  26
ATOM     26  C   UNL     1      55.320  40.376  54.592  1.00  0.00    -0.000 C 
BRANCH  26  27
ATOM     27  C   UNL     1      55.940  39.177  55.333  1.00  0.00    -0.000 C 
BRANCH  27  28
ATOM     28  C   UNL     1      57.277  38.722  54.723  1.00  0.00    -0.000 C 
BRANCH  28  29
ATOM     29  C   UNL     1      57.318  38.917  53.199  1.00  0.00    -0.003 C 
ATOM     30  C   UNL     1      57.950  37.729  52.471  1.00  0.00     0.004 C 
ENDBRANCH  28  29
ENDBRANCH  27  28
ENDBRANCH  26  27
ENDBRANCH  25  26
ENDBRANCH  24  25
ENDBRANCH  23  24
ENDBRANCH  22  23
ENDBRANCH  21  22
ENDBRANCH  20  21
ENDBRANCH  19  20
ENDBRANCH  18  19
ENDBRANCH  17  18
ENDBRANCH   1  17
TORSDOF 26
ENDMDL
MODEL 8
REMARK VINA RESULT:    -4.115      1.732      3.396
REMARK INTER + INTRA:         -15.693
REMARK INTER:                  -9.861
REMARK INTRA:                  -5.832
REMARK UNBOUND:                -5.323
REMARK SMILES CCCCCCCCCCCCCCCCCCCCCCCCCCCC(=O)[O-]
REMARK SMILES IDX 15 1 16 2 17 3 18 4 19 5 20 6 21 7 22 8 23 9 24 10 25 11
REMARK SMILES IDX 26 12 27 13 28 14 29 15 30 16 14 17 13 18 12 19 11 20 10 21
REMARK SMILES IDX 9 22 8 23 7 24 6 25 5 26 4 27 3 28 2 29 1 30
REMARK H PARENT
REMARK Flexibility Score: inf
ROOT
ATOM      1  C   UNL     1      54.981  39.925  48.242  1.00  0.00     0.000 C 
ENDROOT
BRANCH   1   2
ATOM      2  C   UNL     1      54.926  38.503  48.819  1.00  0.00     0.000 C 
BRANCH   2   3
ATOM      3  C   UNL     1      54.649  38.489  50.331  1.00  0.00     0.000 C 
BRANCH   3   4
ATOM      4  C   UNL     1      54.181  39.856  50.858  1.00  0.00     0.000 C 
BRANCH   4   5
ATOM      5  C   UNL     1      52.752  39.816  51.418  1.00  0.00     0.000 C 
BRANCH   5   6
ATOM      6  C   UNL     1      52.318  41.166  52.018  1.00  0.00     0.000 C 
BRANCH   6   7
ATOM      7  C   UNL     1      52.971  41.431  53.384  1.00  0.00     0.000 C 
BRANCH   7   8
ATOM      8  C   UNL     1      53.912  42.657  53.377  1.00  0.00     0.000 C 
BRANCH   8   9
ATOM      9  C   UNL     1      55.392  42.243  53.433  1.00  0.00     0.000 C 
BRANCH   9  10
ATOM     10  C   UNL     1      55.581  40.820  54.001  1.00  0.00     0.000 C 
BRANCH  10  11
ATOM     11  C   UNL     1      56.990  40.246  53.776  1.00  0.00     0.000 C 
BRANCH  11  12
ATOM     12  C   UNL     1      56.974  38.763  53.368  1.00  0.00     0.006 C 
BRANCH  12  13
ATOM     13  C   UNL     1      58.379  38.231  53.053  1.00  0.00     0.053 C 
BRANCH  13  14
ATOM     14  C   UNL     1      58.548  36.809  53.491  1.00  0.00     0.041 C 
ATOM     15  O   UNL     1      58.340  36.487  54.692  1.00  0.00    -0.550 OA
ATOM     16  O   UNL     1      58.968  35.845  52.584  1.00  0.00    -0.550 OA
ENDBRANCH  13  14
ENDBRANCH  12  13
ENDBRANCH  11  12
ENDBRANCH  10  11
ENDBRANCH   9  10
ENDBRANCH   8   9
ENDBRANCH   7   8
ENDBRANCH   6   7
ENDBRANCH   5   6
ENDBRANCH   4   5
ENDBRANCH   3   4
ENDBRANCH   2   3
ENDBRANCH   1   2
BRANCH   1  17
ATOM     17  C   UNL     1      54.099  40.046  46.991  1.00  0.00     0.000 C 
BRANCH  17  18
ATOM     18  C   UNL     1      52.596  39.982  47.310  1.00  0.00     0.000 C 
BRANCH  18  19
ATOM     19  C   UNL     1      52.099  41.223  48.072  1.00  0.00     0.000 C 
BRANCH  19  20
ATOM     20  C   UNL     1      52.155  42.509  47.226  1.00  0.00     0.000 C 
BRANCH  20  21
ATOM     21  C   UNL     1      52.761  43.736  47.930  1.00  0.00     0.000 C 
BRANCH  21  22
ATOM     22  C   UNL     1      52.978  43.513  49.437  1.00  0.00    -0.000 C 
BRANCH  22  23
ATOM     23  C   UNL     1      54.467  43.402  49.823  1.00  0.00    -0.000 C 
BRANCH  23  24
ATOM     24  C   UNL     1      55.467  43.559  48.662  1.00  0.00    -0.000 C 
BRANCH  24  25
ATOM     25  C   UNL     1      56.888  43.024  48.929  1.00  0.00    -0.000 C 
BRANCH  25  26
ATOM     26  C   UNL     1      57.022  42.194  50.227  1.00  0.00    -0.000 C 
BRANCH  26  27
ATOM     27  C   UNL     1      58.310  41.355  50.322  1.00  0.00    -0.000 C 
BRANCH  27  28
ATOM     28  C   UNL     1      58.107  39.895  49.882  1.00  0.00    -0.000 C 
BRANCH  28  29
ATOM     29  C   UNL     1      59.374  39.292  49.257  1.00  0.00    -0.003 C 
ATOM     30  C   UNL     1      60.606  39.456  50.149  1.00  0.00     0.004 C 
ENDBRANCH  28  29
ENDBRANCH  27  28
ENDBRANCH  26  27
ENDBRANCH  25  26
ENDBRANCH  24  25
ENDBRANCH  23  24
ENDBRANCH  22  23
ENDBRANCH  21  22
ENDBRANCH  20  21
ENDBRANCH  19  20
ENDBRANCH  18  19
ENDBRANCH  17  18
ENDBRANCH   1  17
TORSDOF 26
ENDMDL
MODEL 9
REMARK VINA RESULT:    -4.050      1.863      2.819
REMARK INTER + INTRA:         -15.528
REMARK INTER:                  -9.850
REMARK INTRA:                  -5.679
REMARK UNBOUND:                -5.323
REMARK SMILES CCCCCCCCCCCCCCCCCCCCCCCCCCCC(=O)[O-]
REMARK SMILES IDX 15 1 16 2 17 3 18 4 19 5 20 6 21 7 22 8 23 9 24 10 25 11
REMARK SMILES IDX 26 12 27 13 28 14 29 15 30 16 14 17 13 18 12 19 11 20 10 21
REMARK SMILES IDX 9 22 8 23 7 24 6 25 5 26 4 27 3 28 2 29 1 30
REMARK H PARENT
REMARK Flexibility Score: inf
ROOT
ATOM      1  C   UNL     1      55.928  38.146  50.835  1.00  0.00     0.000 C 
ENDROOT
BRANCH   1   2
ATOM      2  C   UNL     1      54.483  38.136  50.315  1.00  0.00     0.000 C 
BRANCH   2   3
ATOM      3  C   UNL     1      53.499  38.799  51.292  1.00  0.00     0.000 C 
BRANCH   3   4
ATOM      4  C   UNL     1      52.602  39.844  50.608  1.00  0.00     0.000 C 
BRANCH   4   5
ATOM      5  C   UNL     1      51.907  40.775  51.612  1.00  0.00     0.000 C 
BRANCH   5   6
ATOM      6  C   UNL     1      52.296  42.250  51.413  1.00  0.00     0.000 C 
BRANCH   6   7
ATOM      7  C   UNL     1      53.809  42.477  51.564  1.00  0.00     0.000 C 
BRANCH   7   8
ATOM      8  C   UNL     1      54.206  42.988  52.968  1.00  0.00     0.000 C 
BRANCH   8   9
ATOM      9  C   UNL     1      54.513  41.831  53.933  1.00  0.00     0.000 C 
BRANCH   9  10
ATOM     10  C   UNL     1      55.618  40.897  53.396  1.00  0.00     0.000 C 
BRANCH  10  11
ATOM     11  C   UNL     1      55.836  39.638  54.252  1.00  0.00     0.000 C 
BRANCH  11  12
ATOM     12  C   UNL     1      57.308  39.430  54.645  1.00  0.00     0.006 C 
BRANCH  12  13
ATOM     13  C   UNL     1      58.014  38.414  53.737  1.00  0.00     0.053 C 
BRANCH  13  14
ATOM     14  C   UNL     1      58.269  37.118  54.443  1.00  0.00     0.041 C 
ATOM     15  O   UNL     1      58.920  36.202  53.872  1.00  0.00    -0.550 OA
ATOM     16  O   UNL     1      57.759  36.906  55.718  1.00  0.00    -0.550 OA
ENDBRANCH  13  14
ENDBRANCH  12  13
ENDBRANCH  11  12
ENDBRANCH  10  11
ENDBRANCH   9  10
ENDBRANCH   8   9
ENDBRANCH   7   8
ENDBRANCH   6   7
ENDBRANCH   5   6
ENDBRANCH   4   5
ENDBRANCH   3   4
ENDBRANCH   2   3
ENDBRANCH   1   2
BRANCH   1  17
ATOM     17  C   UNL     1      56.860  38.874  49.856  1.00  0.00     0.000 C 
BRANCH  17  18
ATOM     18  C   UNL     1      56.726  40.404  49.929  1.00  0.00     0.000 C 
BRANCH  18  19
ATOM     19  C   UNL     1      56.455  41.042  48.555  1.00  0.00     0.000 C 
BRANCH  19  20
ATOM     20  C   UNL     1      54.954  41.250  48.277  1.00  0.00     0.000 C 
BRANCH  20  21
ATOM     21  C   UNL     1      54.336  40.290  47.244  1.00  0.00     0.000 C 
BRANCH  21  22
ATOM     22  C   UNL     1      52.813  40.459  47.109  1.00  0.00    -0.000 C 
BRANCH  22  23
ATOM     23  C   UNL     1      52.302  41.802  47.667  1.00  0.00    -0.000 C 
BRANCH  23  24
ATOM     24  C   UNL     1      52.066  42.909  46.621  1.00  0.00    -0.000 C 
BRANCH  24  25
ATOM     25  C   UNL     1      52.335  44.349  47.102  1.00  0.00    -0.000 C 
BRANCH  25  26
ATOM     26  C   UNL     1      53.143  44.440  48.417  1.00  0.00    -0.000 C 
BRANCH  26  27
ATOM     27  C   UNL     1      54.605  44.893  48.243  1.00  0.00    -0.000 C 
BRANCH  27  28
ATOM     28  C   UNL     1      55.328  45.108  49.584  1.00  0.00    -0.000 C 
BRANCH  28  29
ATOM     29  C   UNL     1      56.702  44.422  49.622  1.00  0.00    -0.003 C 
ATOM     30  C   UNL     1      57.168  44.117  51.047  1.00  0.00     0.004 C 
ENDBRANCH  28  29
ENDBRANCH  27  28
ENDBRANCH  26  27
ENDBRANCH  25  26
ENDBRANCH  24  25
ENDBRANCH  23  24
ENDBRANCH  22  23
ENDBRANCH  21  22
ENDBRANCH  20  21
ENDBRANCH  19  20
ENDBRANCH  18  19
ENDBRANCH  17  18
ENDBRANCH   1  17
TORSDOF 26
ENDMDL
