MODEL 1
REMARK VINA RESULT:    -4.358      0.000      0.000
REMARK INTER + INTRA:          -6.144
REMARK INTER:                  -5.377
REMARK INTRA:                  -0.767
REMARK UNBOUND:                -0.767
REMARK SMILES C=CC(=C)CCC=C(C)C
REMARK SMILES IDX 5 1 6 2 7 3 9 4 8 5 10 6 3 7 4 8 2 9 1 10
REMARK H PARENT
REMARK Flexibility Score: inf
ROOT
ATOM      1  C   UNL     1     139.946 145.834 164.019  1.00  0.00     0.039 C 
ENDROOT
BRANCH   1   2
ATOM      2  C   UNL     1     140.597 145.308 162.734  1.00  0.00     0.032 C 
BRANCH   2   3
ATOM      3  C   UNL     1     140.355 146.244 161.575  1.00  0.00    -0.028 C 
ATOM      4  C   UNL     1     142.794 146.723 161.337  1.00  0.00     0.039 C 
ATOM      5  C   UNL     1     141.349 146.892 160.932  1.00  0.00    -0.080 C 
ATOM      6  C   UNL     1     140.996 147.805 159.786  1.00  0.00     0.039 C 
ENDBRANCH   2   3
ENDBRANCH   1   2
BRANCH   1   7
ATOM      7  C   UNL     1     140.843 146.843 164.703  1.00  0.00    -0.055 C 
ATOM      8  C   UNL     1     140.347 148.042 165.024  1.00  0.00     0.012 C 
BRANCH   7   9
ATOM      9  C   UNL     1     142.275 146.565 164.988  1.00  0.00    -0.005 C 
ATOM     10  C   UNL     1     143.231 147.495 164.985  1.00  0.00     0.009 C 
ENDBRANCH   7   9
ENDBRANCH   1   7
TORSDOF 4
ENDMDL
MODEL 2
REMARK VINA RESULT:    -4.346      7.481      9.007
REMARK INTER + INTRA:          -6.130
REMARK INTER:                  -5.298
REMARK INTRA:                  -0.831
REMARK UNBOUND:                -0.767
REMARK SMILES C=CC(=C)CCC=C(C)C
REMARK SMILES IDX 5 1 6 2 7 3 9 4 8 5 10 6 3 7 4 8 2 9 1 10
REMARK H PARENT
REMARK Flexibility Score: inf
ROOT
ATOM      1  C   UNL     1     150.270 144.951 164.494  1.00  0.00     0.039 C 
ENDROOT
BRANCH   1   2
ATOM      2  C   UNL     1     150.931 144.932 163.110  1.00  0.00     0.032 C 
BRANCH   2   3
ATOM      3  C   UNL     1     150.014 145.508 162.058  1.00  0.00    -0.028 C 
ATOM      4  C   UNL     1     149.954 143.350 160.802  1.00  0.00     0.039 C 
ATOM      5  C   UNL     1     149.563 144.796 161.004  1.00  0.00    -0.080 C 
ATOM      6  C   UNL     1     148.652 145.469 160.011  1.00  0.00     0.039 C 
ENDBRANCH   2   3
ENDBRANCH   1   2
BRANCH   1   7
ATOM      7  C   UNL     1     149.637 143.613 164.807  1.00  0.00    -0.055 C 
ATOM      8  C   UNL     1     150.426 142.571 165.091  1.00  0.00     0.012 C 
BRANCH   7   9
ATOM      9  C   UNL     1     148.167 143.402 164.762  1.00  0.00    -0.005 C 
ATOM     10  C   UNL     1     147.494 143.067 163.660  1.00  0.00     0.009 C 
ENDBRANCH   7   9
ENDBRANCH   1   7
TORSDOF 4
ENDMDL
MODEL 3
REMARK VINA RESULT:    -4.339      5.192      6.278
REMARK INTER + INTRA:          -6.121
REMARK INTER:                  -5.249
REMARK INTRA:                  -0.872
REMARK UNBOUND:                -0.767
REMARK SMILES C=CC(=C)CCC=C(C)C
REMARK SMILES IDX 5 1 6 2 7 3 9 4 8 5 10 6 3 7 4 8 2 9 1 10
REMARK H PARENT
REMARK Flexibility Score: inf
ROOT
ATOM      1  C   UNL     1     145.823 150.518 164.689  1.00  0.00     0.039 C 
ENDROOT
BRANCH   1   2
ATOM      2  C   UNL     1     145.751 151.043 163.250  1.00  0.00     0.032 C 
BRANCH   2   3
ATOM      3  C   UNL     1     145.165 150.010 162.319  1.00  0.00    -0.028 C 
ATOM      4  C   UNL     1     147.249 149.936 160.946  1.00  0.00     0.039 C 
ATOM      5  C   UNL     1     145.839 149.499 161.268  1.00  0.00    -0.080 C 
ATOM      6  C   UNL     1     145.159 148.471 160.401  1.00  0.00     0.039 C 
ENDBRANCH   2   3
ENDBRANCH   1   2
BRANCH   1   7
ATOM      7  C   UNL     1     147.114 149.763 164.923  1.00  0.00    -0.055 C 
ATOM      8  C   UNL     1     148.248 150.450 165.089  1.00  0.00     0.012 C 
BRANCH   7   9
ATOM      9  C   UNL     1     147.173 148.278 164.925  1.00  0.00    -0.005 C 
ATOM     10  C   UNL     1     147.696 147.550 163.938  1.00  0.00     0.009 C 
ENDBRANCH   7   9
ENDBRANCH   1   7
TORSDOF 4
ENDMDL
MODEL 4
REMARK VINA RESULT:    -4.338      5.663      6.444
REMARK INTER + INTRA:          -6.119
REMARK INTER:                  -5.340
REMARK INTRA:                  -0.779
REMARK UNBOUND:                -0.767
REMARK SMILES C=CC(=C)CCC=C(C)C
REMARK SMILES IDX 5 1 6 2 7 3 9 4 8 5 10 6 3 7 4 8 2 9 1 10
REMARK H PARENT
REMARK Flexibility Score: inf
ROOT
ATOM      1  C   UNL     1     144.974 139.944 164.019  1.00  0.00     0.039 C 
ENDROOT
BRANCH   1   2
ATOM      2  C   UNL     1     145.452 140.558 162.697  1.00  0.00     0.032 C 
BRANCH   2   3
ATOM      3  C   UNL     1     144.461 140.308 161.587  1.00  0.00    -0.028 C 
ATOM      4  C   UNL     1     144.059 142.752 161.273  1.00  0.00     0.039 C 
ATOM      5  C   UNL     1     143.822 141.300 160.932  1.00  0.00    -0.080 C 
ATOM      6  C   UNL     1     142.852 140.938 159.838  1.00  0.00     0.039 C 
ENDBRANCH   2   3
ENDBRANCH   1   2
BRANCH   1   7
ATOM      7  C   UNL     1     143.946 140.833 164.685  1.00  0.00    -0.055 C 
ATOM      8  C   UNL     1     142.758 140.317 165.016  1.00  0.00     0.012 C 
BRANCH   7   9
ATOM      9  C   UNL     1     144.193 142.276 164.941  1.00  0.00    -0.005 C 
ATOM     10  C   UNL     1     143.237 143.206 164.956  1.00  0.00     0.009 C 
ENDBRANCH   7   9
ENDBRANCH   1   7
TORSDOF 4
ENDMDL
MODEL 5
REMARK VINA RESULT:    -4.205      2.441      4.471
REMARK INTER + INTRA:          -5.955
REMARK INTER:                  -5.527
REMARK INTRA:                  -0.429
REMARK UNBOUND:                -0.767
REMARK SMILES C=CC(=C)CCC=C(C)C
REMARK SMILES IDX 5 1 6 2 7 3 9 4 8 5 10 6 3 7 4 8 2 9 1 10
REMARK H PARENT
REMARK Flexibility Score: inf
ROOT
ATOM      1  C   UNL     1     143.055 147.406 165.171  1.00  0.00     0.039 C 
ENDROOT
BRANCH   1   2
ATOM      2  C   UNL     1     144.295 147.555 164.282  1.00  0.00     0.032 C 
BRANCH   2   3
ATOM      3  C   UNL     1     145.061 148.812 164.616  1.00  0.00    -0.028 C 
ATOM      4  C   UNL     1     144.950 149.614 162.254  1.00  0.00     0.039 C 
ATOM      5  C   UNL     1     145.363 149.756 163.700  1.00  0.00    -0.080 C 
ATOM      6  C   UNL     1     146.133 150.974 164.142  1.00  0.00     0.039 C 
ENDBRANCH   2   3
ENDBRANCH   1   2
BRANCH   1   7
ATOM      7  C   UNL     1     141.797 147.321 164.333  1.00  0.00    -0.055 C 
ATOM      8  C   UNL     1     141.873 147.566 163.021  1.00  0.00     0.012 C 
BRANCH   7   9
ATOM      9  C   UNL     1     140.469 147.020 164.927  1.00  0.00    -0.005 C 
ATOM     10  C   UNL     1     139.739 145.946 164.620  1.00  0.00     0.009 C 
ENDBRANCH   7   9
ENDBRANCH   1   7
TORSDOF 4
ENDMDL
MODEL 6
REMARK VINA RESULT:    -4.164      3.821      5.139
REMARK INTER + INTRA:          -5.905
REMARK INTER:                  -5.490
REMARK INTRA:                  -0.416
REMARK UNBOUND:                -0.767
REMARK SMILES C=CC(=C)CCC=C(C)C
REMARK SMILES IDX 5 1 6 2 7 3 9 4 8 5 10 6 3 7 4 8 2 9 1 10
REMARK H PARENT
REMARK Flexibility Score: inf
ROOT
ATOM      1  C   UNL     1     143.482 143.181 164.938  1.00  0.00     0.039 C 
ENDROOT
BRANCH   1   2
ATOM      2  C   UNL     1     143.096 144.384 164.069  1.00  0.00     0.032 C 
BRANCH   2   3
ATOM      3  C   UNL     1     141.897 145.106 164.634  1.00  0.00    -0.028 C 
ATOM      4  C   UNL     1     140.776 145.173 162.403  1.00  0.00     0.039 C 
ATOM      5  C   UNL     1     140.835 145.468 163.883  1.00  0.00    -0.080 C 
ATOM      6  C   UNL     1     139.689 146.185 164.548  1.00  0.00     0.039 C 
ENDBRANCH   2   3
ENDBRANCH   1   2
BRANCH   1   7
ATOM      7  C   UNL     1     143.352 141.890 164.159  1.00  0.00    -0.055 C 
ATOM      8  C   UNL     1     143.042 141.943 162.860  1.00  0.00     0.012 C 
BRANCH   7   9
ATOM      9  C   UNL     1     143.509 140.559 164.801  1.00  0.00    -0.005 C 
ATOM     10  C   UNL     1     144.687 140.003 165.089  1.00  0.00     0.009 C 
ENDBRANCH   7   9
ENDBRANCH   1   7
TORSDOF 4
ENDMDL
MODEL 7
REMARK VINA RESULT:    -4.163      6.424      8.483
REMARK INTER + INTRA:          -5.904
REMARK INTER:                  -4.980
REMARK INTRA:                  -0.924
REMARK UNBOUND:                -0.767
REMARK SMILES C=CC(=C)CCC=C(C)C
REMARK SMILES IDX 5 1 6 2 7 3 9 4 8 5 10 6 3 7 4 8 2 9 1 10
REMARK H PARENT
REMARK Flexibility Score: inf
ROOT
ATOM      1  C   UNL     1     149.820 145.656 161.856  1.00  0.00     0.039 C 
ENDROOT
BRANCH   1   2
ATOM      2  C   UNL     1     148.350 146.087 161.931  1.00  0.00     0.032 C 
BRANCH   2   3
ATOM      3  C   UNL     1     148.141 147.136 162.995  1.00  0.00    -0.028 C 
ATOM      4  C   UNL     1     146.939 145.522 164.474  1.00  0.00     0.039 C 
ATOM      5  C   UNL     1     147.500 146.888 164.157  1.00  0.00    -0.080 C 
ATOM      6  C   UNL     1     147.346 148.009 165.152  1.00  0.00     0.039 C 
ENDBRANCH   2   3
ENDBRANCH   1   2
BRANCH   1   7
ATOM      7  C   UNL     1     150.101 144.526 162.822  1.00  0.00    -0.055 C 
ATOM      8  C   UNL     1     149.489 143.351 162.643  1.00  0.00     0.012 C 
BRANCH   7   9
ATOM      9  C   UNL     1     150.997 144.691 163.996  1.00  0.00    -0.005 C 
ATOM     10  C   UNL     1     150.570 144.969 165.228  1.00  0.00     0.009 C 
ENDBRANCH   7   9
ENDBRANCH   1   7
TORSDOF 4
ENDMDL
MODEL 8
REMARK VINA RESULT:    -4.142      6.828      8.258
REMARK INTER + INTRA:          -5.877
REMARK INTER:                  -5.432
REMARK INTRA:                  -0.446
REMARK UNBOUND:                -0.767
REMARK SMILES C=CC(=C)CCC=C(C)C
REMARK SMILES IDX 5 1 6 2 7 3 9 4 8 5 10 6 3 7 4 8 2 9 1 10
REMARK H PARENT
REMARK Flexibility Score: inf
ROOT
ATOM      1  C   UNL     1     147.801 143.309 164.974  1.00  0.00     0.039 C 
ENDROOT
BRANCH   1   2
ATOM      2  C   UNL     1     146.483 143.186 164.199  1.00  0.00     0.032 C 
BRANCH   2   3
ATOM      3  C   UNL     1     145.710 141.961 164.624  1.00  0.00    -0.028 C 
ATOM      4  C   UNL     1     145.726 141.037 162.304  1.00  0.00     0.039 C 
ATOM      5  C   UNL     1     145.362 140.977 163.769  1.00  0.00    -0.080 C 
ATOM      6  C   UNL     1     144.590 139.797 164.299  1.00  0.00     0.039 C 
ENDBRANCH   2   3
ENDBRANCH   1   2
BRANCH   1   7
ATOM      7  C   UNL     1     148.979 143.374 164.026  1.00  0.00    -0.055 C 
ATOM      8  C   UNL     1     148.783 143.126 162.728  1.00  0.00     0.012 C 
BRANCH   7   9
ATOM      9  C   UNL     1     150.360 143.656 164.498  1.00  0.00    -0.005 C 
ATOM     10  C   UNL     1     150.720 144.776 165.125  1.00  0.00     0.009 C 
ENDBRANCH   7   9
ENDBRANCH   1   7
TORSDOF 4
ENDMDL
MODEL 9
REMARK VINA RESULT:    -4.126      5.317      6.603
REMARK INTER + INTRA:          -5.858
REMARK INTER:                  -4.979
REMARK INTRA:                  -0.879
REMARK UNBOUND:                -0.767
REMARK SMILES C=CC(=C)CCC=C(C)C
REMARK SMILES IDX 5 1 6 2 7 3 9 4 8 5 10 6 3 7 4 8 2 9 1 10
REMARK H PARENT
REMARK Flexibility Score: inf
ROOT
ATOM      1  C   UNL     1     144.840 140.409 164.221  1.00  0.00     0.039 C 
ENDROOT
BRANCH   1   2
ATOM      2  C   UNL     1     143.417 140.940 164.432  1.00  0.00     0.032 C 
BRANCH   2   3
ATOM      3  C   UNL     1     143.432 142.349 164.973  1.00  0.00    -0.028 C 
ATOM      4  C   UNL     1     142.777 143.300 162.759  1.00  0.00     0.039 C 
ATOM      5  C   UNL     1     143.142 143.430 164.219  1.00  0.00    -0.080 C 
ATOM      6  C   UNL     1     143.187 144.793 164.860  1.00  0.00     0.039 C 
ENDBRANCH   2   3
ENDBRANCH   1   2
BRANCH   1   7
ATOM      7  C   UNL     1     145.359 140.792 162.852  1.00  0.00    -0.055 C 
ATOM      8  C   UNL     1     144.948 140.103 161.784  1.00  0.00     0.012 C 
BRANCH   7   9
ATOM      9  C   UNL     1     146.353 141.881 162.658  1.00  0.00    -0.005 C 
ATOM     10  C   UNL     1     146.809 142.659 163.641  1.00  0.00     0.009 C 
ENDBRANCH   7   9
ENDBRANCH   1   7
TORSDOF 4
ENDMDL
