MODEL 1
REMARK VINA RESULT:    -7.776      0.000      0.000
REMARK INTER + INTRA:          -9.659
REMARK INTER:                  -9.367
REMARK INTRA:                  -0.292
REMARK UNBOUND:                -0.292
REMARK SMILES O=c1c(O)c(-c2ccc(O)c(O)c2)oc2cc(O)cc(O)c12
REMARK SMILES IDX 5 1 3 2 2 3 1 4 22 5 20 6 19 7 17 8 16 9 15 10 14 11 6 12
REMARK SMILES IDX 7 13 8 14 9 15 13 16 11 17 10 18 12 20 4 22 21 24 18 26
REMARK H PARENT 10 19 12 21 4 23 21 25 18 27
REMARK Flexibility Score: inf
ROOT
ATOM      1  C   UNL     1      19.824   0.910  75.911  1.00  0.00     0.180 A 
ATOM      2  C   UNL     1      19.308   1.905  75.064  1.00  0.00     0.208 A 
ATOM      3  C   UNL     1      18.604   2.982  75.628  1.00  0.00     0.238 A 
ATOM      4  O   UNL     1      18.097   3.840  74.860  1.00  0.00    -0.285 OA
ATOM      5  C   UNL     1      18.439   3.058  77.032  1.00  0.00     0.111 A 
ATOM      6  C   UNL     1      17.778   4.123  77.713  1.00  0.00     0.134 A 
ATOM      7  C   UNL     1      17.559   4.031  79.093  1.00  0.00     0.093 A 
ATOM      8  C   UNL     1      18.034   2.940  79.826  1.00  0.00     0.123 A 
ATOM      9  C   UNL     1      18.732   1.923  79.179  1.00  0.00     0.094 A 
ATOM     10  C   UNL     1      18.935   1.970  77.797  1.00  0.00     0.146 A 
ATOM     11  O   UNL     1      19.596   0.976  77.219  1.00  0.00    -0.452 OA
ENDROOT
BRANCH   1  12
ATOM     12  C   UNL     1      20.598  -0.241  75.394  1.00  0.00     0.025 A 
ATOM     13  C   UNL     1      21.946  -0.065  75.044  1.00  0.00     0.016 A 
ATOM     14  C   UNL     1      22.691  -1.132  74.535  1.00  0.00     0.051 A 
ATOM     15  C   UNL     1      22.097  -2.386  74.354  1.00  0.00     0.157 A 
ATOM     16  C   UNL     1      19.998  -1.497  75.193  1.00  0.00     0.062 A 
ATOM     17  C   UNL     1      20.743  -2.569  74.680  1.00  0.00     0.158 A 
BRANCH  15  18
ATOM     18  O   UNL     1      22.866  -3.433  73.846  1.00  0.00    -0.504 OA
ATOM     19  H   UNL     1      22.706  -3.817  72.922  1.00  0.00     0.293 HD
ENDBRANCH  15  18
BRANCH  17  20
ATOM     20  O   UNL     1      20.141  -3.812  74.489  1.00  0.00    -0.504 OA
ATOM     21  H   UNL     1      20.225  -4.554  75.174  1.00  0.00     0.293 HD
ENDBRANCH  17  20
ENDBRANCH   1  12
BRANCH   2  22
ATOM     22  O   UNL     1      19.463   1.799  73.679  1.00  0.00    -0.502 OA
ATOM     23  H   UNL     1      18.714   1.492  73.070  1.00  0.00     0.293 HD
ENDBRANCH   2  22
BRANCH   6  24
ATOM     24  O   UNL     1      17.345   5.299  77.091  1.00  0.00    -0.507 OA
ATOM     25  H   UNL     1      17.738   5.678  76.243  1.00  0.00     0.293 HD
ENDBRANCH   6  24
BRANCH   8  26
ATOM     26  O   UNL     1      17.826   2.862  81.201  1.00  0.00    -0.508 OA
ATOM     27  H   UNL     1      18.339   2.206  81.779  1.00  0.00     0.293 HD
ENDBRANCH   8  26
TORSDOF 6
ENDMDL
MODEL 2
REMARK VINA RESULT:    -7.762      5.298      6.883
REMARK INTER + INTRA:          -9.642
REMARK INTER:                  -9.654
REMARK INTRA:                   0.012
REMARK UNBOUND:                -0.292
REMARK SMILES O=c1c(O)c(-c2ccc(O)c(O)c2)oc2cc(O)cc(O)c12
REMARK SMILES IDX 5 1 3 2 2 3 1 4 22 5 20 6 19 7 17 8 16 9 15 10 14 11 6 12
REMARK SMILES IDX 7 13 8 14 9 15 13 16 11 17 10 18 12 20 4 22 21 24 18 26
REMARK H PARENT 10 19 12 21 4 23 21 25 18 27
REMARK Flexibility Score: inf
ROOT
ATOM      1  C   UNL     1      14.604   3.905  77.968  1.00  0.00     0.180 A 
ATOM      2  C   UNL     1      15.620   4.871  77.859  1.00  0.00     0.208 A 
ATOM      3  C   UNL     1      15.788   5.803  78.896  1.00  0.00     0.238 A 
ATOM      4  O   UNL     1      16.663   6.698  78.766  1.00  0.00    -0.285 OA
ATOM      5  C   UNL     1      14.950   5.748  80.035  1.00  0.00     0.111 A 
ATOM      6  C   UNL     1      15.057   6.618  81.162  1.00  0.00     0.134 A 
ATOM      7  C   UNL     1      14.093   6.558  82.175  1.00  0.00     0.093 A 
ATOM      8  C   UNL     1      13.062   5.616  82.133  1.00  0.00     0.123 A 
ATOM      9  C   UNL     1      12.982   4.724  81.066  1.00  0.00     0.094 A 
ATOM     10  C   UNL     1      13.910   4.783  80.022  1.00  0.00     0.146 A 
ATOM     11  O   UNL     1      13.792   3.921  79.020  1.00  0.00    -0.452 OA
ENDROOT
BRANCH   1  12
ATOM     12  C   UNL     1      14.381   2.874  76.930  1.00  0.00     0.025 A 
ATOM     13  C   UNL     1      15.466   2.113  76.468  1.00  0.00     0.016 A 
ATOM     14  C   UNL     1      15.284   1.148  75.474  1.00  0.00     0.051 A 
ATOM     15  C   UNL     1      14.018   0.941  74.915  1.00  0.00     0.157 A 
ATOM     16  C   UNL     1      13.114   2.678  76.352  1.00  0.00     0.062 A 
ATOM     17  C   UNL     1      12.929   1.711  75.353  1.00  0.00     0.158 A 
BRANCH  15  18
ATOM     18  O   UNL     1      13.866  -0.031  73.926  1.00  0.00    -0.504 OA
ATOM     19  H   UNL     1      14.152  -0.992  74.070  1.00  0.00     0.293 HD
ENDBRANCH  15  18
BRANCH  17  20
ATOM     20  O   UNL     1      11.667   1.519  74.790  1.00  0.00    -0.504 OA
ATOM     21  H   UNL     1      11.555   1.157  73.849  1.00  0.00     0.293 HD
ENDBRANCH  17  20
ENDBRANCH   1  12
BRANCH   2  22
ATOM     22  O   UNL     1      16.421   4.921  76.715  1.00  0.00    -0.502 OA
ATOM     23  H   UNL     1      16.402   5.701  76.070  1.00  0.00     0.293 HD
ENDBRANCH   2  22
BRANCH   6  24
ATOM     24  O   UNL     1      16.100   7.531  81.347  1.00  0.00    -0.507 OA
ATOM     25  H   UNL     1      15.975   8.510  81.558  1.00  0.00     0.293 HD
ENDBRANCH   6  24
BRANCH   8  26
ATOM     26  O   UNL     1      12.114   5.553  83.152  1.00  0.00    -0.508 OA
ATOM     27  H   UNL     1      11.888   4.678  83.612  1.00  0.00     0.293 HD
ENDBRANCH   8  26
TORSDOF 6
ENDMDL
MODEL 3
REMARK VINA RESULT:    -7.728      5.583     11.106
REMARK INTER + INTRA:          -9.601
REMARK INTER:                  -9.287
REMARK INTRA:                  -0.314
REMARK UNBOUND:                -0.292
REMARK SMILES O=c1c(O)c(-c2ccc(O)c(O)c2)oc2cc(O)cc(O)c12
REMARK SMILES IDX 5 1 3 2 2 3 1 4 22 5 20 6 19 7 17 8 16 9 15 10 14 11 6 12
REMARK SMILES IDX 7 13 8 14 9 15 13 16 11 17 10 18 12 20 4 22 21 24 18 26
REMARK H PARENT 10 19 12 21 4 23 21 25 18 27
REMARK Flexibility Score: inf
ROOT
ATOM      1  C   UNL     1      13.845   5.314  81.929  1.00  0.00     0.180 A 
ATOM      2  C   UNL     1      14.479   4.314  82.687  1.00  0.00     0.208 A 
ATOM      3  C   UNL     1      15.617   3.679  82.161  1.00  0.00     0.238 A 
ATOM      4  O   UNL     1      16.146   2.747  82.819  1.00  0.00    -0.285 OA
ATOM      5  C   UNL     1      16.114   4.064  80.892  1.00  0.00     0.111 A 
ATOM      6  C   UNL     1      17.282   3.517  80.281  1.00  0.00     0.134 A 
ATOM      7  C   UNL     1      17.608   3.878  78.968  1.00  0.00     0.093 A 
ATOM      8  C   UNL     1      16.845   4.817  78.269  1.00  0.00     0.123 A 
ATOM      9  C   UNL     1      15.738   5.401  78.879  1.00  0.00     0.094 A 
ATOM     10  C   UNL     1      15.366   5.034  80.175  1.00  0.00     0.146 A 
ATOM     11  O   UNL     1      14.298   5.607  80.715  1.00  0.00    -0.452 OA
ENDROOT
BRANCH   1  12
ATOM     12  C   UNL     1      12.658   6.046  82.427  1.00  0.00     0.025 A 
ATOM     13  C   UNL     1      12.831   7.258  83.113  1.00  0.00     0.016 A 
ATOM     14  C   UNL     1      11.727   7.955  83.609  1.00  0.00     0.051 A 
ATOM     15  C   UNL     1      10.435   7.445  83.441  1.00  0.00     0.157 A 
ATOM     16  C   UNL     1      11.360   5.524  82.277  1.00  0.00     0.062 A 
ATOM     17  C   UNL     1      10.250   6.222  82.776  1.00  0.00     0.158 A 
BRANCH  15  18
ATOM     18  O   UNL     1       9.352   8.164  83.945  1.00  0.00    -0.504 OA
ATOM     19  H   UNL     1       9.234   9.155  83.766  1.00  0.00     0.293 HD
ENDBRANCH  15  18
BRANCH  17  20
ATOM     20  O   UNL     1       8.967   5.700  82.618  1.00  0.00    -0.504 OA
ATOM     21  H   UNL     1       8.606   5.443  81.706  1.00  0.00     0.293 HD
ENDBRANCH  17  20
ENDBRANCH   1  12
BRANCH   2  22
ATOM     22  O   UNL     1      13.958   3.934  83.926  1.00  0.00    -0.502 OA
ATOM     23  H   UNL     1      13.312   4.516  84.447  1.00  0.00     0.293 HD
ENDBRANCH   2  22
BRANCH   6  24
ATOM     24  O   UNL     1      18.163   2.642  80.924  1.00  0.00    -0.507 OA
ATOM     25  H   UNL     1      18.169   2.459  81.916  1.00  0.00     0.293 HD
ENDBRANCH   6  24
BRANCH   8  26
ATOM     26  O   UNL     1      17.185   5.183  76.969  1.00  0.00    -0.508 OA
ATOM     27  H   UNL     1      17.363   4.489  76.251  1.00  0.00     0.293 HD
ENDBRANCH   8  26
TORSDOF 6
ENDMDL
MODEL 4
REMARK VINA RESULT:    -7.705      3.959      8.166
REMARK INTER + INTRA:          -9.574
REMARK INTER:                  -9.296
REMARK INTRA:                  -0.278
REMARK UNBOUND:                -0.292
REMARK SMILES O=c1c(O)c(-c2ccc(O)c(O)c2)oc2cc(O)cc(O)c12
REMARK SMILES IDX 5 1 3 2 2 3 1 4 22 5 20 6 19 7 17 8 16 9 15 10 14 11 6 12
REMARK SMILES IDX 7 13 8 14 9 15 13 16 11 17 10 18 12 20 4 22 21 24 18 26
REMARK H PARENT 10 19 12 21 4 23 21 25 18 27
REMARK Flexibility Score: inf
ROOT
ATOM      1  C   UNL     1      16.698   4.145  79.301  1.00  0.00     0.180 A 
ATOM      2  C   UNL     1      15.583   3.818  78.510  1.00  0.00     0.208 A 
ATOM      3  C   UNL     1      15.783   3.466  77.164  1.00  0.00     0.238 A 
ATOM      4  O   UNL     1      14.777   3.228  76.447  1.00  0.00    -0.285 OA
ATOM      5  C   UNL     1      17.095   3.430  76.633  1.00  0.00     0.111 A 
ATOM      6  C   UNL     1      17.417   3.050  75.296  1.00  0.00     0.134 A 
ATOM      7  C   UNL     1      18.734   3.176  74.839  1.00  0.00     0.093 A 
ATOM      8  C   UNL     1      19.753   3.608  75.692  1.00  0.00     0.123 A 
ATOM      9  C   UNL     1      19.459   3.925  77.016  1.00  0.00     0.094 A 
ATOM     10  C   UNL     1      18.147   3.844  77.490  1.00  0.00     0.146 A 
ATOM     11  O   UNL     1      17.909   4.165  78.756  1.00  0.00    -0.452 OA
ENDROOT
BRANCH   1  12
ATOM     12  C   UNL     1      16.570   4.500  80.733  1.00  0.00     0.025 A 
ATOM     13  C   UNL     1      16.339   3.489  81.678  1.00  0.00     0.016 A 
ATOM     14  C   UNL     1      16.195   3.803  83.031  1.00  0.00     0.051 A 
ATOM     15  C   UNL     1      16.265   5.133  83.460  1.00  0.00     0.157 A 
ATOM     16  C   UNL     1      16.620   5.839  81.163  1.00  0.00     0.062 A 
ATOM     17  C   UNL     1      16.474   6.156  82.521  1.00  0.00     0.158 A 
BRANCH  15  18
ATOM     18  O   UNL     1      16.120   5.416  84.817  1.00  0.00    -0.504 OA
ATOM     19  H   UNL     1      15.220   5.378  85.281  1.00  0.00     0.293 HD
ENDBRANCH  15  18
BRANCH  17  20
ATOM     20  O   UNL     1      16.530   7.486  82.939  1.00  0.00    -0.504 OA
ATOM     21  H   UNL     1      15.870   7.859  83.612  1.00  0.00     0.293 HD
ENDBRANCH  17  20
ENDBRANCH   1  12
BRANCH   2  22
ATOM     22  O   UNL     1      14.296   3.881  79.048  1.00  0.00    -0.502 OA
ATOM     23  H   UNL     1      13.515   4.286  78.546  1.00  0.00     0.293 HD
ENDBRANCH   2  22
BRANCH   6  24
ATOM     24  O   UNL     1      16.492   2.520  74.391  1.00  0.00    -0.507 OA
ATOM     25  H   UNL     1      16.185   2.980  73.547  1.00  0.00     0.293 HD
ENDBRANCH   6  24
BRANCH   8  26
ATOM     26  O   UNL     1      21.065   3.716  75.236  1.00  0.00    -0.508 OA
ATOM     27  H   UNL     1      21.855   3.518  75.839  1.00  0.00     0.293 HD
ENDBRANCH   8  26
TORSDOF 6
ENDMDL
MODEL 5
REMARK VINA RESULT:    -7.693      3.131      7.096
REMARK INTER + INTRA:          -9.559
REMARK INTER:                  -9.460
REMARK INTRA:                  -0.100
REMARK UNBOUND:                -0.292
REMARK SMILES O=c1c(O)c(-c2ccc(O)c(O)c2)oc2cc(O)cc(O)c12
REMARK SMILES IDX 5 1 3 2 2 3 1 4 22 5 20 6 19 7 17 8 16 9 15 10 14 11 6 12
REMARK SMILES IDX 7 13 8 14 9 15 13 16 11 17 10 18 12 20 4 22 21 24 18 26
REMARK H PARENT 10 19 12 21 4 23 21 25 18 27
REMARK Flexibility Score: inf
ROOT
ATOM      1  C   UNL     1      17.759   1.134  79.883  1.00  0.00     0.180 A 
ATOM      2  C   UNL     1      18.575   2.262  80.070  1.00  0.00     0.208 A 
ATOM      3  C   UNL     1      19.460   2.640  79.046  1.00  0.00     0.238 A 
ATOM      4  O   UNL     1      20.227   3.618  79.241  1.00  0.00    -0.285 OA
ATOM      5  C   UNL     1      19.505   1.893  77.843  1.00  0.00     0.111 A 
ATOM      6  C   UNL     1      20.334   2.209  76.726  1.00  0.00     0.134 A 
ATOM      7  C   UNL     1      20.393   1.328  75.639  1.00  0.00     0.093 A 
ATOM      8  C   UNL     1      19.605   0.175  75.603  1.00  0.00     0.123 A 
ATOM      9  C   UNL     1      18.748  -0.111  76.664  1.00  0.00     0.094 A 
ATOM     10  C   UNL     1      18.694   0.731  77.777  1.00  0.00     0.146 A 
ATOM     11  O   UNL     1      17.871   0.417  78.771  1.00  0.00    -0.452 OA
ENDROOT
BRANCH   1  12
ATOM     12  C   UNL     1      16.784   0.689  80.905  1.00  0.00     0.025 A 
ATOM     13  C   UNL     1      15.775   1.569  81.327  1.00  0.00     0.016 A 
ATOM     14  C   UNL     1      14.856   1.178  82.304  1.00  0.00     0.051 A 
ATOM     15  C   UNL     1      14.942  -0.091  82.887  1.00  0.00     0.157 A 
ATOM     16  C   UNL     1      16.880  -0.579  81.507  1.00  0.00     0.062 A 
ATOM     17  C   UNL     1      15.961  -0.972  82.490  1.00  0.00     0.158 A 
BRANCH  15  18
ATOM     18  O   UNL     1      14.009  -0.454  83.858  1.00  0.00    -0.504 OA
ATOM     19  H   UNL     1      13.164  -0.963  83.627  1.00  0.00     0.293 HD
ENDBRANCH  15  18
BRANCH  17  20
ATOM     20  O   UNL     1      16.060  -2.233  83.077  1.00  0.00    -0.504 OA
ATOM     21  H   UNL     1      16.118  -3.077  82.517  1.00  0.00     0.293 HD
ENDBRANCH  17  20
ENDBRANCH   1  12
BRANCH   2  22
ATOM     22  O   UNL     1      18.531   2.971  81.273  1.00  0.00    -0.502 OA
ATOM     23  H   UNL     1      19.367   3.273  81.759  1.00  0.00     0.293 HD
ENDBRANCH   2  22
BRANCH   6  24
ATOM     24  O   UNL     1      21.091   3.379  76.620  1.00  0.00    -0.507 OA
ATOM     25  H   UNL     1      21.549   3.694  75.778  1.00  0.00     0.293 HD
ENDBRANCH   6  24
BRANCH   8  26
ATOM     26  O   UNL     1      19.658  -0.689  74.512  1.00  0.00    -0.508 OA
ATOM     27  H   UNL     1      18.910  -1.346  74.319  1.00  0.00     0.293 HD
ENDBRANCH   8  26
TORSDOF 6
ENDMDL
MODEL 6
REMARK VINA RESULT:    -7.684      4.026      8.213
REMARK INTER + INTRA:          -9.549
REMARK INTER:                  -9.329
REMARK INTRA:                  -0.219
REMARK UNBOUND:                -0.292
REMARK SMILES O=c1c(O)c(-c2ccc(O)c(O)c2)oc2cc(O)cc(O)c12
REMARK SMILES IDX 5 1 3 2 2 3 1 4 22 5 20 6 19 7 17 8 16 9 15 10 14 11 6 12
REMARK SMILES IDX 7 13 8 14 9 15 13 16 11 17 10 18 12 20 4 22 21 24 18 26
REMARK H PARENT 10 19 12 21 4 23 21 25 18 27
REMARK Flexibility Score: inf
ROOT
ATOM      1  C   UNL     1      15.718   4.002  78.304  1.00  0.00     0.180 A 
ATOM      2  C   UNL     1      14.529   3.327  77.977  1.00  0.00     0.208 A 
ATOM      3  C   UNL     1      14.471   2.589  76.783  1.00  0.00     0.238 A 
ATOM      4  O   UNL     1      13.387   2.033  76.469  1.00  0.00    -0.285 OA
ATOM      5  C   UNL     1      15.608   2.522  75.941  1.00  0.00     0.111 A 
ATOM      6  C   UNL     1      15.673   1.771  74.729  1.00  0.00     0.134 A 
ATOM      7  C   UNL     1      16.803   1.881  73.909  1.00  0.00     0.093 A 
ATOM      8  C   UNL     1      17.896   2.664  74.290  1.00  0.00     0.123 A 
ATOM      9  C   UNL     1      17.864   3.354  75.499  1.00  0.00     0.094 A 
ATOM     10  C   UNL     1      16.737   3.292  76.322  1.00  0.00     0.146 A 
ATOM     11  O   UNL     1      16.744   3.973  77.461  1.00  0.00    -0.452 OA
ENDROOT
BRANCH   1  12
ATOM     12  C   UNL     1      15.864   4.779  79.556  1.00  0.00     0.025 A 
ATOM     13  C   UNL     1      15.194   6.005  79.690  1.00  0.00     0.016 A 
ATOM     14  C   UNL     1      15.333   6.765  80.854  1.00  0.00     0.051 A 
ATOM     15  C   UNL     1      16.155   6.320  81.895  1.00  0.00     0.157 A 
ATOM     16  C   UNL     1      16.706   4.343  80.595  1.00  0.00     0.062 A 
ATOM     17  C   UNL     1      16.849   5.105  81.763  1.00  0.00     0.158 A 
BRANCH  15  18
ATOM     18  O   UNL     1      16.273   7.098  83.046  1.00  0.00    -0.504 OA
ATOM     19  H   UNL     1      16.663   6.730  83.905  1.00  0.00     0.293 HD
ENDBRANCH  15  18
BRANCH  17  20
ATOM     20  O   UNL     1      17.681   4.662  82.791  1.00  0.00    -0.504 OA
ATOM     21  H   UNL     1      17.594   3.729  83.180  1.00  0.00     0.293 HD
ENDBRANCH  17  20
ENDBRANCH   1  12
BRANCH   2  22
ATOM     22  O   UNL     1      13.412   3.426  78.811  1.00  0.00    -0.502 OA
ATOM     23  H   UNL     1      13.409   3.990  79.652  1.00  0.00     0.293 HD
ENDBRANCH   2  22
BRANCH   6  24
ATOM     24  O   UNL     1      14.677   0.889  74.301  1.00  0.00    -0.507 OA
ATOM     25  H   UNL     1      13.940   1.124  73.653  1.00  0.00     0.293 HD
ENDBRANCH   6  24
BRANCH   8  26
ATOM     26  O   UNL     1      19.023   2.756  73.476  1.00  0.00    -0.508 OA
ATOM     27  H   UNL     1      19.359   3.650  73.136  1.00  0.00     0.293 HD
ENDBRANCH   8  26
TORSDOF 6
ENDMDL
MODEL 7
REMARK VINA RESULT:    -7.671      3.737      5.704
REMARK INTER + INTRA:          -9.533
REMARK INTER:                  -9.272
REMARK INTRA:                  -0.261
REMARK UNBOUND:                -0.292
REMARK SMILES O=c1c(O)c(-c2ccc(O)c(O)c2)oc2cc(O)cc(O)c12
REMARK SMILES IDX 5 1 3 2 2 3 1 4 22 5 20 6 19 7 17 8 16 9 15 10 14 11 6 12
REMARK SMILES IDX 7 13 8 14 9 15 13 16 11 17 10 18 12 20 4 22 21 24 18 26
REMARK H PARENT 10 19 12 21 4 23 21 25 18 27
REMARK Flexibility Score: inf
ROOT
ATOM      1  C   UNL     1      17.602   3.307  78.809  1.00  0.00     0.180 A 
ATOM      2  C   UNL     1      17.405   2.144  79.575  1.00  0.00     0.208 A 
ATOM      3  C   UNL     1      16.993   2.271  80.912  1.00  0.00     0.238 A 
ATOM      4  O   UNL     1      16.872   1.230  81.607  1.00  0.00    -0.285 OA
ATOM      5  C   UNL     1      16.769   3.557  81.461  1.00  0.00     0.111 A 
ATOM      6  C   UNL     1      16.313   3.800  82.791  1.00  0.00     0.134 A 
ATOM      7  C   UNL     1      16.250   5.115  83.270  1.00  0.00     0.093 A 
ATOM      8  C   UNL     1      16.566   6.197  82.445  1.00  0.00     0.123 A 
ATOM      9  C   UNL     1      16.955   5.972  81.127  1.00  0.00     0.094 A 
ATOM     10  C   UNL     1      17.062   4.670  80.631  1.00  0.00     0.146 A 
ATOM     11  O   UNL     1      17.446   4.500  79.372  1.00  0.00    -0.452 OA
ENDROOT
BRANCH   1  12
ATOM     12  C   UNL     1      18.010   3.254  77.387  1.00  0.00     0.025 A 
ATOM     13  C   UNL     1      17.076   2.866  76.414  1.00  0.00     0.016 A 
ATOM     14  C   UNL     1      17.443   2.789  75.069  1.00  0.00     0.051 A 
ATOM     15  C   UNL     1      18.754   3.084  74.676  1.00  0.00     0.157 A 
ATOM     16  C   UNL     1      19.332   3.530  76.993  1.00  0.00     0.062 A 
ATOM     17  C   UNL     1      19.704   3.452  75.643  1.00  0.00     0.158 A 
BRANCH  15  18
ATOM     18  O   UNL     1      19.091   3.001  73.326  1.00  0.00    -0.504 OA
ATOM     19  H   UNL     1      20.051   2.894  73.018  1.00  0.00     0.293 HD
ENDBRANCH  15  18
BRANCH  17  20
ATOM     20  O   UNL     1      21.015   3.733  75.261  1.00  0.00    -0.504 OA
ATOM     21  H   UNL     1      21.250   3.968  74.303  1.00  0.00     0.293 HD
ENDBRANCH  17  20
ENDBRANCH   1  12
BRANCH   2  22
ATOM     22  O   UNL     1      17.654   0.887  79.019  1.00  0.00    -0.502 OA
ATOM     23  H   UNL     1      17.022   0.448  78.360  1.00  0.00     0.293 HD
ENDBRANCH   2  22
BRANCH   6  24
ATOM     24  O   UNL     1      15.886   2.797  83.667  1.00  0.00    -0.507 OA
ATOM     25  H   UNL     1      16.148   2.734  84.639  1.00  0.00     0.293 HD
ENDBRANCH   6  24
BRANCH   8  26
ATOM     26  O   UNL     1      16.486   7.503  82.924  1.00  0.00    -0.508 OA
ATOM     27  H   UNL     1      15.747   8.131  82.630  1.00  0.00     0.293 HD
ENDBRANCH   8  26
TORSDOF 6
ENDMDL
MODEL 8
REMARK VINA RESULT:    -7.647      3.925      6.493
REMARK INTER + INTRA:          -9.503
REMARK INTER:                  -9.422
REMARK INTRA:                  -0.082
REMARK UNBOUND:                -0.292
REMARK SMILES O=c1c(O)c(-c2ccc(O)c(O)c2)oc2cc(O)cc(O)c12
REMARK SMILES IDX 5 1 3 2 2 3 1 4 22 5 20 6 19 7 17 8 16 9 15 10 14 11 6 12
REMARK SMILES IDX 7 13 8 14 9 15 13 16 11 17 10 18 12 20 4 22 21 24 18 26
REMARK H PARENT 10 19 12 21 4 23 21 25 18 27
REMARK Flexibility Score: inf
ROOT
ATOM      1  C   UNL     1      16.789   4.267  79.017  1.00  0.00     0.180 A 
ATOM      2  C   UNL     1      17.056   4.844  80.271  1.00  0.00     0.208 A 
ATOM      3  C   UNL     1      16.000   5.011  81.182  1.00  0.00     0.238 A 
ATOM      4  O   UNL     1      16.235   5.579  82.280  1.00  0.00    -0.285 OA
ATOM      5  C   UNL     1      14.695   4.585  80.834  1.00  0.00     0.111 A 
ATOM      6  C   UNL     1      13.560   4.670  81.695  1.00  0.00     0.134 A 
ATOM      7  C   UNL     1      12.293   4.338  81.201  1.00  0.00     0.093 A 
ATOM      8  C   UNL     1      12.130   3.864  79.897  1.00  0.00     0.123 A 
ATOM      9  C   UNL     1      13.240   3.722  79.068  1.00  0.00     0.094 A 
ATOM     10  C   UNL     1      14.513   4.078  79.522  1.00  0.00     0.146 A 
ATOM     11  O   UNL     1      15.543   3.937  78.696  1.00  0.00    -0.452 OA
ENDROOT
BRANCH   1  12
ATOM     12  C   UNL     1      17.853   4.034  78.014  1.00  0.00     0.025 A 
ATOM     13  C   UNL     1      18.967   3.252  78.357  1.00  0.00     0.016 A 
ATOM     14  C   UNL     1      19.992   3.036  77.434  1.00  0.00     0.051 A 
ATOM     15  C   UNL     1      19.930   3.611  76.160  1.00  0.00     0.157 A 
ATOM     16  C   UNL     1      17.801   4.628  76.740  1.00  0.00     0.062 A 
ATOM     17  C   UNL     1      18.831   4.414  75.812  1.00  0.00     0.158 A 
BRANCH  15  18
ATOM     18  O   UNL     1      20.967   3.375  75.258  1.00  0.00    -0.504 OA
ATOM     19  H   UNL     1      21.066   3.909  74.403  1.00  0.00     0.293 HD
ENDBRANCH  15  18
BRANCH  17  20
ATOM     20  O   UNL     1      18.769   5.002  74.549  1.00  0.00    -0.504 OA
ATOM     21  H   UNL     1      18.199   4.609  73.808  1.00  0.00     0.293 HD
ENDBRANCH  17  20
ENDBRANCH   1  12
BRANCH   2  22
ATOM     22  O   UNL     1      18.347   5.278  80.584  1.00  0.00    -0.502 OA
ATOM     23  H   UNL     1      19.007   5.579  79.877  1.00  0.00     0.293 HD
ENDBRANCH   2  22
BRANCH   6  24
ATOM     24  O   UNL     1      13.626   5.044  83.041  1.00  0.00    -0.507 OA
ATOM     25  H   UNL     1      13.180   4.547  83.797  1.00  0.00     0.293 HD
ENDBRANCH   6  24
BRANCH   8  26
ATOM     26  O   UNL     1      10.867   3.522  79.417  1.00  0.00    -0.508 OA
ATOM     27  H   UNL     1      10.389   4.092  78.729  1.00  0.00     0.293 HD
ENDBRANCH   8  26
TORSDOF 6
ENDMDL
MODEL 9
REMARK VINA RESULT:    -7.633      2.656      7.622
REMARK INTER + INTRA:          -9.487
REMARK INTER:                  -9.387
REMARK INTRA:                  -0.100
REMARK UNBOUND:                -0.292
REMARK SMILES O=c1c(O)c(-c2ccc(O)c(O)c2)oc2cc(O)cc(O)c12
REMARK SMILES IDX 5 1 3 2 2 3 1 4 22 5 20 6 19 7 17 8 16 9 15 10 14 11 6 12
REMARK SMILES IDX 7 13 8 14 9 15 13 16 11 17 10 18 12 20 4 22 21 24 18 26
REMARK H PARENT 10 19 12 21 4 23 21 25 18 27
REMARK Flexibility Score: inf
ROOT
ATOM      1  C   UNL     1      17.803   3.360  79.036  1.00  0.00     0.180 A 
ATOM      2  C   UNL     1      18.452   3.675  77.830  1.00  0.00     0.208 A 
ATOM      3  C   UNL     1      18.807   2.634  76.956  1.00  0.00     0.238 A 
ATOM      4  O   UNL     1      19.437   2.918  75.904  1.00  0.00    -0.285 OA
ATOM      5  C   UNL     1      18.495   1.294  77.292  1.00  0.00     0.111 A 
ATOM      6  C   UNL     1      18.772   0.166  76.463  1.00  0.00     0.134 A 
ATOM      7  C   UNL     1      18.538  -1.125  76.952  1.00  0.00     0.093 A 
ATOM      8  C   UNL     1      17.975  -1.325  78.216  1.00  0.00     0.123 A 
ATOM      9  C   UNL     1      17.646  -0.227  79.008  1.00  0.00     0.094 A 
ATOM     10  C   UNL     1      17.902   1.072  78.562  1.00  0.00     0.146 A 
ATOM     11  O   UNL     1      17.582   2.089  79.352  1.00  0.00    -0.452 OA
ENDROOT
BRANCH   1  12
ATOM     12  C   UNL     1      17.374   4.403  79.996  1.00  0.00     0.025 A 
ATOM     13  C   UNL     1      16.486   5.406  79.576  1.00  0.00     0.016 A 
ATOM     14  C   UNL     1      16.084   6.411  80.458  1.00  0.00     0.051 A 
ATOM     15  C   UNL     1      16.575   6.440  81.768  1.00  0.00     0.157 A 
ATOM     16  C   UNL     1      17.882   4.445  81.307  1.00  0.00     0.062 A 
ATOM     17  C   UNL     1      17.481   5.455  82.194  1.00  0.00     0.158 A 
BRANCH  15  18
ATOM     18  O   UNL     1      16.154   7.454  82.627  1.00  0.00    -0.504 OA
ATOM     19  H   UNL     1      15.192   7.772  82.652  1.00  0.00     0.293 HD
ENDBRANCH  15  18
BRANCH  17  20
ATOM     20  O   UNL     1      17.985   5.486  83.494  1.00  0.00    -0.504 OA
ATOM     21  H   UNL     1      17.387   5.672  84.291  1.00  0.00     0.293 HD
ENDBRANCH  17  20
ENDBRANCH   1  12
BRANCH   2  22
ATOM     22  O   UNL     1      18.771   5.001  77.529  1.00  0.00    -0.502 OA
ATOM     23  H   UNL     1      19.700   5.287  77.246  1.00  0.00     0.293 HD
ENDBRANCH   2  22
BRANCH   6  24
ATOM     24  O   UNL     1      19.249   0.259  75.152  1.00  0.00    -0.507 OA
ATOM     25  H   UNL     1      19.314  -0.516  74.509  1.00  0.00     0.293 HD
ENDBRANCH   6  24
BRANCH   8  26
ATOM     26  O   UNL     1      17.730  -2.611  78.690  1.00  0.00    -0.508 OA
ATOM     27  H   UNL     1      17.030  -2.790  79.401  1.00  0.00     0.293 HD
ENDBRANCH   8  26
TORSDOF 6
ENDMDL
