MODEL 1
REMARK VINA RESULT:    -3.081      0.000      0.000
REMARK INTER + INTRA:          -3.171
REMARK INTER:                  -3.171
REMARK INTRA:                   0.000
REMARK UNBOUND:                 0.000
REMARK SMILES CC1(C)[C@@H]2CC[C@@](C)(C2)[C@@H]1O
REMARK SMILES IDX 1 1 2 2 4 3 5 4 6 5 7 6 9 7 10 8 8 9 3 10 11 11
REMARK H PARENT 11 12
REMARK Flexibility Score: inf
ROOT
ATOM      1  C   UNL     1     117.222 119.270 115.289  1.00  0.00     0.014 C 
ATOM      2  C   UNL     1     118.476 119.135 114.388  1.00  0.00    -0.006 C 
ATOM      3  C   UNL     1     118.273 119.729 112.951  1.00  0.00    -0.002 C 
ATOM      4  C   UNL     1     116.964 119.216 112.316  1.00  0.00     0.005 C 
ATOM      5  C   UNL     1     117.256 117.724 112.091  1.00  0.00     0.010 C 
ATOM      6  C   UNL     1     118.738 117.598 112.522  1.00  0.00    -0.006 C 
ATOM      7  C   UNL     1     119.284 118.952 112.125  1.00  0.00     0.013 C 
ATOM      8  C   UNL     1     118.861 117.652 114.065  1.00  0.00     0.126 C 
ATOM      9  C   UNL     1     119.471 116.416 111.879  1.00  0.00     0.014 C 
ATOM     10  C   UNL     1     119.641 119.863 115.105  1.00  0.00     0.014 C 
ENDROOT
BRANCH   8  11
ATOM     11  O   UNL     1     118.022 116.705 114.678  1.00  0.00    -0.392 OA
ATOM     12  H   UNL     1     118.196 116.765 115.653  1.00  0.00     0.211 HD
ENDBRANCH   8  11
TORSDOF 1
ENDMDL
MODEL 2
REMARK VINA RESULT:    -3.050      4.365      5.840
REMARK INTER + INTRA:          -3.139
REMARK INTER:                  -3.139
REMARK INTRA:                   0.000
REMARK UNBOUND:                 0.000
REMARK SMILES CC1(C)[C@@H]2CC[C@@](C)(C2)[C@@H]1O
REMARK SMILES IDX 1 1 2 2 4 3 5 4 6 5 7 6 9 7 10 8 8 9 3 10 11 11
REMARK H PARENT 11 12
REMARK Flexibility Score: inf
ROOT
ATOM      1  C   UNL     1     115.593 113.885 115.316  1.00  0.00     0.014 C 
ATOM      2  C   UNL     1     114.485 114.093 114.251  1.00  0.00    -0.006 C 
ATOM      3  C   UNL     1     114.915 113.638 112.814  1.00  0.00    -0.002 C 
ATOM      4  C   UNL     1     116.293 114.220 112.433  1.00  0.00     0.005 C 
ATOM      5  C   UNL     1     116.004 115.723 112.304  1.00  0.00     0.010 C 
ATOM      6  C   UNL     1     114.472 115.796 112.514  1.00  0.00    -0.006 C 
ATOM      7  C   UNL     1     114.022 114.480 111.917  1.00  0.00     0.013 C 
ATOM      8  C   UNL     1     114.120 115.596 114.010  1.00  0.00     0.126 C 
ATOM      9  C   UNL     1     113.817 117.026 111.879  1.00  0.00     0.014 C 
ATOM     10  C   UNL     1     113.243 113.291 114.714  1.00  0.00     0.014 C 
ENDROOT
BRANCH   8  11
ATOM     11  O   UNL     1     114.835 116.489 114.827  1.00  0.00    -0.392 OA
ATOM     12  H   UNL     1     114.457 116.399 115.740  1.00  0.00     0.211 HD
ENDBRANCH   8  11
TORSDOF 1
ENDMDL
MODEL 3
REMARK VINA RESULT:    -3.026     10.935     11.975
REMARK INTER + INTRA:          -3.115
REMARK INTER:                  -3.115
REMARK INTRA:                   0.000
REMARK UNBOUND:                 0.000
REMARK SMILES CC1(C)[C@@H]2CC[C@@](C)(C2)[C@@H]1O
REMARK SMILES IDX 1 1 2 2 4 3 5 4 6 5 7 6 9 7 10 8 8 9 3 10 11 11
REMARK H PARENT 11 12
REMARK Flexibility Score: inf
ROOT
ATOM      1  C   UNL     1     110.555 110.574 119.082  1.00  0.00     0.014 C 
ATOM      2  C   UNL     1     110.398 111.897 118.288  1.00  0.00    -0.006 C 
ATOM      3  C   UNL     1     109.143 112.732 118.718  1.00  0.00    -0.002 C 
ATOM      4  C   UNL     1     107.876 111.851 118.761  1.00  0.00     0.005 C 
ATOM      5  C   UNL     1     107.642 111.517 117.280  1.00  0.00     0.010 C 
ATOM      6  C   UNL     1     108.740 112.344 116.566  1.00  0.00    -0.006 C 
ATOM      7  C   UNL     1     108.846 113.551 117.473  1.00  0.00     0.013 C 
ATOM      8  C   UNL     1     110.128 111.684 116.760  1.00  0.00     0.126 C 
ATOM      9  C   UNL     1     108.410 112.684 115.109  1.00  0.00     0.014 C 
ATOM     10  C   UNL     1     111.689 112.724 118.510  1.00  0.00     0.014 C 
ENDROOT
BRANCH   8  11
ATOM     11  O   UNL     1     110.111 110.333 116.372  1.00  0.00    -0.392 OA
ATOM     12  H   UNL     1     110.396 109.809 117.166  1.00  0.00     0.211 HD
ENDBRANCH   8  11
TORSDOF 1
ENDMDL
MODEL 4
REMARK VINA RESULT:    -3.026      2.874      4.174
REMARK INTER + INTRA:          -3.114
REMARK INTER:                  -3.114
REMARK INTRA:                   0.000
REMARK UNBOUND:                 0.000
REMARK SMILES CC1(C)[C@@H]2CC[C@@](C)(C2)[C@@H]1O
REMARK SMILES IDX 1 1 2 2 4 3 5 4 6 5 7 6 9 7 10 8 8 9 3 10 11 11
REMARK H PARENT 11 12
REMARK Flexibility Score: inf
ROOT
ATOM      1  C   UNL     1     119.246 115.404 115.618  1.00  0.00     0.014 C 
ATOM      2  C   UNL     1     119.123 114.464 114.391  1.00  0.00    -0.006 C 
ATOM      3  C   UNL     1     119.570 115.139 113.048  1.00  0.00    -0.002 C 
ATOM      4  C   UNL     1     118.908 116.521 112.871  1.00  0.00     0.005 C 
ATOM      5  C   UNL     1     117.428 116.166 112.663  1.00  0.00     0.010 C 
ATOM      6  C   UNL     1     117.449 114.618 112.633  1.00  0.00    -0.006 C 
ATOM      7  C   UNL     1     118.799 114.346 112.005  1.00  0.00     0.013 C 
ATOM      8  C   UNL     1     117.649 114.050 114.061  1.00  0.00     0.126 C 
ATOM      9  C   UNL     1     116.272 113.997 111.875  1.00  0.00     0.014 C 
ATOM     10  C   UNL     1     119.995 113.216 114.676  1.00  0.00     0.014 C 
ENDROOT
BRANCH   8  11
ATOM     11  O   UNL     1     116.701 114.575 114.956  1.00  0.00    -0.392 OA
ATOM     12  H   UNL     1     115.875 114.733 114.430  1.00  0.00     0.211 HD
ENDBRANCH   8  11
TORSDOF 1
ENDMDL
MODEL 5
REMARK VINA RESULT:    -3.023      2.727      4.029
REMARK INTER + INTRA:          -3.111
REMARK INTER:                  -3.111
REMARK INTRA:                   0.000
REMARK UNBOUND:                 0.000
REMARK SMILES CC1(C)[C@@H]2CC[C@@](C)(C2)[C@@H]1O
REMARK SMILES IDX 1 1 2 2 4 3 5 4 6 5 7 6 9 7 10 8 8 9 3 10 11 11
REMARK H PARENT 11 12
REMARK Flexibility Score: inf
ROOT
ATOM      1  C   UNL     1     113.981 117.527 115.235  1.00  0.00     0.014 C 
ATOM      2  C   UNL     1     114.124 118.687 114.216  1.00  0.00    -0.006 C 
ATOM      3  C   UNL     1     113.692 118.291 112.762  1.00  0.00    -0.002 C 
ATOM      4  C   UNL     1     114.350 116.965 112.326  1.00  0.00     0.005 C 
ATOM      5  C   UNL     1     115.834 117.343 112.210  1.00  0.00     0.010 C 
ATOM      6  C   UNL     1     115.821 118.867 112.482  1.00  0.00    -0.006 C 
ATOM      7  C   UNL     1     114.480 119.265 111.903  1.00  0.00     0.013 C 
ATOM      8  C   UNL     1     115.604 119.146 113.991  1.00  0.00     0.126 C 
ATOM      9  C   UNL     1     117.011 119.615 111.875  1.00  0.00     0.014 C 
ATOM     10  C   UNL     1     113.255 119.862 114.728  1.00  0.00     0.014 C 
ENDROOT
BRANCH   8  11
ATOM     11  O   UNL     1     116.538 118.449 114.779  1.00  0.00    -0.392 OA
ATOM     12  H   UNL     1     117.129 119.135 115.185  1.00  0.00     0.211 HD
ENDBRANCH   8  11
TORSDOF 1
ENDMDL
MODEL 6
REMARK VINA RESULT:    -2.984      6.638      7.875
REMARK INTER + INTRA:          -3.071
REMARK INTER:                  -3.071
REMARK INTRA:                   0.000
REMARK UNBOUND:                 0.000
REMARK SMILES CC1(C)[C@@H]2CC[C@@](C)(C2)[C@@H]1O
REMARK SMILES IDX 1 1 2 2 4 3 5 4 6 5 7 6 9 7 10 8 8 9 3 10 11 11
REMARK H PARENT 11 12
REMARK Flexibility Score: inf
ROOT
ATOM      1  C   UNL     1     122.262 122.530 119.367  1.00  0.00     0.014 C 
ATOM      2  C   UNL     1     122.460 121.231 118.543  1.00  0.00    -0.006 C 
ATOM      3  C   UNL     1     123.626 120.330 119.079  1.00  0.00    -0.002 C 
ATOM      4  C   UNL     1     124.911 121.155 119.301  1.00  0.00     0.005 C 
ATOM      5  C   UNL     1     125.325 121.532 117.871  1.00  0.00     0.010 C 
ATOM      6  C   UNL     1     124.287 120.777 117.004  1.00  0.00    -0.006 C 
ATOM      7  C   UNL     1     124.032 119.544 117.844  1.00  0.00     0.013 C 
ATOM      8  C   UNL     1     122.911 121.487 117.066  1.00  0.00     0.126 C 
ATOM      9  C   UNL     1     124.770 120.476 115.582  1.00  0.00     0.014 C 
ATOM     10  C   UNL     1     121.122 120.451 118.584  1.00  0.00     0.014 C 
ENDROOT
BRANCH   8  11
ATOM     11  O   UNL     1     123.024 122.849 116.737  1.00  0.00    -0.392 OA
ATOM     12  H   UNL     1     123.656 122.903 115.975  1.00  0.00     0.211 HD
ENDBRANCH   8  11
TORSDOF 1
ENDMDL
MODEL 7
REMARK VINA RESULT:    -2.970     12.216     13.332
REMARK INTER + INTRA:          -3.057
REMARK INTER:                  -3.057
REMARK INTRA:                   0.000
REMARK UNBOUND:                 0.000
REMARK SMILES CC1(C)[C@@H]2CC[C@@](C)(C2)[C@@H]1O
REMARK SMILES IDX 1 1 2 2 4 3 5 4 6 5 7 6 9 7 10 8 8 9 3 10 11 11
REMARK H PARENT 11 12
REMARK Flexibility Score: inf
ROOT
ATOM      1  C   UNL     1     109.172 108.531 116.033  1.00  0.00     0.014 C 
ATOM      2  C   UNL     1     108.690 109.466 117.172  1.00  0.00    -0.006 C 
ATOM      3  C   UNL     1     107.264 110.067 116.919  1.00  0.00    -0.002 C 
ATOM      4  C   UNL     1     107.157 110.669 115.502  1.00  0.00     0.005 C 
ATOM      5  C   UNL     1     108.092 111.885 115.576  1.00  0.00     0.010 C 
ATOM      6  C   UNL     1     108.528 111.890 117.061  1.00  0.00    -0.006 C 
ATOM      7  C   UNL     1     107.291 111.344 117.741  1.00  0.00     0.013 C 
ATOM      8  C   UNL     1     109.555 110.762 117.330  1.00  0.00     0.126 C 
ATOM      9  C   UNL     1     108.966 113.266 117.573  1.00  0.00     0.014 C 
ATOM     10  C   UNL     1     108.694 108.638 118.481  1.00  0.00     0.014 C 
ENDROOT
BRANCH   8  11
ATOM     11  O   UNL     1     110.636 110.832 116.434  1.00  0.00    -0.392 OA
ATOM     12  H   UNL     1     110.606 110.001 115.892  1.00  0.00     0.211 HD
ENDBRANCH   8  11
TORSDOF 1
ENDMDL
MODEL 8
REMARK VINA RESULT:    -2.966      8.974      9.995
REMARK INTER + INTRA:          -3.053
REMARK INTER:                  -3.053
REMARK INTRA:                   0.000
REMARK UNBOUND:                 0.000
REMARK SMILES CC1(C)[C@@H]2CC[C@@](C)(C2)[C@@H]1O
REMARK SMILES IDX 1 1 2 2 4 3 5 4 6 5 7 6 9 7 10 8 8 9 3 10 11 11
REMARK H PARENT 11 12
REMARK Flexibility Score: inf
ROOT
ATOM      1  C   UNL     1     110.160 123.142 119.102  1.00  0.00     0.014 C 
ATOM      2  C   UNL     1     111.542 123.146 118.397  1.00  0.00    -0.006 C 
ATOM      3  C   UNL     1     112.456 124.343 118.833  1.00  0.00    -0.002 C 
ATOM      4  C   UNL     1     111.693 125.682 118.763  1.00  0.00     0.005 C 
ATOM      5  C   UNL     1     111.480 125.875 117.254  1.00  0.00     0.010 C 
ATOM      6  C   UNL     1     112.250 124.678 116.645  1.00  0.00    -0.006 C 
ATOM      7  C   UNL     1     113.379 124.508 117.638  1.00  0.00     0.013 C 
ATOM      8  C   UNL     1     111.456 123.363 116.848  1.00  0.00     0.126 C 
ATOM      9  C   UNL     1     112.714 124.909 115.204  1.00  0.00     0.014 C 
ATOM     10  C   UNL     1     112.232 121.800 118.728  1.00  0.00     0.014 C 
ENDROOT
BRANCH   8  11
ATOM     11  O   UNL     1     110.141 123.480 116.366  1.00  0.00    -0.392 OA
ATOM     12  H   UNL     1     110.116 124.306 115.817  1.00  0.00     0.211 HD
ENDBRANCH   8  11
TORSDOF 1
ENDMDL
MODEL 9
REMARK VINA RESULT:    -2.959      6.417      7.796
REMARK INTER + INTRA:          -3.046
REMARK INTER:                  -3.046
REMARK INTRA:                   0.000
REMARK UNBOUND:                 0.000
REMARK SMILES CC1(C)[C@@H]2CC[C@@](C)(C2)[C@@H]1O
REMARK SMILES IDX 1 1 2 2 4 3 5 4 6 5 7 6 9 7 10 8 8 9 3 10 11 11
REMARK H PARENT 11 12
REMARK Flexibility Score: inf
ROOT
ATOM      1  C   UNL     1     121.665 120.373 118.204  1.00  0.00     0.014 C 
ATOM      2  C   UNL     1     123.211 120.299 118.102  1.00  0.00    -0.006 C 
ATOM      3  C   UNL     1     123.939 121.431 118.907  1.00  0.00    -0.002 C 
ATOM      4  C   UNL     1     123.337 122.816 118.589  1.00  0.00     0.005 C 
ATOM      5  C   UNL     1     123.750 123.040 117.126  1.00  0.00     0.010 C 
ATOM      6  C   UNL     1     124.635 121.804 116.828  1.00  0.00    -0.006 C 
ATOM      7  C   UNL     1     125.268 121.553 118.180  1.00  0.00     0.013 C 
ATOM      8  C   UNL     1     123.757 120.539 116.655  1.00  0.00     0.126 C 
ATOM      9  C   UNL     1     125.644 122.023 115.697  1.00  0.00     0.014 C 
ATOM     10  C   UNL     1     123.642 118.908 118.631  1.00  0.00     0.014 C 
ENDROOT
BRANCH   8  11
ATOM     11  O   UNL     1     122.749 120.743 115.697  1.00  0.00    -0.392 OA
ATOM     12  H   UNL     1     123.210 120.880 114.829  1.00  0.00     0.211 HD
ENDBRANCH   8  11
TORSDOF 1
ENDMDL
