MODEL 1
REMARK VINA RESULT:    16.644      0.000      0.000
REMARK INTER + INTRA:          33.331
REMARK INTER:                  27.347
REMARK INTRA:                   5.984
REMARK UNBOUND:                 5.984
REMARK SMILES C[C@H]1O[C@H](OC[C@@H]2O[C@@H](Oc3c(-c4ccc(O)c(O)c4)oc4cc(O)cc(O)c4c3=O)[C@H](O)[C@@H](O)[C@@H]2O)[C@H](O)[C@@H](O)[C@H]1O
REMARK SMILES IDX 7 1 36 2 34 3 32 4 9 5 8 6 6 7 5 8 4 9 1 10 2 11 42 12 3 13
REMARK SMILES IDX 40 14 38 15 43 16 41 18 39 20 37 22 35 24 10 26 11 27 12 28
REMARK SMILES IDX 30 29 21 30 29 31 31 32 22 33 27 34 23 35 26 36 24 37 13 38
REMARK SMILES IDX 20 39 14 40 18 41 15 42 16 43 19 44 17 46 28 48 25 50 33 52
REMARK H PARENT 43 17 41 19 39 21 37 23 35 25 19 45 17 47 28 49 25 51 33 53
REMARK Flexibility Score: inf
ROOT
ATOM      1  C   UNL     1       0.814  25.896  49.417  1.00  0.00     0.180 C 
ATOM      2  C   UNL     1      -0.692  25.605  49.710  1.00  0.00     0.177 C 
ATOM      3  C   UNL     1      -0.974  24.103  49.992  1.00  0.00     0.180 C 
ATOM      4  C   UNL     1       0.037  23.229  49.263  1.00  0.00     0.214 C 
ATOM      5  C   UNL     1       1.481  23.612  49.695  1.00  0.00     0.339 C 
ATOM      6  O   UNL     1       1.643  24.971  50.104  1.00  0.00    -0.332 OA
ENDROOT
BRANCH   1   7
ATOM      7  C   UNL     1       1.299  26.096  47.944  1.00  0.00     0.198 C 
BRANCH   7   8
ATOM      8  O   UNL     1       0.257  26.068  46.978  1.00  0.00    -0.347 OA
BRANCH   8   9
ATOM      9  C   UNL     1       0.301  24.891  46.175  1.00  0.00     0.281 C 
ATOM     10  C   UNL     1      -3.168  23.718  46.658  1.00  0.00     0.041 C 
ATOM     11  C   UNL     1      -2.041  24.643  46.192  1.00  0.00     0.150 C 
ATOM     12  C   UNL     1      -2.185  24.978  44.686  1.00  0.00     0.174 C 
ATOM     13  O   UNL     1      -0.793  24.018  46.450  1.00  0.00    -0.344 OA
ATOM     14  C   UNL     1      -1.030  25.904  44.263  1.00  0.00     0.179 C 
ATOM     15  C   UNL     1       0.317  25.271  44.677  1.00  0.00     0.202 C 
BRANCH  12  16
ATOM     16  O   UNL     1      -2.148  23.801  43.903  1.00  0.00    -0.388 OA
ATOM     17  H   UNL     1      -3.089  23.574  43.673  1.00  0.00     0.211 HD
ENDBRANCH  12  16
BRANCH  14  18
ATOM     18  O   UNL     1      -1.048  26.125  42.872  1.00  0.00    -0.387 OA
ATOM     19  H   UNL     1      -0.363  25.533  42.471  1.00  0.00     0.211 HD
ENDBRANCH  14  18
BRANCH  15  20
ATOM     20  O   UNL     1       1.408  26.119  44.382  1.00  0.00    -0.385 OA
ATOM     21  H   UNL     1       1.397  26.297  43.398  1.00  0.00     0.211 HD
ENDBRANCH  15  20
ENDBRANCH   8   9
ENDBRANCH   7   8
ENDBRANCH   1   7
BRANCH   2  22
ATOM     22  O   UNL     1      -1.557  26.125  48.727  1.00  0.00    -0.387 OA
ATOM     23  H   UNL     1      -1.320  27.085  48.570  1.00  0.00     0.211 HD
ENDBRANCH   2  22
BRANCH   3  24
ATOM     24  O   UNL     1      -0.880  23.853  51.375  1.00  0.00    -0.387 OA
ATOM     25  H   UNL     1      -0.719  24.715  51.836  1.00  0.00     0.211 HD
ENDBRANCH   3  24
BRANCH   5  26
ATOM     26  O   UNL     1       1.845  22.767  50.788  1.00  0.00    -0.454 OA
BRANCH  26  27
ATOM     27  C   UNL     1       0.989  22.128  51.713  1.00  0.00     0.214 A 
ATOM     28  C   UNL     1       0.281  20.994  51.275  1.00  0.00     0.180 A 
ATOM     29  C   UNL     1       0.823  22.525  53.062  1.00  0.00     0.239 A 
ATOM     30  O   UNL     1      -0.454  20.279  52.120  1.00  0.00    -0.452 OA
ATOM     31  C   UNL     1       0.056  21.726  53.938  1.00  0.00     0.111 A 
ATOM     32  O   UNL     1       1.376  23.573  53.493  1.00  0.00    -0.285 OA
ATOM     33  C   UNL     1      -0.570  20.577  53.407  1.00  0.00     0.146 A 
ATOM     34  C   UNL     1      -0.096  22.009  55.315  1.00  0.00     0.134 A 
ATOM     35  C   UNL     1      -1.331  19.737  54.226  1.00  0.00     0.094 A 
ATOM     36  C   UNL     1      -0.847  21.150  56.131  1.00  0.00     0.093 A 
ATOM     37  C   UNL     1      -1.458  20.015  55.589  1.00  0.00     0.123 A 
BRANCH  28  38
ATOM     38  C   UNL     1       0.333  20.563  49.866  1.00  0.00     0.025 A 
ATOM     39  C   UNL     1       1.532  20.076  49.313  1.00  0.00     0.062 A 
ATOM     40  C   UNL     1      -0.829  20.593  49.083  1.00  0.00     0.016 A 
ATOM     41  C   UNL     1       1.574  19.656  47.977  1.00  0.00     0.158 A 
ATOM     42  C   UNL     1      -0.792  20.167  47.753  1.00  0.00     0.051 A 
ATOM     43  C   UNL     1       0.403  19.687  47.192  1.00  0.00     0.157 A 
BRANCH  41  44
ATOM     44  O   UNL     1       2.781  19.185  47.455  1.00  0.00    -0.504 OA
ATOM     45  H   UNL     1       2.967  19.172  46.458  1.00  0.00     0.293 HD
ENDBRANCH  41  44
BRANCH  43  46
ATOM     46  O   UNL     1       0.427  19.233  45.877  1.00  0.00    -0.504 OA
ATOM     47  H   UNL     1       0.692  19.838  45.108  1.00  0.00     0.293 HD
ENDBRANCH  43  46
ENDBRANCH  28  38
BRANCH  34  48
ATOM     48  O   UNL     1       0.515  23.124  55.889  1.00  0.00    -0.507 OA
ATOM     49  H   UNL     1       0.090  24.042  55.857  1.00  0.00     0.293 HD
ENDBRANCH  34  48
BRANCH  37  50
ATOM     50  O   UNL     1      -2.158  19.141  56.429  1.00  0.00    -0.508 OA
ATOM     51  H   UNL     1      -3.084  18.805  56.175  1.00  0.00     0.293 HD
ENDBRANCH  37  50
ENDBRANCH  26  27
ENDBRANCH   5  26
BRANCH   4  52
ATOM     52  O   UNL     1      -0.110  23.378  47.870  1.00  0.00    -0.384 OA
ATOM     53  H   UNL     1       0.753  23.731  47.524  1.00  0.00     0.211 HD
ENDBRANCH   4  52
TORSDOF 16
ENDMDL
MODEL 2
REMARK VINA RESULT:    16.792      1.888      3.944
REMARK INTER + INTRA:          33.575
REMARK INTER:                  32.018
REMARK INTRA:                   1.557
REMARK UNBOUND:                 5.984
REMARK SMILES C[C@H]1O[C@H](OC[C@@H]2O[C@@H](Oc3c(-c4ccc(O)c(O)c4)oc4cc(O)cc(O)c4c3=O)[C@H](O)[C@@H](O)[C@@H]2O)[C@H](O)[C@@H](O)[C@H]1O
REMARK SMILES IDX 7 1 36 2 34 3 32 4 9 5 8 6 6 7 5 8 4 9 1 10 2 11 42 12 3 13
REMARK SMILES IDX 40 14 38 15 43 16 41 18 39 20 37 22 35 24 10 26 11 27 12 28
REMARK SMILES IDX 30 29 21 30 29 31 31 32 22 33 27 34 23 35 26 36 24 37 13 38
REMARK SMILES IDX 20 39 14 40 18 41 15 42 16 43 19 44 17 46 28 48 25 50 33 52
REMARK H PARENT 43 17 41 19 39 21 37 23 35 25 19 45 17 47 28 49 25 51 33 53
REMARK Flexibility Score: inf
ROOT
ATOM      1  C   UNL     1       0.025  23.850  47.181  1.00  0.00     0.180 C 
ATOM      2  C   UNL     1       0.157  25.395  47.358  1.00  0.00     0.177 C 
ATOM      3  C   UNL     1      -0.245  25.878  48.779  1.00  0.00     0.180 C 
ATOM      4  C   UNL     1      -1.279  24.938  49.385  1.00  0.00     0.214 C 
ATOM      5  C   UNL     1      -0.717  23.489  49.429  1.00  0.00     0.339 C 
ATOM      6  O   UNL     1       0.244  23.187  48.417  1.00  0.00    -0.332 OA
ENDROOT
BRANCH   1   7
ATOM      7  C   UNL     1      -1.211  23.250  46.435  1.00  0.00     0.198 C 
BRANCH   7   8
ATOM      8  O   UNL     1      -0.894  22.595  45.214  1.00  0.00    -0.347 OA
BRANCH   8   9
ATOM      9  C   UNL     1      -1.233  21.211  45.244  1.00  0.00     0.281 C 
ATOM     10  C   UNL     1       2.165  19.773  45.408  1.00  0.00     0.041 C 
ATOM     11  C   UNL     1       0.941  20.564  45.877  1.00  0.00     0.150 C 
ATOM     12  C   UNL     1       0.501  20.119  47.294  1.00  0.00     0.174 C 
ATOM     13  O   UNL     1      -0.113  20.381  44.943  1.00  0.00    -0.344 OA
ATOM     14  C   UNL     1      -0.732  20.936  47.719  1.00  0.00     0.179 C 
ATOM     15  C   UNL     1      -1.819  20.838  46.625  1.00  0.00     0.202 C 
BRANCH  12  16
ATOM     16  O   UNL     1       0.175  18.742  47.310  1.00  0.00    -0.388 OA
ATOM     17  H   UNL     1      -0.547  18.606  46.639  1.00  0.00     0.211 HD
ENDBRANCH  12  16
BRANCH  14  18
ATOM     18  O   UNL     1      -1.244  20.469  48.945  1.00  0.00    -0.387 OA
ATOM     19  H   UNL     1      -0.881  21.054  49.658  1.00  0.00     0.211 HD
ENDBRANCH  14  18
BRANCH  15  20
ATOM     20  O   UNL     1      -2.944  21.637  46.930  1.00  0.00    -0.385 OA
ATOM     21  H   UNL     1      -2.839  21.962  47.870  1.00  0.00     0.211 HD
ENDBRANCH  15  20
ENDBRANCH   8   9
ENDBRANCH   7   8
ENDBRANCH   1   7
BRANCH   2  22
ATOM     22  O   UNL     1      -0.504  26.125  46.351  1.00  0.00    -0.387 OA
ATOM     23  H   UNL     1      -0.642  27.062  46.675  1.00  0.00     0.211 HD
ENDBRANCH   2  22
BRANCH   3  24
ATOM     24  O   UNL     1       0.892  25.904  49.611  1.00  0.00    -0.387 OA
ATOM     25  H   UNL     1       1.605  26.412  49.148  1.00  0.00     0.211 HD
ENDBRANCH   3  24
BRANCH   5  26
ATOM     26  O   UNL     1      -0.101  23.301  50.704  1.00  0.00    -0.454 OA
BRANCH  26  27
ATOM     27  C   UNL     1      -0.457  22.377  51.713  1.00  0.00     0.214 A 
ATOM     28  C   UNL     1       0.482  21.390  52.058  1.00  0.00     0.180 A 
ATOM     29  C   UNL     1      -1.680  22.401  52.429  1.00  0.00     0.239 A 
ATOM     30  O   UNL     1       0.260  20.559  53.072  1.00  0.00    -0.452 OA
ATOM     31  C   UNL     1      -1.871  21.521  53.517  1.00  0.00     0.111 A 
ATOM     32  O   UNL     1      -2.588  23.217  52.117  1.00  0.00    -0.285 OA
ATOM     33  C   UNL     1      -0.840  20.603  53.813  1.00  0.00     0.146 A 
ATOM     34  C   UNL     1      -3.027  21.532  54.330  1.00  0.00     0.134 A 
ATOM     35  C   UNL     1      -0.962  19.716  54.887  1.00  0.00     0.094 A 
ATOM     36  C   UNL     1      -3.131  20.650  55.416  1.00  0.00     0.093 A 
ATOM     37  C   UNL     1      -2.100  19.748  55.696  1.00  0.00     0.123 A 
BRANCH  28  38
ATOM     38  C   UNL     1       1.743  21.245  51.308  1.00  0.00     0.025 A 
ATOM     39  C   UNL     1       1.969  20.110  50.507  1.00  0.00     0.062 A 
ATOM     40  C   UNL     1       2.704  22.265  51.353  1.00  0.00     0.016 A 
ATOM     41  C   UNL     1       3.164  19.981  49.786  1.00  0.00     0.158 A 
ATOM     42  C   UNL     1       3.892  22.143  50.629  1.00  0.00     0.051 A 
ATOM     43  C   UNL     1       4.129  21.009  49.833  1.00  0.00     0.157 A 
BRANCH  41  44
ATOM     44  O   UNL     1       3.363  18.840  49.007  1.00  0.00    -0.504 OA
ATOM     45  H   UNL     1       2.739  18.041  49.056  1.00  0.00     0.293 HD
ENDBRANCH  41  44
BRANCH  43  46
ATOM     46  O   UNL     1       5.299  20.908  49.088  1.00  0.00    -0.504 OA
ATOM     47  H   UNL     1       5.916  21.701  48.951  1.00  0.00     0.293 HD
ENDBRANCH  43  46
ENDBRANCH  28  38
BRANCH  34  48
ATOM     48  O   UNL     1      -4.066  22.430  54.087  1.00  0.00    -0.507 OA
ATOM     49  H   UNL     1      -4.797  22.599  54.766  1.00  0.00     0.293 HD
ENDBRANCH  34  48
BRANCH  37  50
ATOM     50  O   UNL     1      -2.199  18.913  56.815  1.00  0.00    -0.508 OA
ATOM     51  H   UNL     1      -2.835  18.119  56.819  1.00  0.00     0.293 HD
ENDBRANCH  37  50
ENDBRANCH  26  27
ENDBRANCH   5  26
BRANCH   4  52
ATOM     52  O   UNL     1      -2.467  24.977  48.631  1.00  0.00    -0.384 OA
ATOM     53  H   UNL     1      -2.914  25.841  48.839  1.00  0.00     0.211 HD
ENDBRANCH   4  52
TORSDOF 16
ENDMDL
MODEL 3
REMARK VINA RESULT:    17.288      2.227      4.867
REMARK INTER + INTRA:          34.390
REMARK INTER:                  34.547
REMARK INTRA:                  -0.157
REMARK UNBOUND:                 5.984
REMARK SMILES C[C@H]1O[C@H](OC[C@@H]2O[C@@H](Oc3c(-c4ccc(O)c(O)c4)oc4cc(O)cc(O)c4c3=O)[C@H](O)[C@@H](O)[C@@H]2O)[C@H](O)[C@@H](O)[C@H]1O
REMARK SMILES IDX 7 1 36 2 34 3 32 4 9 5 8 6 6 7 5 8 4 9 1 10 2 11 42 12 3 13
REMARK SMILES IDX 40 14 38 15 43 16 41 18 39 20 37 22 35 24 10 26 11 27 12 28
REMARK SMILES IDX 30 29 21 30 29 31 31 32 22 33 27 34 23 35 26 36 24 37 13 38
REMARK SMILES IDX 20 39 14 40 18 41 15 42 16 43 19 44 17 46 28 48 25 50 33 52
REMARK H PARENT 43 17 41 19 39 21 37 23 35 25 19 45 17 47 28 49 25 51 33 53
REMARK Flexibility Score: inf
ROOT
ATOM      1  C   UNL     1       1.637  19.319  48.858  1.00  0.00     0.180 C 
ATOM      2  C   UNL     1       2.926  18.635  49.413  1.00  0.00     0.177 C 
ATOM      3  C   UNL     1       3.740  19.559  50.360  1.00  0.00     0.180 C 
ATOM      4  C   UNL     1       3.525  21.021  49.988  1.00  0.00     0.214 C 
ATOM      5  C   UNL     1       2.010  21.366  50.044  1.00  0.00     0.339 C 
ATOM      6  O   UNL     1       1.135  20.266  49.788  1.00  0.00    -0.332 OA
ENDROOT
BRANCH   1   7
ATOM      7  C   UNL     1       1.622  19.898  47.405  1.00  0.00     0.198 C 
BRANCH   7   8
ATOM      8  O   UNL     1       0.320  20.125  46.882  1.00  0.00    -0.347 OA
BRANCH   8   9
ATOM      9  C   UNL     1      -0.254  21.333  47.376  1.00  0.00     0.281 C 
ATOM     10  C   UNL     1      -1.118  22.935  44.162  1.00  0.00     0.041 C 
ATOM     11  C   UNL     1      -1.178  21.896  45.284  1.00  0.00     0.150 C 
ATOM     12  C   UNL     1      -2.636  21.676  45.761  1.00  0.00     0.174 C 
ATOM     13  O   UNL     1      -0.358  22.328  46.360  1.00  0.00    -0.344 OA
ATOM     14  C   UNL     1      -2.646  20.630  46.890  1.00  0.00     0.179 C 
ATOM     15  C   UNL     1      -1.644  21.047  47.989  1.00  0.00     0.202 C 
BRANCH  12  16
ATOM     16  O   UNL     1      -3.195  22.883  46.241  1.00  0.00    -0.388 OA
ATOM     17  H   UNL     1      -3.204  23.524  45.479  1.00  0.00     0.211 HD
ENDBRANCH  12  16
BRANCH  14  18
ATOM     18  O   UNL     1      -3.935  20.500  47.441  1.00  0.00    -0.387 OA
ATOM     19  H   UNL     1      -4.579  20.839  46.769  1.00  0.00     0.211 HD
ENDBRANCH  14  18
BRANCH  15  20
ATOM     20  O   UNL     1      -1.555  20.078  49.014  1.00  0.00    -0.385 OA
ATOM     21  H   UNL     1      -1.023  20.476  49.762  1.00  0.00     0.211 HD
ENDBRANCH  15  20
ENDBRANCH   8   9
ENDBRANCH   7   8
ENDBRANCH   1   7
BRANCH   2  22
ATOM     22  O   UNL     1       3.734  18.078  48.403  1.00  0.00    -0.387 OA
ATOM     23  H   UNL     1       4.663  18.439  48.503  1.00  0.00     0.211 HD
ENDBRANCH   2  22
BRANCH   3  24
ATOM     24  O   UNL     1       3.323  19.361  51.692  1.00  0.00    -0.387 OA
ATOM     25  H   UNL     1       3.783  18.559  52.045  1.00  0.00     0.211 HD
ENDBRANCH   3  24
BRANCH   5  26
ATOM     26  O   UNL     1       1.728  21.870  51.350  1.00  0.00    -0.454 OA
BRANCH  26  27
ATOM     27  C   UNL     1       0.463  22.061  51.952  1.00  0.00     0.214 A 
ATOM     28  C   UNL     1      -0.409  22.992  51.361  1.00  0.00     0.180 A 
ATOM     29  C   UNL     1      -0.003  21.351  53.086  1.00  0.00     0.239 A 
ATOM     30  O   UNL     1      -1.652  23.142  51.805  1.00  0.00    -0.452 OA
ATOM     31  C   UNL     1      -1.339  21.516  53.514  1.00  0.00     0.111 A 
ATOM     32  O   UNL     1       0.757  20.556  53.700  1.00  0.00    -0.285 OA
ATOM     33  C   UNL     1      -2.147  22.439  52.815  1.00  0.00     0.146 A 
ATOM     34  C   UNL     1      -1.905  20.790  54.587  1.00  0.00     0.134 A 
ATOM     35  C   UNL     1      -3.483  22.636  53.181  1.00  0.00     0.094 A 
ATOM     36  C   UNL     1      -3.250  20.983  54.934  1.00  0.00     0.093 A 
ATOM     37  C   UNL     1      -4.038  21.900  54.230  1.00  0.00     0.123 A 
BRANCH  28  38
ATOM     38  C   UNL     1       0.028  23.830  50.229  1.00  0.00     0.025 A 
ATOM     39  C   UNL     1       1.220  24.573  50.310  1.00  0.00     0.062 A 
ATOM     40  C   UNL     1      -0.723  23.852  49.046  1.00  0.00     0.016 A 
ATOM     41  C   UNL     1       1.638  25.359  49.228  1.00  0.00     0.158 A 
ATOM     42  C   UNL     1      -0.305  24.629  47.962  1.00  0.00     0.051 A 
ATOM     43  C   UNL     1       0.880  25.379  48.039  1.00  0.00     0.157 A 
BRANCH  41  44
ATOM     44  O   UNL     1       2.821  26.091  49.343  1.00  0.00    -0.504 OA
ATOM     45  H   UNL     1       3.058  26.836  48.696  1.00  0.00     0.293 HD
ENDBRANCH  41  44
BRANCH  43  46
ATOM     46  O   UNL     1       1.310  26.125  46.946  1.00  0.00    -0.504 OA
ATOM     47  H   UNL     1       1.670  25.683  46.107  1.00  0.00     0.293 HD
ENDBRANCH  43  46
ENDBRANCH  28  38
BRANCH  34  48
ATOM     48  O   UNL     1      -1.151  19.857  55.298  1.00  0.00    -0.507 OA
ATOM     49  H   UNL     1      -0.211  20.058  55.614  1.00  0.00     0.293 HD
ENDBRANCH  34  48
BRANCH  37  50
ATOM     50  O   UNL     1      -5.392  22.040  54.556  1.00  0.00    -0.508 OA
ATOM     51  H   UNL     1      -5.698  22.749  55.217  1.00  0.00     0.293 HD
ENDBRANCH  37  50
ENDBRANCH  26  27
ENDBRANCH   5  26
BRANCH   4  52
ATOM     52  O   UNL     1       4.035  21.271  48.699  1.00  0.00    -0.384 OA
ATOM     53  H   UNL     1       4.910  20.802  48.638  1.00  0.00     0.211 HD
ENDBRANCH   4  52
TORSDOF 16
ENDMDL
MODEL 4
REMARK VINA RESULT:    17.499      2.079      6.651
REMARK INTER + INTRA:          34.737
REMARK INTER:                  30.814
REMARK INTRA:                   3.923
REMARK UNBOUND:                 5.984
REMARK SMILES C[C@H]1O[C@H](OC[C@@H]2O[C@@H](Oc3c(-c4ccc(O)c(O)c4)oc4cc(O)cc(O)c4c3=O)[C@H](O)[C@@H](O)[C@@H]2O)[C@H](O)[C@@H](O)[C@H]1O
REMARK SMILES IDX 7 1 36 2 34 3 32 4 9 5 8 6 6 7 5 8 4 9 1 10 2 11 42 12 3 13
REMARK SMILES IDX 40 14 38 15 43 16 41 18 39 20 37 22 35 24 10 26 11 27 12 28
REMARK SMILES IDX 30 29 21 30 29 31 31 32 22 33 27 34 23 35 26 36 24 37 13 38
REMARK SMILES IDX 20 39 14 40 18 41 15 42 16 43 19 44 17 46 28 48 25 50 33 52
REMARK H PARENT 43 17 41 19 39 21 37 23 35 25 19 45 17 47 28 49 25 51 33 53
REMARK Flexibility Score: inf
ROOT
ATOM      1  C   UNL     1       0.727  21.462  52.897  1.00  0.00     0.180 C 
ATOM      2  C   UNL     1      -0.585  20.996  53.602  1.00  0.00     0.177 C 
ATOM      3  C   UNL     1      -1.806  20.954  52.642  1.00  0.00     0.180 C 
ATOM      4  C   UNL     1      -1.639  21.980  51.529  1.00  0.00     0.214 C 
ATOM      5  C   UNL     1      -0.316  21.714  50.756  1.00  0.00     0.339 C 
ATOM      6  O   UNL     1       0.714  21.093  51.526  1.00  0.00    -0.332 OA
ENDROOT
BRANCH   1   7
ATOM      7  C   UNL     1       1.234  22.930  53.078  1.00  0.00     0.198 C 
BRANCH   7   8
ATOM      8  O   UNL     1       0.686  23.854  52.147  1.00  0.00    -0.347 OA
BRANCH   8   9
ATOM      9  C   UNL     1       0.990  23.502  50.799  1.00  0.00     0.281 C 
ATOM     10  C   UNL     1      -1.355  25.763  49.056  1.00  0.00     0.041 C 
ATOM     11  C   UNL     1      -0.158  25.363  49.924  1.00  0.00     0.150 C 
ATOM     12  C   UNL     1       1.139  26.056  49.436  1.00  0.00     0.174 C 
ATOM     13  O   UNL     1      -0.015  23.951  49.892  1.00  0.00    -0.344 OA
ATOM     14  C   UNL     1       2.311  25.621  50.333  1.00  0.00     0.179 C 
ATOM     15  C   UNL     1       2.367  24.079  50.398  1.00  0.00     0.202 C 
BRANCH  12  16
ATOM     16  O   UNL     1       1.423  25.705  48.096  1.00  0.00    -0.388 OA
ATOM     17  H   UNL     1       0.916  24.871  47.899  1.00  0.00     0.211 HD
ENDBRANCH  12  16
BRANCH  14  18
ATOM     18  O   UNL     1       3.531  26.124  49.842  1.00  0.00    -0.387 OA
ATOM     19  H   UNL     1       3.346  26.539  48.962  1.00  0.00     0.211 HD
ENDBRANCH  14  18
BRANCH  15  20
ATOM     20  O   UNL     1       3.379  23.626  51.275  1.00  0.00    -0.385 OA
ATOM     21  H   UNL     1       2.983  22.909  51.849  1.00  0.00     0.211 HD
ENDBRANCH  15  20
ENDBRANCH   8   9
ENDBRANCH   7   8
ENDBRANCH   1   7
BRANCH   2  22
ATOM     22  O   UNL     1      -0.868  21.720  54.778  1.00  0.00    -0.387 OA
ATOM     23  H   UNL     1      -0.145  22.399  54.915  1.00  0.00     0.211 HD
ENDBRANCH   2  22
BRANCH   3  24
ATOM     24  O   UNL     1      -1.916  19.671  52.069  1.00  0.00    -0.387 OA
ATOM     25  H   UNL     1      -1.012  19.267  52.035  1.00  0.00     0.211 HD
ENDBRANCH   3  24
BRANCH   5  26
ATOM     26  O   UNL     1      -0.623  20.865  49.649  1.00  0.00    -0.454 OA
BRANCH  26  27
ATOM     27  C   UNL     1      -0.375  21.104  48.278  1.00  0.00     0.214 A 
ATOM     28  C   UNL     1       0.754  20.498  47.701  1.00  0.00     0.180 A 
ATOM     29  C   UNL     1      -1.208  21.880  47.434  1.00  0.00     0.239 A 
ATOM     30  O   UNL     1       0.987  20.588  46.396  1.00  0.00    -0.452 OA
ATOM     31  C   UNL     1      -0.946  21.931  46.047  1.00  0.00     0.111 A 
ATOM     32  O   UNL     1      -2.195  22.504  47.908  1.00  0.00    -0.285 OA
ATOM     33  C   UNL     1       0.187  21.241  45.564  1.00  0.00     0.146 A 
ATOM     34  C   UNL     1      -1.770  22.617  45.127  1.00  0.00     0.134 A 
ATOM     35  C   UNL     1       0.492  21.241  44.199  1.00  0.00     0.094 A 
ATOM     36  C   UNL     1      -1.464  22.595  43.757  1.00  0.00     0.093 A 
ATOM     37  C   UNL     1      -0.339  21.905  43.294  1.00  0.00     0.123 A 
BRANCH  28  38
ATOM     38  C   UNL     1       1.716  19.744  48.526  1.00  0.00     0.025 A 
ATOM     39  C   UNL     1       2.947  20.319  48.892  1.00  0.00     0.062 A 
ATOM     40  C   UNL     1       1.385  18.463  48.990  1.00  0.00     0.016 A 
ATOM     41  C   UNL     1       3.854  19.604  49.685  1.00  0.00     0.158 A 
ATOM     42  C   UNL     1       2.283  17.750  49.788  1.00  0.00     0.051 A 
ATOM     43  C   UNL     1       3.517  18.316  50.150  1.00  0.00     0.157 A 
BRANCH  41  44
ATOM     44  O   UNL     1       5.070  20.199  50.024  1.00  0.00    -0.504 OA
ATOM     45  H   UNL     1       5.838  19.666  50.419  1.00  0.00     0.293 HD
ENDBRANCH  41  44
BRANCH  43  46
ATOM     46  O   UNL     1       4.393  17.616  50.973  1.00  0.00    -0.504 OA
ATOM     47  H   UNL     1       4.721  17.998  51.853  1.00  0.00     0.293 HD
ENDBRANCH  43  46
ENDBRANCH  28  38
BRANCH  34  48
ATOM     48  O   UNL     1      -2.908  23.301  45.554  1.00  0.00    -0.507 OA
ATOM     49  H   UNL     1      -2.884  23.945  46.334  1.00  0.00     0.293 HD
ENDBRANCH  34  48
BRANCH  37  50
ATOM     50  O   UNL     1      -0.081  21.850  41.920  1.00  0.00    -0.508 OA
ATOM     51  H   UNL     1      -0.250  20.998  41.392  1.00  0.00     0.293 HD
ENDBRANCH  37  50
ENDBRANCH  26  27
ENDBRANCH   5  26
BRANCH   4  52
ATOM     52  O   UNL     1      -1.637  23.281  52.067  1.00  0.00    -0.384 OA
ATOM     53  H   UNL     1      -0.747  23.677  51.863  1.00  0.00     0.211 HD
ENDBRANCH   4  52
TORSDOF 16
ENDMDL
MODEL 5
REMARK VINA RESULT:    17.572      2.084      4.959
REMARK INTER + INTRA:          34.856
REMARK INTER:                  34.431
REMARK INTRA:                   0.425
REMARK UNBOUND:                 5.984
REMARK SMILES C[C@H]1O[C@H](OC[C@@H]2O[C@@H](Oc3c(-c4ccc(O)c(O)c4)oc4cc(O)cc(O)c4c3=O)[C@H](O)[C@@H](O)[C@@H]2O)[C@H](O)[C@@H](O)[C@H]1O
REMARK SMILES IDX 7 1 36 2 34 3 32 4 9 5 8 6 6 7 5 8 4 9 1 10 2 11 42 12 3 13
REMARK SMILES IDX 40 14 38 15 43 16 41 18 39 20 37 22 35 24 10 26 11 27 12 28
REMARK SMILES IDX 30 29 21 30 29 31 31 32 22 33 27 34 23 35 26 36 24 37 13 38
REMARK SMILES IDX 20 39 14 40 18 41 15 42 16 43 19 44 17 46 28 48 25 50 33 52
REMARK H PARENT 43 17 41 19 39 21 37 23 35 25 19 45 17 47 28 49 25 51 33 53
REMARK Flexibility Score: inf
ROOT
ATOM      1  C   UNL     1       2.374  19.047  49.842  1.00  0.00     0.180 C 
ATOM      2  C   UNL     1       3.575  19.057  50.839  1.00  0.00     0.177 C 
ATOM      3  C   UNL     1       4.133  20.483  51.099  1.00  0.00     0.180 C 
ATOM      4  C   UNL     1       3.900  21.373  49.885  1.00  0.00     0.214 C 
ATOM      5  C   UNL     1       2.383  21.423  49.547  1.00  0.00     0.339 C 
ATOM      6  O   UNL     1       1.645  20.262  49.928  1.00  0.00    -0.332 OA
ENDROOT
BRANCH   1   7
ATOM      7  C   UNL     1       2.599  18.632  48.351  1.00  0.00     0.198 C 
BRANCH   7   8
ATOM      8  O   UNL     1       2.074  19.553  47.405  1.00  0.00    -0.347 OA
BRANCH   8   9
ATOM      9  C   UNL     1       0.935  19.032  46.723  1.00  0.00     0.281 C 
ATOM     10  C   UNL     1      -1.723  20.341  48.928  1.00  0.00     0.041 C 
ATOM     11  C   UNL     1      -0.564  20.390  47.930  1.00  0.00     0.150 C 
ATOM     12  C   UNL     1      -0.929  21.252  46.696  1.00  0.00     0.174 C 
ATOM     13  O   UNL     1      -0.235  19.065  47.538  1.00  0.00    -0.344 OA
ATOM     14  C   UNL     1       0.263  21.267  45.721  1.00  0.00     0.179 C 
ATOM     15  C   UNL     1       0.696  19.817  45.413  1.00  0.00     0.202 C 
BRANCH  12  16
ATOM     16  O   UNL     1      -2.064  20.728  46.034  1.00  0.00    -0.388 OA
ATOM     17  H   UNL     1      -2.367  19.938  46.557  1.00  0.00     0.211 HD
ENDBRANCH  12  16
BRANCH  14  18
ATOM     18  O   UNL     1      -0.077  21.930  44.526  1.00  0.00    -0.387 OA
ATOM     19  H   UNL     1      -0.967  22.343  44.660  1.00  0.00     0.211 HD
ENDBRANCH  14  18
BRANCH  15  20
ATOM     20  O   UNL     1       1.840  19.776  44.583  1.00  0.00    -0.385 OA
ATOM     21  H   UNL     1       1.576  19.333  43.726  1.00  0.00     0.211 HD
ENDBRANCH  15  20
ENDBRANCH   8   9
ENDBRANCH   7   8
ENDBRANCH   1   7
BRANCH   2  22
ATOM     22  O   UNL     1       4.595  18.152  50.486  1.00  0.00    -0.387 OA
ATOM     23  H   UNL     1       4.439  17.849  49.544  1.00  0.00     0.211 HD
ENDBRANCH   2  22
BRANCH   3  24
ATOM     24  O   UNL     1       3.484  21.052  52.213  1.00  0.00    -0.387 OA
ATOM     25  H   UNL     1       2.529  21.177  51.986  1.00  0.00     0.211 HD
ENDBRANCH   3  24
BRANCH   5  26
ATOM     26  O   UNL     1       1.826  22.551  50.224  1.00  0.00    -0.454 OA
BRANCH  26  27
ATOM     27  C   UNL     1       0.636  22.605  50.985  1.00  0.00     0.214 A 
ATOM     28  C   UNL     1      -0.471  23.265  50.423  1.00  0.00     0.180 A 
ATOM     29  C   UNL     1       0.468  22.007  52.258  1.00  0.00     0.239 A 
ATOM     30  O   UNL     1      -1.653  23.259  51.032  1.00  0.00    -0.452 OA
ATOM     31  C   UNL     1      -0.808  21.996  52.863  1.00  0.00     0.111 A 
ATOM     32  O   UNL     1       1.443  21.463  52.843  1.00  0.00    -0.285 OA
ATOM     33  C   UNL     1      -1.866  22.642  52.187  1.00  0.00     0.146 A 
ATOM     34  C   UNL     1      -1.078  21.354  54.094  1.00  0.00     0.134 A 
ATOM     35  C   UNL     1      -3.156  22.654  52.727  1.00  0.00     0.094 A 
ATOM     36  C   UNL     1      -2.379  21.356  54.618  1.00  0.00     0.093 A 
ATOM     37  C   UNL     1      -3.416  22.000  53.934  1.00  0.00     0.123 A 
BRANCH  28  38
ATOM     38  C   UNL     1      -0.357  23.984  49.141  1.00  0.00     0.025 A 
ATOM     39  C   UNL     1      -1.160  23.619  48.045  1.00  0.00     0.062 A 
ATOM     40  C   UNL     1       0.521  25.070  49.025  1.00  0.00     0.016 A 
ATOM     41  C   UNL     1      -1.058  24.312  46.831  1.00  0.00     0.158 A 
ATOM     42  C   UNL     1       0.620  25.769  47.820  1.00  0.00     0.051 A 
ATOM     43  C   UNL     1      -0.173  25.405  46.718  1.00  0.00     0.157 A 
BRANCH  41  44
ATOM     44  O   UNL     1      -1.861  23.920  45.760  1.00  0.00    -0.504 OA
ATOM     45  H   UNL     1      -1.476  23.721  44.843  1.00  0.00     0.293 HD
ENDBRANCH  41  44
BRANCH  43  46
ATOM     46  O   UNL     1      -0.095  26.124  45.530  1.00  0.00    -0.504 OA
ATOM     47  H   UNL     1      -0.591  25.833  44.696  1.00  0.00     0.293 HD
ENDBRANCH  43  46
ENDBRANCH  28  38
BRANCH  34  48
ATOM     48  O   UNL     1      -0.070  20.690  54.792  1.00  0.00    -0.507 OA
ATOM     49  H   UNL     1       0.628  21.189  55.328  1.00  0.00     0.293 HD
ENDBRANCH  34  48
BRANCH  37  50
ATOM     50  O   UNL     1      -4.718  21.945  54.445  1.00  0.00    -0.508 OA
ATOM     51  H   UNL     1      -5.291  22.783  54.502  1.00  0.00     0.293 HD
ENDBRANCH  37  50
ENDBRANCH  26  27
ENDBRANCH   5  26
BRANCH   4  52
ATOM     52  O   UNL     1       4.628  20.886  48.783  1.00  0.00    -0.384 OA
ATOM     53  H   UNL     1       5.370  21.528  48.619  1.00  0.00     0.211 HD
ENDBRANCH   4  52
TORSDOF 16
ENDMDL
MODEL 6
REMARK VINA RESULT:    18.073      1.988      4.206
REMARK INTER + INTRA:          35.679
REMARK INTER:                  36.113
REMARK INTRA:                  -0.434
REMARK UNBOUND:                 5.984
REMARK SMILES C[C@H]1O[C@H](OC[C@@H]2O[C@@H](Oc3c(-c4ccc(O)c(O)c4)oc4cc(O)cc(O)c4c3=O)[C@H](O)[C@@H](O)[C@@H]2O)[C@H](O)[C@@H](O)[C@H]1O
REMARK SMILES IDX 7 1 36 2 34 3 32 4 9 5 8 6 6 7 5 8 4 9 1 10 2 11 42 12 3 13
REMARK SMILES IDX 40 14 38 15 43 16 41 18 39 20 37 22 35 24 10 26 11 27 12 28
REMARK SMILES IDX 30 29 21 30 29 31 31 32 22 33 27 34 23 35 26 36 24 37 13 38
REMARK SMILES IDX 20 39 14 40 18 41 15 42 16 43 19 44 17 46 28 48 25 50 33 52
REMARK H PARENT 43 17 41 19 39 21 37 23 35 25 19 45 17 47 28 49 25 51 33 53
REMARK Flexibility Score: inf
ROOT
ATOM      1  C   UNL     1      -1.570  23.668  47.085  1.00  0.00     0.180 C 
ATOM      2  C   UNL     1      -2.563  22.908  46.152  1.00  0.00     0.177 C 
ATOM      3  C   UNL     1      -2.242  21.392  46.033  1.00  0.00     0.180 C 
ATOM      4  C   UNL     1      -0.751  21.150  46.231  1.00  0.00     0.214 C 
ATOM      5  C   UNL     1      -0.302  21.706  47.612  1.00  0.00     0.339 C 
ATOM      6  O   UNL     1      -1.076  22.804  48.097  1.00  0.00    -0.332 OA
ENDROOT
BRANCH   1   7
ATOM      7  C   UNL     1      -0.416  24.524  46.467  1.00  0.00     0.198 C 
BRANCH   7   8
ATOM      8  O   UNL     1       0.719  24.668  47.310  1.00  0.00    -0.347 OA
BRANCH   8   9
ATOM      9  C   UNL     1       0.631  25.827  48.136  1.00  0.00     0.281 C 
ATOM     10  C   UNL     1      -1.633  24.520  50.746  1.00  0.00     0.041 C 
ATOM     11  C   UNL     1      -0.353  24.636  49.914  1.00  0.00     0.150 C 
ATOM     12  C   UNL     1       0.892  24.778  50.826  1.00  0.00     0.174 C 
ATOM     13  O   UNL     1      -0.467  25.752  49.043  1.00  0.00    -0.344 OA
ATOM     14  C   UNL     1       2.150  24.896  49.947  1.00  0.00     0.179 C 
ATOM     15  C   UNL     1       1.953  26.026  48.912  1.00  0.00     0.202 C 
BRANCH  12  16
ATOM     16  O   UNL     1       0.787  25.926  51.645  1.00  0.00    -0.388 OA
ATOM     17  H   UNL     1       1.255  26.666  51.170  1.00  0.00     0.211 HD
ENDBRANCH  12  16
BRANCH  14  18
ATOM     18  O   UNL     1       3.288  25.160  50.734  1.00  0.00    -0.387 OA
ATOM     19  H   UNL     1       3.376  24.417  51.382  1.00  0.00     0.211 HD
ENDBRANCH  14  18
BRANCH  15  20
ATOM     20  O   UNL     1       3.049  26.124  48.026  1.00  0.00    -0.385 OA
ATOM     21  H   UNL     1       2.692  26.392  47.131  1.00  0.00     0.211 HD
ENDBRANCH  15  20
ENDBRANCH   8   9
ENDBRANCH   7   8
ENDBRANCH   1   7
BRANCH   2  22
ATOM     22  O   UNL     1      -2.708  23.513  44.888  1.00  0.00    -0.387 OA
ATOM     23  H   UNL     1      -2.076  24.288  44.831  1.00  0.00     0.211 HD
ENDBRANCH   2  22
BRANCH   3  24
ATOM     24  O   UNL     1      -2.956  20.676  47.015  1.00  0.00    -0.387 OA
ATOM     25  H   UNL     1      -2.308  20.152  47.549  1.00  0.00     0.211 HD
ENDBRANCH   3  24
BRANCH   5  26
ATOM     26  O   UNL     1      -0.393  20.640  48.559  1.00  0.00    -0.454 OA
BRANCH  26  27
ATOM     27  C   UNL     1      -0.355  20.727  49.969  1.00  0.00     0.214 A 
ATOM     28  C   UNL     1       0.877  20.498  50.607  1.00  0.00     0.180 A 
ATOM     29  C   UNL     1      -1.463  21.069  50.783  1.00  0.00     0.239 A 
ATOM     30  O   UNL     1       1.012  20.672  51.917  1.00  0.00    -0.452 OA
ATOM     31  C   UNL     1      -1.277  21.271  52.169  1.00  0.00     0.111 A 
ATOM     32  O   UNL     1      -2.607  21.217  50.277  1.00  0.00    -0.285 OA
ATOM     33  C   UNL     1       0.016  21.066  52.699  1.00  0.00     0.146 A 
ATOM     34  C   UNL     1      -2.311  21.688  53.038  1.00  0.00     0.134 A 
ATOM     35  C   UNL     1       0.267  21.265  54.060  1.00  0.00     0.094 A 
ATOM     36  C   UNL     1      -2.043  21.902  54.398  1.00  0.00     0.093 A 
ATOM     37  C   UNL     1      -0.757  21.695  54.907  1.00  0.00     0.123 A 
BRANCH  28  38
ATOM     38  C   UNL     1       2.059  20.058  49.841  1.00  0.00     0.025 A 
ATOM     39  C   UNL     1       3.352  20.432  50.249  1.00  0.00     0.062 A 
ATOM     40  C   UNL     1       1.898  19.222  48.728  1.00  0.00     0.016 A 
ATOM     41  C   UNL     1       4.473  20.002  49.527  1.00  0.00     0.158 A 
ATOM     42  C   UNL     1       3.014  18.785  48.010  1.00  0.00     0.051 A 
ATOM     43  C   UNL     1       4.308  19.161  48.407  1.00  0.00     0.157 A 
BRANCH  41  44
ATOM     44  O   UNL     1       5.743  20.398  49.951  1.00  0.00    -0.504 OA
ATOM     45  H   UNL     1       6.575  19.861  49.732  1.00  0.00     0.293 HD
ENDBRANCH  41  44
BRANCH  43  46
ATOM     46  O   UNL     1       5.417  18.696  47.709  1.00  0.00    -0.504 OA
ATOM     47  H   UNL     1       5.324  18.136  46.869  1.00  0.00     0.293 HD
ENDBRANCH  43  46
ENDBRANCH  28  38
BRANCH  34  48
ATOM     48  O   UNL     1      -3.601  21.918  52.559  1.00  0.00    -0.507 OA
ATOM     49  H   UNL     1      -4.420  21.565  53.037  1.00  0.00     0.293 HD
ENDBRANCH  34  48
BRANCH  37  50
ATOM     50  O   UNL     1      -0.497  21.965  56.255  1.00  0.00    -0.508 OA
ATOM     51  H   UNL     1       0.456  21.978  56.609  1.00  0.00     0.293 HD
ENDBRANCH  37  50
ENDBRANCH  26  27
ENDBRANCH   5  26
BRANCH   4  52
ATOM     52  O   UNL     1      -0.020  21.765  45.197  1.00  0.00    -0.384 OA
ATOM     53  H   UNL     1       0.943  21.666  45.425  1.00  0.00     0.211 HD
ENDBRANCH   4  52
TORSDOF 16
ENDMDL
MODEL 7
REMARK VINA RESULT:    18.376      1.891      5.926
REMARK INTER + INTRA:          36.177
REMARK INTER:                  31.778
REMARK INTRA:                   4.399
REMARK UNBOUND:                 5.984
REMARK SMILES C[C@H]1O[C@H](OC[C@@H]2O[C@@H](Oc3c(-c4ccc(O)c(O)c4)oc4cc(O)cc(O)c4c3=O)[C@H](O)[C@@H](O)[C@@H]2O)[C@H](O)[C@@H](O)[C@H]1O
REMARK SMILES IDX 7 1 36 2 34 3 32 4 9 5 8 6 6 7 5 8 4 9 1 10 2 11 42 12 3 13
REMARK SMILES IDX 40 14 38 15 43 16 41 18 39 20 37 22 35 24 10 26 11 27 12 28
REMARK SMILES IDX 30 29 21 30 29 31 31 32 22 33 27 34 23 35 26 36 24 37 13 38
REMARK SMILES IDX 20 39 14 40 18 41 15 42 16 43 19 44 17 46 28 48 25 50 33 52
REMARK H PARENT 43 17 41 19 39 21 37 23 35 25 19 45 17 47 28 49 25 51 33 53
REMARK Flexibility Score: inf
ROOT
ATOM      1  C   UNL     1       0.793  22.260  52.923  1.00  0.00     0.180 C 
ATOM      2  C   UNL     1      -0.078  21.381  53.874  1.00  0.00     0.177 C 
ATOM      3  C   UNL     1      -1.299  20.742  53.157  1.00  0.00     0.180 C 
ATOM      4  C   UNL     1      -1.750  21.618  51.996  1.00  0.00     0.214 C 
ATOM      5  C   UNL     1      -0.573  21.831  51.003  1.00  0.00     0.339 C 
ATOM      6  O   UNL     1       0.727  21.771  51.592  1.00  0.00    -0.332 OA
ENDROOT
BRANCH   1   7
ATOM      7  C   UNL     1       0.657  23.818  52.955  1.00  0.00     0.198 C 
BRANCH   7   8
ATOM      8  O   UNL     1      -0.022  24.367  51.834  1.00  0.00    -0.347 OA
BRANCH   8   9
ATOM      9  C   UNL     1       0.428  23.804  50.604  1.00  0.00     0.281 C 
ATOM     10  C   UNL     1      -1.506  25.895  48.253  1.00  0.00     0.041 C 
ATOM     11  C   UNL     1      -0.463  25.569  49.326  1.00  0.00     0.150 C 
ATOM     12  C   UNL     1       0.931  26.116  48.930  1.00  0.00     0.174 C 
ATOM     13  O   UNL     1      -0.417  24.162  49.513  1.00  0.00    -0.344 OA
ATOM     14  C   UNL     1       1.944  25.760  50.033  1.00  0.00     0.179 C 
ATOM     15  C   UNL     1       1.883  24.244  50.321  1.00  0.00     0.202 C 
BRANCH  12  16
ATOM     16  O   UNL     1       1.362  25.555  47.705  1.00  0.00    -0.388 OA
ATOM     17  H   UNL     1       0.792  25.946  46.989  1.00  0.00     0.211 HD
ENDBRANCH  12  16
BRANCH  14  18
ATOM     18  O   UNL     1       3.250  26.123  49.650  1.00  0.00    -0.387 OA
ATOM     19  H   UNL     1       3.169  26.821  48.952  1.00  0.00     0.211 HD
ENDBRANCH  14  18
BRANCH  15  20
ATOM     20  O   UNL     1       2.738  23.876  51.384  1.00  0.00    -0.385 OA
ATOM     21  H   UNL     1       3.670  23.831  51.022  1.00  0.00     0.211 HD
ENDBRANCH  15  20
ENDBRANCH   8   9
ENDBRANCH   7   8
ENDBRANCH   1   7
BRANCH   2  22
ATOM     22  O   UNL     1      -0.456  22.051  55.055  1.00  0.00    -0.387 OA
ATOM     23  H   UNL     1      -1.347  21.700  55.349  1.00  0.00     0.211 HD
ENDBRANCH   2  22
BRANCH   3  24
ATOM     24  O   UNL     1      -0.946  19.471  52.660  1.00  0.00    -0.387 OA
ATOM     25  H   UNL     1      -0.107  19.187  53.101  1.00  0.00     0.211 HD
ENDBRANCH   3  24
BRANCH   5  26
ATOM     26  O   UNL     1      -0.660  20.816  50.003  1.00  0.00    -0.454 OA
BRANCH  26  27
ATOM     27  C   UNL     1       0.394  20.240  49.257  1.00  0.00     0.214 A 
ATOM     28  C   UNL     1       0.376  20.409  47.861  1.00  0.00     0.180 A 
ATOM     29  C   UNL     1       1.489  19.540  49.821  1.00  0.00     0.239 A 
ATOM     30  O   UNL     1       1.389  19.992  47.109  1.00  0.00    -0.452 OA
ATOM     31  C   UNL     1       2.561  19.135  48.995  1.00  0.00     0.111 A 
ATOM     32  O   UNL     1       1.525  19.297  51.056  1.00  0.00    -0.285 OA
ATOM     33  C   UNL     1       2.466  19.402  47.611  1.00  0.00     0.146 A 
ATOM     34  C   UNL     1       3.723  18.501  49.488  1.00  0.00     0.134 A 
ATOM     35  C   UNL     1       3.501  19.039  46.743  1.00  0.00     0.094 A 
ATOM     36  C   UNL     1       4.763  18.158  48.611  1.00  0.00     0.093 A 
ATOM     37  C   UNL     1       4.654  18.430  47.244  1.00  0.00     0.123 A 
BRANCH  28  38
ATOM     38  C   UNL     1      -0.767  21.053  47.187  1.00  0.00     0.025 A 
ATOM     39  C   UNL     1      -0.553  22.025  46.193  1.00  0.00     0.062 A 
ATOM     40  C   UNL     1      -2.075  20.661  47.504  1.00  0.00     0.016 A 
ATOM     41  C   UNL     1      -1.641  22.626  45.547  1.00  0.00     0.158 A 
ATOM     42  C   UNL     1      -3.162  21.253  46.856  1.00  0.00     0.051 A 
ATOM     43  C   UNL     1      -2.956  22.230  45.868  1.00  0.00     0.157 A 
BRANCH  41  44
ATOM     44  O   UNL     1      -1.396  23.594  44.571  1.00  0.00    -0.504 OA
ATOM     45  H   UNL     1      -0.644  23.499  43.897  1.00  0.00     0.293 HD
ENDBRANCH  41  44
BRANCH  43  46
ATOM     46  O   UNL     1      -4.040  22.792  45.202  1.00  0.00    -0.504 OA
ATOM     47  H   UNL     1      -4.996  22.543  45.431  1.00  0.00     0.293 HD
ENDBRANCH  43  46
ENDBRANCH  28  38
BRANCH  34  48
ATOM     48  O   UNL     1       3.870  18.230  50.848  1.00  0.00    -0.507 OA
ATOM     49  H   UNL     1       4.692  17.767  51.216  1.00  0.00     0.293 HD
ENDBRANCH  34  48
BRANCH  37  50
ATOM     50  O   UNL     1       5.724  18.130  46.393  1.00  0.00    -0.508 OA
ATOM     51  H   UNL     1       6.123  17.195  46.367  1.00  0.00     0.293 HD
ENDBRANCH  37  50
ENDBRANCH  26  27
ENDBRANCH   5  26
BRANCH   4  52
ATOM     52  O   UNL     1      -2.212  22.858  52.478  1.00  0.00    -0.384 OA
ATOM     53  H   UNL     1      -3.080  22.687  52.933  1.00  0.00     0.211 HD
ENDBRANCH   4  52
TORSDOF 16
ENDMDL
MODEL 8
REMARK VINA RESULT:    18.698      2.507      8.483
REMARK INTER + INTRA:          36.706
REMARK INTER:                  35.891
REMARK INTRA:                   0.816
REMARK UNBOUND:                 5.984
REMARK SMILES C[C@H]1O[C@H](OC[C@@H]2O[C@@H](Oc3c(-c4ccc(O)c(O)c4)oc4cc(O)cc(O)c4c3=O)[C@H](O)[C@@H](O)[C@@H]2O)[C@H](O)[C@@H](O)[C@H]1O
REMARK SMILES IDX 7 1 36 2 34 3 32 4 9 5 8 6 6 7 5 8 4 9 1 10 2 11 42 12 3 13
REMARK SMILES IDX 40 14 38 15 43 16 41 18 39 20 37 22 35 24 10 26 11 27 12 28
REMARK SMILES IDX 30 29 21 30 29 31 31 32 22 33 27 34 23 35 26 36 24 37 13 38
REMARK SMILES IDX 20 39 14 40 18 41 15 42 16 43 19 44 17 46 28 48 25 50 33 52
REMARK H PARENT 43 17 41 19 39 21 37 23 35 25 19 45 17 47 28 49 25 51 33 53
REMARK Flexibility Score: inf
ROOT
ATOM      1  C   UNL     1      -1.218  20.621  52.758  1.00  0.00     0.180 C 
ATOM      2  C   UNL     1      -2.086  21.897  52.995  1.00  0.00     0.177 C 
ATOM      3  C   UNL     1      -1.288  23.216  52.805  1.00  0.00     0.180 C 
ATOM      4  C   UNL     1       0.184  22.996  53.129  1.00  0.00     0.214 C 
ATOM      5  C   UNL     1       0.761  21.863  52.233  1.00  0.00     0.339 C 
ATOM      6  O   UNL     1      -0.192  20.886  51.814  1.00  0.00    -0.332 OA
ENDROOT
BRANCH   1   7
ATOM      7  C   UNL     1      -0.663  19.815  53.978  1.00  0.00     0.198 C 
BRANCH   7   8
ATOM      8  O   UNL     1      -0.967  18.427  53.946  1.00  0.00    -0.347 OA
BRANCH   8   9
ATOM      9  C   UNL     1      -1.277  17.915  55.240  1.00  0.00     0.281 C 
ATOM     10  C   UNL     1      -3.998  15.593  54.319  1.00  0.00     0.041 C 
ATOM     11  C   UNL     1      -2.574  16.153  54.368  1.00  0.00     0.150 C 
ATOM     12  C   UNL     1      -1.563  15.064  54.804  1.00  0.00     0.174 C 
ATOM     13  O   UNL     1      -2.542  17.256  55.262  1.00  0.00    -0.344 OA
ATOM     14  C   UNL     1      -0.150  15.674  54.844  1.00  0.00     0.179 C 
ATOM     15  C   UNL     1      -0.163  16.952  55.711  1.00  0.00     0.202 C 
BRANCH  12  16
ATOM     16  O   UNL     1      -1.887  14.560  56.086  1.00  0.00    -0.388 OA
ATOM     17  H   UNL     1      -2.449  15.248  56.535  1.00  0.00     0.211 HD
ENDBRANCH  12  16
BRANCH  14  18
ATOM     18  O   UNL     1       0.779  14.752  55.364  1.00  0.00    -0.387 OA
ATOM     19  H   UNL     1       0.695  14.774  56.351  1.00  0.00     0.211 HD
ENDBRANCH  14  18
BRANCH  15  20
ATOM     20  O   UNL     1       1.094  17.597  55.715  1.00  0.00    -0.385 OA
ATOM     21  H   UNL     1       1.718  17.048  55.159  1.00  0.00     0.211 HD
ENDBRANCH  15  20
ENDBRANCH   8   9
ENDBRANCH   7   8
ENDBRANCH   1   7
BRANCH   2  22
ATOM     22  O   UNL     1      -2.776  21.875  54.224  1.00  0.00    -0.387 OA
ATOM     23  H   UNL     1      -3.482  22.585  54.205  1.00  0.00     0.211 HD
ENDBRANCH   2  22
BRANCH   3  24
ATOM     24  O   UNL     1      -1.402  23.652  51.470  1.00  0.00    -0.387 OA
ATOM     25  H   UNL     1      -1.434  24.641  51.467  1.00  0.00     0.211 HD
ENDBRANCH   3  24
BRANCH   5  26
ATOM     26  O   UNL     1       1.320  22.474  51.069  1.00  0.00    -0.454 OA
BRANCH  26  27
ATOM     27  C   UNL     1       0.713  22.648  49.804  1.00  0.00     0.214 A 
ATOM     28  C   UNL     1       0.805  21.590  48.882  1.00  0.00     0.180 A 
ATOM     29  C   UNL     1      -0.017  23.797  49.414  1.00  0.00     0.239 A 
ATOM     30  O   UNL     1       0.165  21.639  47.719  1.00  0.00    -0.452 OA
ATOM     31  C   UNL     1      -0.707  23.804  48.181  1.00  0.00     0.111 A 
ATOM     32  O   UNL     1      -0.076  24.805  50.169  1.00  0.00    -0.285 OA
ATOM     33  C   UNL     1      -0.590  22.666  47.353  1.00  0.00     0.146 A 
ATOM     34  C   UNL     1      -1.519  24.878  47.752  1.00  0.00     0.134 A 
ATOM     35  C   UNL     1      -1.261  22.605  46.127  1.00  0.00     0.094 A 
ATOM     36  C   UNL     1      -2.202  24.799  46.529  1.00  0.00     0.093 A 
ATOM     37  C   UNL     1      -2.077  23.664  45.721  1.00  0.00     0.123 A 
BRANCH  28  38
ATOM     38  C   UNL     1       1.614  20.393  49.178  1.00  0.00     0.025 A 
ATOM     39  C   UNL     1       2.965  20.520  49.549  1.00  0.00     0.062 A 
ATOM     40  C   UNL     1       1.024  19.123  49.135  1.00  0.00     0.016 A 
ATOM     41  C   UNL     1       3.728  19.381  49.841  1.00  0.00     0.158 A 
ATOM     42  C   UNL     1       1.779  17.985  49.433  1.00  0.00     0.051 A 
ATOM     43  C   UNL     1       3.131  18.104  49.797  1.00  0.00     0.157 A 
BRANCH  41  44
ATOM     44  O   UNL     1       5.068  19.540  50.198  1.00  0.00    -0.504 OA
ATOM     45  H   UNL     1       5.688  18.747  50.328  1.00  0.00     0.293 HD
ENDBRANCH  41  44
BRANCH  43  46
ATOM     46  O   UNL     1       3.870  16.973  50.125  1.00  0.00    -0.504 OA
ATOM     47  H   UNL     1       3.423  16.098  50.379  1.00  0.00     0.293 HD
ENDBRANCH  43  46
ENDBRANCH  28  38
BRANCH  34  48
ATOM     48  O   UNL     1      -1.678  26.017  48.542  1.00  0.00    -0.507 OA
ATOM     49  H   UNL     1      -1.087  26.831  48.431  1.00  0.00     0.293 HD
ENDBRANCH  34  48
BRANCH  37  50
ATOM     50  O   UNL     1      -2.807  23.580  44.531  1.00  0.00    -0.508 OA
ATOM     51  H   UNL     1      -2.338  23.431  43.641  1.00  0.00     0.293 HD
ENDBRANCH  37  50
ENDBRANCH  26  27
ENDBRANCH   5  26
BRANCH   4  52
ATOM     52  O   UNL     1       0.335  22.665  54.489  1.00  0.00    -0.384 OA
ATOM     53  H   UNL     1      -0.576  22.492  54.848  1.00  0.00     0.211 HD
ENDBRANCH   4  52
TORSDOF 16
ENDMDL
