MODEL 1
REMARK VINA RESULT:    -1.517      0.000      0.000
REMARK INTER + INTRA:          -8.371
REMARK INTER:                  -3.468
REMARK INTRA:                  -4.903
REMARK UNBOUND:                -4.903
REMARK SMILES CCCCCCCCCCCCCCCCCCCCCCCC(=O)[O-]
REMARK SMILES IDX 13 1 14 2 15 3 16 4 17 5 18 6 19 7 20 8 21 9 22 10 23 11
REMARK SMILES IDX 24 12 25 13 26 14 12 15 11 16 10 17 9 18 8 19 7 20 6 21 5 22
REMARK SMILES IDX 4 23 3 24 2 25 1 26
REMARK H PARENT
REMARK Flexibility Score: inf
ROOT
ATOM      1  C   UNL     1      40.789  38.288  20.973  1.00  0.00     0.000 C 
ENDROOT
BRANCH   1   2
ATOM      2  C   UNL     1      41.760  37.946  19.823  1.00  0.00     0.000 C 
BRANCH   2   3
ATOM      3  C   UNL     1      41.386  36.674  19.039  1.00  0.00     0.000 C 
BRANCH   3   4
ATOM      4  C   UNL     1      41.062  35.445  19.904  1.00  0.00     0.000 C 
BRANCH   4   5
ATOM      5  C   UNL     1      40.241  34.383  19.155  1.00  0.00     0.000 C 
BRANCH   5   6
ATOM      6  C   UNL     1      40.079  34.757  17.676  1.00  0.00     0.000 C 
BRANCH   6   7
ATOM      7  C   UNL     1      38.607  34.855  17.236  1.00  0.00     0.000 C 
BRANCH   7   8
ATOM      8  C   UNL     1      37.598  35.083  18.376  1.00  0.00     0.000 C 
BRANCH   8   9
ATOM      9  C   UNL     1      36.887  36.443  18.285  1.00  0.00     0.000 C 
BRANCH   9  10
ATOM     10  C   UNL     1      37.838  37.622  18.549  1.00  0.00     0.006 C 
BRANCH  10  11
ATOM     11  C   UNL     1      37.104  38.869  19.060  1.00  0.00     0.053 C 
BRANCH  11  12
ATOM     12  C   UNL     1      38.049  40.023  19.171  1.00  0.00     0.041 C 
ATOM     13  O   UNL     1      39.093  40.056  18.468  1.00  0.00    -0.550 OA
ATOM     14  O   UNL     1      37.803  41.038  20.088  1.00  0.00    -0.550 OA
ENDBRANCH  11  12
ENDBRANCH  10  11
ENDBRANCH   9  10
ENDBRANCH   8   9
ENDBRANCH   7   8
ENDBRANCH   6   7
ENDBRANCH   5   6
ENDBRANCH   4   5
ENDBRANCH   3   4
ENDBRANCH   2   3
ENDBRANCH   1   2
BRANCH   1  15
ATOM     15  C   UNL     1      41.510  38.882  22.200  1.00  0.00     0.000 C 
BRANCH  15  16
ATOM     16  C   UNL     1      41.881  37.816  23.241  1.00  0.00     0.000 C 
BRANCH  16  17
ATOM     17  C   UNL     1      40.930  37.809  24.449  1.00  0.00     0.000 C 
BRANCH  17  18
ATOM     18  C   UNL     1      40.554  36.387  24.902  1.00  0.00    -0.000 C 
BRANCH  18  19
ATOM     19  C   UNL     1      40.418  35.382  23.738  1.00  0.00    -0.000 C 
BRANCH  19  20
ATOM     20  C   UNL     1      39.070  34.638  23.765  1.00  0.00    -0.000 C 
BRANCH  20  21
ATOM     21  C   UNL     1      38.373  34.630  22.388  1.00  0.00    -0.000 C 
BRANCH  21  22
ATOM     22  C   UNL     1      37.998  36.031  21.877  1.00  0.00    -0.000 C 
BRANCH  22  23
ATOM     23  C   UNL     1      37.309  36.896  22.944  1.00  0.00    -0.000 C 
BRANCH  23  24
ATOM     24  C   UNL     1      37.387  38.401  22.612  1.00  0.00    -0.000 C 
BRANCH  24  25
ATOM     25  C   UNL     1      37.560  39.296  23.851  1.00  0.00    -0.003 C 
ATOM     26  C   UNL     1      38.496  40.478  23.610  1.00  0.00     0.004 C 
ENDBRANCH  24  25
ENDBRANCH  23  24
ENDBRANCH  22  23
ENDBRANCH  21  22
ENDBRANCH  20  21
ENDBRANCH  19  20
ENDBRANCH  18  19
ENDBRANCH  17  18
ENDBRANCH  16  17
ENDBRANCH  15  16
ENDBRANCH   1  15
TORSDOF 22
ENDMDL
MODEL 2
REMARK VINA RESULT:    -1.501      2.736      4.605
REMARK INTER + INTRA:          -8.335
REMARK INTER:                  -3.840
REMARK INTRA:                  -4.495
REMARK UNBOUND:                -4.903
REMARK SMILES CCCCCCCCCCCCCCCCCCCCCCCC(=O)[O-]
REMARK SMILES IDX 13 1 14 2 15 3 16 4 17 5 18 6 19 7 20 8 21 9 22 10 23 11
REMARK SMILES IDX 24 12 25 13 26 14 12 15 11 16 10 17 9 18 8 19 7 20 6 21 5 22
REMARK SMILES IDX 4 23 3 24 2 25 1 26
REMARK H PARENT
REMARK Flexibility Score: inf
ROOT
ATOM      1  C   UNL     1      40.961  36.362  19.326  1.00  0.00     0.000 C 
ENDROOT
BRANCH   1   2
ATOM      2  C   UNL     1      41.063  35.051  18.518  1.00  0.00     0.000 C 
BRANCH   2   3
ATOM      3  C   UNL     1      39.757  34.235  18.473  1.00  0.00     0.000 C 
BRANCH   3   4
ATOM      4  C   UNL     1      38.711  34.730  17.463  1.00  0.00     0.000 C 
BRANCH   4   5
ATOM      5  C   UNL     1      37.387  35.148  18.124  1.00  0.00     0.000 C 
BRANCH   5   6
ATOM      6  C   UNL     1      36.912  36.507  17.591  1.00  0.00     0.000 C 
BRANCH   6   7
ATOM      7  C   UNL     1      38.070  37.481  17.306  1.00  0.00     0.000 C 
BRANCH   7   8
ATOM      8  C   UNL     1      37.942  38.286  16.000  1.00  0.00     0.000 C 
BRANCH   8   9
ATOM      9  C   UNL     1      39.285  38.469  15.275  1.00  0.00     0.000 C 
BRANCH   9  10
ATOM     10  C   UNL     1      40.359  37.489  15.772  1.00  0.00     0.006 C 
BRANCH  10  11
ATOM     11  C   UNL     1      41.079  36.771  14.623  1.00  0.00     0.053 C 
BRANCH  11  12
ATOM     12  C   UNL     1      40.504  35.406  14.417  1.00  0.00     0.041 C 
ATOM     13  O   UNL     1      39.409  35.265  13.812  1.00  0.00    -0.550 OA
ATOM     14  O   UNL     1      41.151  34.292  14.938  1.00  0.00    -0.550 OA
ENDBRANCH  11  12
ENDBRANCH  10  11
ENDBRANCH   9  10
ENDBRANCH   8   9
ENDBRANCH   7   8
ENDBRANCH   6   7
ENDBRANCH   5   6
ENDBRANCH   4   5
ENDBRANCH   3   4
ENDBRANCH   2   3
ENDBRANCH   1   2
BRANCH   1  15
ATOM     15  C   UNL     1      40.064  36.222  20.571  1.00  0.00     0.000 C 
BRANCH  15  16
ATOM     16  C   UNL     1      39.192  37.462  20.816  1.00  0.00     0.000 C 
BRANCH  16  17
ATOM     17  C   UNL     1      37.809  37.112  21.388  1.00  0.00     0.000 C 
BRANCH  17  18
ATOM     18  C   UNL     1      37.607  35.599  21.573  1.00  0.00    -0.000 C 
BRANCH  18  19
ATOM     19  C   UNL     1      37.254  35.193  23.020  1.00  0.00    -0.000 C 
BRANCH  19  20
ATOM     20  C   UNL     1      38.281  34.214  23.618  1.00  0.00    -0.000 C 
BRANCH  20  21
ATOM     21  C   UNL     1      39.650  34.879  23.871  1.00  0.00    -0.000 C 
BRANCH  21  22
ATOM     22  C   UNL     1      39.561  36.209  24.638  1.00  0.00    -0.000 C 
BRANCH  22  23
ATOM     23  C   UNL     1      40.656  37.210  24.234  1.00  0.00    -0.000 C 
BRANCH  23  24
ATOM     24  C   UNL     1      42.057  36.565  24.225  1.00  0.00    -0.000 C 
BRANCH  24  25
ATOM     25  C   UNL     1      42.811  36.751  22.897  1.00  0.00    -0.003 C 
ATOM     26  C   UNL     1      43.319  35.437  22.308  1.00  0.00     0.004 C 
ENDBRANCH  24  25
ENDBRANCH  23  24
ENDBRANCH  22  23
ENDBRANCH  21  22
ENDBRANCH  20  21
ENDBRANCH  19  20
ENDBRANCH  18  19
ENDBRANCH  17  18
ENDBRANCH  16  17
ENDBRANCH  15  16
ENDBRANCH   1  15
TORSDOF 22
ENDMDL
MODEL 3
REMARK VINA RESULT:    -1.487      2.661      4.999
REMARK INTER + INTRA:          -8.303
REMARK INTER:                  -3.602
REMARK INTRA:                  -4.700
REMARK UNBOUND:                -4.903
REMARK SMILES CCCCCCCCCCCCCCCCCCCCCCCC(=O)[O-]
REMARK SMILES IDX 13 1 14 2 15 3 16 4 17 5 18 6 19 7 20 8 21 9 22 10 23 11
REMARK SMILES IDX 24 12 25 13 26 14 12 15 11 16 10 17 9 18 8 19 7 20 6 21 5 22
REMARK SMILES IDX 4 23 3 24 2 25 1 26
REMARK H PARENT
REMARK Flexibility Score: inf
ROOT
ATOM      1  C   UNL     1      39.781  38.302  17.251  1.00  0.00     0.000 C 
ENDROOT
BRANCH   1   2
ATOM      2  C   UNL     1      38.852  37.847  16.105  1.00  0.00     0.000 C 
BRANCH   2   3
ATOM      3  C   UNL     1      39.246  36.499  15.472  1.00  0.00     0.000 C 
BRANCH   3   4
ATOM      4  C   UNL     1      38.445  35.285  15.967  1.00  0.00     0.000 C 
BRANCH   4   5
ATOM      5  C   UNL     1      37.096  35.671  16.595  1.00  0.00     0.000 C 
BRANCH   5   6
ATOM      6  C   UNL     1      36.957  35.076  18.004  1.00  0.00     0.000 C 
BRANCH   6   7
ATOM      7  C   UNL     1      38.309  34.893  18.717  1.00  0.00     0.000 C 
BRANCH   7   8
ATOM      8  C   UNL     1      38.424  35.582  20.089  1.00  0.00     0.000 C 
BRANCH   8   9
ATOM      9  C   UNL     1      37.180  35.376  20.969  1.00  0.00     0.000 C 
BRANCH   9  10
ATOM     10  C   UNL     1      37.538  34.946  22.400  1.00  0.00     0.006 C 
BRANCH  10  11
ATOM     11  C   UNL     1      38.982  34.437  22.518  1.00  0.00     0.053 C 
BRANCH  11  12
ATOM     12  C   UNL     1      39.639  35.007  23.735  1.00  0.00     0.041 C 
ATOM     13  O   UNL     1      38.940  35.441  24.687  1.00  0.00    -0.550 OA
ATOM     14  O   UNL     1      41.024  35.105  23.797  1.00  0.00    -0.550 OA
ENDBRANCH  11  12
ENDBRANCH  10  11
ENDBRANCH   9  10
ENDBRANCH   8   9
ENDBRANCH   7   8
ENDBRANCH   6   7
ENDBRANCH   5   6
ENDBRANCH   4   5
ENDBRANCH   3   4
ENDBRANCH   2   3
ENDBRANCH   1   2
BRANCH   1  15
ATOM     15  C   UNL     1      39.040  39.124  18.323  1.00  0.00     0.000 C 
BRANCH  15  16
ATOM     16  C   UNL     1      37.519  38.916  18.282  1.00  0.00     0.000 C 
BRANCH  16  17
ATOM     17  C   UNL     1      36.876  38.955  19.678  1.00  0.00     0.000 C 
BRANCH  17  18
ATOM     18  C   UNL     1      37.814  39.538  20.749  1.00  0.00    -0.000 C 
BRANCH  18  19
ATOM     19  C   UNL     1      37.577  38.959  22.161  1.00  0.00    -0.000 C 
BRANCH  19  20
ATOM     20  C   UNL     1      38.893  38.581  22.864  1.00  0.00    -0.000 C 
BRANCH  20  21
ATOM     21  C   UNL     1      40.011  38.216  21.864  1.00  0.00    -0.000 C 
BRANCH  21  22
ATOM     22  C   UNL     1      41.279  39.075  22.013  1.00  0.00    -0.000 C 
BRANCH  22  23
ATOM     23  C   UNL     1      41.628  39.856  20.736  1.00  0.00    -0.000 C 
BRANCH  23  24
ATOM     24  C   UNL     1      41.286  41.355  20.859  1.00  0.00    -0.000 C 
BRANCH  24  25
ATOM     25  C   UNL     1      40.693  41.740  22.226  1.00  0.00    -0.003 C 
ATOM     26  C   UNL     1      39.890  43.038  22.186  1.00  0.00     0.004 C 
ENDBRANCH  24  25
ENDBRANCH  23  24
ENDBRANCH  22  23
ENDBRANCH  21  22
ENDBRANCH  20  21
ENDBRANCH  19  20
ENDBRANCH  18  19
ENDBRANCH  17  18
ENDBRANCH  16  17
ENDBRANCH  15  16
ENDBRANCH   1  15
TORSDOF 22
ENDMDL
MODEL 4
REMARK VINA RESULT:    -1.467     13.005     15.151
REMARK INTER + INTRA:          -8.257
REMARK INTER:                  -3.721
REMARK INTRA:                  -4.537
REMARK UNBOUND:                -4.903
REMARK SMILES CCCCCCCCCCCCCCCCCCCCCCCC(=O)[O-]
REMARK SMILES IDX 13 1 14 2 15 3 16 4 17 5 18 6 19 7 20 8 21 9 22 10 23 11
REMARK SMILES IDX 24 12 25 13 26 14 12 15 11 16 10 17 9 18 8 19 7 20 6 21 5 22
REMARK SMILES IDX 4 23 3 24 2 25 1 26
REMARK H PARENT
REMARK Flexibility Score: inf
ROOT
ATOM      1  C   UNL     1      41.926  52.423  21.683  1.00  0.00     0.000 C 
ENDROOT
BRANCH   1   2
ATOM      2  C   UNL     1      41.161  51.081  21.672  1.00  0.00     0.000 C 
BRANCH   2   3
ATOM      3  C   UNL     1      41.305  50.285  20.361  1.00  0.00     0.000 C 
BRANCH   3   4
ATOM      4  C   UNL     1      40.031  49.565  19.891  1.00  0.00     0.000 C 
BRANCH   4   5
ATOM      5  C   UNL     1      39.725  49.796  18.402  1.00  0.00     0.000 C 
BRANCH   5   6
ATOM      6  C   UNL     1      38.792  51.000  18.215  1.00  0.00     0.000 C 
BRANCH   6   7
ATOM      7  C   UNL     1      39.469  52.181  17.496  1.00  0.00     0.000 C 
BRANCH   7   8
ATOM      8  C   UNL     1      39.843  53.369  18.400  1.00  0.00     0.000 C 
BRANCH   8   9
ATOM      9  C   UNL     1      41.292  53.843  18.199  1.00  0.00     0.000 C 
BRANCH   9  10
ATOM     10  C   UNL     1      42.237  52.694  17.811  1.00  0.00     0.006 C 
BRANCH  10  11
ATOM     11  C   UNL     1      42.993  52.969  16.504  1.00  0.00     0.053 C 
BRANCH  11  12
ATOM     12  C   UNL     1      42.629  51.957  15.465  1.00  0.00     0.041 C 
ATOM     13  O   UNL     1      41.702  52.195  14.647  1.00  0.00    -0.550 OA
ATOM     14  O   UNL     1      43.278  50.728  15.432  1.00  0.00    -0.550 OA
ENDBRANCH  11  12
ENDBRANCH  10  11
ENDBRANCH   9  10
ENDBRANCH   8   9
ENDBRANCH   7   8
ENDBRANCH   6   7
ENDBRANCH   5   6
ENDBRANCH   4   5
ENDBRANCH   3   4
ENDBRANCH   2   3
ENDBRANCH   1   2
BRANCH   1  15
ATOM     15  C   UNL     1      40.989  53.637  21.841  1.00  0.00     0.000 C 
BRANCH  15  16
ATOM     16  C   UNL     1      39.684  53.286  22.570  1.00  0.00     0.000 C 
BRANCH  16  17
ATOM     17  C   UNL     1      38.446  53.424  21.670  1.00  0.00     0.000 C 
BRANCH  17  18
ATOM     18  C   UNL     1      37.262  52.567  22.150  1.00  0.00    -0.000 C 
BRANCH  18  19
ATOM     19  C   UNL     1      37.308  51.109  21.644  1.00  0.00    -0.000 C 
BRANCH  19  20
ATOM     20  C   UNL     1      37.221  50.090  22.795  1.00  0.00    -0.000 C 
BRANCH  20  21
ATOM     21  C   UNL     1      37.709  50.675  24.138  1.00  0.00    -0.000 C 
BRANCH  21  22
ATOM     22  C   UNL     1      39.091  50.160  24.572  1.00  0.00    -0.000 C 
BRANCH  22  23
ATOM     23  C   UNL     1      39.810  51.113  25.540  1.00  0.00    -0.000 C 
BRANCH  23  24
ATOM     24  C   UNL     1      41.326  51.189  25.262  1.00  0.00    -0.000 C 
BRANCH  24  25
ATOM     25  C   UNL     1      42.032  52.331  26.012  1.00  0.00    -0.003 C 
ATOM     26  C   UNL     1      41.391  53.695  25.768  1.00  0.00     0.004 C 
ENDBRANCH  24  25
ENDBRANCH  23  24
ENDBRANCH  22  23
ENDBRANCH  21  22
ENDBRANCH  20  21
ENDBRANCH  19  20
ENDBRANCH  18  19
ENDBRANCH  17  18
ENDBRANCH  16  17
ENDBRANCH  15  16
ENDBRANCH   1  15
TORSDOF 22
ENDMDL
MODEL 5
REMARK VINA RESULT:    -1.453      1.505      3.107
REMARK INTER + INTRA:          -8.225
REMARK INTER:                  -3.629
REMARK INTRA:                  -4.596
REMARK UNBOUND:                -4.903
REMARK SMILES CCCCCCCCCCCCCCCCCCCCCCCC(=O)[O-]
REMARK SMILES IDX 13 1 14 2 15 3 16 4 17 5 18 6 19 7 20 8 21 9 22 10 23 11
REMARK SMILES IDX 24 12 25 13 26 14 12 15 11 16 10 17 9 18 8 19 7 20 6 21 5 22
REMARK SMILES IDX 4 23 3 24 2 25 1 26
REMARK H PARENT
REMARK Flexibility Score: inf
ROOT
ATOM      1  C   UNL     1      40.504  35.674  20.283  1.00  0.00     0.000 C 
ENDROOT
BRANCH   1   2
ATOM      2  C   UNL     1      39.666  34.797  19.328  1.00  0.00     0.000 C 
BRANCH   2   3
ATOM      3  C   UNL     1      39.843  35.142  17.837  1.00  0.00     0.000 C 
BRANCH   3   4
ATOM      4  C   UNL     1      38.599  34.917  16.962  1.00  0.00     0.000 C 
BRANCH   4   5
ATOM      5  C   UNL     1      37.294  35.351  17.650  1.00  0.00     0.000 C 
BRANCH   5   6
ATOM      6  C   UNL     1      36.884  36.762  17.208  1.00  0.00     0.000 C 
BRANCH   6   7
ATOM      7  C   UNL     1      36.876  37.778  18.365  1.00  0.00     0.000 C 
BRANCH   7   8
ATOM      8  C   UNL     1      38.257  38.333  18.757  1.00  0.00     0.000 C 
BRANCH   8   9
ATOM      9  C   UNL     1      38.356  39.860  18.601  1.00  0.00     0.000 C 
BRANCH   9  10
ATOM     10  C   UNL     1      37.776  40.612  19.809  1.00  0.00     0.006 C 
BRANCH  10  11
ATOM     11  C   UNL     1      38.598  41.854  20.180  1.00  0.00     0.053 C 
BRANCH  11  12
ATOM     12  C   UNL     1      38.177  43.026  19.353  1.00  0.00     0.041 C 
ATOM     13  O   UNL     1      37.011  43.082  18.881  1.00  0.00    -0.550 OA
ATOM     14  O   UNL     1      39.088  44.034  19.059  1.00  0.00    -0.550 OA
ENDBRANCH  11  12
ENDBRANCH  10  11
ENDBRANCH   9  10
ENDBRANCH   8   9
ENDBRANCH   7   8
ENDBRANCH   6   7
ENDBRANCH   5   6
ENDBRANCH   4   5
ENDBRANCH   3   4
ENDBRANCH   2   3
ENDBRANCH   1   2
BRANCH   1  15
ATOM     15  C   UNL     1      40.998  34.898  21.519  1.00  0.00     0.000 C 
BRANCH  15  16
ATOM     16  C   UNL     1      41.273  35.813  22.722  1.00  0.00     0.000 C 
BRANCH  16  17
ATOM     17  C   UNL     1      40.412  35.460  23.945  1.00  0.00     0.000 C 
BRANCH  17  18
ATOM     18  C   UNL     1      39.386  34.351  23.651  1.00  0.00    -0.000 C 
BRANCH  18  19
ATOM     19  C   UNL     1      37.927  34.855  23.604  1.00  0.00    -0.000 C 
BRANCH  19  20
ATOM     20  C   UNL     1      37.371  34.899  22.169  1.00  0.00    -0.000 C 
BRANCH  20  21
ATOM     21  C   UNL     1      36.979  36.326  21.732  1.00  0.00    -0.000 C 
BRANCH  21  22
ATOM     22  C   UNL     1      37.443  37.421  22.707  1.00  0.00    -0.000 C 
BRANCH  22  23
ATOM     23  C   UNL     1      38.632  38.236  22.173  1.00  0.00    -0.000 C 
BRANCH  23  24
ATOM     24  C   UNL     1      39.285  39.100  23.272  1.00  0.00    -0.000 C 
BRANCH  24  25
ATOM     25  C   UNL     1      40.619  39.735  22.843  1.00  0.00    -0.003 C 
ATOM     26  C   UNL     1      41.046  39.336  21.432  1.00  0.00     0.004 C 
ENDBRANCH  24  25
ENDBRANCH  23  24
ENDBRANCH  22  23
ENDBRANCH  21  22
ENDBRANCH  20  21
ENDBRANCH  19  20
ENDBRANCH  18  19
ENDBRANCH  17  18
ENDBRANCH  16  17
ENDBRANCH  15  16
ENDBRANCH   1  15
TORSDOF 22
ENDMDL
MODEL 6
REMARK VINA RESULT:    -1.380      1.771      3.158
REMARK INTER + INTRA:          -8.058
REMARK INTER:                  -3.754
REMARK INTRA:                  -4.304
REMARK UNBOUND:                -4.903
REMARK SMILES CCCCCCCCCCCCCCCCCCCCCCCC(=O)[O-]
REMARK SMILES IDX 13 1 14 2 15 3 16 4 17 5 18 6 19 7 20 8 21 9 22 10 23 11
REMARK SMILES IDX 24 12 25 13 26 14 12 15 11 16 10 17 9 18 8 19 7 20 6 21 5 22
REMARK SMILES IDX 4 23 3 24 2 25 1 26
REMARK H PARENT
REMARK Flexibility Score: inf
ROOT
ATOM      1  C   UNL     1      41.945  35.140  21.143  1.00  0.00     0.000 C 
ENDROOT
BRANCH   1   2
ATOM      2  C   UNL     1      41.325  35.298  19.738  1.00  0.00     0.000 C 
BRANCH   2   3
ATOM      3  C   UNL     1      40.467  34.099  19.290  1.00  0.00     0.000 C 
BRANCH   3   4
ATOM      4  C   UNL     1      39.496  34.386  18.133  1.00  0.00     0.000 C 
BRANCH   4   5
ATOM      5  C   UNL     1      38.172  35.011  18.601  1.00  0.00     0.000 C 
BRANCH   5   6
ATOM      6  C   UNL     1      37.389  35.591  17.414  1.00  0.00     0.000 C 
BRANCH   6   7
ATOM      7  C   UNL     1      38.248  36.492  16.508  1.00  0.00     0.000 C 
BRANCH   7   8
ATOM      8  C   UNL     1      38.638  37.850  17.118  1.00  0.00     0.000 C 
BRANCH   8   9
ATOM      9  C   UNL     1      40.147  37.974  17.390  1.00  0.00     0.000 C 
BRANCH   9  10
ATOM     10  C   UNL     1      40.495  39.234  18.199  1.00  0.00     0.006 C 
BRANCH  10  11
ATOM     11  C   UNL     1      40.235  40.528  17.415  1.00  0.00     0.053 C 
BRANCH  11  12
ATOM     12  C   UNL     1      39.261  41.395  18.147  1.00  0.00     0.041 C 
ATOM     13  O   UNL     1      38.827  42.449  17.613  1.00  0.00    -0.550 OA
ATOM     14  O   UNL     1      38.869  41.066  19.439  1.00  0.00    -0.550 OA
ENDBRANCH  11  12
ENDBRANCH  10  11
ENDBRANCH   9  10
ENDBRANCH   8   9
ENDBRANCH   7   8
ENDBRANCH   6   7
ENDBRANCH   5   6
ENDBRANCH   4   5
ENDBRANCH   3   4
ENDBRANCH   2   3
ENDBRANCH   1   2
BRANCH   1  15
ATOM     15  C   UNL     1      41.246  34.052  21.980  1.00  0.00     0.000 C 
BRANCH  15  16
ATOM     16  C   UNL     1      40.385  34.636  23.110  1.00  0.00     0.000 C 
BRANCH  16  17
ATOM     17  C   UNL     1      39.013  33.953  23.225  1.00  0.00     0.000 C 
BRANCH  17  18
ATOM     18  C   UNL     1      37.934  34.637  22.368  1.00  0.00    -0.000 C 
BRANCH  18  19
ATOM     19  C   UNL     1      36.875  35.397  23.197  1.00  0.00    -0.000 C 
BRANCH  19  20
ATOM     20  C   UNL     1      37.089  35.225  24.712  1.00  0.00    -0.000 C 
BRANCH  20  21
ATOM     21  C   UNL     1      37.483  36.547  25.405  1.00  0.00    -0.000 C 
BRANCH  21  22
ATOM     22  C   UNL     1      37.696  37.717  24.430  1.00  0.00    -0.000 C 
BRANCH  22  23
ATOM     23  C   UNL     1      39.178  37.964  24.103  1.00  0.00    -0.000 C 
BRANCH  23  24
ATOM     24  C   UNL     1      39.360  38.760  22.795  1.00  0.00    -0.000 C 
BRANCH  24  25
ATOM     25  C   UNL     1      39.353  37.881  21.533  1.00  0.00    -0.003 C 
ATOM     26  C   UNL     1      38.046  37.969  20.749  1.00  0.00     0.004 C 
ENDBRANCH  24  25
ENDBRANCH  23  24
ENDBRANCH  22  23
ENDBRANCH  21  22
ENDBRANCH  20  21
ENDBRANCH  19  20
ENDBRANCH  18  19
ENDBRANCH  17  18
ENDBRANCH  16  17
ENDBRANCH  15  16
ENDBRANCH   1  15
TORSDOF 22
ENDMDL
MODEL 7
REMARK VINA RESULT:    -1.375      2.137      3.600
REMARK INTER + INTRA:          -8.046
REMARK INTER:                  -3.120
REMARK INTRA:                  -4.926
REMARK UNBOUND:                -4.903
REMARK SMILES CCCCCCCCCCCCCCCCCCCCCCCC(=O)[O-]
REMARK SMILES IDX 13 1 14 2 15 3 16 4 17 5 18 6 19 7 20 8 21 9 22 10 23 11
REMARK SMILES IDX 24 12 25 13 26 14 12 15 11 16 10 17 9 18 8 19 7 20 6 21 5 22
REMARK SMILES IDX 4 23 3 24 2 25 1 26
REMARK H PARENT
REMARK Flexibility Score: inf
ROOT
ATOM      1  C   UNL     1      41.636  37.933  20.624  1.00  0.00     0.000 C 
ENDROOT
BRANCH   1   2
ATOM      2  C   UNL     1      42.333  36.561  20.495  1.00  0.00     0.000 C 
BRANCH   2   3
ATOM      3  C   UNL     1      41.377  35.396  20.178  1.00  0.00     0.000 C 
BRANCH   3   4
ATOM      4  C   UNL     1      41.796  34.510  18.993  1.00  0.00     0.000 C 
BRANCH   4   5
ATOM      5  C   UNL     1      40.598  33.946  18.212  1.00  0.00     0.000 C 
BRANCH   5   6
ATOM      6  C   UNL     1      39.290  34.615  18.655  1.00  0.00     0.000 C 
BRANCH   6   7
ATOM      7  C   UNL     1      38.510  35.247  17.488  1.00  0.00     0.000 C 
BRANCH   7   8
ATOM      8  C   UNL     1      38.484  36.786  17.477  1.00  0.00     0.000 C 
BRANCH   8   9
ATOM      9  C   UNL     1      39.391  37.394  16.393  1.00  0.00     0.000 C 
BRANCH   9  10
ATOM     10  C   UNL     1      40.583  38.160  16.988  1.00  0.00     0.006 C 
BRANCH  10  11
ATOM     11  C   UNL     1      41.910  37.410  16.818  1.00  0.00     0.053 C 
BRANCH  11  12
ATOM     12  C   UNL     1      43.049  38.375  16.723  1.00  0.00     0.041 C 
ATOM     13  O   UNL     1      43.761  38.415  15.686  1.00  0.00    -0.550 OA
ATOM     14  O   UNL     1      43.356  39.197  17.801  1.00  0.00    -0.550 OA
ENDBRANCH  11  12
ENDBRANCH  10  11
ENDBRANCH   9  10
ENDBRANCH   8   9
ENDBRANCH   7   8
ENDBRANCH   6   7
ENDBRANCH   5   6
ENDBRANCH   4   5
ENDBRANCH   3   4
ENDBRANCH   2   3
ENDBRANCH   1   2
BRANCH   1  15
ATOM     15  C   UNL     1      40.099  37.818  20.620  1.00  0.00     0.000 C 
BRANCH  15  16
ATOM     16  C   UNL     1      39.449  38.532  21.815  1.00  0.00     0.000 C 
BRANCH  16  17
ATOM     17  C   UNL     1      38.010  38.060  22.077  1.00  0.00     0.000 C 
BRANCH  17  18
ATOM     18  C   UNL     1      37.519  37.039  21.037  1.00  0.00    -0.000 C 
BRANCH  18  19
ATOM     19  C   UNL     1      36.875  35.782  21.659  1.00  0.00    -0.000 C 
BRANCH  19  20
ATOM     20  C   UNL     1      37.925  34.731  22.066  1.00  0.00    -0.000 C 
BRANCH  20  21
ATOM     21  C   UNL     1      37.977  34.511  23.593  1.00  0.00    -0.000 C 
BRANCH  21  22
ATOM     22  C   UNL     1      39.045  35.359  24.304  1.00  0.00    -0.000 C 
BRANCH  22  23
ATOM     23  C   UNL     1      40.462  35.125  23.753  1.00  0.00    -0.000 C 
BRANCH  23  24
ATOM     24  C   UNL     1      41.401  36.314  24.043  1.00  0.00    -0.000 C 
BRANCH  24  25
ATOM     25  C   UNL     1      40.850  37.290  25.097  1.00  0.00    -0.003 C 
ATOM     26  C   UNL     1      41.622  37.247  26.414  1.00  0.00     0.004 C 
ENDBRANCH  24  25
ENDBRANCH  23  24
ENDBRANCH  22  23
ENDBRANCH  21  22
ENDBRANCH  20  21
ENDBRANCH  19  20
ENDBRANCH  18  19
ENDBRANCH  17  18
ENDBRANCH  16  17
ENDBRANCH  15  16
ENDBRANCH   1  15
TORSDOF 22
ENDMDL
MODEL 8
REMARK VINA RESULT:    -1.345     12.144     15.490
REMARK INTER + INTRA:          -7.978
REMARK INTER:                  -3.406
REMARK INTRA:                  -4.572
REMARK UNBOUND:                -4.903
REMARK SMILES CCCCCCCCCCCCCCCCCCCCCCCC(=O)[O-]
REMARK SMILES IDX 13 1 14 2 15 3 16 4 17 5 18 6 19 7 20 8 21 9 22 10 23 11
REMARK SMILES IDX 24 12 25 13 26 14 12 15 11 16 10 17 9 18 8 19 7 20 6 21 5 22
REMARK SMILES IDX 4 23 3 24 2 25 1 26
REMARK H PARENT
REMARK Flexibility Score: inf
ROOT
ATOM      1  C   UNL     1      40.866  49.213  19.600  1.00  0.00     0.000 C 
ENDROOT
BRANCH   1   2
ATOM      2  C   UNL     1      39.973  48.691  20.746  1.00  0.00     0.000 C 
BRANCH   2   3
ATOM      3  C   UNL     1      38.516  49.187  20.686  1.00  0.00     0.000 C 
BRANCH   3   4
ATOM      4  C   UNL     1      38.280  50.416  19.793  1.00  0.00     0.000 C 
BRANCH   4   5
ATOM      5  C   UNL     1      37.629  51.589  20.544  1.00  0.00     0.000 C 
BRANCH   5   6
ATOM      6  C   UNL     1      38.463  52.869  20.392  1.00  0.00     0.000 C 
BRANCH   6   7
ATOM      7  C   UNL     1      39.018  53.389  21.730  1.00  0.00     0.000 C 
BRANCH   7   8
ATOM      8  C   UNL     1      38.502  52.656  22.982  1.00  0.00     0.000 C 
BRANCH   8   9
ATOM      9  C   UNL     1      39.634  52.186  23.910  1.00  0.00     0.000 C 
BRANCH   9  10
ATOM     10  C   UNL     1      39.815  50.660  23.888  1.00  0.00     0.006 C 
BRANCH  10  11
ATOM     11  C   UNL     1      38.582  49.913  24.415  1.00  0.00     0.053 C 
BRANCH  11  12
ATOM     12  C   UNL     1      38.902  49.216  25.699  1.00  0.00     0.041 C 
ATOM     13  O   UNL     1      40.100  49.046  26.046  1.00  0.00    -0.550 OA
ATOM     14  O   UNL     1      37.877  48.708  26.490  1.00  0.00    -0.550 OA
ENDBRANCH  11  12
ENDBRANCH  10  11
ENDBRANCH   9  10
ENDBRANCH   8   9
ENDBRANCH   7   8
ENDBRANCH   6   7
ENDBRANCH   5   6
ENDBRANCH   4   5
ENDBRANCH   3   4
ENDBRANCH   2   3
ENDBRANCH   1   2
BRANCH   1  15
ATOM     15  C   UNL     1      42.118  49.952  20.114  1.00  0.00     0.000 C 
BRANCH  15  16
ATOM     16  C   UNL     1      41.773  51.239  20.878  1.00  0.00     0.000 C 
BRANCH  16  17
ATOM     17  C   UNL     1      43.001  51.879  21.547  1.00  0.00     0.000 C 
BRANCH  17  18
ATOM     18  C   UNL     1      42.917  53.414  21.600  1.00  0.00    -0.000 C 
BRANCH  18  19
ATOM     19  C   UNL     1      42.301  54.045  20.332  1.00  0.00    -0.000 C 
BRANCH  19  20
ATOM     20  C   UNL     1      43.310  54.123  19.172  1.00  0.00    -0.000 C 
BRANCH  20  21
ATOM     21  C   UNL     1      42.880  53.272  17.958  1.00  0.00    -0.000 C 
BRANCH  21  22
ATOM     22  C   UNL     1      41.388  53.405  17.607  1.00  0.00    -0.000 C 
BRANCH  22  23
ATOM     23  C   UNL     1      40.708  52.050  17.354  1.00  0.00    -0.000 C 
BRANCH  23  24
ATOM     24  C   UNL     1      39.298  52.212  16.750  1.00  0.00    -0.000 C 
BRANCH  24  25
ATOM     25  C   UNL     1      38.960  51.155  15.684  1.00  0.00    -0.003 C 
ATOM     26  C   UNL     1      39.447  51.535  14.288  1.00  0.00     0.004 C 
ENDBRANCH  24  25
ENDBRANCH  23  24
ENDBRANCH  22  23
ENDBRANCH  21  22
ENDBRANCH  20  21
ENDBRANCH  19  20
ENDBRANCH  18  19
ENDBRANCH  17  18
ENDBRANCH  16  17
ENDBRANCH  15  16
ENDBRANCH   1  15
TORSDOF 22
ENDMDL
MODEL 9
REMARK VINA RESULT:    -1.321      2.430      3.799
REMARK INTER + INTRA:          -7.923
REMARK INTER:                  -3.300
REMARK INTRA:                  -4.623
REMARK UNBOUND:                -4.903
REMARK SMILES CCCCCCCCCCCCCCCCCCCCCCCC(=O)[O-]
REMARK SMILES IDX 13 1 14 2 15 3 16 4 17 5 18 6 19 7 20 8 21 9 22 10 23 11
REMARK SMILES IDX 24 12 25 13 26 14 12 15 11 16 10 17 9 18 8 19 7 20 6 21 5 22
REMARK SMILES IDX 4 23 3 24 2 25 1 26
REMARK H PARENT
REMARK Flexibility Score: inf
ROOT
ATOM      1  C   UNL     1      40.971  38.263  19.700  1.00  0.00     0.000 C 
ENDROOT
BRANCH   1   2
ATOM      2  C   UNL     1      39.876  39.094  18.998  1.00  0.00     0.000 C 
BRANCH   2   3
ATOM      3  C   UNL     1      38.567  39.220  19.802  1.00  0.00     0.000 C 
BRANCH   3   4
ATOM      4  C   UNL     1      37.331  38.588  19.141  1.00  0.00     0.000 C 
BRANCH   4   5
ATOM      5  C   UNL     1      37.575  38.177  17.680  1.00  0.00     0.000 C 
BRANCH   5   6
ATOM      6  C   UNL     1      36.875  36.848  17.360  1.00  0.00     0.000 C 
BRANCH   6   7
ATOM      7  C   UNL     1      37.186  35.741  18.384  1.00  0.00     0.000 C 
BRANCH   7   8
ATOM      8  C   UNL     1      38.188  34.674  17.908  1.00  0.00     0.000 C 
BRANCH   8   9
ATOM      9  C   UNL     1      39.493  34.672  18.722  1.00  0.00     0.000 C 
BRANCH   9  10
ATOM     10  C   UNL     1      40.715  35.052  17.870  1.00  0.00     0.006 C 
BRANCH  10  11
ATOM     11  C   UNL     1      42.043  34.760  18.583  1.00  0.00     0.053 C 
BRANCH  11  12
ATOM     12  C   UNL     1      43.198  35.081  17.689  1.00  0.00     0.041 C 
ATOM     13  O   UNL     1      43.012  35.266  16.457  1.00  0.00    -0.550 OA
ATOM     14  O   UNL     1      44.487  35.127  18.205  1.00  0.00    -0.550 OA
ENDBRANCH  11  12
ENDBRANCH  10  11
ENDBRANCH   9  10
ENDBRANCH   8   9
ENDBRANCH   7   8
ENDBRANCH   6   7
ENDBRANCH   5   6
ENDBRANCH   4   5
ENDBRANCH   3   4
ENDBRANCH   2   3
ENDBRANCH   1   2
BRANCH   1  15
ATOM     15  C   UNL     1      40.406  37.360  20.814  1.00  0.00     0.000 C 
BRANCH  15  16
ATOM     16  C   UNL     1      41.108  37.575  22.163  1.00  0.00     0.000 C 
BRANCH  16  17
ATOM     17  C   UNL     1      41.193  36.288  23.000  1.00  0.00     0.000 C 
BRANCH  17  18
ATOM     18  C   UNL     1      40.835  35.029  22.192  1.00  0.00    -0.000 C 
BRANCH  18  19
ATOM     19  C   UNL     1      39.881  34.068  22.935  1.00  0.00    -0.000 C 
BRANCH  19  20
ATOM     20  C   UNL     1      38.562  34.752  23.336  1.00  0.00    -0.000 C 
BRANCH  20  21
ATOM     21  C   UNL     1      37.624  34.975  22.131  1.00  0.00    -0.000 C 
BRANCH  21  22
ATOM     22  C   UNL     1      37.100  36.416  22.012  1.00  0.00    -0.000 C 
BRANCH  22  23
ATOM     23  C   UNL     1      36.880  37.090  23.376  1.00  0.00    -0.000 C 
BRANCH  23  24
ATOM     24  C   UNL     1      37.711  38.381  23.528  1.00  0.00    -0.000 C 
BRANCH  24  25
ATOM     25  C   UNL     1      38.678  38.352  24.724  1.00  0.00    -0.003 C 
ATOM     26  C   UNL     1      37.992  38.646  26.056  1.00  0.00     0.004 C 
ENDBRANCH  24  25
ENDBRANCH  23  24
ENDBRANCH  22  23
ENDBRANCH  21  22
ENDBRANCH  20  21
ENDBRANCH  19  20
ENDBRANCH  18  19
ENDBRANCH  17  18
ENDBRANCH  16  17
ENDBRANCH  15  16
ENDBRANCH   1  15
TORSDOF 22
ENDMDL
