MODEL 1
REMARK VINA RESULT:    -3.442      0.000      0.000
REMARK INTER + INTRA:          -6.994
REMARK INTER:                  -5.454
REMARK INTRA:                  -1.540
REMARK UNBOUND:                -1.540
REMARK SMILES CCCCCCCCCCCC(=O)[O-]
REMARK SMILES IDX 7 1 8 2 9 3 10 4 11 5 12 6 13 7 14 8 6 9 5 10 4 11 3 12 2 13
REMARK SMILES IDX 1 14
REMARK H PARENT
REMARK Flexibility Score: inf
ROOT
ATOM      1  C   UNL     1     181.608 183.836 202.125  1.00  0.00     0.000 C 
ENDROOT
BRANCH   1   2
ATOM      2  C   UNL     1     182.103 185.294 202.125  1.00  0.00     0.000 C 
BRANCH   2   3
ATOM      3  C   UNL     1     181.956 185.973 200.755  1.00  0.00     0.000 C 
BRANCH   3   4
ATOM      4  C   UNL     1     183.260 186.669 200.345  1.00  0.00     0.006 C 
BRANCH   4   5
ATOM      5  C   UNL     1     183.616 186.354 198.889  1.00  0.00     0.053 C 
BRANCH   5   6
ATOM      6  C   UNL     1     184.629 187.327 198.375  1.00  0.00     0.041 C 
ATOM      7  O   UNL     1     185.853 187.153 198.615  1.00  0.00    -0.550 OA
ATOM      8  O   UNL     1     184.218 188.453 197.673  1.00  0.00    -0.550 OA
ENDBRANCH   5   6
ENDBRANCH   4   5
ENDBRANCH   3   4
ENDBRANCH   2   3
ENDBRANCH   1   2
BRANCH   1   9
ATOM      9  C   UNL     1     181.027 183.342 200.785  1.00  0.00     0.000 C 
BRANCH   9  10
ATOM     10  C   UNL     1     181.665 182.056 200.232  1.00  0.00    -0.000 C 
BRANCH  10  11
ATOM     11  C   UNL     1     183.150 181.919 200.599  1.00  0.00    -0.000 C 
BRANCH  11  12
ATOM     12  C   UNL     1     184.034 182.677 199.599  1.00  0.00    -0.000 C 
BRANCH  12  13
ATOM     13  C   UNL     1     185.183 183.436 200.281  1.00  0.00    -0.003 C 
ATOM     14  C   UNL     1     185.248 183.181 201.786  1.00  0.00     0.004 C 
ENDBRANCH  12  13
ENDBRANCH  11  12
ENDBRANCH  10  11
ENDBRANCH   9  10
ENDBRANCH   1   9
TORSDOF 10
ENDMDL
MODEL 2
REMARK VINA RESULT:    -3.435      2.653      4.021
REMARK INTER + INTRA:          -6.983
REMARK INTER:                  -5.737
REMARK INTRA:                  -1.246
REMARK UNBOUND:                -1.540
REMARK SMILES CCCCCCCCCCCC(=O)[O-]
REMARK SMILES IDX 7 1 8 2 9 3 10 4 11 5 12 6 13 7 14 8 6 9 5 10 4 11 3 12 2 13
REMARK SMILES IDX 1 14
REMARK H PARENT
REMARK Flexibility Score: inf
ROOT
ATOM      1  C   UNL     1     182.166 186.473 200.620  1.00  0.00     0.000 C 
ENDROOT
BRANCH   1   2
ATOM      2  C   UNL     1     183.622 186.293 200.154  1.00  0.00     0.000 C 
BRANCH   2   3
ATOM      3  C   UNL     1     183.783 185.165 199.123  1.00  0.00     0.000 C 
BRANCH   3   4
ATOM      4  C   UNL     1     184.505 183.960 199.736  1.00  0.00     0.006 C 
BRANCH   4   5
ATOM      5  C   UNL     1     185.645 184.412 200.655  1.00  0.00     0.053 C 
BRANCH   5   6
ATOM      6  C   UNL     1     186.065 183.295 201.557  1.00  0.00     0.041 C 
ATOM      7  O   UNL     1     187.272 183.172 201.893  1.00  0.00    -0.550 OA
ATOM      8  O   UNL     1     185.131 182.361 201.988  1.00  0.00    -0.550 OA
ENDBRANCH   5   6
ENDBRANCH   4   5
ENDBRANCH   3   4
ENDBRANCH   2   3
ENDBRANCH   1   2
BRANCH   1   9
ATOM      9  C   UNL     1     181.857 185.926 202.028  1.00  0.00     0.000 C 
BRANCH   9  10
ATOM     10  C   UNL     1     180.862 184.752 202.068  1.00  0.00    -0.000 C 
BRANCH  10  11
ATOM     11  C   UNL     1     181.529 183.393 201.804  1.00  0.00    -0.000 C 
BRANCH  11  12
ATOM     12  C   UNL     1     180.952 182.736 200.543  1.00  0.00    -0.000 C 
BRANCH  12  13
ATOM     13  C   UNL     1     181.761 181.509 200.093  1.00  0.00    -0.003 C 
ATOM     14  C   UNL     1     182.126 180.584 201.254  1.00  0.00     0.004 C 
ENDBRANCH  12  13
ENDBRANCH  11  12
ENDBRANCH  10  11
ENDBRANCH   9  10
ENDBRANCH   1   9
TORSDOF 10
ENDMDL
MODEL 3
REMARK VINA RESULT:    -3.365      3.197      4.754
REMARK INTER + INTRA:          -6.872
REMARK INTER:                  -5.542
REMARK INTRA:                  -1.330
REMARK UNBOUND:                -1.540
REMARK SMILES CCCCCCCCCCCC(=O)[O-]
REMARK SMILES IDX 7 1 8 2 9 3 10 4 11 5 12 6 13 7 14 8 6 9 5 10 4 11 3 12 2 13
REMARK SMILES IDX 1 14
REMARK H PARENT
REMARK Flexibility Score: inf
ROOT
ATOM      1  C   UNL     1     181.791 186.502 201.156  1.00  0.00     0.000 C 
ENDROOT
BRANCH   1   2
ATOM      2  C   UNL     1     180.567 185.569 201.142  1.00  0.00     0.000 C 
BRANCH   2   3
ATOM      3  C   UNL     1     180.700 184.396 202.125  1.00  0.00     0.000 C 
BRANCH   3   4
ATOM      4  C   UNL     1     181.956 183.569 201.825  1.00  0.00     0.006 C 
BRANCH   4   5
ATOM      5  C   UNL     1     181.653 182.454 200.820  1.00  0.00     0.053 C 
BRANCH   5   6
ATOM      6  C   UNL     1     182.263 181.164 201.269  1.00  0.00     0.041 C 
ATOM      7  O   UNL     1     183.372 181.162 201.866  1.00  0.00    -0.550 OA
ATOM      8  O   UNL     1     181.632 179.960 200.986  1.00  0.00    -0.550 OA
ENDBRANCH   5   6
ENDBRANCH   4   5
ENDBRANCH   3   4
ENDBRANCH   2   3
ENDBRANCH   1   2
BRANCH   1   9
ATOM      9  C   UNL     1     182.046 187.266 199.841  1.00  0.00     0.000 C 
BRANCH   9  10
ATOM     10  C   UNL     1     183.390 186.959 199.158  1.00  0.00    -0.000 C 
BRANCH  10  11
ATOM     11  C   UNL     1     184.134 185.781 199.805  1.00  0.00    -0.000 C 
BRANCH  11  12
ATOM     12  C   UNL     1     184.125 184.554 198.884  1.00  0.00    -0.000 C 
BRANCH  12  13
ATOM     13  C   UNL     1     184.995 183.405 199.418  1.00  0.00    -0.003 C 
ATOM     14  C   UNL     1     185.613 183.717 200.780  1.00  0.00     0.004 C 
ENDBRANCH  12  13
ENDBRANCH  11  12
ENDBRANCH  10  11
ENDBRANCH   9  10
ENDBRANCH   1   9
TORSDOF 10
ENDMDL
MODEL 4
REMARK VINA RESULT:    -3.352      1.424      2.937
REMARK INTER + INTRA:          -6.850
REMARK INTER:                  -5.752
REMARK INTRA:                  -1.098
REMARK UNBOUND:                -1.540
REMARK SMILES CCCCCCCCCCCC(=O)[O-]
REMARK SMILES IDX 7 1 8 2 9 3 10 4 11 5 12 6 13 7 14 8 6 9 5 10 4 11 3 12 2 13
REMARK SMILES IDX 1 14
REMARK H PARENT
REMARK Flexibility Score: inf
ROOT
ATOM      1  C   UNL     1     184.019 184.864 198.957  1.00  0.00     0.000 C 
ENDROOT
BRANCH   1   2
ATOM      2  C   UNL     1     183.391 185.617 200.143  1.00  0.00     0.000 C 
BRANCH   2   3
ATOM      3  C   UNL     1     183.273 187.128 199.894  1.00  0.00     0.000 C 
BRANCH   3   4
ATOM      4  C   UNL     1     184.648 187.804 199.960  1.00  0.00     0.006 C 
BRANCH   4   5
ATOM      5  C   UNL     1     184.869 188.717 198.750  1.00  0.00     0.053 C 
BRANCH   5   6
ATOM      6  C   UNL     1     186.037 188.244 197.944  1.00  0.00     0.041 C 
ATOM      7  O   UNL     1     187.115 188.895 197.948  1.00  0.00    -0.550 OA
ATOM      8  O   UNL     1     185.921 187.111 197.150  1.00  0.00    -0.550 OA
ENDBRANCH   5   6
ENDBRANCH   4   5
ENDBRANCH   3   4
ENDBRANCH   2   3
ENDBRANCH   1   2
BRANCH   1   9
ATOM      9  C   UNL     1     184.886 183.648 199.340  1.00  0.00     0.000 C 
BRANCH   9  10
ATOM     10  C   UNL     1     185.627 183.772 200.683  1.00  0.00    -0.000 C 
BRANCH  10  11
ATOM     11  C   UNL     1     185.095 182.804 201.751  1.00  0.00    -0.000 C 
BRANCH  11  12
ATOM     12  C   UNL     1     184.012 181.886 201.169  1.00  0.00    -0.000 C 
BRANCH  12  13
ATOM     13  C   UNL     1     182.640 182.096 201.829  1.00  0.00    -0.003 C 
ATOM     14  C   UNL     1     181.543 182.425 200.818  1.00  0.00     0.004 C 
ENDBRANCH  12  13
ENDBRANCH  11  12
ENDBRANCH  10  11
ENDBRANCH   9  10
ENDBRANCH   1   9
TORSDOF 10
ENDMDL
MODEL 5
REMARK VINA RESULT:    -3.323     12.214     15.117
REMARK INTER + INTRA:          -6.805
REMARK INTER:                  -5.434
REMARK INTRA:                  -1.371
REMARK UNBOUND:                -1.540
REMARK SMILES CCCCCCCCCCCC(=O)[O-]
REMARK SMILES IDX 7 1 8 2 9 3 10 4 11 5 12 6 13 7 14 8 6 9 5 10 4 11 3 12 2 13
REMARK SMILES IDX 1 14
REMARK H PARENT
REMARK Flexibility Score: inf
ROOT
ATOM      1  C   UNL     1     197.014 193.487 201.383  1.00  0.00     0.000 C 
ENDROOT
BRANCH   1   2
ATOM      2  C   UNL     1     195.741 192.840 201.957  1.00  0.00     0.000 C 
BRANCH   2   3
ATOM      3  C   UNL     1     195.214 191.688 201.087  1.00  0.00     0.000 C 
BRANCH   3   4
ATOM      4  C   UNL     1     195.261 192.058 199.600  1.00  0.00     0.006 C 
BRANCH   4   5
ATOM      5  C   UNL     1     194.701 190.924 198.735  1.00  0.00     0.053 C 
BRANCH   5   6
ATOM      6  C   UNL     1     193.304 191.237 198.302  1.00  0.00     0.041 C 
ATOM      7  O   UNL     1     192.327 190.892 199.018  1.00  0.00    -0.550 OA
ATOM      8  O   UNL     1     193.076 191.867 197.086  1.00  0.00    -0.550 OA
ENDBRANCH   5   6
ENDBRANCH   4   5
ENDBRANCH   3   4
ENDBRANCH   2   3
ENDBRANCH   1   2
BRANCH   1   9
ATOM      9  C   UNL     1     197.173 194.992 201.679  1.00  0.00     0.000 C 
BRANCH   9  10
ATOM     10  C   UNL     1     196.734 195.931 200.540  1.00  0.00    -0.000 C 
BRANCH  10  11
ATOM     11  C   UNL     1     195.294 196.438 200.706  1.00  0.00    -0.000 C 
BRANCH  11  12
ATOM     12  C   UNL     1     194.339 195.696 199.761  1.00  0.00    -0.000 C 
BRANCH  12  13
ATOM     13  C   UNL     1     193.153 195.057 200.500  1.00  0.00    -0.003 C 
ATOM     14  C   UNL     1     193.061 195.496 201.961  1.00  0.00     0.004 C 
ENDBRANCH  12  13
ENDBRANCH  11  12
ENDBRANCH  10  11
ENDBRANCH   9  10
ENDBRANCH   1   9
TORSDOF 10
ENDMDL
MODEL 6
REMARK VINA RESULT:    -3.277      0.997      1.596
REMARK INTER + INTRA:          -6.732
REMARK INTER:                  -5.530
REMARK INTRA:                  -1.202
REMARK UNBOUND:                -1.540
REMARK SMILES CCCCCCCCCCCC(=O)[O-]
REMARK SMILES IDX 7 1 8 2 9 3 10 4 11 5 12 6 13 7 14 8 6 9 5 10 4 11 3 12 2 13
REMARK SMILES IDX 1 14
REMARK H PARENT
REMARK Flexibility Score: inf
ROOT
ATOM      1  C   UNL     1     181.481 185.071 202.031  1.00  0.00     0.000 C 
ENDROOT
BRANCH   1   2
ATOM      2  C   UNL     1     182.248 186.188 201.301  1.00  0.00     0.000 C 
BRANCH   2   3
ATOM      3  C   UNL     1     181.397 186.899 200.238  1.00  0.00     0.000 C 
BRANCH   3   4
ATOM      4  C   UNL     1     182.280 187.479 199.127  1.00  0.00     0.006 C 
BRANCH   4   5
ATOM      5  C   UNL     1     183.747 187.086 199.329  1.00  0.00     0.053 C 
BRANCH   5   6
ATOM      6  C   UNL     1     184.586 187.595 198.200  1.00  0.00     0.041 C 
ATOM      7  O   UNL     1     184.120 188.448 197.399  1.00  0.00    -0.550 OA
ATOM      8  O   UNL     1     185.866 187.094 198.003  1.00  0.00    -0.550 OA
ENDBRANCH   5   6
ENDBRANCH   4   5
ENDBRANCH   3   4
ENDBRANCH   2   3
ENDBRANCH   1   2
BRANCH   1   9
ATOM      9  C   UNL     1     180.950 183.942 201.124  1.00  0.00     0.000 C 
BRANCH   9  10
ATOM     10  C   UNL     1     181.783 182.648 201.138  1.00  0.00    -0.000 C 
BRANCH  10  11
ATOM     11  C   UNL     1     182.903 182.647 200.086  1.00  0.00    -0.000 C 
BRANCH  11  12
ATOM     12  C   UNL     1     184.268 182.906 200.738  1.00  0.00    -0.000 C 
BRANCH  12  13
ATOM     13  C   UNL     1     185.223 183.686 199.821  1.00  0.00    -0.003 C 
ATOM     14  C   UNL     1     184.801 183.641 198.353  1.00  0.00     0.004 C 
ENDBRANCH  12  13
ENDBRANCH  11  12
ENDBRANCH  10  11
ENDBRANCH   9  10
ENDBRANCH   1   9
TORSDOF 10
ENDMDL
MODEL 7
REMARK VINA RESULT:    -3.252      1.415      3.251
REMARK INTER + INTRA:          -6.693
REMARK INTER:                  -5.610
REMARK INTRA:                  -1.083
REMARK UNBOUND:                -1.540
REMARK SMILES CCCCCCCCCCCC(=O)[O-]
REMARK SMILES IDX 7 1 8 2 9 3 10 4 11 5 12 6 13 7 14 8 6 9 5 10 4 11 3 12 2 13
REMARK SMILES IDX 1 14
REMARK H PARENT
REMARK Flexibility Score: inf
ROOT
ATOM      1  C   UNL     1     185.140 183.301 199.805  1.00  0.00     0.000 C 
ENDROOT
BRANCH   1   2
ATOM      2  C   UNL     1     183.892 184.040 199.289  1.00  0.00     0.000 C 
BRANCH   2   3
ATOM      3  C   UNL     1     184.175 185.503 198.920  1.00  0.00     0.000 C 
BRANCH   3   4
ATOM      4  C   UNL     1     183.419 186.460 199.850  1.00  0.00     0.006 C 
BRANCH   4   5
ATOM      5  C   UNL     1     182.575 187.454 199.046  1.00  0.00     0.053 C 
BRANCH   5   6
ATOM      6  C   UNL     1     183.418 188.598 198.578  1.00  0.00     0.041 C 
ATOM      7  O   UNL     1     183.726 188.701 197.361  1.00  0.00    -0.550 OA
ATOM      8  O   UNL     1     183.905 189.523 199.492  1.00  0.00    -0.550 OA
ENDBRANCH   5   6
ENDBRANCH   4   5
ENDBRANCH   3   4
ENDBRANCH   2   3
ENDBRANCH   1   2
BRANCH   1   9
ATOM      9  C   UNL     1     185.258 183.209 201.340  1.00  0.00     0.000 C 
BRANCH   9  10
ATOM     10  C   UNL     1     183.942 183.424 202.109  1.00  0.00    -0.000 C 
BRANCH  10  11
ATOM     11  C   UNL     1     183.048 182.175 202.125  1.00  0.00    -0.000 C 
BRANCH  11  12
ATOM     12  C   UNL     1     181.598 182.535 201.775  1.00  0.00    -0.000 C 
BRANCH  12  13
ATOM     13  C   UNL     1     181.291 184.026 201.984  1.00  0.00    -0.003 C 
ATOM     14  C   UNL     1     180.002 184.467 201.292  1.00  0.00     0.004 C 
ENDBRANCH  12  13
ENDBRANCH  11  12
ENDBRANCH  10  11
ENDBRANCH   9  10
ENDBRANCH   1   9
TORSDOF 10
ENDMDL
MODEL 8
REMARK VINA RESULT:    -3.246     13.126     15.946
REMARK INTER + INTRA:          -6.683
REMARK INTER:                  -5.397
REMARK INTRA:                  -1.286
REMARK UNBOUND:                -1.540
REMARK SMILES CCCCCCCCCCCC(=O)[O-]
REMARK SMILES IDX 7 1 8 2 9 3 10 4 11 5 12 6 13 7 14 8 6 9 5 10 4 11 3 12 2 13
REMARK SMILES IDX 1 14
REMARK H PARENT
REMARK Flexibility Score: inf
ROOT
ATOM      1  C   UNL     1     197.345 192.800 201.423  1.00  0.00     0.000 C 
ENDROOT
BRANCH   1   2
ATOM      2  C   UNL     1     195.916 192.916 201.984  1.00  0.00     0.000 C 
BRANCH   2   3
ATOM      3  C   UNL     1     194.838 192.601 200.937  1.00  0.00     0.000 C 
BRANCH   3   4
ATOM      4  C   UNL     1     195.466 192.343 199.562  1.00  0.00     0.006 C 
BRANCH   4   5
ATOM      5  C   UNL     1     195.280 190.882 199.139  1.00  0.00     0.053 C 
BRANCH   5   6
ATOM      6  C   UNL     1     193.826 190.557 199.005  1.00  0.00     0.041 C 
ATOM      7  O   UNL     1     193.085 191.261 198.271  1.00  0.00    -0.550 OA
ATOM      8  O   UNL     1     193.279 189.504 199.728  1.00  0.00    -0.550 OA
ENDBRANCH   5   6
ENDBRANCH   4   5
ENDBRANCH   3   4
ENDBRANCH   2   3
ENDBRANCH   1   2
BRANCH   1   9
ATOM      9  C   UNL     1     198.397 193.682 202.125  1.00  0.00     0.000 C 
BRANCH   9  10
ATOM     10  C   UNL     1     198.134 195.196 202.050  1.00  0.00    -0.000 C 
BRANCH  10  11
ATOM     11  C   UNL     1     198.232 195.751 200.621  1.00  0.00    -0.000 C 
BRANCH  11  12
ATOM     12  C   UNL     1     197.107 196.757 200.344  1.00  0.00    -0.000 C 
BRANCH  12  13
ATOM     13  C   UNL     1     195.795 196.077 199.923  1.00  0.00    -0.003 C 
ATOM     14  C   UNL     1     194.641 196.375 200.880  1.00  0.00     0.004 C 
ENDBRANCH  12  13
ENDBRANCH  11  12
ENDBRANCH  10  11
ENDBRANCH   9  10
ENDBRANCH   1   9
TORSDOF 10
ENDMDL
MODEL 9
REMARK VINA RESULT:    -3.218      1.234      3.137
REMARK INTER + INTRA:          -6.639
REMARK INTER:                  -5.409
REMARK INTRA:                  -1.230
REMARK UNBOUND:                -1.540
REMARK SMILES CCCCCCCCCCCC(=O)[O-]
REMARK SMILES IDX 7 1 8 2 9 3 10 4 11 5 12 6 13 7 14 8 6 9 5 10 4 11 3 12 2 13
REMARK SMILES IDX 1 14
REMARK H PARENT
REMARK Flexibility Score: inf
ROOT
ATOM      1  C   UNL     1     184.278 182.664 201.137  1.00  0.00     0.000 C 
ENDROOT
BRANCH   1   2
ATOM      2  C   UNL     1     184.686 182.675 199.653  1.00  0.00     0.000 C 
BRANCH   2   3
ATOM      3  C   UNL     1     184.217 183.938 198.915  1.00  0.00     0.000 C 
BRANCH   3   4
ATOM      4  C   UNL     1     184.280 185.165 199.832  1.00  0.00     0.006 C 
BRANCH   4   5
ATOM      5  C   UNL     1     183.719 186.405 199.129  1.00  0.00     0.053 C 
BRANCH   5   6
ATOM      6  C   UNL     1     184.803 187.411 198.900  1.00  0.00     0.041 C 
ATOM      7  O   UNL     1     185.737 187.163 198.093  1.00  0.00    -0.550 OA
ATOM      8  O   UNL     1     184.807 188.603 199.613  1.00  0.00    -0.550 OA
ENDBRANCH   5   6
ENDBRANCH   4   5
ENDBRANCH   3   4
ENDBRANCH   2   3
ENDBRANCH   1   2
BRANCH   1   9
ATOM      9  C   UNL     1     183.337 181.515 201.549  1.00  0.00     0.000 C 
BRANCH   9  10
ATOM     10  C   UNL     1     181.848 181.892 201.642  1.00  0.00    -0.000 C 
BRANCH  10  11
ATOM     11  C   UNL     1     181.627 183.352 202.067  1.00  0.00    -0.000 C 
BRANCH  11  12
ATOM     12  C   UNL     1     180.844 184.122 200.996  1.00  0.00    -0.000 C 
BRANCH  12  13
ATOM     13  C   UNL     1     180.254 185.438 201.525  1.00  0.00    -0.003 C 
ATOM     14  C   UNL     1     181.314 186.366 202.118  1.00  0.00     0.004 C 
ENDBRANCH  12  13
ENDBRANCH  11  12
ENDBRANCH  10  11
ENDBRANCH   9  10
ENDBRANCH   1   9
TORSDOF 10
ENDMDL
