MODEL 1
REMARK VINA RESULT:    -3.324      0.000      0.000
REMARK INTER + INTRA:          -8.737
REMARK INTER:                  -6.433
REMARK INTRA:                  -2.303
REMARK UNBOUND:                -2.303
REMARK SMILES CCCCCCCCCCCCCCCCCC(=O)[O-]
REMARK SMILES IDX 10 1 11 2 12 3 13 4 14 5 15 6 16 7 17 8 18 9 19 10 20 11
REMARK SMILES IDX 9 12 8 13 7 14 6 15 5 16 4 17 3 18 2 19 1 20
REMARK H PARENT
REMARK Flexibility Score: inf
ROOT
ATOM      1  C   UNL     1      48.525  32.281  86.795  1.00  0.00     0.000 C 
ENDROOT
BRANCH   1   2
ATOM      2  C   UNL     1      48.402  33.650  87.490  1.00  0.00     0.000 C 
BRANCH   2   3
ATOM      3  C   UNL     1      48.831  34.858  86.637  1.00  0.00     0.000 C 
BRANCH   3   4
ATOM      4  C   UNL     1      49.730  35.844  87.399  1.00  0.00     0.000 C 
BRANCH   4   5
ATOM      5  C   UNL     1      51.191  35.372  87.393  1.00  0.00     0.000 C 
BRANCH   5   6
ATOM      6  C   UNL     1      51.614  34.779  86.040  1.00  0.00     0.000 C 
BRANCH   6   7
ATOM      7  C   UNL     1      52.550  33.566  86.190  1.00  0.00     0.006 C 
BRANCH   7   8
ATOM      8  C   UNL     1      53.259  33.546  87.550  1.00  0.00     0.053 C 
BRANCH   8   9
ATOM      9  C   UNL     1      54.024  32.274  87.757  1.00  0.00     0.041 C 
ATOM     10  O   UNL     1      54.877  31.903  86.908  1.00  0.00    -0.550 OA
ATOM     11  O   UNL     1      53.769  31.481  88.869  1.00  0.00    -0.550 OA
ENDBRANCH   8   9
ENDBRANCH   7   8
ENDBRANCH   6   7
ENDBRANCH   5   6
ENDBRANCH   4   5
ENDBRANCH   3   4
ENDBRANCH   2   3
ENDBRANCH   1   2
BRANCH   1  12
ATOM     12  C   UNL     1      49.723  31.457  87.300  1.00  0.00     0.000 C 
BRANCH  12  13
ATOM     13  C   UNL     1      50.149  31.850  88.724  1.00  0.00    -0.000 C 
BRANCH  13  14
ATOM     14  C   UNL     1      50.048  30.683  89.718  1.00  0.00    -0.000 C 
BRANCH  14  15
ATOM     15  C   UNL     1      49.040  30.997  90.830  1.00  0.00    -0.000 C 
BRANCH  15  16
ATOM     16  C   UNL     1      47.637  30.486  90.466  1.00  0.00    -0.000 C 
BRANCH  16  17
ATOM     17  C   UNL     1      46.680  31.633  90.078  1.00  0.00    -0.000 C 
BRANCH  17  18
ATOM     18  C   UNL     1      45.256  31.461  90.633  1.00  0.00    -0.000 C 
BRANCH  18  19
ATOM     19  C   UNL     1      45.144  30.318  91.650  1.00  0.00    -0.003 C 
ATOM     20  C   UNL     1      43.962  30.531  92.591  1.00  0.00     0.004 C 
ENDBRANCH  18  19
ENDBRANCH  17  18
ENDBRANCH  16  17
ENDBRANCH  15  16
ENDBRANCH  14  15
ENDBRANCH  13  14
ENDBRANCH  12  13
ENDBRANCH   1  12
TORSDOF 16
ENDMDL
MODEL 2
REMARK VINA RESULT:    -3.317      3.322      7.434
REMARK INTER + INTRA:          -8.724
REMARK INTER:                  -6.167
REMARK INTRA:                  -2.556
REMARK UNBOUND:                -2.303
REMARK SMILES CCCCCCCCCCCCCCCCCC(=O)[O-]
REMARK SMILES IDX 10 1 11 2 12 3 13 4 14 5 15 6 16 7 17 8 18 9 19 10 20 11
REMARK SMILES IDX 9 12 8 13 7 14 6 15 5 16 4 17 3 18 2 19 1 20
REMARK H PARENT
REMARK Flexibility Score: inf
ROOT
ATOM      1  C   UNL     1      49.636  31.839  86.386  1.00  0.00     0.000 C 
ENDROOT
BRANCH   1   2
ATOM      2  C   UNL     1      50.501  30.885  87.230  1.00  0.00     0.000 C 
BRANCH   2   3
ATOM      3  C   UNL     1      51.559  31.570  88.116  1.00  0.00     0.000 C 
BRANCH   3   4
ATOM      4  C   UNL     1      51.215  31.519  89.612  1.00  0.00     0.000 C 
BRANCH   4   5
ATOM      5  C   UNL     1      50.162  30.437  89.897  1.00  0.00     0.000 C 
BRANCH   5   6
ATOM      6  C   UNL     1      48.998  30.957  90.754  1.00  0.00     0.000 C 
BRANCH   6   7
ATOM      7  C   UNL     1      47.633  30.415  90.293  1.00  0.00     0.006 C 
BRANCH   7   8
ATOM      8  C   UNL     1      46.497  31.414  90.548  1.00  0.00     0.053 C 
BRANCH   8   9
ATOM      9  C   UNL     1      45.379  30.794  91.330  1.00  0.00     0.041 C 
ATOM     10  O   UNL     1      44.288  31.407  91.470  1.00  0.00    -0.550 OA
ATOM     11  O   UNL     1      45.555  29.555  91.934  1.00  0.00    -0.550 OA
ENDBRANCH   8   9
ENDBRANCH   7   8
ENDBRANCH   6   7
ENDBRANCH   5   6
ENDBRANCH   4   5
ENDBRANCH   3   4
ENDBRANCH   2   3
ENDBRANCH   1   2
BRANCH   1  12
ATOM     12  C   UNL     1      48.422  32.387  87.155  1.00  0.00     0.000 C 
BRANCH  12  13
ATOM     13  C   UNL     1      48.566  33.879  87.497  1.00  0.00    -0.000 C 
BRANCH  13  14
ATOM     14  C   UNL     1      49.513  34.619  86.540  1.00  0.00    -0.000 C 
BRANCH  14  15
ATOM     15  C   UNL     1      50.396  35.613  87.305  1.00  0.00    -0.000 C 
BRANCH  15  16
ATOM     16  C   UNL     1      51.794  35.030  87.561  1.00  0.00    -0.000 C 
BRANCH  16  17
ATOM     17  C   UNL     1      52.714  35.157  86.328  1.00  0.00    -0.000 C 
BRANCH  17  18
ATOM     18  C   UNL     1      53.067  33.807  85.681  1.00  0.00    -0.000 C 
BRANCH  18  19
ATOM     19  C   UNL     1      53.048  33.855  84.148  1.00  0.00    -0.003 C 
ATOM     20  C   UNL     1      51.646  34.151  83.623  1.00  0.00     0.004 C 
ENDBRANCH  18  19
ENDBRANCH  17  18
ENDBRANCH  16  17
ENDBRANCH  15  16
ENDBRANCH  14  15
ENDBRANCH  13  14
ENDBRANCH  12  13
ENDBRANCH   1  12
TORSDOF 16
ENDMDL
MODEL 3
REMARK VINA RESULT:    -3.280      3.743      7.353
REMARK INTER + INTRA:          -8.652
REMARK INTER:                  -6.858
REMARK INTRA:                  -1.794
REMARK UNBOUND:                -2.303
REMARK SMILES CCCCCCCCCCCCCCCCCC(=O)[O-]
REMARK SMILES IDX 10 1 11 2 12 3 13 4 14 5 15 6 16 7 17 8 18 9 19 10 20 11
REMARK SMILES IDX 9 12 8 13 7 14 6 15 5 16 4 17 3 18 2 19 1 20
REMARK H PARENT
REMARK Flexibility Score: inf
ROOT
ATOM      1  C   UNL     1      52.672  32.092  89.181  1.00  0.00     0.000 C 
ENDROOT
BRANCH   1   2
ATOM      2  C   UNL     1      51.149  32.235  89.364  1.00  0.00     0.000 C 
BRANCH   2   3
ATOM      3  C   UNL     1      50.405  30.930  89.702  1.00  0.00     0.000 C 
BRANCH   3   4
ATOM      4  C   UNL     1      49.161  31.156  90.575  1.00  0.00     0.000 C 
BRANCH   4   5
ATOM      5  C   UNL     1      47.901  30.610  89.887  1.00  0.00     0.000 C 
BRANCH   5   6
ATOM      6  C   UNL     1      46.782  31.659  89.786  1.00  0.00     0.000 C 
BRANCH   6   7
ATOM      7  C   UNL     1      45.701  31.480  90.866  1.00  0.00     0.006 C 
BRANCH   7   8
ATOM      8  C   UNL     1      45.619  30.034  91.371  1.00  0.00     0.053 C 
BRANCH   8   9
ATOM      9  C   UNL     1      44.660  29.899  92.514  1.00  0.00     0.041 C 
ATOM     10  O   UNL     1      44.296  28.757  92.904  1.00  0.00    -0.550 OA
ATOM     11  O   UNL     1      44.139  31.033  93.124  1.00  0.00    -0.550 OA
ENDBRANCH   8   9
ENDBRANCH   7   8
ENDBRANCH   6   7
ENDBRANCH   5   6
ENDBRANCH   4   5
ENDBRANCH   3   4
ENDBRANCH   2   3
ENDBRANCH   1   2
BRANCH   1  12
ATOM     12  C   UNL     1      53.425  33.422  89.356  1.00  0.00     0.000 C 
BRANCH  12  13
ATOM     13  C   UNL     1      54.400  33.704  88.201  1.00  0.00    -0.000 C 
BRANCH  13  14
ATOM     14  C   UNL     1      53.715  33.679  86.826  1.00  0.00    -0.000 C 
BRANCH  14  15
ATOM     15  C   UNL     1      52.957  34.987  86.568  1.00  0.00    -0.000 C 
BRANCH  15  16
ATOM     16  C   UNL     1      51.490  34.714  86.203  1.00  0.00    -0.000 C 
BRANCH  16  17
ATOM     17  C   UNL     1      50.510  35.313  87.234  1.00  0.00    -0.000 C 
BRANCH  17  18
ATOM     18  C   UNL     1      49.030  35.091  86.880  1.00  0.00    -0.000 C 
BRANCH  18  19
ATOM     19  C   UNL     1      48.461  33.795  87.474  1.00  0.00    -0.003 C 
ATOM     20  C   UNL     1      48.471  32.668  86.446  1.00  0.00     0.004 C 
ENDBRANCH  18  19
ENDBRANCH  17  18
ENDBRANCH  16  17
ENDBRANCH  15  16
ENDBRANCH  14  15
ENDBRANCH  13  14
ENDBRANCH  12  13
ENDBRANCH   1  12
TORSDOF 16
ENDMDL
MODEL 4
REMARK VINA RESULT:    -3.256      2.394      6.334
REMARK INTER + INTRA:          -8.604
REMARK INTER:                  -5.803
REMARK INTRA:                  -2.801
REMARK UNBOUND:                -2.303
REMARK SMILES CCCCCCCCCCCCCCCCCC(=O)[O-]
REMARK SMILES IDX 10 1 11 2 12 3 13 4 14 5 15 6 16 7 17 8 18 9 19 10 20 11
REMARK SMILES IDX 9 12 8 13 7 14 6 15 5 16 4 17 3 18 2 19 1 20
REMARK H PARENT
REMARK Flexibility Score: inf
ROOT
ATOM      1  C   UNL     1      51.064  32.422  89.003  1.00  0.00     0.000 C 
ENDROOT
BRANCH   1   2
ATOM      2  C   UNL     1      50.889  31.517  87.769  1.00  0.00     0.000 C 
BRANCH   2   3
ATOM      3  C   UNL     1      49.545  31.667  87.032  1.00  0.00     0.000 C 
BRANCH   3   4
ATOM      4  C   UNL     1      48.465  32.352  87.883  1.00  0.00     0.000 C 
BRANCH   4   5
ATOM      5  C   UNL     1      47.182  31.509  87.925  1.00  0.00     0.000 C 
BRANCH   5   6
ATOM      6  C   UNL     1      46.522  31.509  89.313  1.00  0.00     0.000 C 
BRANCH   6   7
ATOM      7  C   UNL     1      47.532  31.271  90.450  1.00  0.00     0.006 C 
BRANCH   7   8
ATOM      8  C   UNL     1      47.741  29.779  90.737  1.00  0.00     0.053 C 
BRANCH   8   9
ATOM      9  C   UNL     1      49.100  29.317  90.306  1.00  0.00     0.041 C 
ATOM     10  O   UNL     1      49.254  28.758  89.188  1.00  0.00    -0.550 OA
ATOM     11  O   UNL     1      50.189  29.470  91.155  1.00  0.00    -0.550 OA
ENDBRANCH   8   9
ENDBRANCH   7   8
ENDBRANCH   6   7
ENDBRANCH   5   6
ENDBRANCH   4   5
ENDBRANCH   3   4
ENDBRANCH   2   3
ENDBRANCH   1   2
BRANCH   1  12
ATOM     12  C   UNL     1      52.288  32.044  89.855  1.00  0.00     0.000 C 
BRANCH  12  13
ATOM     13  C   UNL     1      53.385  33.120  89.820  1.00  0.00    -0.000 C 
BRANCH  13  14
ATOM     14  C   UNL     1      54.422  32.875  88.712  1.00  0.00    -0.000 C 
BRANCH  14  15
ATOM     15  C   UNL     1      54.389  34.002  87.673  1.00  0.00    -0.000 C 
BRANCH  15  16
ATOM     16  C   UNL     1      53.639  33.565  86.405  1.00  0.00    -0.000 C 
BRANCH  16  17
ATOM     17  C   UNL     1      52.890  34.738  85.736  1.00  0.00    -0.000 C 
BRANCH  17  18
ATOM     18  C   UNL     1      51.383  34.760  86.043  1.00  0.00    -0.000 C 
BRANCH  18  19
ATOM     19  C   UNL     1      51.042  35.555  87.310  1.00  0.00    -0.003 C 
ATOM     20  C   UNL     1      49.545  35.838  87.397  1.00  0.00     0.004 C 
ENDBRANCH  18  19
ENDBRANCH  17  18
ENDBRANCH  16  17
ENDBRANCH  15  16
ENDBRANCH  14  15
ENDBRANCH  13  14
ENDBRANCH  12  13
ENDBRANCH   1  12
TORSDOF 16
ENDMDL
MODEL 5
REMARK VINA RESULT:    -3.245     15.553     17.007
REMARK INTER + INTRA:          -8.584
REMARK INTER:                  -6.507
REMARK INTRA:                  -2.077
REMARK UNBOUND:                -2.303
REMARK SMILES CCCCCCCCCCCCCCCCCC(=O)[O-]
REMARK SMILES IDX 10 1 11 2 12 3 13 4 14 5 15 6 16 7 17 8 18 9 19 10 20 11
REMARK SMILES IDX 9 12 8 13 7 14 6 15 5 16 4 17 3 18 2 19 1 20
REMARK H PARENT
REMARK Flexibility Score: inf
ROOT
ATOM      1  C   UNL     1      45.337  18.985  77.681  1.00  0.00     0.000 C 
ENDROOT
BRANCH   1   2
ATOM      2  C   UNL     1      46.242  18.847  76.443  1.00  0.00     0.000 C 
BRANCH   2   3
ATOM      3  C   UNL     1      45.871  19.755  75.256  1.00  0.00     0.000 C 
BRANCH   3   4
ATOM      4  C   UNL     1      47.096  20.364  74.557  1.00  0.00     0.000 C 
BRANCH   4   5
ATOM      5  C   UNL     1      47.645  21.558  75.352  1.00  0.00     0.000 C 
BRANCH   5   6
ATOM      6  C   UNL     1      49.180  21.588  75.388  1.00  0.00     0.000 C 
BRANCH   6   7
ATOM      7  C   UNL     1      49.739  21.715  76.816  1.00  0.00     0.006 C 
BRANCH   7   8
ATOM      8  C   UNL     1      49.100  20.707  77.780  1.00  0.00     0.053 C 
BRANCH   8   9
ATOM      9  C   UNL     1      49.770  20.721  79.120  1.00  0.00     0.041 C 
ATOM     10  O   UNL     1      51.023  20.630  79.203  1.00  0.00    -0.550 OA
ATOM     11  O   UNL     1      49.007  20.797  80.279  1.00  0.00    -0.550 OA
ENDBRANCH   8   9
ENDBRANCH   7   8
ENDBRANCH   6   7
ENDBRANCH   5   6
ENDBRANCH   4   5
ENDBRANCH   3   4
ENDBRANCH   2   3
ENDBRANCH   1   2
BRANCH   1  12
ATOM     12  C   UNL     1      45.542  20.314  78.429  1.00  0.00     0.000 C 
BRANCH  12  13
ATOM     13  C   UNL     1      44.215  21.020  78.750  1.00  0.00    -0.000 C 
BRANCH  13  14
ATOM     14  C   UNL     1      43.029  20.046  78.839  1.00  0.00    -0.000 C 
BRANCH  14  15
ATOM     15  C   UNL     1      41.789  20.744  79.408  1.00  0.00    -0.000 C 
BRANCH  15  16
ATOM     16  C   UNL     1      40.635  20.737  78.394  1.00  0.00    -0.000 C 
BRANCH  16  17
ATOM     17  C   UNL     1      40.275  22.159  77.911  1.00  0.00    -0.000 C 
BRANCH  17  18
ATOM     18  C   UNL     1      40.589  22.401  76.424  1.00  0.00    -0.000 C 
BRANCH  18  19
ATOM     19  C   UNL     1      42.058  22.769  76.176  1.00  0.00    -0.003 C 
ATOM     20  C   UNL     1      42.776  21.671  75.397  1.00  0.00     0.004 C 
ENDBRANCH  18  19
ENDBRANCH  17  18
ENDBRANCH  16  17
ENDBRANCH  15  16
ENDBRANCH  14  15
ENDBRANCH  13  14
ENDBRANCH  12  13
ENDBRANCH   1  12
TORSDOF 16
ENDMDL
MODEL 6
REMARK VINA RESULT:    -3.219     16.756     18.762
REMARK INTER + INTRA:          -8.533
REMARK INTER:                  -6.216
REMARK INTRA:                  -2.317
REMARK UNBOUND:                -2.303
REMARK SMILES CCCCCCCCCCCCCCCCCC(=O)[O-]
REMARK SMILES IDX 10 1 11 2 12 3 13 4 14 5 15 6 16 7 17 8 18 9 19 10 20 11
REMARK SMILES IDX 9 12 8 13 7 14 6 15 5 16 4 17 3 18 2 19 1 20
REMARK H PARENT
REMARK Flexibility Score: inf
ROOT
ATOM      1  C   UNL     1      46.764  19.762  76.799  1.00  0.00     0.000 C 
ENDROOT
BRANCH   1   2
ATOM      2  C   UNL     1      46.037  19.356  78.095  1.00  0.00     0.000 C 
BRANCH   2   3
ATOM      3  C   UNL     1      44.533  19.687  78.134  1.00  0.00     0.000 C 
BRANCH   3   4
ATOM      4  C   UNL     1      44.222  20.983  78.896  1.00  0.00     0.000 C 
BRANCH   4   5
ATOM      5  C   UNL     1      42.725  21.316  78.826  1.00  0.00     0.000 C 
BRANCH   5   6
ATOM      6  C   UNL     1      41.853  20.270  79.538  1.00  0.00     0.000 C 
BRANCH   6   7
ATOM      7  C   UNL     1      40.460  20.124  78.901  1.00  0.00     0.006 C 
BRANCH   7   8
ATOM      8  C   UNL     1      39.502  21.239  79.338  1.00  0.00     0.053 C 
BRANCH   8   9
ATOM      9  C   UNL     1      38.688  20.835  80.529  1.00  0.00     0.041 C 
ATOM     10  O   UNL     1      38.356  19.630  80.690  1.00  0.00    -0.550 OA
ATOM     11  O   UNL     1      38.264  21.793  81.441  1.00  0.00    -0.550 OA
ENDBRANCH   8   9
ENDBRANCH   7   8
ENDBRANCH   6   7
ENDBRANCH   5   6
ENDBRANCH   4   5
ENDBRANCH   3   4
ENDBRANCH   2   3
ENDBRANCH   1   2
BRANCH   1  12
ATOM     12  C   UNL     1      46.134  19.143  75.539  1.00  0.00     0.000 C 
BRANCH  12  13
ATOM     13  C   UNL     1      46.514  19.901  74.257  1.00  0.00    -0.000 C 
BRANCH  13  14
ATOM     14  C   UNL     1      45.380  20.800  73.739  1.00  0.00    -0.000 C 
BRANCH  14  15
ATOM     15  C   UNL     1      45.483  22.209  74.334  1.00  0.00    -0.000 C 
BRANCH  15  16
ATOM     16  C   UNL     1      44.242  22.549  75.172  1.00  0.00    -0.000 C 
BRANCH  16  17
ATOM     17  C   UNL     1      43.201  21.409  75.163  1.00  0.00    -0.000 C 
BRANCH  17  18
ATOM     18  C   UNL     1      41.836  21.826  74.588  1.00  0.00    -0.000 C 
BRANCH  18  19
ATOM     19  C   UNL     1      40.728  21.865  75.647  1.00  0.00    -0.003 C 
ATOM     20  C   UNL     1      40.700  23.211  76.365  1.00  0.00     0.004 C 
ENDBRANCH  18  19
ENDBRANCH  17  18
ENDBRANCH  16  17
ENDBRANCH  15  16
ENDBRANCH  14  15
ENDBRANCH  13  14
ENDBRANCH  12  13
ENDBRANCH   1  12
TORSDOF 16
ENDMDL
MODEL 7
REMARK VINA RESULT:    -3.207     17.267     19.175
REMARK INTER + INTRA:          -8.511
REMARK INTER:                  -6.603
REMARK INTRA:                  -1.908
REMARK UNBOUND:                -2.303
REMARK SMILES CCCCCCCCCCCCCCCCCC(=O)[O-]
REMARK SMILES IDX 10 1 11 2 12 3 13 4 14 5 15 6 16 7 17 8 18 9 19 10 20 11
REMARK SMILES IDX 9 12 8 13 7 14 6 15 5 16 4 17 3 18 2 19 1 20
REMARK H PARENT
REMARK Flexibility Score: inf
ROOT
ATOM      1  C   UNL     1      43.224  21.884  75.496  1.00  0.00     0.000 C 
ENDROOT
BRANCH   1   2
ATOM      2  C   UNL     1      41.871  22.603  75.335  1.00  0.00     0.000 C 
BRANCH   2   3
ATOM      3  C   UNL     1      40.851  22.338  76.458  1.00  0.00     0.000 C 
BRANCH   3   4
ATOM      4  C   UNL     1      41.228  21.141  77.343  1.00  0.00     0.000 C 
BRANCH   4   5
ATOM      5  C   UNL     1      41.052  21.481  78.831  1.00  0.00     0.000 C 
BRANCH   5   6
ATOM      6  C   UNL     1      41.224  20.256  79.741  1.00  0.00     0.000 C 
BRANCH   6   7
ATOM      7  C   UNL     1      39.938  19.419  79.860  1.00  0.00     0.006 C 
BRANCH   7   8
ATOM      8  C   UNL     1      38.690  20.295  80.034  1.00  0.00     0.053 C 
BRANCH   8   9
ATOM      9  C   UNL     1      37.498  19.486  80.446  1.00  0.00     0.041 C 
ATOM     10  O   UNL     1      36.631  19.982  81.213  1.00  0.00    -0.550 OA
ATOM     11  O   UNL     1      37.364  18.173  80.012  1.00  0.00    -0.550 OA
ENDBRANCH   8   9
ENDBRANCH   7   8
ENDBRANCH   6   7
ENDBRANCH   5   6
ENDBRANCH   4   5
ENDBRANCH   3   4
ENDBRANCH   2   3
ENDBRANCH   1   2
BRANCH   1  12
ATOM     12  C   UNL     1      44.412  22.856  75.590  1.00  0.00     0.000 C 
BRANCH  12  13
ATOM     13  C   UNL     1      45.669  22.321  74.886  1.00  0.00    -0.000 C 
BRANCH  13  14
ATOM     14  C   UNL     1      45.343  21.315  73.772  1.00  0.00    -0.000 C 
BRANCH  14  15
ATOM     15  C   UNL     1      46.177  20.037  73.926  1.00  0.00    -0.000 C 
BRANCH  15  16
ATOM     16  C   UNL     1      46.562  19.801  75.395  1.00  0.00    -0.000 C 
BRANCH  16  17
ATOM     17  C   UNL     1      46.024  18.457  75.930  1.00  0.00    -0.000 C 
BRANCH  17  18
ATOM     18  C   UNL     1      45.590  18.512  77.405  1.00  0.00    -0.000 C 
BRANCH  18  19
ATOM     19  C   UNL     1      45.975  19.827  78.094  1.00  0.00    -0.003 C 
ATOM     20  C   UNL     1      44.739  20.582  78.572  1.00  0.00     0.004 C 
ENDBRANCH  18  19
ENDBRANCH  17  18
ENDBRANCH  16  17
ENDBRANCH  15  16
ENDBRANCH  14  15
ENDBRANCH  13  14
ENDBRANCH  12  13
ENDBRANCH   1  12
TORSDOF 16
ENDMDL
MODEL 8
REMARK VINA RESULT:    -3.204      1.852      6.008
REMARK INTER + INTRA:          -8.504
REMARK INTER:                  -5.842
REMARK INTRA:                  -2.662
REMARK UNBOUND:                -2.303
REMARK SMILES CCCCCCCCCCCCCCCCCC(=O)[O-]
REMARK SMILES IDX 10 1 11 2 12 3 13 4 14 5 15 6 16 7 17 8 18 9 19 10 20 11
REMARK SMILES IDX 9 12 8 13 7 14 6 15 5 16 4 17 3 18 2 19 1 20
REMARK H PARENT
REMARK Flexibility Score: inf
ROOT
ATOM      1  C   UNL     1      48.086  32.086  87.942  1.00  0.00     0.000 C 
ENDROOT
BRANCH   1   2
ATOM      2  C   UNL     1      47.130  31.974  89.144  1.00  0.00     0.000 C 
BRANCH   2   3
ATOM      3  C   UNL     1      47.621  31.069  90.289  1.00  0.00     0.000 C 
BRANCH   3   4
ATOM      4  C   UNL     1      48.724  30.093  89.853  1.00  0.00     0.000 C 
BRANCH   4   5
ATOM      5  C   UNL     1      49.919  30.149  90.816  1.00  0.00     0.000 C 
BRANCH   5   6
ATOM      6  C   UNL     1      50.511  31.562  90.941  1.00  0.00     0.000 C 
BRANCH   6   7
ATOM      7  C   UNL     1      51.358  31.961  89.719  1.00  0.00     0.006 C 
BRANCH   7   8
ATOM      8  C   UNL     1      52.686  32.613  90.122  1.00  0.00     0.053 C 
BRANCH   8   9
ATOM      9  C   UNL     1      53.840  31.674  89.949  1.00  0.00     0.041 C 
ATOM     10  O   UNL     1      53.635  30.457  89.700  1.00  0.00    -0.550 OA
ATOM     11  O   UNL     1      55.142  32.136  90.099  1.00  0.00    -0.550 OA
ENDBRANCH   8   9
ENDBRANCH   7   8
ENDBRANCH   6   7
ENDBRANCH   5   6
ENDBRANCH   4   5
ENDBRANCH   3   4
ENDBRANCH   2   3
ENDBRANCH   1   2
BRANCH   1  12
ATOM     12  C   UNL     1      48.358  33.543  87.526  1.00  0.00     0.000 C 
BRANCH  12  13
ATOM     13  C   UNL     1      49.024  33.646  86.144  1.00  0.00    -0.000 C 
BRANCH  13  14
ATOM     14  C   UNL     1      50.195  34.640  86.122  1.00  0.00    -0.000 C 
BRANCH  14  15
ATOM     15  C   UNL     1      50.669  34.960  87.544  1.00  0.00    -0.000 C 
BRANCH  15  16
ATOM     16  C   UNL     1      52.101  35.517  87.539  1.00  0.00    -0.000 C 
BRANCH  16  17
ATOM     17  C   UNL     1      52.979  34.862  86.451  1.00  0.00    -0.000 C 
BRANCH  17  18
ATOM     18  C   UNL     1      54.109  33.986  87.018  1.00  0.00    -0.000 C 
BRANCH  18  19
ATOM     19  C   UNL     1      54.156  32.588  86.387  1.00  0.00    -0.003 C 
ATOM     20  C   UNL     1      52.763  31.969  86.315  1.00  0.00     0.004 C 
ENDBRANCH  18  19
ENDBRANCH  17  18
ENDBRANCH  16  17
ENDBRANCH  15  16
ENDBRANCH  14  15
ENDBRANCH  13  14
ENDBRANCH  12  13
ENDBRANCH   1  12
TORSDOF 16
ENDMDL
MODEL 9
REMARK VINA RESULT:    -3.178      3.400      6.609
REMARK INTER + INTRA:          -8.454
REMARK INTER:                  -6.445
REMARK INTRA:                  -2.010
REMARK UNBOUND:                -2.303
REMARK SMILES CCCCCCCCCCCCCCCCCC(=O)[O-]
REMARK SMILES IDX 10 1 11 2 12 3 13 4 14 5 15 6 16 7 17 8 18 9 19 10 20 11
REMARK SMILES IDX 9 12 8 13 7 14 6 15 5 16 4 17 3 18 2 19 1 20
REMARK H PARENT
REMARK Flexibility Score: inf
ROOT
ATOM      1  C   UNL     1      50.556  35.331  87.332  1.00  0.00     0.000 C 
ENDROOT
BRANCH   1   2
ATOM      2  C   UNL     1      49.349  34.991  86.438  1.00  0.00     0.000 C 
BRANCH   2   3
ATOM      3  C   UNL     1      48.861  33.533  86.524  1.00  0.00     0.000 C 
BRANCH   3   4
ATOM      4  C   UNL     1      48.238  33.186  87.884  1.00  0.00     0.000 C 
BRANCH   4   5
ATOM      5  C   UNL     1      48.296  31.673  88.145  1.00  0.00     0.000 C 
BRANCH   5   6
ATOM      6  C   UNL     1      48.052  31.319  89.620  1.00  0.00     0.000 C 
BRANCH   6   7
ATOM      7  C   UNL     1      46.677  30.670  89.856  1.00  0.00     0.006 C 
BRANCH   7   8
ATOM      8  C   UNL     1      45.845  31.434  90.894  1.00  0.00     0.053 C 
BRANCH   8   9
ATOM      9  C   UNL     1      44.995  30.510  91.712  1.00  0.00     0.041 C 
ATOM     10  O   UNL     1      43.819  30.839  92.019  1.00  0.00    -0.550 OA
ATOM     11  O   UNL     1      45.514  29.304  92.165  1.00  0.00    -0.550 OA
ENDBRANCH   8   9
ENDBRANCH   7   8
ENDBRANCH   6   7
ENDBRANCH   5   6
ENDBRANCH   4   5
ENDBRANCH   3   4
ENDBRANCH   2   3
ENDBRANCH   1   2
BRANCH   1  12
ATOM     12  C   UNL     1      51.906  35.026  86.659  1.00  0.00     0.000 C 
BRANCH  12  13
ATOM     13  C   UNL     1      53.103  35.349  87.567  1.00  0.00    -0.000 C 
BRANCH  13  14
ATOM     14  C   UNL     1      54.195  34.268  87.518  1.00  0.00    -0.000 C 
BRANCH  14  15
ATOM     15  C   UNL     1      53.648  32.966  86.922  1.00  0.00    -0.000 C 
BRANCH  15  16
ATOM     16  C   UNL     1      53.477  31.889  88.005  1.00  0.00    -0.000 C 
BRANCH  16  17
ATOM     17  C   UNL     1      51.997  31.683  88.393  1.00  0.00    -0.000 C 
BRANCH  17  18
ATOM     18  C   UNL     1      51.626  32.298  89.753  1.00  0.00    -0.000 C 
BRANCH  18  19
ATOM     19  C   UNL     1      51.614  31.269  90.891  1.00  0.00    -0.003 C 
ATOM     20  C   UNL     1      50.891  31.815  92.119  1.00  0.00     0.004 C 
ENDBRANCH  18  19
ENDBRANCH  17  18
ENDBRANCH  16  17
ENDBRANCH  15  16
ENDBRANCH  14  15
ENDBRANCH  13  14
ENDBRANCH  12  13
ENDBRANCH   1  12
TORSDOF 16
ENDMDL
