MODEL 1
REMARK VINA RESULT:    -3.253      0.000      0.000
REMARK INTER + INTRA:          -6.638
REMARK INTER:                  -5.915
REMARK INTRA:                  -0.723
REMARK UNBOUND:                -0.723
REMARK SMILES CCCCCCCCCCCCCCCC(=O)[O-]
REMARK SMILES IDX 9 1 10 2 11 3 12 4 13 5 14 6 15 7 16 8 17 9 18 10 8 11 7 12
REMARK SMILES IDX 6 13 5 14 4 15 3 16 2 17 1 18
REMARK H PARENT
REMARK Flexibility Score: inf
ROOT
ATOM      1  C   UNL     1       1.405 -37.192  19.731  1.00  0.00     0.000 C 
ENDROOT
BRANCH   1   2
ATOM      2  C   UNL     1       2.873 -37.630  19.861  1.00  0.00     0.000 C 
BRANCH   2   3
ATOM      3  C   UNL     1       3.850 -36.647  19.192  1.00  0.00     0.000 C 
BRANCH   3   4
ATOM      4  C   UNL     1       5.109 -36.405  20.051  1.00  0.00     0.000 C 
BRANCH   4   5
ATOM      5  C   UNL     1       5.332 -37.476  21.132  1.00  0.00     0.000 C 
BRANCH   5   6
ATOM      6  C   UNL     1       6.100 -36.941  22.353  1.00  0.00     0.006 C 
BRANCH   6   7
ATOM      7  C   UNL     1       6.125 -35.407  22.396  1.00  0.00     0.053 C 
BRANCH   7   8
ATOM      8  C   UNL     1       5.822 -34.883  23.766  1.00  0.00     0.041 C 
ATOM      9  O   UNL     1       5.554 -35.679  24.704  1.00  0.00    -0.550 OA
ATOM     10  O   UNL     1       5.808 -33.514  24.001  1.00  0.00    -0.550 OA
ENDBRANCH   7   8
ENDBRANCH   6   7
ENDBRANCH   5   6
ENDBRANCH   4   5
ENDBRANCH   3   4
ENDBRANCH   2   3
ENDBRANCH   1   2
BRANCH   1  11
ATOM     11  C   UNL     1       0.710 -37.811  18.505  1.00  0.00     0.000 C 
BRANCH  11  12
ATOM     12  C   UNL     1       1.516 -37.633  17.205  1.00  0.00    -0.000 C 
BRANCH  12  13
ATOM     13  C   UNL     1       1.536 -36.200  16.641  1.00  0.00    -0.000 C 
BRANCH  13  14
ATOM     14  C   UNL     1       2.811 -35.892  15.837  1.00  0.00    -0.000 C 
BRANCH  14  15
ATOM     15  C   UNL     1       2.689 -36.298  14.360  1.00  0.00    -0.000 C 
BRANCH  15  16
ATOM     16  C   UNL     1       3.885 -37.132  13.876  1.00  0.00    -0.000 C 
BRANCH  16  17
ATOM     17  C   UNL     1       4.072 -38.380  14.747  1.00  0.00    -0.003 C 
ATOM     18  C   UNL     1       4.826 -39.472  13.993  1.00  0.00     0.004 C 
ENDBRANCH  16  17
ENDBRANCH  15  16
ENDBRANCH  14  15
ENDBRANCH  13  14
ENDBRANCH  12  13
ENDBRANCH  11  12
ENDBRANCH   1  11
TORSDOF 14
ENDMDL
MODEL 2
REMARK VINA RESULT:    -2.949      4.025      7.658
REMARK INTER + INTRA:          -6.086
REMARK INTER:                  -4.864
REMARK INTRA:                  -1.222
REMARK UNBOUND:                -0.723
REMARK SMILES CCCCCCCCCCCCCCCC(=O)[O-]
REMARK SMILES IDX 9 1 10 2 11 3 12 4 13 5 14 6 15 7 16 8 17 9 18 10 8 11 7 12
REMARK SMILES IDX 6 13 5 14 4 15 3 16 2 17 1 18
REMARK H PARENT
REMARK Flexibility Score: inf
ROOT
ATOM      1  C   UNL     1       4.237 -34.497  22.686  1.00  0.00     0.000 C 
ENDROOT
BRANCH   1   2
ATOM      2  C   UNL     1       3.832 -35.383  21.496  1.00  0.00     0.000 C 
BRANCH   2   3
ATOM      3  C   UNL     1       5.023 -35.747  20.591  1.00  0.00     0.000 C 
BRANCH   3   4
ATOM      4  C   UNL     1       4.604 -35.899  19.114  1.00  0.00     0.000 C 
BRANCH   4   5
ATOM      5  C   UNL     1       3.991 -37.270  18.784  1.00  0.00     0.000 C 
BRANCH   5   6
ATOM      6  C   UNL     1       2.955 -37.204  17.650  1.00  0.00     0.006 C 
BRANCH   6   7
ATOM      7  C   UNL     1       3.424 -36.319  16.487  1.00  0.00     0.053 C 
BRANCH   7   8
ATOM      8  C   UNL     1       3.241 -36.994  15.163  1.00  0.00     0.041 C 
ATOM      9  O   UNL     1       2.526 -36.461  14.273  1.00  0.00    -0.550 OA
ATOM     10  O   UNL     1       3.835 -38.226  14.920  1.00  0.00    -0.550 OA
ENDBRANCH   7   8
ENDBRANCH   6   7
ENDBRANCH   5   6
ENDBRANCH   4   5
ENDBRANCH   3   4
ENDBRANCH   2   3
ENDBRANCH   1   2
BRANCH   1  11
ATOM     11  C   UNL     1       5.678 -34.760  23.154  1.00  0.00     0.000 C 
BRANCH  11  12
ATOM     12  C   UNL     1       5.754 -35.301  24.594  1.00  0.00    -0.000 C 
BRANCH  12  13
ATOM     13  C   UNL     1       5.482 -36.809  24.739  1.00  0.00    -0.000 C 
BRANCH  13  14
ATOM     14  C   UNL     1       6.123 -37.643  23.616  1.00  0.00    -0.000 C 
BRANCH  14  15
ATOM     15  C   UNL     1       5.527 -39.056  23.516  1.00  0.00    -0.000 C 
BRANCH  15  16
ATOM     16  C   UNL     1       5.500 -39.585  22.075  1.00  0.00    -0.000 C 
BRANCH  16  17
ATOM     17  C   UNL     1       6.124 -40.983  21.991  1.00  0.00    -0.003 C 
ATOM     18  C   UNL     1       6.104 -41.679  23.349  1.00  0.00     0.004 C 
ENDBRANCH  16  17
ENDBRANCH  15  16
ENDBRANCH  14  15
ENDBRANCH  13  14
ENDBRANCH  12  13
ENDBRANCH  11  12
ENDBRANCH   1  11
TORSDOF 14
ENDMDL
MODEL 3
REMARK VINA RESULT:    -2.505      1.637      2.348
REMARK INTER + INTRA:          -5.278
REMARK INTER:                  -4.470
REMARK INTRA:                  -0.808
REMARK UNBOUND:                -0.723
REMARK SMILES CCCCCCCCCCCCCCCC(=O)[O-]
REMARK SMILES IDX 9 1 10 2 11 3 12 4 13 5 14 6 15 7 16 8 17 9 18 10 8 11 7 12
REMARK SMILES IDX 6 13 5 14 4 15 3 16 2 17 1 18
REMARK H PARENT
REMARK Flexibility Score: inf
ROOT
ATOM      1  C   UNL     1       3.000 -36.990  20.110  1.00  0.00     0.000 C 
ENDROOT
BRANCH   1   2
ATOM      2  C   UNL     1       3.365 -35.769  20.970  1.00  0.00     0.000 C 
BRANCH   2   3
ATOM      3  C   UNL     1       4.766 -35.215  20.655  1.00  0.00     0.000 C 
BRANCH   3   4
ATOM      4  C   UNL     1       5.815 -35.665  21.693  1.00  0.00     0.000 C 
BRANCH   4   5
ATOM      5  C   UNL     1       6.124 -34.599  22.758  1.00  0.00     0.000 C 
BRANCH   5   6
ATOM      6  C   UNL     1       5.375 -34.839  24.079  1.00  0.00     0.006 C 
BRANCH   6   7
ATOM      7  C   UNL     1       6.125 -35.807  25.004  1.00  0.00     0.053 C 
BRANCH   7   8
ATOM      8  C   UNL     1       5.420 -37.123  25.123  1.00  0.00     0.041 C 
ATOM      9  O   UNL     1       5.508 -37.976  24.201  1.00  0.00    -0.550 OA
ATOM     10  O   UNL     1       4.640 -37.397  26.240  1.00  0.00    -0.550 OA
ENDBRANCH   7   8
ENDBRANCH   6   7
ENDBRANCH   5   6
ENDBRANCH   4   5
ENDBRANCH   3   4
ENDBRANCH   2   3
ENDBRANCH   1   2
BRANCH   1  11
ATOM     11  C   UNL     1       4.031 -37.261  19.000  1.00  0.00     0.000 C 
BRANCH  11  12
ATOM     12  C   UNL     1       3.646 -36.619  17.654  1.00  0.00    -0.000 C 
BRANCH  12  13
ATOM     13  C   UNL     1       2.159 -36.740  17.275  1.00  0.00    -0.000 C 
BRANCH  13  14
ATOM     14  C   UNL     1       1.933 -36.799  15.754  1.00  0.00    -0.000 C 
BRANCH  14  15
ATOM     15  C   UNL     1       2.902 -35.894  14.978  1.00  0.00    -0.000 C 
BRANCH  15  16
ATOM     16  C   UNL     1       4.070 -36.674  14.357  1.00  0.00    -0.000 C 
BRANCH  16  17
ATOM     17  C   UNL     1       3.612 -38.056  13.875  1.00  0.00    -0.003 C 
ATOM     18  C   UNL     1       4.623 -39.135  14.252  1.00  0.00     0.004 C 
ENDBRANCH  16  17
ENDBRANCH  15  16
ENDBRANCH  14  15
ENDBRANCH  13  14
ENDBRANCH  12  13
ENDBRANCH  11  12
ENDBRANCH   1  11
TORSDOF 14
ENDMDL
MODEL 4
REMARK VINA RESULT:    -2.022      3.799      7.484
REMARK INTER + INTRA:          -4.399
REMARK INTER:                  -3.082
REMARK INTRA:                  -1.317
REMARK UNBOUND:                -0.723
REMARK SMILES CCCCCCCCCCCCCCCC(=O)[O-]
REMARK SMILES IDX 9 1 10 2 11 3 12 4 13 5 14 6 15 7 16 8 17 9 18 10 8 11 7 12
REMARK SMILES IDX 6 13 5 14 4 15 3 16 2 17 1 18
REMARK H PARENT
REMARK Flexibility Score: inf
ROOT
ATOM      1  C   UNL     1       5.256 -35.043  23.316  1.00  0.00     0.000 C 
ENDROOT
BRANCH   1   2
ATOM      2  C   UNL     1       6.125 -35.450  22.114  1.00  0.00     0.000 C 
BRANCH   2   3
ATOM      3  C   UNL     1       5.315 -36.127  20.994  1.00  0.00     0.000 C 
BRANCH   3   4
ATOM      4  C   UNL     1       3.992 -35.385  20.705  1.00  0.00     0.000 C 
BRANCH   4   5
ATOM      5  C   UNL     1       2.834 -36.320  20.319  1.00  0.00     0.000 C 
BRANCH   5   6
ATOM      6  C   UNL     1       3.280 -37.486  19.421  1.00  0.00     0.006 C 
BRANCH   6   7
ATOM      7  C   UNL     1       2.437 -37.590  18.143  1.00  0.00     0.053 C 
BRANCH   7   8
ATOM      8  C   UNL     1       3.118 -36.952  16.972  1.00  0.00     0.041 C 
ATOM      9  O   UNL     1       3.687 -35.836  17.101  1.00  0.00    -0.550 OA
ATOM     10  O   UNL     1       3.099 -37.574  15.730  1.00  0.00    -0.550 OA
ENDBRANCH   7   8
ENDBRANCH   6   7
ENDBRANCH   5   6
ENDBRANCH   4   5
ENDBRANCH   3   4
ENDBRANCH   2   3
ENDBRANCH   1   2
BRANCH   1  11
ATOM     11  C   UNL     1       5.777 -35.619  24.643  1.00  0.00     0.000 C 
BRANCH  11  12
ATOM     12  C   UNL     1       5.089 -36.941  25.036  1.00  0.00    -0.000 C 
BRANCH  12  13
ATOM     13  C   UNL     1       5.806 -38.216  24.555  1.00  0.00    -0.000 C 
BRANCH  13  14
ATOM     14  C   UNL     1       4.963 -39.038  23.564  1.00  0.00    -0.000 C 
BRANCH  14  15
ATOM     15  C   UNL     1       5.757 -39.448  22.314  1.00  0.00    -0.000 C 
BRANCH  15  16
ATOM     16  C   UNL     1       6.014 -40.961  22.247  1.00  0.00    -0.000 C 
BRANCH  16  17
ATOM     17  C   UNL     1       6.125 -41.561  23.653  1.00  0.00    -0.003 C 
ATOM     18  C   UNL     1       5.721 -43.033  23.658  1.00  0.00     0.004 C 
ENDBRANCH  16  17
ENDBRANCH  15  16
ENDBRANCH  14  15
ENDBRANCH  13  14
ENDBRANCH  12  13
ENDBRANCH  11  12
ENDBRANCH   1  11
TORSDOF 14
ENDMDL
MODEL 5
REMARK VINA RESULT:    -1.799      3.821      7.880
REMARK INTER + INTRA:          -3.995
REMARK INTER:                  -3.251
REMARK INTRA:                  -0.743
REMARK UNBOUND:                -0.723
REMARK SMILES CCCCCCCCCCCCCCCC(=O)[O-]
REMARK SMILES IDX 9 1 10 2 11 3 12 4 13 5 14 6 15 7 16 8 17 9 18 10 8 11 7 12
REMARK SMILES IDX 6 13 5 14 4 15 3 16 2 17 1 18
REMARK H PARENT
REMARK Flexibility Score: inf
ROOT
ATOM      1  C   UNL     1       3.362 -38.047  20.009  1.00  0.00     0.000 C 
ENDROOT
BRANCH   1   2
ATOM      2  C   UNL     1       2.094 -37.222  19.736  1.00  0.00     0.000 C 
BRANCH   2   3
ATOM      3  C   UNL     1       1.245 -37.797  18.587  1.00  0.00     0.000 C 
BRANCH   3   4
ATOM      4  C   UNL     1       1.326 -36.927  17.315  1.00  0.00     0.000 C 
BRANCH   4   5
ATOM      5  C   UNL     1       2.765 -36.664  16.839  1.00  0.00     0.000 C 
BRANCH   5   6
ATOM      6  C   UNL     1       2.827 -36.077  15.419  1.00  0.00     0.006 C 
BRANCH   6   7
ATOM      7  C   UNL     1       2.821 -37.169  14.340  1.00  0.00     0.053 C 
BRANCH   7   8
ATOM      8  C   UNL     1       4.189 -37.739  14.116  1.00  0.00     0.041 C 
ATOM      9  O   UNL     1       5.161 -36.976  13.875  1.00  0.00    -0.550 OA
ATOM     10  O   UNL     1       4.384 -39.114  14.144  1.00  0.00    -0.550 OA
ENDBRANCH   7   8
ENDBRANCH   6   7
ENDBRANCH   5   6
ENDBRANCH   4   5
ENDBRANCH   3   4
ENDBRANCH   2   3
ENDBRANCH   1   2
BRANCH   1  11
ATOM     11  C   UNL     1       4.635 -37.370  19.473  1.00  0.00     0.000 C 
BRANCH  11  12
ATOM     12  C   UNL     1       4.629 -35.841  19.667  1.00  0.00    -0.000 C 
BRANCH  12  13
ATOM     13  C   UNL     1       5.899 -35.262  20.316  1.00  0.00    -0.000 C 
BRANCH  13  14
ATOM     14  C   UNL     1       6.125 -35.774  21.750  1.00  0.00    -0.000 C 
BRANCH  14  15
ATOM     15  C   UNL     1       5.411 -34.913  22.803  1.00  0.00    -0.000 C 
BRANCH  15  16
ATOM     16  C   UNL     1       5.952 -35.146  24.221  1.00  0.00    -0.000 C 
BRANCH  16  17
ATOM     17  C   UNL     1       5.871 -36.628  24.604  1.00  0.00    -0.003 C 
ATOM     18  C   UNL     1       5.152 -36.815  25.937  1.00  0.00     0.004 C 
ENDBRANCH  16  17
ENDBRANCH  15  16
ENDBRANCH  14  15
ENDBRANCH  13  14
ENDBRANCH  12  13
ENDBRANCH  11  12
ENDBRANCH   1  11
TORSDOF 14
ENDMDL
MODEL 6
REMARK VINA RESULT:    -1.676      2.550      7.185
REMARK INTER + INTRA:          -3.771
REMARK INTER:                  -3.250
REMARK INTRA:                  -0.521
REMARK UNBOUND:                -0.723
REMARK SMILES CCCCCCCCCCCCCCCC(=O)[O-]
REMARK SMILES IDX 9 1 10 2 11 3 12 4 13 5 14 6 15 7 16 8 17 9 18 10 8 11 7 12
REMARK SMILES IDX 6 13 5 14 4 15 3 16 2 17 1 18
REMARK H PARENT
REMARK Flexibility Score: inf
ROOT
ATOM      1  C   UNL     1       4.723 -34.428  18.087  1.00  0.00     0.000 C 
ENDROOT
BRANCH   1   2
ATOM      2  C   UNL     1       4.283 -35.768  17.475  1.00  0.00     0.000 C 
BRANCH   2   3
ATOM      3  C   UNL     1       3.483 -35.595  16.172  1.00  0.00     0.000 C 
BRANCH   3   4
ATOM      4  C   UNL     1       3.183 -36.947  15.491  1.00  0.00     0.000 C 
BRANCH   4   5
ATOM      5  C   UNL     1       2.250 -37.856  16.309  1.00  0.00     0.000 C 
BRANCH   5   6
ATOM      6  C   UNL     1       1.361 -37.072  17.289  1.00  0.00     0.006 C 
BRANCH   6   7
ATOM      7  C   UNL     1       0.957 -37.914  18.507  1.00  0.00     0.053 C 
BRANCH   7   8
ATOM      8  C   UNL     1       1.681 -37.486  19.746  1.00  0.00     0.041 C 
ATOM      9  O   UNL     1       1.094 -36.789  20.615  1.00  0.00    -0.550 OA
ATOM     10  O   UNL     1       3.014 -37.831  19.928  1.00  0.00    -0.550 OA
ENDBRANCH   7   8
ENDBRANCH   6   7
ENDBRANCH   5   6
ENDBRANCH   4   5
ENDBRANCH   3   4
ENDBRANCH   2   3
ENDBRANCH   1   2
BRANCH   1  11
ATOM     11  C   UNL     1       6.121 -34.500  18.726  1.00  0.00     0.000 C 
BRANCH  11  12
ATOM     12  C   UNL     1       6.103 -35.100  20.144  1.00  0.00    -0.000 C 
BRANCH  12  13
ATOM     13  C   UNL     1       4.703 -35.273  20.762  1.00  0.00    -0.000 C 
BRANCH  13  14
ATOM     14  C   UNL     1       4.739 -35.427  22.292  1.00  0.00    -0.000 C 
BRANCH  14  15
ATOM     15  C   UNL     1       6.054 -34.920  22.905  1.00  0.00    -0.000 C 
BRANCH  15  16
ATOM     16  C   UNL     1       6.105 -35.104  24.429  1.00  0.00    -0.000 C 
BRANCH  16  17
ATOM     17  C   UNL     1       5.976 -36.584  24.808  1.00  0.00    -0.003 C 
ATOM     18  C   UNL     1       4.850 -36.800  25.815  1.00  0.00     0.004 C 
ENDBRANCH  16  17
ENDBRANCH  15  16
ENDBRANCH  14  15
ENDBRANCH  13  14
ENDBRANCH  12  13
ENDBRANCH  11  12
ENDBRANCH   1  11
TORSDOF 14
ENDMDL
