MODEL 1
REMARK VINA RESULT:    -5.708      0.000      0.000
REMARK INTER + INTRA:         -12.765
REMARK INTER:                 -11.048
REMARK INTRA:                  -1.718
REMARK UNBOUND:                -1.718
REMARK SMILES CCCCCCCCCCCCCCCCCC(=O)[O-]
REMARK SMILES IDX 10 1 11 2 12 3 13 4 14 5 15 6 16 7 17 8 18 9 19 10 20 11
REMARK SMILES IDX 9 12 8 13 7 14 6 15 5 16 4 17 3 18 2 19 1 20
REMARK H PARENT
REMARK Flexibility Score: inf
ROOT
ATOM      1  C   UNL     1     163.950 154.016 152.491  1.00  0.00     0.000 C 
ENDROOT
BRANCH   1   2
ATOM      2  C   UNL     1     163.281 153.785 151.122  1.00  0.00     0.000 C 
BRANCH   2   3
ATOM      3  C   UNL     1     163.708 152.492 150.399  1.00  0.00     0.000 C 
BRANCH   3   4
ATOM      4  C   UNL     1     164.776 151.655 151.133  1.00  0.00     0.000 C 
BRANCH   4   5
ATOM      5  C   UNL     1     166.150 151.594 150.442  1.00  0.00     0.000 C 
BRANCH   5   6
ATOM      6  C   UNL     1     166.612 152.961 149.910  1.00  0.00     0.000 C 
BRANCH   6   7
ATOM      7  C   UNL     1     168.142 153.131 149.955  1.00  0.00     0.006 C 
BRANCH   7   8
ATOM      8  C   UNL     1     168.932 151.911 149.455  1.00  0.00     0.053 C 
BRANCH   8   9
ATOM      9  C   UNL     1     169.458 152.113 148.066  1.00  0.00     0.041 C 
ATOM     10  O   UNL     1     169.366 151.191 147.214  1.00  0.00    -0.550 OA
ATOM     11  O   UNL     1     170.018 153.332 147.706  1.00  0.00    -0.550 OA
ENDBRANCH   8   9
ENDBRANCH   7   8
ENDBRANCH   6   7
ENDBRANCH   5   6
ENDBRANCH   4   5
ENDBRANCH   3   4
ENDBRANCH   2   3
ENDBRANCH   1   2
BRANCH   1  12
ATOM     12  C   UNL     1     164.995 155.148 152.520  1.00  0.00     0.000 C 
BRANCH  12  13
ATOM     13  C   UNL     1     165.045 156.025 151.253  1.00  0.00    -0.000 C 
BRANCH  13  14
ATOM     14  C   UNL     1     165.161 157.538 151.513  1.00  0.00    -0.000 C 
BRANCH  14  15
ATOM     15  C   UNL     1     164.470 157.975 152.813  1.00  0.00    -0.000 C 
BRANCH  15  16
ATOM     16  C   UNL     1     164.073 159.455 152.753  1.00  0.00    -0.000 C 
BRANCH  16  17
ATOM     17  C   UNL     1     164.704 160.146 151.536  1.00  0.00    -0.000 C 
BRANCH  17  18
ATOM     18  C   UNL     1     163.667 160.835 150.634  1.00  0.00    -0.000 C 
BRANCH  18  19
ATOM     19  C   UNL     1     163.344 160.048 149.347  1.00  0.00    -0.003 C 
ATOM     20  C   UNL     1     164.603 159.648 148.578  1.00  0.00     0.004 C 
ENDBRANCH  18  19
ENDBRANCH  17  18
ENDBRANCH  16  17
ENDBRANCH  15  16
ENDBRANCH  14  15
ENDBRANCH  13  14
ENDBRANCH  12  13
ENDBRANCH   1  12
TORSDOF 16
ENDMDL
MODEL 2
REMARK VINA RESULT:    -5.669      1.085      2.397
REMARK INTER + INTRA:         -12.690
REMARK INTER:                 -10.499
REMARK INTRA:                  -2.191
REMARK UNBOUND:                -1.718
REMARK SMILES CCCCCCCCCCCCCCCCCC(=O)[O-]
REMARK SMILES IDX 10 1 11 2 12 3 13 4 14 5 15 6 16 7 17 8 18 9 19 10 20 11
REMARK SMILES IDX 9 12 8 13 7 14 6 15 5 16 4 17 3 18 2 19 1 20
REMARK H PARENT
REMARK Flexibility Score: inf
ROOT
ATOM      1  C   UNL     1     164.454 152.062 151.512  1.00  0.00     0.000 C 
ENDROOT
BRANCH   1   2
ATOM      2  C   UNL     1     165.488 151.655 150.444  1.00  0.00     0.000 C 
BRANCH   2   3
ATOM      3  C   UNL     1     165.454 152.496 149.153  1.00  0.00     0.000 C 
BRANCH   3   4
ATOM      4  C   UNL     1     166.406 153.709 149.138  1.00  0.00     0.000 C 
BRANCH   4   5
ATOM      5  C   UNL     1     167.487 153.708 150.233  1.00  0.00     0.000 C 
BRANCH   5   6
ATOM      6  C   UNL     1     168.902 153.480 149.676  1.00  0.00     0.000 C 
BRANCH   6   7
ATOM      7  C   UNL     1     169.514 152.143 150.134  1.00  0.00     0.006 C 
BRANCH   7   8
ATOM      8  C   UNL     1     168.915 150.903 149.452  1.00  0.00     0.053 C 
BRANCH   8   9
ATOM      9  C   UNL     1     169.022 150.976 147.959  1.00  0.00     0.041 C 
ATOM     10  O   UNL     1     170.149 151.102 147.411  1.00  0.00    -0.550 OA
ATOM     11  O   UNL     1     167.882 150.870 147.174  1.00  0.00    -0.550 OA
ENDBRANCH   8   9
ENDBRANCH   7   8
ENDBRANCH   6   7
ENDBRANCH   5   6
ENDBRANCH   4   5
ENDBRANCH   3   4
ENDBRANCH   2   3
ENDBRANCH   1   2
BRANCH   1  12
ATOM     12  C   UNL     1     163.356 153.024 151.018  1.00  0.00     0.000 C 
BRANCH  12  13
ATOM     13  C   UNL     1     163.490 154.479 151.512  1.00  0.00    -0.000 C 
BRANCH  13  14
ATOM     14  C   UNL     1     164.467 154.679 152.684  1.00  0.00    -0.000 C 
BRANCH  14  15
ATOM     15  C   UNL     1     165.475 155.811 152.435  1.00  0.00    -0.000 C 
BRANCH  15  16
ATOM     16  C   UNL     1     165.017 156.710 151.281  1.00  0.00    -0.000 C 
BRANCH  16  17
ATOM     17  C   UNL     1     164.671 158.119 151.782  1.00  0.00    -0.000 C 
BRANCH  17  18
ATOM     18  C   UNL     1     165.359 159.229 150.970  1.00  0.00    -0.000 C 
BRANCH  18  19
ATOM     19  C   UNL     1     164.763 159.425 149.561  1.00  0.00    -0.003 C 
ATOM     20  C   UNL     1     163.334 159.967 149.603  1.00  0.00     0.004 C 
ENDBRANCH  18  19
ENDBRANCH  17  18
ENDBRANCH  16  17
ENDBRANCH  15  16
ENDBRANCH  14  15
ENDBRANCH  13  14
ENDBRANCH  12  13
ENDBRANCH   1  12
TORSDOF 16
ENDMDL
MODEL 3
REMARK VINA RESULT:    -5.661      2.734      6.606
REMARK INTER + INTRA:         -12.673
REMARK INTER:                 -10.350
REMARK INTRA:                  -2.323
REMARK UNBOUND:                -1.718
REMARK SMILES CCCCCCCCCCCCCCCCCC(=O)[O-]
REMARK SMILES IDX 10 1 11 2 12 3 13 4 14 5 15 6 16 7 17 8 18 9 19 10 20 11
REMARK SMILES IDX 9 12 8 13 7 14 6 15 5 16 4 17 3 18 2 19 1 20
REMARK H PARENT
REMARK Flexibility Score: inf
ROOT
ATOM      1  C   UNL     1     164.387 155.126 152.414  1.00  0.00     0.000 C 
ENDROOT
BRANCH   1   2
ATOM      2  C   UNL     1     165.809 155.292 151.844  1.00  0.00     0.000 C 
BRANCH   2   3
ATOM      3  C   UNL     1     165.874 155.592 150.334  1.00  0.00     0.000 C 
BRANCH   3   4
ATOM      4  C   UNL     1     166.560 154.505 149.480  1.00  0.00     0.000 C 
BRANCH   4   5
ATOM      5  C   UNL     1     167.582 153.632 150.230  1.00  0.00     0.000 C 
BRANCH   5   6
ATOM      6  C   UNL     1     167.190 152.145 150.258  1.00  0.00     0.000 C 
BRANCH   6   7
ATOM      7  C   UNL     1     168.264 151.235 149.634  1.00  0.00     0.006 C 
BRANCH   7   8
ATOM      8  C   UNL     1     167.974 150.812 148.184  1.00  0.00     0.053 C 
BRANCH   8   9
ATOM      9  C   UNL     1     169.015 151.318 147.232  1.00  0.00     0.041 C 
ATOM     10  O   UNL     1     169.294 150.663 146.194  1.00  0.00    -0.550 OA
ATOM     11  O   UNL     1     169.650 152.528 147.476  1.00  0.00    -0.550 OA
ENDBRANCH   8   9
ENDBRANCH   7   8
ENDBRANCH   6   7
ENDBRANCH   5   6
ENDBRANCH   4   5
ENDBRANCH   3   4
ENDBRANCH   2   3
ENDBRANCH   1   2
BRANCH   1  12
ATOM     12  C   UNL     1     163.836 153.687 152.373  1.00  0.00     0.000 C 
BRANCH  12  13
ATOM     13  C   UNL     1     163.185 153.272 151.038  1.00  0.00    -0.000 C 
BRANCH  13  14
ATOM     14  C   UNL     1     163.581 151.874 150.529  1.00  0.00    -0.000 C 
BRANCH  14  15
ATOM     15  C   UNL     1     163.617 151.785 148.996  1.00  0.00    -0.000 C 
BRANCH  15  16
ATOM     16  C   UNL     1     164.320 150.502 148.538  1.00  0.00    -0.000 C 
BRANCH  16  17
ATOM     17  C   UNL     1     164.603 149.573 149.727  1.00  0.00    -0.000 C 
BRANCH  17  18
ATOM     18  C   UNL     1     164.862 148.118 149.302  1.00  0.00    -0.000 C 
BRANCH  18  19
ATOM     19  C   UNL     1     163.592 147.242 149.288  1.00  0.00    -0.003 C 
ATOM     20  C   UNL     1     163.117 146.884 150.696  1.00  0.00     0.004 C 
ENDBRANCH  18  19
ENDBRANCH  17  18
ENDBRANCH  16  17
ENDBRANCH  15  16
ENDBRANCH  14  15
ENDBRANCH  13  14
ENDBRANCH  12  13
ENDBRANCH   1  12
TORSDOF 16
ENDMDL
MODEL 4
REMARK VINA RESULT:    -5.637      1.707      3.455
REMARK INTER + INTRA:         -12.627
REMARK INTER:                 -10.375
REMARK INTRA:                  -2.251
REMARK UNBOUND:                -1.718
REMARK SMILES CCCCCCCCCCCCCCCCCC(=O)[O-]
REMARK SMILES IDX 10 1 11 2 12 3 13 4 14 5 15 6 16 7 17 8 18 9 19 10 20 11
REMARK SMILES IDX 9 12 8 13 7 14 6 15 5 16 4 17 3 18 2 19 1 20
REMARK H PARENT
REMARK Flexibility Score: inf
ROOT
ATOM      1  C   UNL     1     163.844 151.775 148.989  1.00  0.00     0.000 C 
ENDROOT
BRANCH   1   2
ATOM      2  C   UNL     1     164.782 151.468 147.805  1.00  0.00     0.000 C 
BRANCH   2   3
ATOM      3  C   UNL     1     166.097 152.271 147.792  1.00  0.00     0.000 C 
BRANCH   3   4
ATOM      4  C   UNL     1     166.018 153.665 148.448  1.00  0.00     0.000 C 
BRANCH   4   5
ATOM      5  C   UNL     1     167.221 154.043 149.330  1.00  0.00     0.000 C 
BRANCH   5   6
ATOM      6  C   UNL     1     167.670 152.897 150.253  1.00  0.00     0.000 C 
BRANCH   6   7
ATOM      7  C   UNL     1     169.179 152.609 150.153  1.00  0.00     0.006 C 
BRANCH   7   8
ATOM      8  C   UNL     1     169.544 151.446 149.216  1.00  0.00     0.053 C 
BRANCH   8   9
ATOM      9  C   UNL     1     169.726 151.901 147.800  1.00  0.00     0.041 C 
ATOM     10  O   UNL     1     169.516 151.106 146.847  1.00  0.00    -0.550 OA
ATOM     11  O   UNL     1     170.094 153.214 147.533  1.00  0.00    -0.550 OA
ENDBRANCH   8   9
ENDBRANCH   7   8
ENDBRANCH   6   7
ENDBRANCH   5   6
ENDBRANCH   4   5
ENDBRANCH   3   4
ENDBRANCH   2   3
ENDBRANCH   1   2
BRANCH   1  12
ATOM     12  C   UNL     1     164.251 151.123 150.324  1.00  0.00     0.000 C 
BRANCH  12  13
ATOM     13  C   UNL     1     164.269 152.073 151.538  1.00  0.00    -0.000 C 
BRANCH  13  14
ATOM     14  C   UNL     1     163.716 153.484 151.267  1.00  0.00    -0.000 C 
BRANCH  14  15
ATOM     15  C   UNL     1     163.844 154.419 152.479  1.00  0.00    -0.000 C 
BRANCH  15  16
ATOM     16  C   UNL     1     165.130 155.249 152.399  1.00  0.00    -0.000 C 
BRANCH  16  17
ATOM     17  C   UNL     1     165.109 156.181 151.179  1.00  0.00    -0.000 C 
BRANCH  17  18
ATOM     18  C   UNL     1     164.784 157.639 151.545  1.00  0.00    -0.000 C 
BRANCH  18  19
ATOM     19  C   UNL     1     165.838 158.298 152.458  1.00  0.00    -0.003 C 
ATOM     20  C   UNL     1     165.300 158.578 153.862  1.00  0.00     0.004 C 
ENDBRANCH  18  19
ENDBRANCH  17  18
ENDBRANCH  16  17
ENDBRANCH  15  16
ENDBRANCH  14  15
ENDBRANCH  13  14
ENDBRANCH  12  13
ENDBRANCH   1  12
TORSDOF 16
ENDMDL
MODEL 5
REMARK VINA RESULT:    -5.629      2.338      4.647
REMARK INTER + INTRA:         -12.611
REMARK INTER:                  -9.915
REMARK INTRA:                  -2.696
REMARK UNBOUND:                -1.718
REMARK SMILES CCCCCCCCCCCCCCCCCC(=O)[O-]
REMARK SMILES IDX 10 1 11 2 12 3 13 4 14 5 15 6 16 7 17 8 18 9 19 10 20 11
REMARK SMILES IDX 9 12 8 13 7 14 6 15 5 16 4 17 3 18 2 19 1 20
REMARK H PARENT
REMARK Flexibility Score: inf
ROOT
ATOM      1  C   UNL     1     165.202 152.234 148.341  1.00  0.00     0.000 C 
ENDROOT
BRANCH   1   2
ATOM      2  C   UNL     1     166.300 153.281 148.077  1.00  0.00     0.000 C 
BRANCH   2   3
ATOM      3  C   UNL     1     166.466 154.343 149.183  1.00  0.00     0.000 C 
BRANCH   3   4
ATOM      4  C   UNL     1     167.596 154.063 150.194  1.00  0.00     0.000 C 
BRANCH   4   5
ATOM      5  C   UNL     1     168.853 153.399 149.604  1.00  0.00     0.000 C 
BRANCH   5   6
ATOM      6  C   UNL     1     169.108 151.992 150.172  1.00  0.00     0.000 C 
BRANCH   6   7
ATOM      7  C   UNL     1     169.381 150.948 149.073  1.00  0.00     0.006 C 
BRANCH   7   8
ATOM      8  C   UNL     1     169.249 149.488 149.537  1.00  0.00     0.053 C 
BRANCH   8   9
ATOM      9  C   UNL     1     170.490 148.696 149.262  1.00  0.00     0.041 C 
ATOM     10  O   UNL     1     171.616 149.258 149.276  1.00  0.00    -0.550 OA
ATOM     11  O   UNL     1     170.405 147.330 149.022  1.00  0.00    -0.550 OA
ENDBRANCH   8   9
ENDBRANCH   7   8
ENDBRANCH   6   7
ENDBRANCH   5   6
ENDBRANCH   4   5
ENDBRANCH   3   4
ENDBRANCH   2   3
ENDBRANCH   1   2
BRANCH   1  12
ATOM     12  C   UNL     1     165.697 150.923 148.984  1.00  0.00     0.000 C 
BRANCH  12  13
ATOM     13  C   UNL     1     165.501 150.827 150.510  1.00  0.00    -0.000 C 
BRANCH  13  14
ATOM     14  C   UNL     1     164.155 151.370 151.028  1.00  0.00    -0.000 C 
BRANCH  14  15
ATOM     15  C   UNL     1     164.313 152.623 151.901  1.00  0.00    -0.000 C 
BRANCH  15  16
ATOM     16  C   UNL     1     163.329 153.718 151.471  1.00  0.00    -0.000 C 
BRANCH  16  17
ATOM     17  C   UNL     1     163.998 155.100 151.495  1.00  0.00    -0.000 C 
BRANCH  17  18
ATOM     18  C   UNL     1     165.037 155.243 152.619  1.00  0.00    -0.000 C 
BRANCH  18  19
ATOM     19  C   UNL     1     165.578 156.678 152.783  1.00  0.00    -0.003 C 
ATOM     20  C   UNL     1     165.424 157.508 151.508  1.00  0.00     0.004 C 
ENDBRANCH  18  19
ENDBRANCH  17  18
ENDBRANCH  16  17
ENDBRANCH  15  16
ENDBRANCH  14  15
ENDBRANCH  13  14
ENDBRANCH  12  13
ENDBRANCH   1  12
TORSDOF 16
ENDMDL
MODEL 6
REMARK VINA RESULT:    -5.581      3.232      7.184
REMARK INTER + INTRA:         -12.518
REMARK INTER:                 -10.096
REMARK INTRA:                  -2.422
REMARK UNBOUND:                -1.718
REMARK SMILES CCCCCCCCCCCCCCCCCC(=O)[O-]
REMARK SMILES IDX 10 1 11 2 12 3 13 4 14 5 15 6 16 7 17 8 18 9 19 10 20 11
REMARK SMILES IDX 9 12 8 13 7 14 6 15 5 16 4 17 3 18 2 19 1 20
REMARK H PARENT
REMARK Flexibility Score: inf
ROOT
ATOM      1  C   UNL     1     165.180 151.708 148.608  1.00  0.00     0.000 C 
ENDROOT
BRANCH   1   2
ATOM      2  C   UNL     1     163.793 152.019 149.203  1.00  0.00     0.000 C 
BRANCH   2   3
ATOM      3  C   UNL     1     163.560 151.478 150.628  1.00  0.00     0.000 C 
BRANCH   3   4
ATOM      4  C   UNL     1     163.935 152.451 151.765  1.00  0.00     0.000 C 
BRANCH   4   5
ATOM      5  C   UNL     1     163.752 153.943 151.438  1.00  0.00     0.000 C 
BRANCH   5   6
ATOM      6  C   UNL     1     163.905 154.849 152.671  1.00  0.00     0.000 C 
BRANCH   6   7
ATOM      7  C   UNL     1     165.108 155.804 152.563  1.00  0.00     0.006 C 
BRANCH   7   8
ATOM      8  C   UNL     1     165.251 156.493 151.196  1.00  0.00     0.053 C 
BRANCH   8   9
ATOM      9  C   UNL     1     165.293 157.985 151.321  1.00  0.00     0.041 C 
ATOM     10  O   UNL     1     164.445 158.695 150.719  1.00  0.00    -0.550 OA
ATOM     11  O   UNL     1     166.248 158.589 152.129  1.00  0.00    -0.550 OA
ENDBRANCH   8   9
ENDBRANCH   7   8
ENDBRANCH   6   7
ENDBRANCH   5   6
ENDBRANCH   4   5
ENDBRANCH   3   4
ENDBRANCH   2   3
ENDBRANCH   1   2
BRANCH   1  12
ATOM     12  C   UNL     1     165.863 152.896 147.901  1.00  0.00     0.000 C 
BRANCH  12  13
ATOM     13  C   UNL     1     166.623 153.862 148.832  1.00  0.00    -0.000 C 
BRANCH  13  14
ATOM     14  C   UNL     1     167.116 153.240 150.152  1.00  0.00    -0.000 C 
BRANCH  14  15
ATOM     15  C   UNL     1     168.642 153.072 150.199  1.00  0.00    -0.000 C 
BRANCH  15  16
ATOM     16  C   UNL     1     169.229 152.991 148.785  1.00  0.00    -0.000 C 
BRANCH  16  17
ATOM     17  C   UNL     1     169.449 151.532 148.362  1.00  0.00    -0.000 C 
BRANCH  17  18
ATOM     18  C   UNL     1     169.279 150.539 149.525  1.00  0.00    -0.000 C 
BRANCH  18  19
ATOM     19  C   UNL     1     168.179 149.486 149.284  1.00  0.00    -0.003 C 
ATOM     20  C   UNL     1     167.183 149.409 150.441  1.00  0.00     0.004 C 
ENDBRANCH  18  19
ENDBRANCH  17  18
ENDBRANCH  16  17
ENDBRANCH  15  16
ENDBRANCH  14  15
ENDBRANCH  13  14
ENDBRANCH  12  13
ENDBRANCH   1  12
TORSDOF 16
ENDMDL
MODEL 7
REMARK VINA RESULT:    -5.577      2.788      7.214
REMARK INTER + INTRA:         -12.512
REMARK INTER:                 -10.258
REMARK INTRA:                  -2.254
REMARK UNBOUND:                -1.718
REMARK SMILES CCCCCCCCCCCCCCCCCC(=O)[O-]
REMARK SMILES IDX 10 1 11 2 12 3 13 4 14 5 15 6 16 7 17 8 18 9 19 10 20 11
REMARK SMILES IDX 9 12 8 13 7 14 6 15 5 16 4 17 3 18 2 19 1 20
REMARK H PARENT
REMARK Flexibility Score: inf
ROOT
ATOM      1  C   UNL     1     163.315 152.103 151.047  1.00  0.00     0.000 C 
ENDROOT
BRANCH   1   2
ATOM      2  C   UNL     1     163.159 153.625 151.234  1.00  0.00     0.000 C 
BRANCH   2   3
ATOM      3  C   UNL     1     163.880 154.206 152.467  1.00  0.00     0.000 C 
BRANCH   3   4
ATOM      4  C   UNL     1     164.890 155.332 152.163  1.00  0.00     0.000 C 
BRANCH   4   5
ATOM      5  C   UNL     1     165.650 155.188 150.833  1.00  0.00     0.000 C 
BRANCH   5   6
ATOM      6  C   UNL     1     167.003 154.474 150.993  1.00  0.00     0.000 C 
BRANCH   6   7
ATOM      7  C   UNL     1     167.698 154.208 149.644  1.00  0.00     0.006 C 
BRANCH   7   8
ATOM      8  C   UNL     1     168.761 153.098 149.685  1.00  0.00     0.053 C 
BRANCH   8   9
ATOM      9  C   UNL     1     169.108 152.601 148.315  1.00  0.00     0.041 C 
ATOM     10  O   UNL     1     168.512 151.603 147.833  1.00  0.00    -0.550 OA
ATOM     11  O   UNL     1     170.067 153.262 147.558  1.00  0.00    -0.550 OA
ENDBRANCH   8   9
ENDBRANCH   7   8
ENDBRANCH   6   7
ENDBRANCH   5   6
ENDBRANCH   4   5
ENDBRANCH   3   4
ENDBRANCH   2   3
ENDBRANCH   1   2
BRANCH   1  12
ATOM     12  C   UNL     1     164.747 151.569 151.247  1.00  0.00     0.000 C 
BRANCH  12  13
ATOM     13  C   UNL     1     165.499 151.212 149.950  1.00  0.00    -0.000 C 
BRANCH  13  14
ATOM     14  C   UNL     1     164.679 151.377 148.657  1.00  0.00    -0.000 C 
BRANCH  14  15
ATOM     15  C   UNL     1     164.486 150.055 147.899  1.00  0.00    -0.000 C 
BRANCH  15  16
ATOM     16  C   UNL     1     165.734 149.170 148.011  1.00  0.00    -0.000 C 
BRANCH  16  17
ATOM     17  C   UNL     1     165.355 147.725 148.364  1.00  0.00    -0.000 C 
BRANCH  17  18
ATOM     18  C   UNL     1     164.920 147.561 149.829  1.00  0.00    -0.000 C 
BRANCH  18  19
ATOM     19  C   UNL     1     163.478 147.037 149.992  1.00  0.00    -0.003 C 
ATOM     20  C   UNL     1     162.881 146.554 148.670  1.00  0.00     0.004 C 
ENDBRANCH  18  19
ENDBRANCH  17  18
ENDBRANCH  16  17
ENDBRANCH  15  16
ENDBRANCH  14  15
ENDBRANCH  13  14
ENDBRANCH  12  13
ENDBRANCH   1  12
TORSDOF 16
ENDMDL
MODEL 8
REMARK VINA RESULT:    -5.549      3.159      5.716
REMARK INTER + INTRA:         -12.457
REMARK INTER:                  -9.961
REMARK INTRA:                  -2.496
REMARK UNBOUND:                -1.718
REMARK SMILES CCCCCCCCCCCCCCCCCC(=O)[O-]
REMARK SMILES IDX 10 1 11 2 12 3 13 4 14 5 15 6 16 7 17 8 18 9 19 10 20 11
REMARK SMILES IDX 9 12 8 13 7 14 6 15 5 16 4 17 3 18 2 19 1 20
REMARK H PARENT
REMARK Flexibility Score: inf
ROOT
ATOM      1  C   UNL     1     165.217 155.325 151.135  1.00  0.00     0.000 C 
ENDROOT
BRANCH   1   2
ATOM      2  C   UNL     1     166.668 154.806 151.156  1.00  0.00     0.000 C 
BRANCH   2   3
ATOM      3  C   UNL     1     167.184 154.263 149.808  1.00  0.00     0.000 C 
BRANCH   3   4
ATOM      4  C   UNL     1     168.487 153.442 149.889  1.00  0.00     0.000 C 
BRANCH   4   5
ATOM      5  C   UNL     1     169.134 153.104 148.535  1.00  0.00     0.000 C 
BRANCH   5   6
ATOM      6  C   UNL     1     169.369 151.596 148.345  1.00  0.00     0.000 C 
BRANCH   6   7
ATOM      7  C   UNL     1     169.664 150.868 149.670  1.00  0.00     0.006 C 
BRANCH   7   8
ATOM      8  C   UNL     1     170.601 149.657 149.536  1.00  0.00     0.053 C 
BRANCH   8   9
ATOM      9  C   UNL     1     169.855 148.359 149.596  1.00  0.00     0.041 C 
ATOM     10  O   UNL     1     168.615 148.352 149.815  1.00  0.00    -0.550 OA
ATOM     11  O   UNL     1     170.523 147.162 149.377  1.00  0.00    -0.550 OA
ENDBRANCH   8   9
ENDBRANCH   7   8
ENDBRANCH   6   7
ENDBRANCH   5   6
ENDBRANCH   4   5
ENDBRANCH   3   4
ENDBRANCH   2   3
ENDBRANCH   1   2
BRANCH   1  12
ATOM     12  C   UNL     1     164.392 154.993 152.394  1.00  0.00     0.000 C 
BRANCH  12  13
ATOM     13  C   UNL     1     163.571 153.690 152.313  1.00  0.00    -0.000 C 
BRANCH  13  14
ATOM     14  C   UNL     1     163.280 153.193 150.886  1.00  0.00    -0.000 C 
BRANCH  14  15
ATOM     15  C   UNL     1     163.656 151.718 150.678  1.00  0.00    -0.000 C 
BRANCH  15  16
ATOM     16  C   UNL     1     165.071 151.435 151.196  1.00  0.00    -0.000 C 
BRANCH  16  17
ATOM     17  C   UNL     1     165.921 150.739 150.123  1.00  0.00    -0.000 C 
BRANCH  17  18
ATOM     18  C   UNL     1     165.226 150.681 148.753  1.00  0.00    -0.000 C 
BRANCH  18  19
ATOM     19  C   UNL     1     165.779 151.700 147.735  1.00  0.00    -0.003 C 
ATOM     20  C   UNL     1     164.805 151.963 146.586  1.00  0.00     0.004 C 
ENDBRANCH  18  19
ENDBRANCH  17  18
ENDBRANCH  16  17
ENDBRANCH  15  16
ENDBRANCH  14  15
ENDBRANCH  13  14
ENDBRANCH  12  13
ENDBRANCH   1  12
TORSDOF 16
ENDMDL
MODEL 9
REMARK VINA RESULT:    -5.520      3.252      7.339
REMARK INTER + INTRA:         -12.402
REMARK INTER:                 -10.414
REMARK INTRA:                  -1.988
REMARK UNBOUND:                -1.718
REMARK SMILES CCCCCCCCCCCCCCCCCC(=O)[O-]
REMARK SMILES IDX 10 1 11 2 12 3 13 4 14 5 15 6 16 7 17 8 18 9 19 10 20 11
REMARK SMILES IDX 9 12 8 13 7 14 6 15 5 16 4 17 3 18 2 19 1 20
REMARK H PARENT
REMARK Flexibility Score: inf
ROOT
ATOM      1  C   UNL     1     164.041 151.015 150.089  1.00  0.00     0.000 C 
ENDROOT
BRANCH   1   2
ATOM      2  C   UNL     1     164.488 151.972 151.212  1.00  0.00     0.000 C 
BRANCH   2   3
ATOM      3  C   UNL     1     163.568 153.189 151.434  1.00  0.00     0.000 C 
BRANCH   3   4
ATOM      4  C   UNL     1     164.264 154.561 151.333  1.00  0.00     0.000 C 
BRANCH   4   5
ATOM      5  C   UNL     1     164.507 155.273 152.676  1.00  0.00     0.000 C 
BRANCH   5   6
ATOM      6  C   UNL     1     165.402 156.516 152.540  1.00  0.00     0.000 C 
BRANCH   6   7
ATOM      7  C   UNL     1     165.156 157.286 151.229  1.00  0.00     0.006 C 
BRANCH   7   8
ATOM      8  C   UNL     1     164.572 158.696 151.420  1.00  0.00     0.053 C 
BRANCH   8   9
ATOM      9  C   UNL     1     165.261 159.710 150.559  1.00  0.00     0.041 C 
ATOM     10  O   UNL     1     166.334 160.244 150.945  1.00  0.00    -0.550 OA
ATOM     11  O   UNL     1     164.734 160.041 149.317  1.00  0.00    -0.550 OA
ENDBRANCH   8   9
ENDBRANCH   7   8
ENDBRANCH   6   7
ENDBRANCH   5   6
ENDBRANCH   4   5
ENDBRANCH   3   4
ENDBRANCH   2   3
ENDBRANCH   1   2
BRANCH   1  12
ATOM     12  C   UNL     1     163.615 151.707 148.780  1.00  0.00     0.000 C 
BRANCH  12  13
ATOM     13  C   UNL     1     164.557 151.478 147.581  1.00  0.00    -0.000 C 
BRANCH  13  14
ATOM     14  C   UNL     1     165.952 152.115 147.721  1.00  0.00    -0.000 C 
BRANCH  14  15
ATOM     15  C   UNL     1     167.090 151.139 147.388  1.00  0.00    -0.000 C 
BRANCH  15  16
ATOM     16  C   UNL     1     167.351 150.181 148.556  1.00  0.00    -0.000 C 
BRANCH  16  17
ATOM     17  C   UNL     1     167.720 150.953 149.830  1.00  0.00    -0.000 C 
BRANCH  17  18
ATOM     18  C   UNL     1     169.069 151.682 149.719  1.00  0.00    -0.000 C 
BRANCH  18  19
ATOM     19  C   UNL     1     169.109 153.029 150.469  1.00  0.00    -0.003 C 
ATOM     20  C   UNL     1     167.762 153.751 150.443  1.00  0.00     0.004 C 
ENDBRANCH  18  19
ENDBRANCH  17  18
ENDBRANCH  16  17
ENDBRANCH  15  16
ENDBRANCH  14  15
ENDBRANCH  13  14
ENDBRANCH  12  13
ENDBRANCH   1  12
TORSDOF 16
ENDMDL
