MODEL 1
REMARK VINA RESULT:    -5.880      0.000      0.000
REMARK INTER + INTRA:         -14.224
REMARK INTER:                 -12.755
REMARK INTRA:                  -1.469
REMARK UNBOUND:                -1.469
REMARK SMILES CCCCCCCCCCCCCCCCCCCCCC(=O)[O-]
REMARK SMILES IDX 12 1 11 2 10 3 9 4 8 5 7 6 6 7 5 8 4 9 3 10 2 11 1 12 13 13
REMARK SMILES IDX 14 14 15 15 16 16 17 17 18 18 19 19 20 20 21 21 22 22 23 23
REMARK SMILES IDX 24 24
REMARK H PARENT
REMARK Flexibility Score: inf
ROOT
ATOM      1  C   UNL     1     -18.871  23.491  -1.809  1.00  0.00     0.000 C 
ENDROOT
BRANCH   1   2
ATOM      2  C   UNL     1     -18.493  23.853  -0.366  1.00  0.00     0.000 C 
BRANCH   2   3
ATOM      3  C   UNL     1     -18.220  25.355  -0.182  1.00  0.00     0.000 C 
BRANCH   3   4
ATOM      4  C   UNL     1     -17.735  25.699   1.236  1.00  0.00    -0.000 C 
BRANCH   4   5
ATOM      5  C   UNL     1     -16.543  26.670   1.232  1.00  0.00    -0.000 C 
BRANCH   5   6
ATOM      6  C   UNL     1     -16.340  27.351  -0.130  1.00  0.00    -0.000 C 
BRANCH   6   7
ATOM      7  C   UNL     1     -16.558  28.868  -0.023  1.00  0.00    -0.000 C 
BRANCH   7   8
ATOM      8  C   UNL     1     -16.242  29.405   1.389  1.00  0.00    -0.000 C 
BRANCH   8   9
ATOM      9  C   UNL     1     -15.556  30.782   1.383  1.00  0.00    -0.000 C 
BRANCH   9  10
ATOM     10  C   UNL     1     -16.552  31.944   1.531  1.00  0.00    -0.000 C 
BRANCH  10  11
ATOM     11  C   UNL     1     -16.569  32.864   0.301  1.00  0.00    -0.003 C 
ATOM     12  C   UNL     1     -17.775  32.615  -0.606  1.00  0.00     0.004 C 
ENDBRANCH  10  11
ENDBRANCH   9  10
ENDBRANCH   8   9
ENDBRANCH   7   8
ENDBRANCH   6   7
ENDBRANCH   5   6
ENDBRANCH   4   5
ENDBRANCH   3   4
ENDBRANCH   2   3
ENDBRANCH   1   2
BRANCH   1  13
ATOM     13  C   UNL     1     -19.493  22.090  -1.879  1.00  0.00     0.000 C 
BRANCH  13  14
ATOM     14  C   UNL     1     -19.956  21.621  -0.491  1.00  0.00     0.000 C 
BRANCH  14  15
ATOM     15  C   UNL     1     -21.484  21.666  -0.331  1.00  0.00     0.000 C 
BRANCH  15  16
ATOM     16  C   UNL     1     -21.977  22.979   0.297  1.00  0.00     0.000 C 
BRANCH  16  17
ATOM     17  C   UNL     1     -23.264  23.461  -0.389  1.00  0.00     0.000 C 
BRANCH  17  18
ATOM     18  C   UNL     1     -24.489  22.607  -0.016  1.00  0.00     0.000 C 
BRANCH  18  19
ATOM     19  C   UNL     1     -25.574  22.625  -1.107  1.00  0.00     0.000 C 
BRANCH  19  20
ATOM     20  C   UNL     1     -25.654  23.975  -1.838  1.00  0.00     0.006 C 
BRANCH  20  21
ATOM     21  C   UNL     1     -26.290  23.862  -3.229  1.00  0.00     0.053 C 
BRANCH  21  22
ATOM     22  C   UNL     1     -25.427  24.526  -4.254  1.00  0.00     0.041 C 
ATOM     23  O   UNL     1     -24.785  23.833  -5.087  1.00  0.00    -0.550 OA
ATOM     24  O   UNL     1     -25.365  25.912  -4.320  1.00  0.00    -0.550 OA
ENDBRANCH  21  22
ENDBRANCH  20  21
ENDBRANCH  19  20
ENDBRANCH  18  19
ENDBRANCH  17  18
ENDBRANCH  16  17
ENDBRANCH  15  16
ENDBRANCH  14  15
ENDBRANCH  13  14
ENDBRANCH   1  13
TORSDOF 20
ENDMDL
MODEL 2
REMARK VINA RESULT:    -5.809      0.828      2.162
REMARK INTER + INTRA:         -14.070
REMARK INTER:                 -12.552
REMARK INTRA:                  -1.519
REMARK UNBOUND:                -1.469
REMARK SMILES CCCCCCCCCCCCCCCCCCCCCC(=O)[O-]
REMARK SMILES IDX 12 1 11 2 10 3 9 4 8 5 7 6 6 7 5 8 4 9 3 10 2 11 1 12 13 13
REMARK SMILES IDX 14 14 15 15 16 16 17 17 18 18 19 19 20 20 21 21 22 22 23 23
REMARK SMILES IDX 24 24
REMARK H PARENT
REMARK Flexibility Score: inf
ROOT
ATOM      1  C   UNL     1     -18.592  24.914   0.818  1.00  0.00     0.000 C 
ENDROOT
BRANCH   1   2
ATOM      2  C   UNL     1     -17.503  25.943   1.152  1.00  0.00     0.000 C 
BRANCH   2   3
ATOM      3  C   UNL     1     -16.912  26.611  -0.100  1.00  0.00     0.000 C 
BRANCH   3   4
ATOM      4  C   UNL     1     -17.379  28.066  -0.272  1.00  0.00    -0.000 C 
BRANCH   4   5
ATOM      5  C   UNL     1     -16.270  29.082   0.046  1.00  0.00    -0.000 C 
BRANCH   5   6
ATOM      6  C   UNL     1     -16.080  29.299   1.555  1.00  0.00    -0.000 C 
BRANCH   6   7
ATOM      7  C   UNL     1     -15.631  30.737   1.852  1.00  0.00    -0.000 C 
BRANCH   7   8
ATOM      8  C   UNL     1     -16.658  31.782   1.366  1.00  0.00    -0.000 C 
BRANCH   8   9
ATOM      9  C   UNL     1     -16.057  32.847   0.432  1.00  0.00    -0.000 C 
BRANCH   9  10
ATOM     10  C   UNL     1     -17.029  33.286  -0.675  1.00  0.00    -0.000 C 
BRANCH  10  11
ATOM     11  C   UNL     1     -18.250  32.361  -0.786  1.00  0.00    -0.003 C 
ATOM     12  C   UNL     1     -18.179  31.432  -1.998  1.00  0.00     0.004 C 
ENDBRANCH  10  11
ENDBRANCH   9  10
ENDBRANCH   8   9
ENDBRANCH   7   8
ENDBRANCH   6   7
ENDBRANCH   5   6
ENDBRANCH   4   5
ENDBRANCH   3   4
ENDBRANCH   2   3
ENDBRANCH   1   2
BRANCH   1  13
ATOM     13  C   UNL     1     -18.514  24.490  -0.654  1.00  0.00     0.000 C 
BRANCH  13  14
ATOM     14  C   UNL     1     -19.008  23.047  -0.841  1.00  0.00     0.000 C 
BRANCH  14  15
ATOM     15  C   UNL     1     -20.006  22.618   0.246  1.00  0.00     0.000 C 
BRANCH  15  16
ATOM     16  C   UNL     1     -21.110  21.694  -0.293  1.00  0.00     0.000 C 
BRANCH  16  17
ATOM     17  C   UNL     1     -22.476  22.079   0.293  1.00  0.00     0.000 C 
BRANCH  17  18
ATOM     18  C   UNL     1     -23.073  23.331  -0.372  1.00  0.00     0.000 C 
BRANCH  18  19
ATOM     19  C   UNL     1     -24.551  23.145  -0.759  1.00  0.00     0.000 C 
BRANCH  19  20
ATOM     20  C   UNL     1     -25.136  24.376  -1.469  1.00  0.00     0.006 C 
BRANCH  20  21
ATOM     21  C   UNL     1     -26.121  24.008  -2.584  1.00  0.00     0.053 C 
BRANCH  21  22
ATOM     22  C   UNL     1     -25.567  24.390  -3.920  1.00  0.00     0.041 C 
ATOM     23  O   UNL     1     -25.248  25.585  -4.156  1.00  0.00    -0.550 OA
ATOM     24  O   UNL     1     -25.359  23.418  -4.890  1.00  0.00    -0.550 OA
ENDBRANCH  21  22
ENDBRANCH  20  21
ENDBRANCH  19  20
ENDBRANCH  18  19
ENDBRANCH  17  18
ENDBRANCH  16  17
ENDBRANCH  15  16
ENDBRANCH  14  15
ENDBRANCH  13  14
ENDBRANCH   1  13
TORSDOF 20
ENDMDL
MODEL 3
REMARK VINA RESULT:    -5.772      3.536      6.373
REMARK INTER + INTRA:         -13.991
REMARK INTER:                 -12.113
REMARK INTRA:                  -1.878
REMARK UNBOUND:                -1.469
REMARK SMILES CCCCCCCCCCCCCCCCCCCCCC(=O)[O-]
REMARK SMILES IDX 12 1 11 2 10 3 9 4 8 5 7 6 6 7 5 8 4 9 3 10 2 11 1 12 13 13
REMARK SMILES IDX 14 14 15 15 16 16 17 17 18 18 19 19 20 20 21 21 22 22 23 23
REMARK SMILES IDX 24 24
REMARK H PARENT
REMARK Flexibility Score: inf
ROOT
ATOM      1  C   UNL     1     -18.560  29.941  -1.523  1.00  0.00     0.000 C 
ENDROOT
BRANCH   1   2
ATOM      2  C   UNL     1     -18.420  31.427  -1.882  1.00  0.00     0.000 C 
BRANCH   2   3
ATOM      3  C   UNL     1     -18.244  32.323  -0.646  1.00  0.00     0.000 C 
BRANCH   3   4
ATOM      4  C   UNL     1     -16.972  33.186  -0.716  1.00  0.00    -0.000 C 
BRANCH   4   5
ATOM      5  C   UNL     1     -16.242  33.271   0.635  1.00  0.00    -0.000 C 
BRANCH   5   6
ATOM      6  C   UNL     1     -16.591  32.104   1.570  1.00  0.00    -0.000 C 
BRANCH   6   7
ATOM      7  C   UNL     1     -15.658  30.908   1.329  1.00  0.00    -0.000 C 
BRANCH   7   8
ATOM      8  C   UNL     1     -15.207  30.244   2.647  1.00  0.00    -0.000 C 
BRANCH   8   9
ATOM      9  C   UNL     1     -16.242  29.264   3.226  1.00  0.00    -0.000 C 
BRANCH   9  10
ATOM     10  C   UNL     1     -16.466  29.457   4.735  1.00  0.00    -0.000 C 
BRANCH  10  11
ATOM     11  C   UNL     1     -17.412  30.627   5.044  1.00  0.00    -0.003 C 
ATOM     12  C   UNL     1     -16.722  31.759   5.807  1.00  0.00     0.004 C 
ENDBRANCH  10  11
ENDBRANCH   9  10
ENDBRANCH   8   9
ENDBRANCH   7   8
ENDBRANCH   6   7
ENDBRANCH   5   6
ENDBRANCH   4   5
ENDBRANCH   3   4
ENDBRANCH   2   3
ENDBRANCH   1   2
BRANCH   1  13
ATOM     13  C   UNL     1     -17.305  29.429  -0.804  1.00  0.00     0.000 C 
BRANCH  13  14
ATOM     14  C   UNL     1     -17.511  28.000  -0.282  1.00  0.00     0.000 C 
BRANCH  14  15
ATOM     15  C   UNL     1     -16.186  27.291   0.041  1.00  0.00     0.000 C 
BRANCH  15  16
ATOM     16  C   UNL     1     -16.367  26.092   0.985  1.00  0.00     0.000 C 
BRANCH  16  17
ATOM     17  C   UNL     1     -17.856  25.759   1.162  1.00  0.00     0.000 C 
BRANCH  17  18
ATOM     18  C   UNL     1     -18.317  24.608   0.252  1.00  0.00     0.000 C 
BRANCH  18  19
ATOM     19  C   UNL     1     -19.845  24.424   0.263  1.00  0.00     0.000 C 
BRANCH  19  20
ATOM     20  C   UNL     1     -20.264  22.947   0.183  1.00  0.00     0.006 C 
BRANCH  20  21
ATOM     21  C   UNL     1     -20.331  22.425  -1.257  1.00  0.00     0.053 C 
BRANCH  21  22
ATOM     22  C   UNL     1     -19.256  21.412  -1.497  1.00  0.00     0.041 C 
ATOM     23  O   UNL     1     -18.956  21.072  -2.671  1.00  0.00    -0.550 OA
ATOM     24  O   UNL     1     -18.554  20.876  -0.425  1.00  0.00    -0.550 OA
ENDBRANCH  21  22
ENDBRANCH  20  21
ENDBRANCH  19  20
ENDBRANCH  18  19
ENDBRANCH  17  18
ENDBRANCH  16  17
ENDBRANCH  15  16
ENDBRANCH  14  15
ENDBRANCH  13  14
ENDBRANCH   1  13
TORSDOF 20
ENDMDL
MODEL 4
REMARK VINA RESULT:    -5.759      2.535      5.739
REMARK INTER + INTRA:         -13.963
REMARK INTER:                 -12.196
REMARK INTRA:                  -1.766
REMARK UNBOUND:                -1.469
REMARK SMILES CCCCCCCCCCCCCCCCCCCCCC(=O)[O-]
REMARK SMILES IDX 12 1 11 2 10 3 9 4 8 5 7 6 6 7 5 8 4 9 3 10 2 11 1 12 13 13
REMARK SMILES IDX 14 14 15 15 16 16 17 17 18 18 19 19 20 20 21 21 22 22 23 23
REMARK SMILES IDX 24 24
REMARK H PARENT
REMARK Flexibility Score: inf
ROOT
ATOM      1  C   UNL     1     -17.403  29.410  -0.665  1.00  0.00     0.000 C 
ENDROOT
BRANCH   1   2
ATOM      2  C   UNL     1     -18.471  30.033  -1.574  1.00  0.00     0.000 C 
BRANCH   2   3
ATOM      3  C   UNL     1     -18.188  31.508  -1.900  1.00  0.00     0.000 C 
BRANCH   3   4
ATOM      4  C   UNL     1     -18.192  32.402  -0.649  1.00  0.00    -0.000 C 
BRANCH   4   5
ATOM      5  C   UNL     1     -17.015  33.392  -0.627  1.00  0.00    -0.000 C 
BRANCH   5   6
ATOM      6  C   UNL     1     -16.156  33.262   0.639  1.00  0.00    -0.000 C 
BRANCH   6   7
ATOM      7  C   UNL     1     -16.600  32.058   1.484  1.00  0.00    -0.000 C 
BRANCH   7   8
ATOM      8  C   UNL     1     -15.571  30.908   1.447  1.00  0.00    -0.000 C 
BRANCH   8   9
ATOM      9  C   UNL     1     -15.768  29.871   2.567  1.00  0.00    -0.000 C 
BRANCH   9  10
ATOM     10  C   UNL     1     -15.514  30.453   3.968  1.00  0.00    -0.000 C 
BRANCH  10  11
ATOM     11  C   UNL     1     -16.337  29.748   5.055  1.00  0.00    -0.003 C 
ATOM     12  C   UNL     1     -17.682  30.429   5.313  1.00  0.00     0.004 C 
ENDBRANCH  10  11
ENDBRANCH   9  10
ENDBRANCH   8   9
ENDBRANCH   7   8
ENDBRANCH   6   7
ENDBRANCH   5   6
ENDBRANCH   4   5
ENDBRANCH   3   4
ENDBRANCH   2   3
ENDBRANCH   1   2
BRANCH   1  13
ATOM     13  C   UNL     1     -17.576  27.888  -0.576  1.00  0.00     0.000 C 
BRANCH  13  14
ATOM     14  C   UNL     1     -16.330  27.223   0.027  1.00  0.00     0.000 C 
BRANCH  14  15
ATOM     15  C   UNL     1     -16.623  25.827   0.599  1.00  0.00     0.000 C 
BRANCH  15  16
ATOM     16  C   UNL     1     -18.014  25.729   1.244  1.00  0.00     0.000 C 
BRANCH  16  17
ATOM     17  C   UNL     1     -18.808  24.555   0.652  1.00  0.00     0.000 C 
BRANCH  17  18
ATOM     18  C   UNL     1     -18.406  24.240  -0.799  1.00  0.00     0.000 C 
BRANCH  18  19
ATOM     19  C   UNL     1     -18.529  22.744  -1.132  1.00  0.00     0.000 C 
BRANCH  19  20
ATOM     20  C   UNL     1     -19.705  22.071  -0.406  1.00  0.00     0.006 C 
BRANCH  20  21
ATOM     21  C   UNL     1     -21.038  22.244  -1.144  1.00  0.00     0.053 C 
BRANCH  21  22
ATOM     22  C   UNL     1     -22.088  22.764  -0.213  1.00  0.00     0.041 C 
ATOM     23  O   UNL     1     -21.861  22.831   1.023  1.00  0.00    -0.550 OA
ATOM     24  O   UNL     1     -23.301  23.215  -0.716  1.00  0.00    -0.550 OA
ENDBRANCH  21  22
ENDBRANCH  20  21
ENDBRANCH  19  20
ENDBRANCH  18  19
ENDBRANCH  17  18
ENDBRANCH  16  17
ENDBRANCH  15  16
ENDBRANCH  14  15
ENDBRANCH  13  14
ENDBRANCH   1  13
TORSDOF 20
ENDMDL
MODEL 5
REMARK VINA RESULT:    -5.666      4.288     10.162
REMARK INTER + INTRA:         -13.759
REMARK INTER:                 -12.029
REMARK INTRA:                  -1.730
REMARK UNBOUND:                -1.469
REMARK SMILES CCCCCCCCCCCCCCCCCCCCCC(=O)[O-]
REMARK SMILES IDX 12 1 11 2 10 3 9 4 8 5 7 6 6 7 5 8 4 9 3 10 2 11 1 12 13 13
REMARK SMILES IDX 14 14 15 15 16 16 17 17 18 18 19 19 20 20 21 21 22 22 23 23
REMARK SMILES IDX 24 24
REMARK H PARENT
REMARK Flexibility Score: inf
ROOT
ATOM      1  C   UNL     1     -19.087  30.330  -2.002  1.00  0.00     0.000 C 
ENDROOT
BRANCH   1   2
ATOM      2  C   UNL     1     -18.855  28.967  -1.334  1.00  0.00     0.000 C 
BRANCH   2   3
ATOM      3  C   UNL     1     -17.565  28.926  -0.499  1.00  0.00     0.000 C 
BRANCH   3   4
ATOM      4  C   UNL     1     -16.924  27.528  -0.469  1.00  0.00    -0.000 C 
BRANCH   4   5
ATOM      5  C   UNL     1     -16.848  26.945   0.952  1.00  0.00    -0.000 C 
BRANCH   5   6
ATOM      6  C   UNL     1     -17.373  25.503   1.029  1.00  0.00    -0.000 C 
BRANCH   6   7
ATOM      7  C   UNL     1     -18.294  25.190  -0.159  1.00  0.00    -0.000 C 
BRANCH   7   8
ATOM      8  C   UNL     1     -18.820  23.739  -0.124  1.00  0.00    -0.000 C 
BRANCH   8   9
ATOM      9  C   UNL     1     -18.892  23.078  -1.511  1.00  0.00    -0.000 C 
BRANCH   9  10
ATOM     10  C   UNL     1     -20.261  22.438  -1.795  1.00  0.00    -0.000 C 
BRANCH  10  11
ATOM     11  C   UNL     1     -21.091  22.233  -0.519  1.00  0.00    -0.003 C 
ATOM     12  C   UNL     1     -22.292  23.176  -0.437  1.00  0.00     0.004 C 
ENDBRANCH  10  11
ENDBRANCH   9  10
ENDBRANCH   8   9
ENDBRANCH   7   8
ENDBRANCH   6   7
ENDBRANCH   5   6
ENDBRANCH   4   5
ENDBRANCH   3   4
ENDBRANCH   2   3
ENDBRANCH   1   2
BRANCH   1  13
ATOM     13  C   UNL     1     -17.869  31.244  -1.819  1.00  0.00     0.000 C 
BRANCH  13  14
ATOM     14  C   UNL     1     -18.168  32.370  -0.818  1.00  0.00     0.000 C 
BRANCH  14  15
ATOM     15  C   UNL     1     -17.022  33.389  -0.715  1.00  0.00     0.000 C 
BRANCH  15  16
ATOM     16  C   UNL     1     -16.290  33.326   0.636  1.00  0.00     0.000 C 
BRANCH  16  17
ATOM     17  C   UNL     1     -16.643  32.033   1.386  1.00  0.00     0.000 C 
BRANCH  17  18
ATOM     18  C   UNL     1     -15.503  31.000   1.354  1.00  0.00     0.000 C 
BRANCH  18  19
ATOM     19  C   UNL     1     -15.662  29.914   2.432  1.00  0.00     0.000 C 
BRANCH  19  20
ATOM     20  C   UNL     1     -15.800  30.500   3.846  1.00  0.00     0.006 C 
BRANCH  20  21
ATOM     21  C   UNL     1     -16.606  29.598   4.789  1.00  0.00     0.053 C 
BRANCH  21  22
ATOM     22  C   UNL     1     -17.667  30.387   5.488  1.00  0.00     0.041 C 
ATOM     23  O   UNL     1     -18.778  29.858   5.753  1.00  0.00    -0.550 OA
ATOM     24  O   UNL     1     -17.415  31.693   5.886  1.00  0.00    -0.550 OA
ENDBRANCH  21  22
ENDBRANCH  20  21
ENDBRANCH  19  20
ENDBRANCH  18  19
ENDBRANCH  17  18
ENDBRANCH  16  17
ENDBRANCH  15  16
ENDBRANCH  14  15
ENDBRANCH  13  14
ENDBRANCH   1  13
TORSDOF 20
ENDMDL
MODEL 6
REMARK VINA RESULT:    -5.620      1.065      2.148
REMARK INTER + INTRA:         -13.661
REMARK INTER:                 -12.468
REMARK INTRA:                  -1.193
REMARK UNBOUND:                -1.469
REMARK SMILES CCCCCCCCCCCCCCCCCCCCCC(=O)[O-]
REMARK SMILES IDX 12 1 11 2 10 3 9 4 8 5 7 6 6 7 5 8 4 9 3 10 2 11 1 12 13 13
REMARK SMILES IDX 14 14 15 15 16 16 17 17 18 18 19 19 20 20 21 21 22 22 23 23
REMARK SMILES IDX 24 24
REMARK H PARENT
REMARK Flexibility Score: inf
ROOT
ATOM      1  C   UNL     1     -18.529  24.643   0.034  1.00  0.00     0.000 C 
ENDROOT
BRANCH   1   2
ATOM      2  C   UNL     1     -17.083  25.125   0.221  1.00  0.00     0.000 C 
BRANCH   2   3
ATOM      3  C   UNL     1     -16.952  26.205   1.307  1.00  0.00     0.000 C 
BRANCH   3   4
ATOM      4  C   UNL     1     -16.562  27.577   0.732  1.00  0.00    -0.000 C 
BRANCH   4   5
ATOM      5  C   UNL     1     -17.593  28.108  -0.278  1.00  0.00    -0.000 C 
BRANCH   5   6
ATOM      6  C   UNL     1     -17.332  29.568  -0.678  1.00  0.00    -0.000 C 
BRANCH   6   7
ATOM      7  C   UNL     1     -18.436  30.088  -1.610  1.00  0.00    -0.000 C 
BRANCH   7   8
ATOM      8  C   UNL     1     -18.243  31.577  -1.969  1.00  0.00    -0.000 C 
BRANCH   8   9
ATOM      9  C   UNL     1     -18.160  32.500  -0.740  1.00  0.00    -0.000 C 
BRANCH   9  10
ATOM     10  C   UNL     1     -16.881  33.352  -0.721  1.00  0.00    -0.000 C 
BRANCH  10  11
ATOM     11  C   UNL     1     -16.251  33.436   0.676  1.00  0.00    -0.003 C 
ATOM     12  C   UNL     1     -16.485  32.174   1.507  1.00  0.00     0.004 C 
ENDBRANCH  10  11
ENDBRANCH   9  10
ENDBRANCH   8   9
ENDBRANCH   7   8
ENDBRANCH   6   7
ENDBRANCH   5   6
ENDBRANCH   4   5
ENDBRANCH   3   4
ENDBRANCH   2   3
ENDBRANCH   1   2
BRANCH   1  13
ATOM     13  C   UNL     1     -18.724  24.015  -1.351  1.00  0.00     0.000 C 
BRANCH  13  14
ATOM     14  C   UNL     1     -19.000  22.508  -1.241  1.00  0.00     0.000 C 
BRANCH  14  15
ATOM     15  C   UNL     1     -20.496  22.172  -1.337  1.00  0.00     0.000 C 
BRANCH  15  16
ATOM     16  C   UNL     1     -21.006  21.378  -0.123  1.00  0.00     0.000 C 
BRANCH  16  17
ATOM     17  C   UNL     1     -22.508  21.614   0.091  1.00  0.00     0.000 C 
BRANCH  17  18
ATOM     18  C   UNL     1     -22.940  23.046  -0.268  1.00  0.00     0.000 C 
BRANCH  18  19
ATOM     19  C   UNL     1     -24.463  23.177  -0.440  1.00  0.00     0.000 C 
BRANCH  19  20
ATOM     20  C   UNL     1     -24.854  24.305  -1.407  1.00  0.00     0.006 C 
BRANCH  20  21
ATOM     21  C   UNL     1     -25.936  23.883  -2.409  1.00  0.00     0.053 C 
BRANCH  21  22
ATOM     22  C   UNL     1     -25.570  24.323  -3.791  1.00  0.00     0.041 C 
ATOM     23  O   UNL     1     -25.628  23.511  -4.751  1.00  0.00    -0.550 OA
ATOM     24  O   UNL     1     -25.209  25.643  -4.027  1.00  0.00    -0.550 OA
ENDBRANCH  21  22
ENDBRANCH  20  21
ENDBRANCH  19  20
ENDBRANCH  18  19
ENDBRANCH  17  18
ENDBRANCH  16  17
ENDBRANCH  15  16
ENDBRANCH  14  15
ENDBRANCH  13  14
ENDBRANCH   1  13
TORSDOF 20
ENDMDL
MODEL 7
REMARK VINA RESULT:    -5.580      2.599      9.383
REMARK INTER + INTRA:         -13.572
REMARK INTER:                 -12.214
REMARK INTRA:                  -1.358
REMARK UNBOUND:                -1.469
REMARK SMILES CCCCCCCCCCCCCCCCCCCCCC(=O)[O-]
REMARK SMILES IDX 12 1 11 2 10 3 9 4 8 5 7 6 6 7 5 8 4 9 3 10 2 11 1 12 13 13
REMARK SMILES IDX 14 14 15 15 16 16 17 17 18 18 19 19 20 20 21 21 22 22 23 23
REMARK SMILES IDX 24 24
REMARK H PARENT
REMARK Flexibility Score: inf
ROOT
ATOM      1  C   UNL     1     -16.373  26.192   0.404  1.00  0.00     0.000 C 
ENDROOT
BRANCH   1   2
ATOM      2  C   UNL     1     -17.667  25.679  -0.244  1.00  0.00     0.000 C 
BRANCH   2   3
ATOM      3  C   UNL     1     -18.652  25.090   0.779  1.00  0.00     0.000 C 
BRANCH   3   4
ATOM      4  C   UNL     1     -19.206  23.722   0.348  1.00  0.00    -0.000 C 
BRANCH   4   5
ATOM      5  C   UNL     1     -19.161  23.521  -1.176  1.00  0.00    -0.000 C 
BRANCH   5   6
ATOM      6  C   UNL     1     -20.169  22.469  -1.663  1.00  0.00    -0.000 C 
BRANCH   6   7
ATOM      7  C   UNL     1     -20.717  21.646  -0.488  1.00  0.00    -0.000 C 
BRANCH   7   8
ATOM      8  C   UNL     1     -22.241  21.817  -0.316  1.00  0.00    -0.000 C 
BRANCH   8   9
ATOM      9  C   UNL     1     -22.692  23.287  -0.256  1.00  0.00    -0.000 C 
BRANCH   9  10
ATOM     10  C   UNL     1     -24.159  23.478  -0.675  1.00  0.00    -0.000 C 
BRANCH  10  11
ATOM     11  C   UNL     1     -25.111  22.532   0.071  1.00  0.00    -0.003 C 
ATOM     12  C   UNL     1     -25.981  21.703  -0.875  1.00  0.00     0.004 C 
ENDBRANCH  10  11
ENDBRANCH   9  10
ENDBRANCH   8   9
ENDBRANCH   7   8
ENDBRANCH   6   7
ENDBRANCH   5   6
ENDBRANCH   4   5
ENDBRANCH   3   4
ENDBRANCH   2   3
ENDBRANCH   1   2
BRANCH   1  13
ATOM     13  C   UNL     1     -16.678  27.008   1.667  1.00  0.00     0.000 C 
BRANCH  13  14
ATOM     14  C   UNL     1     -16.233  28.469   1.504  1.00  0.00     0.000 C 
BRANCH  14  15
ATOM     15  C   UNL     1     -16.075  29.193   2.850  1.00  0.00     0.000 C 
BRANCH  15  16
ATOM     16  C   UNL     1     -16.002  30.721   2.697  1.00  0.00     0.000 C 
BRANCH  16  17
ATOM     17  C   UNL     1     -16.131  31.128   1.222  1.00  0.00     0.000 C 
BRANCH  17  18
ATOM     18  C   UNL     1     -16.426  32.627   1.044  1.00  0.00     0.000 C 
BRANCH  18  19
ATOM     19  C   UNL     1     -16.928  32.965  -0.370  1.00  0.00     0.000 C 
BRANCH  19  20
ATOM     20  C   UNL     1     -18.231  32.232  -0.727  1.00  0.00     0.006 C 
BRANCH  20  21
ATOM     21  C   UNL     1     -18.138  31.462  -2.049  1.00  0.00     0.053 C 
BRANCH  21  22
ATOM     22  C   UNL     1     -18.666  30.072  -1.884  1.00  0.00     0.041 C 
ATOM     23  O   UNL     1     -19.656  29.686  -2.561  1.00  0.00    -0.550 OA
ATOM     24  O   UNL     1     -18.039  29.188  -1.016  1.00  0.00    -0.550 OA
ENDBRANCH  21  22
ENDBRANCH  20  21
ENDBRANCH  19  20
ENDBRANCH  18  19
ENDBRANCH  17  18
ENDBRANCH  16  17
ENDBRANCH  15  16
ENDBRANCH  14  15
ENDBRANCH  13  14
ENDBRANCH   1  13
TORSDOF 20
ENDMDL
MODEL 8
REMARK VINA RESULT:    -5.447      2.250      4.522
REMARK INTER + INTRA:         -13.286
REMARK INTER:                 -11.574
REMARK INTRA:                  -1.711
REMARK UNBOUND:                -1.469
REMARK SMILES CCCCCCCCCCCCCCCCCCCCCC(=O)[O-]
REMARK SMILES IDX 12 1 11 2 10 3 9 4 8 5 7 6 6 7 5 8 4 9 3 10 2 11 1 12 13 13
REMARK SMILES IDX 14 14 15 15 16 16 17 17 18 18 19 19 20 20 21 21 22 22 23 23
REMARK SMILES IDX 24 24
REMARK H PARENT
REMARK Flexibility Score: inf
ROOT
ATOM      1  C   UNL     1     -16.958  27.220  -0.198  1.00  0.00     0.000 C 
ENDROOT
BRANCH   1   2
ATOM      2  C   UNL     1     -16.029  28.290   0.394  1.00  0.00     0.000 C 
BRANCH   2   3
ATOM      3  C   UNL     1     -16.266  28.517   1.895  1.00  0.00     0.000 C 
BRANCH   3   4
ATOM      4  C   UNL     1     -15.750  29.884   2.375  1.00  0.00    -0.000 C 
BRANCH   4   5
ATOM      5  C   UNL     1     -15.662  30.914   1.237  1.00  0.00    -0.000 C 
BRANCH   5   6
ATOM      6  C   UNL     1     -16.632  32.090   1.426  1.00  0.00    -0.000 C 
BRANCH   6   7
ATOM      7  C   UNL     1     -16.128  33.341   0.692  1.00  0.00    -0.000 C 
BRANCH   7   8
ATOM      8  C   UNL     1     -16.847  33.556  -0.656  1.00  0.00    -0.000 C 
BRANCH   8   9
ATOM      9  C   UNL     1     -18.161  32.765  -0.785  1.00  0.00    -0.000 C 
BRANCH   9  10
ATOM     10  C   UNL     1     -18.146  31.773  -1.960  1.00  0.00    -0.000 C 
BRANCH  10  11
ATOM     11  C   UNL     1     -18.333  30.319  -1.504  1.00  0.00    -0.003 C 
ATOM     12  C   UNL     1     -19.536  29.643  -2.163  1.00  0.00     0.004 C 
ENDBRANCH  10  11
ENDBRANCH   9  10
ENDBRANCH   8   9
ENDBRANCH   7   8
ENDBRANCH   6   7
ENDBRANCH   5   6
ENDBRANCH   4   5
ENDBRANCH   3   4
ENDBRANCH   2   3
ENDBRANCH   1   2
BRANCH   1  13
ATOM     13  C   UNL     1     -16.780  25.878   0.522  1.00  0.00     0.000 C 
BRANCH  13  14
ATOM     14  C   UNL     1     -18.104  25.101   0.581  1.00  0.00     0.000 C 
BRANCH  14  15
ATOM     15  C   UNL     1     -18.393  24.327  -0.715  1.00  0.00     0.000 C 
BRANCH  15  16
ATOM     16  C   UNL     1     -19.231  23.061  -0.477  1.00  0.00     0.000 C 
BRANCH  16  17
ATOM     17  C   UNL     1     -19.955  23.134   0.876  1.00  0.00     0.000 C 
BRANCH  17  18
ATOM     18  C   UNL     1     -19.947  21.790   1.625  1.00  0.00     0.000 C 
BRANCH  18  19
ATOM     19  C   UNL     1     -21.153  20.907   1.262  1.00  0.00     0.000 C 
BRANCH  19  20
ATOM     20  C   UNL     1     -22.494  21.540   1.669  1.00  0.00     0.006 C 
BRANCH  20  21
ATOM     21  C   UNL     1     -23.569  21.406   0.584  1.00  0.00     0.053 C 
BRANCH  21  22
ATOM     22  C   UNL     1     -23.738  22.700  -0.148  1.00  0.00     0.041 C 
ATOM     23  O   UNL     1     -22.821  23.130  -0.896  1.00  0.00    -0.550 OA
ATOM     24  O   UNL     1     -24.927  23.409  -0.039  1.00  0.00    -0.550 OA
ENDBRANCH  21  22
ENDBRANCH  20  21
ENDBRANCH  19  20
ENDBRANCH  18  19
ENDBRANCH  17  18
ENDBRANCH  16  17
ENDBRANCH  15  16
ENDBRANCH  14  15
ENDBRANCH  13  14
ENDBRANCH   1  13
TORSDOF 20
ENDMDL
MODEL 9
REMARK VINA RESULT:    -4.988      5.262     10.610
REMARK INTER + INTRA:         -12.289
REMARK INTER:                 -10.704
REMARK INTRA:                  -1.586
REMARK UNBOUND:                -1.469
REMARK SMILES CCCCCCCCCCCCCCCCCCCCCC(=O)[O-]
REMARK SMILES IDX 12 1 11 2 10 3 9 4 8 5 7 6 6 7 5 8 4 9 3 10 2 11 1 12 13 13
REMARK SMILES IDX 14 14 15 15 16 16 17 17 18 18 19 19 20 20 21 21 22 22 23 23
REMARK SMILES IDX 24 24
REMARK H PARENT
REMARK Flexibility Score: inf
ROOT
ATOM      1  C   UNL     1     -18.138  31.639  -2.019  1.00  0.00     0.000 C 
ENDROOT
BRANCH   1   2
ATOM      2  C   UNL     1     -18.457  30.155  -1.787  1.00  0.00     0.000 C 
BRANCH   2   3
ATOM      3  C   UNL     1     -17.692  29.563  -0.592  1.00  0.00     0.000 C 
BRANCH   3   4
ATOM      4  C   UNL     1     -17.578  28.031  -0.664  1.00  0.00    -0.000 C 
BRANCH   4   5
ATOM      5  C   UNL     1     -16.408  27.487   0.173  1.00  0.00    -0.000 C 
BRANCH   5   6
ATOM      6  C   UNL     1     -16.631  26.037   0.629  1.00  0.00    -0.000 C 
BRANCH   6   7
ATOM      7  C   UNL     1     -17.756  25.373  -0.179  1.00  0.00    -0.000 C 
BRANCH   7   8
ATOM      8  C   UNL     1     -18.946  24.957   0.710  1.00  0.00    -0.000 C 
BRANCH   8   9
ATOM      9  C   UNL     1     -19.496  23.557   0.386  1.00  0.00    -0.000 C 
BRANCH   9  10
ATOM     10  C   UNL     1     -18.878  22.955  -0.887  1.00  0.00    -0.000 C 
BRANCH  10  11
ATOM     11  C   UNL     1     -19.873  22.087  -1.670  1.00  0.00    -0.003 C 
ATOM     12  C   UNL     1     -19.210  20.875  -2.327  1.00  0.00     0.004 C 
ENDBRANCH  10  11
ENDBRANCH   9  10
ENDBRANCH   8   9
ENDBRANCH   7   8
ENDBRANCH   6   7
ENDBRANCH   5   6
ENDBRANCH   4   5
ENDBRANCH   3   4
ENDBRANCH   2   3
ENDBRANCH   1   2
BRANCH   1  13
ATOM     13  C   UNL     1     -18.150  32.417  -0.698  1.00  0.00     0.000 C 
BRANCH  13  14
ATOM     14  C   UNL     1     -16.993  33.426  -0.639  1.00  0.00     0.000 C 
BRANCH  14  15
ATOM     15  C   UNL     1     -16.126  33.259   0.618  1.00  0.00     0.000 C 
BRANCH  15  16
ATOM     16  C   UNL     1     -16.605  32.112   1.522  1.00  0.00     0.000 C 
BRANCH  16  17
ATOM     17  C   UNL     1     -15.662  30.904   1.414  1.00  0.00     0.000 C 
BRANCH  17  18
ATOM     18  C   UNL     1     -15.215  30.377   2.789  1.00  0.00     0.000 C 
BRANCH  18  19
ATOM     19  C   UNL     1     -16.221  29.381   3.393  1.00  0.00     0.000 C 
BRANCH  19  20
ATOM     20  C   UNL     1     -16.404  29.572   4.907  1.00  0.00     0.006 C 
BRANCH  20  21
ATOM     21  C   UNL     1     -15.533  30.698   5.475  1.00  0.00     0.053 C 
BRANCH  21  22
ATOM     22  C   UNL     1     -16.376  31.881   5.835  1.00  0.00     0.041 C 
ATOM     23  O   UNL     1     -17.598  31.730   6.099  1.00  0.00    -0.550 OA
ATOM     24  O   UNL     1     -15.803  33.143   5.924  1.00  0.00    -0.550 OA
ENDBRANCH  21  22
ENDBRANCH  20  21
ENDBRANCH  19  20
ENDBRANCH  18  19
ENDBRANCH  17  18
ENDBRANCH  16  17
ENDBRANCH  15  16
ENDBRANCH  14  15
ENDBRANCH  13  14
ENDBRANCH   1  13
TORSDOF 20
ENDMDL
