MODEL 1
REMARK VINA RESULT:    -0.872      0.000      0.000
REMARK INTER + INTRA:           0.043
REMARK INTER:                  -1.637
REMARK INTRA:                   1.680
REMARK UNBOUND:                 1.680
REMARK SMILES CCCCCCCCC=CCCCCCCCC(=O)[O-]
REMARK SMILES IDX 10 1 9 2 11 3 12 4 13 5 14 6 15 7 16 8 17 9 18 10 19 11
REMARK SMILES IDX 20 12 8 13 7 14 6 15 5 16 4 17 3 18 2 19 1 20
REMARK H PARENT
REMARK Flexibility Score: inf
ROOT
ATOM      1  C   UNL     1       0.754  45.598  47.597  1.00  0.00    -0.031 C 
ATOM      2  C   UNL     1       1.995  46.102  47.464  1.00  0.00    -0.031 C 
ENDROOT
BRANCH   1   3
ATOM      3  C   UNL     1      -0.520  46.309  47.204  1.00  0.00     0.027 C 
BRANCH   3   4
ATOM      4  C   UNL     1      -0.962  47.302  48.286  1.00  0.00     0.004 C 
BRANCH   4   5
ATOM      5  C   UNL     1       0.235  48.012  48.940  1.00  0.00     0.000 C 
BRANCH   5   6
ATOM      6  C   UNL     1       0.346  47.718  50.444  1.00  0.00     0.000 C 
BRANCH   6   7
ATOM      7  C   UNL     1      -1.028  47.524  51.111  1.00  0.00     0.000 C 
BRANCH   7   8
ATOM      8  C   UNL     1      -1.042  46.355  52.114  1.00  0.00     0.006 C 
BRANCH   8   9
ATOM      9  C   UNL     1      -0.100  45.198  51.745  1.00  0.00     0.053 C 
BRANCH   9  10
ATOM     10  C   UNL     1      -0.797  44.140  50.944  1.00  0.00     0.041 C 
ATOM     11  O   UNL     1      -1.061  43.024  51.463  1.00  0.00    -0.550 OA
ATOM     12  O   UNL     1      -1.125  44.376  49.615  1.00  0.00    -0.550 OA
ENDBRANCH   9  10
ENDBRANCH   8   9
ENDBRANCH   7   8
ENDBRANCH   6   7
ENDBRANCH   5   6
ENDBRANCH   4   5
ENDBRANCH   3   4
ENDBRANCH   1   3
BRANCH   2  13
ATOM     13  C   UNL     1       2.314  47.478  46.936  1.00  0.00     0.027 C 
BRANCH  13  14
ATOM     14  C   UNL     1       3.802  47.848  47.099  1.00  0.00     0.004 C 
BRANCH  14  15
ATOM     15  C   UNL     1       4.370  47.550  48.500  1.00  0.00     0.000 C 
BRANCH  15  16
ATOM     16  C   UNL     1       3.317  47.307  49.600  1.00  0.00     0.000 C 
BRANCH  16  17
ATOM     17  C   UNL     1       3.616  46.130  50.548  1.00  0.00    -0.000 C 
BRANCH  17  18
ATOM     18  C   UNL     1       2.432  45.158  50.686  1.00  0.00    -0.000 C 
BRANCH  18  19
ATOM     19  C   UNL     1       2.882  43.689  50.737  1.00  0.00    -0.003 C 
ATOM     20  C   UNL     1       2.293  42.847  49.606  1.00  0.00     0.004 C 
ENDBRANCH  18  19
ENDBRANCH  17  18
ENDBRANCH  16  17
ENDBRANCH  15  16
ENDBRANCH  14  15
ENDBRANCH  13  14
ENDBRANCH   2  13
TORSDOF 15
ENDMDL
MODEL 2
REMARK VINA RESULT:    -0.548      2.900      5.253
REMARK INTER + INTRA:           0.652
REMARK INTER:                  -1.243
REMARK INTRA:                   1.895
REMARK UNBOUND:                 1.680
REMARK SMILES CCCCCCCCC=CCCCCCCCC(=O)[O-]
REMARK SMILES IDX 10 1 9 2 11 3 12 4 13 5 14 6 15 7 16 8 17 9 18 10 19 11
REMARK SMILES IDX 20 12 8 13 7 14 6 15 5 16 4 17 3 18 2 19 1 20
REMARK H PARENT
REMARK Flexibility Score: inf
ROOT
ATOM      1  C   UNL     1      -0.153  46.696  51.882  1.00  0.00    -0.031 C 
ATOM      2  C   UNL     1      -0.203  45.358  51.754  1.00  0.00    -0.031 C 
ENDROOT
BRANCH   1   3
ATOM      3  C   UNL     1      -1.034  47.674  51.138  1.00  0.00     0.027 C 
BRANCH   3   4
ATOM      4  C   UNL     1      -0.804  47.593  49.624  1.00  0.00     0.004 C 
BRANCH   4   5
ATOM      5  C   UNL     1       0.649  47.925  49.243  1.00  0.00     0.000 C 
BRANCH   5   6
ATOM      6  C   UNL     1       1.555  48.098  50.471  1.00  0.00     0.000 C 
BRANCH   6   7
ATOM      7  C   UNL     1       2.947  47.471  50.272  1.00  0.00     0.000 C 
BRANCH   7   8
ATOM      8  C   UNL     1       3.179  46.984  48.830  1.00  0.00     0.006 C 
BRANCH   8   9
ATOM      9  C   UNL     1       3.337  48.115  47.801  1.00  0.00     0.053 C 
BRANCH   9  10
ATOM     10  C   UNL     1       4.584  47.960  46.984  1.00  0.00     0.041 C 
ATOM     11  O   UNL     1       5.704  47.872  47.550  1.00  0.00    -0.550 OA
ATOM     12  O   UNL     1       4.510  47.948  45.597  1.00  0.00    -0.550 OA
ENDBRANCH   9  10
ENDBRANCH   8   9
ENDBRANCH   7   8
ENDBRANCH   6   7
ENDBRANCH   5   6
ENDBRANCH   4   5
ENDBRANCH   3   4
ENDBRANCH   1   3
BRANCH   2  13
ATOM     13  C   UNL     1      -1.122  44.615  50.816  1.00  0.00     0.027 C 
BRANCH  13  14
ATOM     14  C   UNL     1      -0.651  43.173  50.538  1.00  0.00     0.004 C 
BRANCH  14  15
ATOM     15  C   UNL     1       0.778  42.877  51.032  1.00  0.00     0.000 C 
BRANCH  15  16
ATOM     16  C   UNL     1       1.907  43.556  50.231  1.00  0.00     0.000 C 
BRANCH  16  17
ATOM     17  C   UNL     1       1.844  43.356  48.705  1.00  0.00    -0.000 C 
BRANCH  17  18
ATOM     18  C   UNL     1       1.923  44.679  47.925  1.00  0.00    -0.000 C 
BRANCH  18  19
ATOM     19  C   UNL     1       0.590  45.444  47.930  1.00  0.00    -0.003 C 
ATOM     20  C   UNL     1      -0.592  44.581  47.490  1.00  0.00     0.004 C 
ENDBRANCH  18  19
ENDBRANCH  17  18
ENDBRANCH  16  17
ENDBRANCH  15  16
ENDBRANCH  14  15
ENDBRANCH  13  14
ENDBRANCH   2  13
TORSDOF 15
ENDMDL
MODEL 3
REMARK VINA RESULT:    -0.254      2.887      4.892
REMARK INTER + INTRA:           1.203
REMARK INTER:                   2.428
REMARK INTRA:                  -1.225
REMARK UNBOUND:                 1.680
REMARK SMILES CCCCCCCCC=CCCCCCCCC(=O)[O-]
REMARK SMILES IDX 10 1 9 2 11 3 12 4 13 5 14 6 15 7 16 8 17 9 18 10 19 11
REMARK SMILES IDX 20 12 8 13 7 14 6 15 5 16 4 17 3 18 2 19 1 20
REMARK H PARENT
REMARK Flexibility Score: inf
ROOT
ATOM      1  C   UNL     1      -0.786  44.399  48.258  1.00  0.00    -0.031 C 
ATOM      2  C   UNL     1      -0.758  43.935  49.521  1.00  0.00    -0.031 C 
ENDROOT
BRANCH   1   3
ATOM      3  C   UNL     1      -1.125  45.817  47.860  1.00  0.00     0.027 C 
BRANCH   3   4
ATOM      4  C   UNL     1       0.124  46.708  47.851  1.00  0.00     0.004 C 
BRANCH   4   5
ATOM      5  C   UNL     1      -0.060  47.965  48.719  1.00  0.00     0.000 C 
BRANCH   5   6
ATOM      6  C   UNL     1       0.439  47.766  50.158  1.00  0.00     0.000 C 
BRANCH   6   7
ATOM      7  C   UNL     1       1.970  47.622  50.239  1.00  0.00     0.000 C 
BRANCH   7   8
ATOM      8  C   UNL     1       2.682  48.125  48.970  1.00  0.00     0.006 C 
BRANCH   8   9
ATOM      9  C   UNL     1       3.558  47.069  48.278  1.00  0.00     0.053 C 
BRANCH   9  10
ATOM     10  C   UNL     1       4.523  47.685  47.311  1.00  0.00     0.041 C 
ATOM     11  O   UNL     1       4.147  47.986  46.148  1.00  0.00    -0.550 OA
ATOM     12  O   UNL     1       5.844  47.895  47.684  1.00  0.00    -0.550 OA
ENDBRANCH   9  10
ENDBRANCH   8   9
ENDBRANCH   7   8
ENDBRANCH   6   7
ENDBRANCH   5   6
ENDBRANCH   4   5
ENDBRANCH   3   4
ENDBRANCH   1   3
BRANCH   2  13
ATOM     13  C   UNL     1      -1.100  44.747  50.745  1.00  0.00     0.027 C 
BRANCH  13  14
ATOM     14  C   UNL     1       0.024  44.735  51.801  1.00  0.00     0.004 C 
BRANCH  14  15
ATOM     15  C   UNL     1       0.948  43.504  51.716  1.00  0.00     0.000 C 
BRANCH  15  16
ATOM     16  C   UNL     1       2.248  43.710  50.914  1.00  0.00     0.000 C 
BRANCH  16  17
ATOM     17  C   UNL     1       2.690  42.510  50.055  1.00  0.00    -0.000 C 
BRANCH  17  18
ATOM     18  C   UNL     1       3.637  41.556  50.802  1.00  0.00    -0.000 C 
BRANCH  18  19
ATOM     19  C   UNL     1       4.771  41.033  49.905  1.00  0.00    -0.003 C 
ATOM     20  C   UNL     1       6.139  41.593  50.289  1.00  0.00     0.004 C 
ENDBRANCH  18  19
ENDBRANCH  17  18
ENDBRANCH  16  17
ENDBRANCH  15  16
ENDBRANCH  14  15
ENDBRANCH  13  14
ENDBRANCH   2  13
TORSDOF 15
ENDMDL
MODEL 4
REMARK VINA RESULT:    -0.038      2.574      5.210
REMARK INTER + INTRA:           1.609
REMARK INTER:                  -0.582
REMARK INTRA:                   2.190
REMARK UNBOUND:                 1.680
REMARK SMILES CCCCCCCCC=CCCCCCCCC(=O)[O-]
REMARK SMILES IDX 10 1 9 2 11 3 12 4 13 5 14 6 15 7 16 8 17 9 18 10 19 11
REMARK SMILES IDX 20 12 8 13 7 14 6 15 5 16 4 17 3 18 2 19 1 20
REMARK H PARENT
REMARK Flexibility Score: inf
ROOT
ATOM      1  C   UNL     1      -1.018  44.961  52.124  1.00  0.00    -0.031 C 
ATOM      2  C   UNL     1      -0.674  43.661  52.072  1.00  0.00    -0.031 C 
ENDROOT
BRANCH   1   3
ATOM      3  C   UNL     1      -0.157  46.108  51.647  1.00  0.00     0.027 C 
BRANCH   3   4
ATOM      4  C   UNL     1      -0.926  47.021  50.684  1.00  0.00     0.004 C 
BRANCH   4   5
ATOM      5  C   UNL     1      -0.648  46.671  49.213  1.00  0.00     0.000 C 
BRANCH   5   6
ATOM      6  C   UNL     1      -0.918  47.849  48.265  1.00  0.00     0.000 C 
BRANCH   6   7
ATOM      7  C   UNL     1       0.259  48.123  47.311  1.00  0.00     0.000 C 
BRANCH   7   8
ATOM      8  C   UNL     1       1.598  47.588  47.851  1.00  0.00     0.006 C 
BRANCH   8   9
ATOM      9  C   UNL     1       2.803  47.874  46.941  1.00  0.00     0.053 C 
BRANCH   9  10
ATOM     10  C   UNL     1       4.096  47.852  47.698  1.00  0.00     0.041 C 
ATOM     11  O   UNL     1       4.093  47.758  48.953  1.00  0.00    -0.550 OA
ATOM     12  O   UNL     1       5.302  47.969  47.019  1.00  0.00    -0.550 OA
ENDBRANCH   9  10
ENDBRANCH   8   9
ENDBRANCH   7   8
ENDBRANCH   6   7
ENDBRANCH   5   6
ENDBRANCH   4   5
ENDBRANCH   3   4
ENDBRANCH   1   3
BRANCH   2  13
ATOM     13  C   UNL     1       0.647  43.138  51.563  1.00  0.00     0.027 C 
BRANCH  13  14
ATOM     14  C   UNL     1       0.523  42.435  50.196  1.00  0.00     0.004 C 
BRANCH  14  15
ATOM     15  C   UNL     1      -0.667  42.924  49.348  1.00  0.00     0.000 C 
BRANCH  15  16
ATOM     16  C   UNL     1      -0.397  44.179  48.494  1.00  0.00     0.000 C 
BRANCH  16  17
ATOM     17  C   UNL     1       0.755  44.049  47.480  1.00  0.00    -0.000 C 
BRANCH  17  18
ATOM     18  C   UNL     1       2.079  44.635  47.999  1.00  0.00    -0.000 C 
BRANCH  18  19
ATOM     19  C   UNL     1       2.395  44.187  49.435  1.00  0.00    -0.003 C 
ATOM     20  C   UNL     1       2.299  45.328  50.448  1.00  0.00     0.004 C 
ENDBRANCH  18  19
ENDBRANCH  17  18
ENDBRANCH  16  17
ENDBRANCH  15  16
ENDBRANCH  14  15
ENDBRANCH  13  14
ENDBRANCH   2  13
TORSDOF 15
ENDMDL
MODEL 5
REMARK VINA RESULT:     0.592      2.140      4.542
REMARK INTER + INTRA:           2.790
REMARK INTER:                   3.836
REMARK INTRA:                  -1.046
REMARK UNBOUND:                 1.680
REMARK SMILES CCCCCCCCC=CCCCCCCCC(=O)[O-]
REMARK SMILES IDX 10 1 9 2 11 3 12 4 13 5 14 6 15 7 16 8 17 9 18 10 19 11
REMARK SMILES IDX 20 12 8 13 7 14 6 15 5 16 4 17 3 18 2 19 1 20
REMARK H PARENT
REMARK Flexibility Score: inf
ROOT
ATOM      1  C   UNL     1      -1.125  45.469  50.801  1.00  0.00    -0.031 C 
ATOM      2  C   UNL     1      -0.867  44.148  50.770  1.00  0.00    -0.031 C 
ENDROOT
BRANCH   1   3
ATOM      3  C   UNL     1      -0.596  46.433  51.837  1.00  0.00     0.027 C 
BRANCH   3   4
ATOM      4  C   UNL     1      -0.550  47.867  51.293  1.00  0.00     0.004 C 
BRANCH   4   5
ATOM      5  C   UNL     1       0.543  48.043  50.225  1.00  0.00     0.000 C 
BRANCH   5   6
ATOM      6  C   UNL     1       1.855  47.339  50.603  1.00  0.00     0.000 C 
BRANCH   6   7
ATOM      7  C   UNL     1       2.891  47.368  49.464  1.00  0.00     0.000 C 
BRANCH   7   8
ATOM      8  C   UNL     1       2.535  46.410  48.312  1.00  0.00     0.006 C 
BRANCH   8   9
ATOM      9  C   UNL     1       1.173  46.689  47.659  1.00  0.00     0.053 C 
BRANCH   9  10
ATOM     10  C   UNL     1       0.285  45.482  47.674  1.00  0.00     0.041 C 
ATOM     11  O   UNL     1       0.767  44.345  47.917  1.00  0.00    -0.550 OA
ATOM     12  O   UNL     1      -1.068  45.609  47.386  1.00  0.00    -0.550 OA
ENDBRANCH   9  10
ENDBRANCH   8   9
ENDBRANCH   7   8
ENDBRANCH   6   7
ENDBRANCH   5   6
ENDBRANCH   4   5
ENDBRANCH   3   4
ENDBRANCH   1   3
BRANCH   2  13
ATOM     13  C   UNL     1      -0.037  43.408  51.789  1.00  0.00     0.027 C 
BRANCH  13  14
ATOM     14  C   UNL     1       1.100  42.586  51.148  1.00  0.00     0.004 C 
BRANCH  14  15
ATOM     15  C   UNL     1       2.286  43.438  50.657  1.00  0.00     0.000 C 
BRANCH  15  16
ATOM     16  C   UNL     1       3.332  42.687  49.811  1.00  0.00     0.000 C 
BRANCH  16  17
ATOM     17  C   UNL     1       3.891  41.399  50.446  1.00  0.00    -0.000 C 
BRANCH  17  18
ATOM     18  C   UNL     1       5.393  41.491  50.763  1.00  0.00    -0.000 C 
BRANCH  18  19
ATOM     19  C   UNL     1       6.232  40.520  49.917  1.00  0.00    -0.003 C 
ATOM     20  C   UNL     1       7.067  41.228  48.852  1.00  0.00     0.004 C 
ENDBRANCH  18  19
ENDBRANCH  17  18
ENDBRANCH  16  17
ENDBRANCH  15  16
ENDBRANCH  14  15
ENDBRANCH  13  14
ENDBRANCH   2  13
TORSDOF 15
ENDMDL
MODEL 6
REMARK VINA RESULT:     0.603      2.758      4.840
REMARK INTER + INTRA:           2.811
REMARK INTER:                   3.940
REMARK INTRA:                  -1.128
REMARK UNBOUND:                 1.680
REMARK SMILES CCCCCCCCC=CCCCCCCCC(=O)[O-]
REMARK SMILES IDX 10 1 9 2 11 3 12 4 13 5 14 6 15 7 16 8 17 9 18 10 19 11
REMARK SMILES IDX 20 12 8 13 7 14 6 15 5 16 4 17 3 18 2 19 1 20
REMARK H PARENT
REMARK Flexibility Score: inf
ROOT
ATOM      1  C   UNL     1      -0.620  44.135  51.563  1.00  0.00    -0.031 C 
ATOM      2  C   UNL     1      -0.454  43.321  50.505  1.00  0.00    -0.031 C 
ENDROOT
BRANCH   1   3
ATOM      3  C   UNL     1      -0.075  45.540  51.673  1.00  0.00     0.027 C 
BRANCH   3   4
ATOM      4  C   UNL     1      -1.108  46.578  51.217  1.00  0.00     0.004 C 
BRANCH   4   5
ATOM      5  C   UNL     1      -1.114  46.751  49.688  1.00  0.00     0.000 C 
BRANCH   5   6
ATOM      6  C   UNL     1      -0.585  48.124  49.247  1.00  0.00     0.000 C 
BRANCH   6   7
ATOM      7  C   UNL     1       0.283  48.045  47.979  1.00  0.00     0.000 C 
BRANCH   7   8
ATOM      8  C   UNL     1       0.820  46.626  47.714  1.00  0.00     0.006 C 
BRANCH   8   9
ATOM      9  C   UNL     1       2.339  46.560  47.489  1.00  0.00     0.053 C 
BRANCH   9  10
ATOM     10  C   UNL     1       3.099  47.268  48.569  1.00  0.00     0.041 C 
ATOM     11  O   UNL     1       4.103  47.970  48.281  1.00  0.00    -0.550 OA
ATOM     12  O   UNL     1       2.717  47.126  49.897  1.00  0.00    -0.550 OA
ENDBRANCH   9  10
ENDBRANCH   8   9
ENDBRANCH   7   8
ENDBRANCH   6   7
ENDBRANCH   5   6
ENDBRANCH   4   5
ENDBRANCH   3   4
ENDBRANCH   1   3
BRANCH   2  13
ATOM     13  C   UNL     1       0.340  43.665  49.269  1.00  0.00     0.027 C 
BRANCH  13  14
ATOM     14  C   UNL     1       1.854  43.778  49.546  1.00  0.00     0.004 C 
BRANCH  14  15
ATOM     15  C   UNL     1       2.360  42.825  50.647  1.00  0.00     0.000 C 
BRANCH  15  16
ATOM     16  C   UNL     1       3.791  42.289  50.448  1.00  0.00     0.000 C 
BRANCH  16  17
ATOM     17  C   UNL     1       3.936  41.173  49.397  1.00  0.00    -0.000 C 
BRANCH  17  18
ATOM     18  C   UNL     1       5.227  40.354  49.567  1.00  0.00    -0.000 C 
BRANCH  18  19
ATOM     19  C   UNL     1       6.432  41.229  49.947  1.00  0.00    -0.003 C 
ATOM     20  C   UNL     1       7.479  41.312  48.838  1.00  0.00     0.004 C 
ENDBRANCH  18  19
ENDBRANCH  17  18
ENDBRANCH  16  17
ENDBRANCH  15  16
ENDBRANCH  14  15
ENDBRANCH  13  14
ENDBRANCH   2  13
TORSDOF 15
ENDMDL
