MODEL 1
REMARK VINA RESULT:    -4.271      0.000      0.000
REMARK INTER + INTRA:         -11.058
REMARK INTER:                  -9.266
REMARK INTRA:                  -1.793
REMARK UNBOUND:                -1.793
REMARK SMILES CCCCCCCCCCCCCCCCCCCCCC(=O)[O-]
REMARK SMILES IDX 12 1 11 2 10 3 9 4 8 5 7 6 6 7 5 8 4 9 3 10 2 11 1 12 13 13
REMARK SMILES IDX 14 14 15 15 16 16 17 17 18 18 19 19 20 20 21 21 22 22 23 23
REMARK SMILES IDX 24 24
REMARK H PARENT
REMARK Flexibility Score: inf
ROOT
ATOM      1  C   UNL     1      21.771 -19.910 -16.907  1.00  0.00     0.000 C 
ENDROOT
BRANCH   1   2
ATOM      2  C   UNL     1      21.074 -19.872 -18.282  1.00  0.00     0.000 C 
BRANCH   2   3
ATOM      3  C   UNL     1      20.828 -21.249 -18.923  1.00  0.00     0.000 C 
BRANCH   3   4
ATOM      4  C   UNL     1      19.874 -21.183 -20.125  1.00  0.00    -0.000 C 
BRANCH   4   5
ATOM      5  C   UNL     1      19.631 -22.580 -20.713  1.00  0.00    -0.000 C 
BRANCH   5   6
ATOM      6  C   UNL     1      18.180 -23.062 -20.531  1.00  0.00    -0.000 C 
BRANCH   6   7
ATOM      7  C   UNL     1      17.536 -22.692 -19.182  1.00  0.00    -0.000 C 
BRANCH   7   8
ATOM      8  C   UNL     1      17.193 -23.891 -18.278  1.00  0.00    -0.000 C 
BRANCH   8   9
ATOM      9  C   UNL     1      15.712 -23.931 -17.836  1.00  0.00    -0.000 C 
BRANCH   9  10
ATOM     10  C   UNL     1      14.974 -22.594 -18.023  1.00  0.00    -0.000 C 
BRANCH  10  11
ATOM     11  C   UNL     1      13.885 -22.671 -19.103  1.00  0.00    -0.003 C 
ATOM     12  C   UNL     1      13.624 -24.117 -19.516  1.00  0.00     0.004 C 
ENDBRANCH  10  11
ENDBRANCH   9  10
ENDBRANCH   8   9
ENDBRANCH   7   8
ENDBRANCH   6   7
ENDBRANCH   5   6
ENDBRANCH   4   5
ENDBRANCH   3   4
ENDBRANCH   2   3
ENDBRANCH   1   2
BRANCH   1  13
ATOM     13  C   UNL     1      23.117 -19.161 -16.834  1.00  0.00     0.000 C 
BRANCH  13  14
ATOM     14  C   UNL     1      23.748 -18.828 -18.199  1.00  0.00     0.000 C 
BRANCH  14  15
ATOM     15  C   UNL     1      24.099 -17.340 -18.344  1.00  0.00     0.000 C 
BRANCH  15  16
ATOM     16  C   UNL     1      22.839 -16.466 -18.256  1.00  0.00     0.000 C 
BRANCH  16  17
ATOM     17  C   UNL     1      22.820 -15.571 -17.005  1.00  0.00     0.000 C 
BRANCH  17  18
ATOM     18  C   UNL     1      21.429 -15.362 -16.372  1.00  0.00     0.000 C 
BRANCH  18  19
ATOM     19  C   UNL     1      20.493 -16.582 -16.439  1.00  0.00     0.000 C 
BRANCH  19  20
ATOM     20  C   UNL     1      19.115 -16.309 -15.820  1.00  0.00     0.006 C 
BRANCH  20  21
ATOM     21  C   UNL     1      18.620 -14.904 -16.179  1.00  0.00     0.053 C 
BRANCH  21  22
ATOM     22  C   UNL     1      17.138 -14.808 -16.000  1.00  0.00     0.041 C 
ATOM     23  O   UNL     1      16.654 -14.506 -14.876  1.00  0.00    -0.550 OA
ATOM     24  O   UNL     1      16.292 -15.014 -17.082  1.00  0.00    -0.550 OA
ENDBRANCH  21  22
ENDBRANCH  20  21
ENDBRANCH  19  20
ENDBRANCH  18  19
ENDBRANCH  17  18
ENDBRANCH  16  17
ENDBRANCH  15  16
ENDBRANCH  14  15
ENDBRANCH  13  14
ENDBRANCH   1  13
TORSDOF 20
ENDMDL
MODEL 2
REMARK VINA RESULT:    -4.238      2.290      8.022
REMARK INTER + INTRA:         -10.985
REMARK INTER:                  -9.424
REMARK INTRA:                  -1.562
REMARK UNBOUND:                -1.793
REMARK SMILES CCCCCCCCCCCCCCCCCCCCCC(=O)[O-]
REMARK SMILES IDX 12 1 11 2 10 3 9 4 8 5 7 6 6 7 5 8 4 9 3 10 2 11 1 12 13 13
REMARK SMILES IDX 14 14 15 15 16 16 17 17 18 18 19 19 20 20 21 21 22 22 23 23
REMARK SMILES IDX 24 24
REMARK H PARENT
REMARK Flexibility Score: inf
ROOT
ATOM      1  C   UNL     1      20.400 -22.614 -19.449  1.00  0.00     0.000 C 
ENDROOT
BRANCH   1   2
ATOM      2  C   UNL     1      21.164 -21.317 -19.783  1.00  0.00     0.000 C 
BRANCH   2   3
ATOM      3  C   UNL     1      20.893 -20.141 -18.827  1.00  0.00     0.000 C 
BRANCH   3   4
ATOM      4  C   UNL     1      21.445 -20.385 -17.415  1.00  0.00    -0.000 C 
BRANCH   4   5
ATOM      5  C   UNL     1      21.591 -19.065 -16.644  1.00  0.00    -0.000 C 
BRANCH   5   6
ATOM      6  C   UNL     1      21.066 -17.851 -17.431  1.00  0.00    -0.000 C 
BRANCH   6   7
ATOM      7  C   UNL     1      21.663 -16.495 -17.009  1.00  0.00    -0.000 C 
BRANCH   7   8
ATOM      8  C   UNL     1      20.716 -15.599 -16.189  1.00  0.00    -0.000 C 
BRANCH   8   9
ATOM      9  C   UNL     1      19.266 -16.130 -16.118  1.00  0.00    -0.000 C 
BRANCH   9  10
ATOM     10  C   UNL     1      18.549 -15.798 -14.797  1.00  0.00    -0.000 C 
BRANCH  10  11
ATOM     11  C   UNL     1      17.194 -15.109 -15.023  1.00  0.00    -0.003 C 
ATOM     12  C   UNL     1      16.894 -14.963 -16.512  1.00  0.00     0.004 C 
ENDBRANCH  10  11
ENDBRANCH   9  10
ENDBRANCH   8   9
ENDBRANCH   7   8
ENDBRANCH   6   7
ENDBRANCH   5   6
ENDBRANCH   4   5
ENDBRANCH   3   4
ENDBRANCH   2   3
ENDBRANCH   1   2
BRANCH   1  13
ATOM     13  C   UNL     1      18.873 -22.456 -19.305  1.00  0.00     0.000 C 
BRANCH  13  14
ATOM     14  C   UNL     1      18.038 -23.509 -20.057  1.00  0.00     0.000 C 
BRANCH  14  15
ATOM     15  C   UNL     1      17.249 -24.427 -19.113  1.00  0.00     0.000 C 
BRANCH  15  16
ATOM     16  C   UNL     1      16.726 -23.647 -17.897  1.00  0.00     0.000 C 
BRANCH  16  17
ATOM     17  C   UNL     1      15.222 -23.857 -17.655  1.00  0.00     0.000 C 
BRANCH  17  18
ATOM     18  C   UNL     1      14.447 -24.463 -18.843  1.00  0.00     0.000 C 
BRANCH  18  19
ATOM     19  C   UNL     1      13.563 -23.470 -19.619  1.00  0.00     0.000 C 
BRANCH  19  20
ATOM     20  C   UNL     1      14.030 -22.015 -19.468  1.00  0.00     0.006 C 
BRANCH  20  21
ATOM     21  C   UNL     1      14.296 -21.379 -20.836  1.00  0.00     0.053 C 
BRANCH  21  22
ATOM     22  C   UNL     1      14.444 -19.896 -20.706  1.00  0.00     0.041 C 
ATOM     23  O   UNL     1      15.571 -19.391 -20.458  1.00  0.00    -0.550 OA
ATOM     24  O   UNL     1      13.344 -19.069 -20.895  1.00  0.00    -0.550 OA
ENDBRANCH  21  22
ENDBRANCH  20  21
ENDBRANCH  19  20
ENDBRANCH  18  19
ENDBRANCH  17  18
ENDBRANCH  16  17
ENDBRANCH  15  16
ENDBRANCH  14  15
ENDBRANCH  13  14
ENDBRANCH   1  13
TORSDOF 20
ENDMDL
MODEL 3
REMARK VINA RESULT:    -4.098      1.403      2.371
REMARK INTER + INTRA:         -10.682
REMARK INTER:                  -8.539
REMARK INTRA:                  -2.143
REMARK UNBOUND:                -1.793
REMARK SMILES CCCCCCCCCCCCCCCCCCCCCC(=O)[O-]
REMARK SMILES IDX 12 1 11 2 10 3 9 4 8 5 7 6 6 7 5 8 4 9 3 10 2 11 1 12 13 13
REMARK SMILES IDX 14 14 15 15 16 16 17 17 18 18 19 19 20 20 21 21 22 22 23 23
REMARK SMILES IDX 24 24
REMARK H PARENT
REMARK Flexibility Score: inf
ROOT
ATOM      1  C   UNL     1      21.155 -19.553 -18.230  1.00  0.00     0.000 C 
ENDROOT
BRANCH   1   2
ATOM      2  C   UNL     1      20.727 -20.875 -18.899  1.00  0.00     0.000 C 
BRANCH   2   3
ATOM      3  C   UNL     1      19.913 -20.711 -20.195  1.00  0.00     0.000 C 
BRANCH   3   4
ATOM      4  C   UNL     1      19.237 -22.017 -20.641  1.00  0.00    -0.000 C 
BRANCH   4   5
ATOM      5  C   UNL     1      17.985 -22.304 -19.800  1.00  0.00    -0.000 C 
BRANCH   5   6
ATOM      6  C   UNL     1      18.105 -23.595 -18.969  1.00  0.00    -0.000 C 
BRANCH   6   7
ATOM      7  C   UNL     1      17.634 -24.875 -19.686  1.00  0.00    -0.000 C 
BRANCH   7   8
ATOM      8  C   UNL     1      16.257 -24.765 -20.367  1.00  0.00    -0.000 C 
BRANCH   8   9
ATOM      9  C   UNL     1      15.068 -24.929 -19.393  1.00  0.00    -0.000 C 
BRANCH   9  10
ATOM     10  C   UNL     1      14.147 -23.699 -19.327  1.00  0.00    -0.000 C 
BRANCH  10  11
ATOM     11  C   UNL     1      14.574 -22.704 -18.237  1.00  0.00    -0.003 C 
ATOM     12  C   UNL     1      15.088 -23.434 -16.999  1.00  0.00     0.004 C 
ENDBRANCH  10  11
ENDBRANCH   9  10
ENDBRANCH   8   9
ENDBRANCH   7   8
ENDBRANCH   6   7
ENDBRANCH   5   6
ENDBRANCH   4   5
ENDBRANCH   3   4
ENDBRANCH   2   3
ENDBRANCH   1   2
BRANCH   1  13
ATOM     13  C   UNL     1      22.059 -19.710 -16.991  1.00  0.00     0.000 C 
BRANCH  13  14
ATOM     14  C   UNL     1      23.499 -19.194 -17.169  1.00  0.00     0.000 C 
BRANCH  14  15
ATOM     15  C   UNL     1      24.021 -19.372 -18.602  1.00  0.00     0.000 C 
BRANCH  15  16
ATOM     16  C   UNL     1      24.735 -18.102 -19.090  1.00  0.00     0.000 C 
BRANCH  16  17
ATOM     17  C   UNL     1      23.854 -16.845 -18.985  1.00  0.00     0.000 C 
BRANCH  17  18
ATOM     18  C   UNL     1      24.411 -15.730 -18.076  1.00  0.00     0.000 C 
BRANCH  18  19
ATOM     19  C   UNL     1      23.536 -15.386 -16.857  1.00  0.00     0.000 C 
BRANCH  19  20
ATOM     20  C   UNL     1      22.144 -16.029 -16.923  1.00  0.00     0.006 C 
BRANCH  20  21
ATOM     21  C   UNL     1      21.069 -15.064 -16.412  1.00  0.00     0.053 C 
BRANCH  21  22
ATOM     22  C   UNL     1      19.774 -15.784 -16.203  1.00  0.00     0.041 C 
ATOM     23  O   UNL     1      19.743 -17.044 -16.199  1.00  0.00    -0.550 OA
ATOM     24  O   UNL     1      18.608 -15.065 -15.977  1.00  0.00    -0.550 OA
ENDBRANCH  21  22
ENDBRANCH  20  21
ENDBRANCH  19  20
ENDBRANCH  18  19
ENDBRANCH  17  18
ENDBRANCH  16  17
ENDBRANCH  15  16
ENDBRANCH  14  15
ENDBRANCH  13  14
ENDBRANCH   1  13
TORSDOF 20
ENDMDL
MODEL 4
REMARK VINA RESULT:    -3.916      1.103      2.063
REMARK INTER + INTRA:         -10.288
REMARK INTER:                  -8.776
REMARK INTRA:                  -1.512
REMARK UNBOUND:                -1.793
REMARK SMILES CCCCCCCCCCCCCCCCCCCCCC(=O)[O-]
REMARK SMILES IDX 12 1 11 2 10 3 9 4 8 5 7 6 6 7 5 8 4 9 3 10 2 11 1 12 13 13
REMARK SMILES IDX 14 14 15 15 16 16 17 17 18 18 19 19 20 20 21 21 22 22 23 23
REMARK SMILES IDX 24 24
REMARK H PARENT
REMARK Flexibility Score: inf
ROOT
ATOM      1  C   UNL     1      21.268 -21.019 -19.425  1.00  0.00     0.000 C 
ENDROOT
BRANCH   1   2
ATOM      2  C   UNL     1      20.717 -22.454 -19.303  1.00  0.00     0.000 C 
BRANCH   2   3
ATOM      3  C   UNL     1      21.039 -23.376 -20.492  1.00  0.00     0.000 C 
BRANCH   3   4
ATOM      4  C   UNL     1      20.272 -24.705 -20.439  1.00  0.00    -0.000 C 
BRANCH   4   5
ATOM      5  C   UNL     1      18.777 -24.489 -20.716  1.00  0.00    -0.000 C 
BRANCH   5   6
ATOM      6  C   UNL     1      17.891 -24.796 -19.494  1.00  0.00    -0.000 C 
BRANCH   6   7
ATOM      7  C   UNL     1      17.355 -23.557 -18.752  1.00  0.00    -0.000 C 
BRANCH   7   8
ATOM      8  C   UNL     1      16.499 -23.867 -17.510  1.00  0.00    -0.000 C 
BRANCH   8   9
ATOM      9  C   UNL     1      14.998 -23.550 -17.695  1.00  0.00    -0.000 C 
BRANCH   9  10
ATOM     10  C   UNL     1      14.304 -24.432 -18.748  1.00  0.00    -0.000 C 
BRANCH  10  11
ATOM     11  C   UNL     1      13.477 -23.610 -19.748  1.00  0.00    -0.003 C 
ATOM     12  C   UNL     1      14.360 -23.048 -20.859  1.00  0.00     0.004 C 
ENDBRANCH  10  11
ENDBRANCH   9  10
ENDBRANCH   8   9
ENDBRANCH   7   8
ENDBRANCH   6   7
ENDBRANCH   5   6
ENDBRANCH   4   5
ENDBRANCH   3   4
ENDBRANCH   2   3
ENDBRANCH   1   2
BRANCH   1  13
ATOM     13  C   UNL     1      20.663 -19.999 -18.439  1.00  0.00     0.000 C 
BRANCH  13  14
ATOM     14  C   UNL     1      21.504 -19.745 -17.173  1.00  0.00     0.000 C 
BRANCH  14  15
ATOM     15  C   UNL     1      22.959 -19.372 -17.490  1.00  0.00     0.000 C 
BRANCH  15  16
ATOM     16  C   UNL     1      23.277 -17.946 -17.016  1.00  0.00     0.000 C 
BRANCH  16  17
ATOM     17  C   UNL     1      22.188 -16.931 -17.405  1.00  0.00     0.000 C 
BRANCH  17  18
ATOM     18  C   UNL     1      22.228 -15.600 -16.627  1.00  0.00     0.000 C 
BRANCH  18  19
ATOM     19  C   UNL     1      20.853 -15.058 -16.194  1.00  0.00     0.000 C 
BRANCH  19  20
ATOM     20  C   UNL     1      19.736 -16.105 -16.315  1.00  0.00     0.006 C 
BRANCH  20  21
ATOM     21  C   UNL     1      18.741 -15.983 -15.157  1.00  0.00     0.053 C 
BRANCH  21  22
ATOM     22  C   UNL     1      17.516 -15.243 -15.592  1.00  0.00     0.041 C 
ATOM     23  O   UNL     1      17.093 -15.357 -16.774  1.00  0.00    -0.550 OA
ATOM     24  O   UNL     1      16.820 -14.456 -14.684  1.00  0.00    -0.550 OA
ENDBRANCH  21  22
ENDBRANCH  20  21
ENDBRANCH  19  20
ENDBRANCH  18  19
ENDBRANCH  17  18
ENDBRANCH  16  17
ENDBRANCH  15  16
ENDBRANCH  14  15
ENDBRANCH  13  14
ENDBRANCH   1  13
TORSDOF 20
ENDMDL
MODEL 5
REMARK VINA RESULT:    -3.854      1.403      2.428
REMARK INTER + INTRA:         -10.152
REMARK INTER:                  -7.893
REMARK INTRA:                  -2.260
REMARK UNBOUND:                -1.793
REMARK SMILES CCCCCCCCCCCCCCCCCCCCCC(=O)[O-]
REMARK SMILES IDX 12 1 11 2 10 3 9 4 8 5 7 6 6 7 5 8 4 9 3 10 2 11 1 12 13 13
REMARK SMILES IDX 14 14 15 15 16 16 17 17 18 18 19 19 20 20 21 21 22 22 23 23
REMARK SMILES IDX 24 24
REMARK H PARENT
REMARK Flexibility Score: inf
ROOT
ATOM      1  C   UNL     1      21.062 -19.351 -18.573  1.00  0.00     0.000 C 
ENDROOT
BRANCH   1   2
ATOM      2  C   UNL     1      20.175 -20.372 -19.314  1.00  0.00     0.000 C 
BRANCH   2   3
ATOM      3  C   UNL     1      20.829 -21.026 -20.545  1.00  0.00     0.000 C 
BRANCH   3   4
ATOM      4  C   UNL     1      21.866 -22.095 -20.169  1.00  0.00    -0.000 C 
BRANCH   4   5
ATOM      5  C   UNL     1      21.590 -23.413 -20.906  1.00  0.00    -0.000 C 
BRANCH   5   6
ATOM      6  C   UNL     1      20.978 -24.493 -19.995  1.00  0.00    -0.000 C 
BRANCH   6   7
ATOM      7  C   UNL     1      19.581 -24.985 -20.418  1.00  0.00    -0.000 C 
BRANCH   7   8
ATOM      8  C   UNL     1      18.512 -23.881 -20.526  1.00  0.00    -0.000 C 
BRANCH   8   9
ATOM      9  C   UNL     1      18.146 -23.237 -19.169  1.00  0.00    -0.000 C 
BRANCH   9  10
ATOM     10  C   UNL     1      16.993 -23.947 -18.438  1.00  0.00    -0.000 C 
BRANCH  10  11
ATOM     11  C   UNL     1      15.821 -23.001 -18.134  1.00  0.00    -0.003 C 
ATOM     12  C   UNL     1      15.079 -23.435 -16.872  1.00  0.00     0.004 C 
ENDBRANCH  10  11
ENDBRANCH   9  10
ENDBRANCH   8   9
ENDBRANCH   7   8
ENDBRANCH   6   7
ENDBRANCH   5   6
ENDBRANCH   4   5
ENDBRANCH   3   4
ENDBRANCH   2   3
ENDBRANCH   1   2
BRANCH   1  13
ATOM     13  C   UNL     1      21.412 -19.722 -17.118  1.00  0.00     0.000 C 
BRANCH  13  14
ATOM     14  C   UNL     1      22.881 -19.481 -16.723  1.00  0.00     0.000 C 
BRANCH  14  15
ATOM     15  C   UNL     1      23.769 -19.123 -17.923  1.00  0.00     0.000 C 
BRANCH  15  16
ATOM     16  C   UNL     1      24.827 -18.079 -17.532  1.00  0.00     0.000 C 
BRANCH  16  17
ATOM     17  C   UNL     1      24.433 -17.268 -16.286  1.00  0.00     0.000 C 
BRANCH  17  18
ATOM     18  C   UNL     1      23.862 -15.864 -16.573  1.00  0.00     0.000 C 
BRANCH  18  19
ATOM     19  C   UNL     1      22.499 -15.850 -17.288  1.00  0.00     0.000 C 
BRANCH  19  20
ATOM     20  C   UNL     1      21.343 -15.457 -16.357  1.00  0.00     0.006 C 
BRANCH  20  21
ATOM     21  C   UNL     1      20.159 -16.418 -16.516  1.00  0.00     0.053 C 
BRANCH  21  22
ATOM     22  C   UNL     1      18.946 -15.873 -15.831  1.00  0.00     0.041 C 
ATOM     23  O   UNL     1      18.395 -14.824 -16.258  1.00  0.00    -0.550 OA
ATOM     24  O   UNL     1      18.402 -16.545 -14.744  1.00  0.00    -0.550 OA
ENDBRANCH  21  22
ENDBRANCH  20  21
ENDBRANCH  19  20
ENDBRANCH  18  19
ENDBRANCH  17  18
ENDBRANCH  16  17
ENDBRANCH  15  16
ENDBRANCH  14  15
ENDBRANCH  13  14
ENDBRANCH   1  13
TORSDOF 20
ENDMDL
MODEL 6
REMARK VINA RESULT:    -3.653      1.265      2.258
REMARK INTER + INTRA:          -9.718
REMARK INTER:                  -8.296
REMARK INTRA:                  -1.422
REMARK UNBOUND:                -1.793
REMARK SMILES CCCCCCCCCCCCCCCCCCCCCC(=O)[O-]
REMARK SMILES IDX 12 1 11 2 10 3 9 4 8 5 7 6 6 7 5 8 4 9 3 10 2 11 1 12 13 13
REMARK SMILES IDX 14 14 15 15 16 16 17 17 18 18 19 19 20 20 21 21 22 22 23 23
REMARK SMILES IDX 24 24
REMARK H PARENT
REMARK Flexibility Score: inf
ROOT
ATOM      1  C   UNL     1      24.911 -18.739 -17.743  1.00  0.00     0.000 C 
ENDROOT
BRANCH   1   2
ATOM      2  C   UNL     1      23.646 -19.540 -18.115  1.00  0.00     0.000 C 
BRANCH   2   3
ATOM      3  C   UNL     1      23.646 -20.129 -19.537  1.00  0.00     0.000 C 
BRANCH   3   4
ATOM      4  C   UNL     1      22.535 -21.168 -19.750  1.00  0.00    -0.000 C 
BRANCH   4   5
ATOM      5  C   UNL     1      21.202 -20.675 -19.169  1.00  0.00    -0.000 C 
BRANCH   5   6
ATOM      6  C   UNL     1      19.978 -21.249 -19.908  1.00  0.00    -0.000 C 
BRANCH   6   7
ATOM      7  C   UNL     1      19.278 -22.420 -19.193  1.00  0.00    -0.000 C 
BRANCH   7   8
ATOM      8  C   UNL     1      18.123 -23.062 -19.985  1.00  0.00    -0.000 C 
BRANCH   8   9
ATOM      9  C   UNL     1      16.940 -22.102 -20.245  1.00  0.00    -0.000 C 
BRANCH   9  10
ATOM     10  C   UNL     1      15.750 -22.312 -19.293  1.00  0.00    -0.000 C 
BRANCH  10  11
ATOM     11  C   UNL     1      15.744 -23.713 -18.661  1.00  0.00    -0.003 C 
ATOM     12  C   UNL     1      15.515 -23.634 -17.155  1.00  0.00     0.004 C 
ENDBRANCH  10  11
ENDBRANCH   9  10
ENDBRANCH   8   9
ENDBRANCH   7   8
ENDBRANCH   6   7
ENDBRANCH   5   6
ENDBRANCH   4   5
ENDBRANCH   3   4
ENDBRANCH   2   3
ENDBRANCH   1   2
BRANCH   1  13
ATOM     13  C   UNL     1      25.014 -18.331 -16.260  1.00  0.00     0.000 C 
BRANCH  13  14
ATOM     14  C   UNL     1      24.615 -16.874 -15.960  1.00  0.00     0.000 C 
BRANCH  14  15
ATOM     15  C   UNL     1      24.714 -15.964 -17.192  1.00  0.00     0.000 C 
BRANCH  15  16
ATOM     16  C   UNL     1      23.332 -15.746 -17.828  1.00  0.00     0.000 C 
BRANCH  16  17
ATOM     17  C   UNL     1      22.179 -15.934 -16.827  1.00  0.00     0.000 C 
BRANCH  17  18
ATOM     18  C   UNL     1      21.344 -17.216 -17.025  1.00  0.00     0.000 C 
BRANCH  18  19
ATOM     19  C   UNL     1      20.005 -17.245 -16.266  1.00  0.00     0.000 C 
BRANCH  19  20
ATOM     20  C   UNL     1      19.356 -15.858 -16.153  1.00  0.00     0.006 C 
BRANCH  20  21
ATOM     21  C   UNL     1      18.073 -15.920 -15.317  1.00  0.00     0.053 C 
BRANCH  21  22
ATOM     22  C   UNL     1      17.087 -14.901 -15.794  1.00  0.00     0.041 C 
ATOM     23  O   UNL     1      16.523 -15.040 -16.912  1.00  0.00    -0.550 OA
ATOM     24  O   UNL     1      16.762 -13.818 -14.987  1.00  0.00    -0.550 OA
ENDBRANCH  21  22
ENDBRANCH  20  21
ENDBRANCH  19  20
ENDBRANCH  18  19
ENDBRANCH  17  18
ENDBRANCH  16  17
ENDBRANCH  15  16
ENDBRANCH  14  15
ENDBRANCH  13  14
ENDBRANCH   1  13
TORSDOF 20
ENDMDL
MODEL 7
REMARK VINA RESULT:    -3.590      2.712      8.186
REMARK INTER + INTRA:          -9.580
REMARK INTER:                  -8.299
REMARK INTRA:                  -1.281
REMARK UNBOUND:                -1.793
REMARK SMILES CCCCCCCCCCCCCCCCCCCCCC(=O)[O-]
REMARK SMILES IDX 12 1 11 2 10 3 9 4 8 5 7 6 6 7 5 8 4 9 3 10 2 11 1 12 13 13
REMARK SMILES IDX 14 14 15 15 16 16 17 17 18 18 19 19 20 20 21 21 22 22 23 23
REMARK SMILES IDX 24 24
REMARK H PARENT
REMARK Flexibility Score: inf
ROOT
ATOM      1  C   UNL     1      21.726 -20.652 -19.057  1.00  0.00     0.000 C 
ENDROOT
BRANCH   1   2
ATOM      2  C   UNL     1      21.354 -20.077 -17.675  1.00  0.00     0.000 C 
BRANCH   2   3
ATOM      3  C   UNL     1      22.516 -19.415 -16.914  1.00  0.00     0.000 C 
BRANCH   3   4
ATOM      4  C   UNL     1      23.596 -18.854 -17.852  1.00  0.00    -0.000 C 
BRANCH   4   5
ATOM      5  C   UNL     1      23.367 -17.361 -18.126  1.00  0.00    -0.000 C 
BRANCH   5   6
ATOM      6  C   UNL     1      23.401 -16.505 -16.847  1.00  0.00    -0.000 C 
BRANCH   6   7
ATOM      7  C   UNL     1      22.211 -15.541 -16.677  1.00  0.00    -0.000 C 
BRANCH   7   8
ATOM      8  C   UNL     1      20.830 -16.222 -16.631  1.00  0.00    -0.000 C 
BRANCH   8   9
ATOM      9  C   UNL     1      19.708 -15.312 -16.084  1.00  0.00    -0.000 C 
BRANCH   9  10
ATOM     10  C   UNL     1      18.505 -16.085 -15.514  1.00  0.00    -0.000 C 
BRANCH  10  11
ATOM     11  C   UNL     1      17.265 -15.196 -15.340  1.00  0.00    -0.003 C 
ATOM     12  C   UNL     1      16.531 -15.013 -16.666  1.00  0.00     0.004 C 
ENDBRANCH  10  11
ENDBRANCH   9  10
ENDBRANCH   8   9
ENDBRANCH   7   8
ENDBRANCH   6   7
ENDBRANCH   5   6
ENDBRANCH   4   5
ENDBRANCH   3   4
ENDBRANCH   2   3
ENDBRANCH   1   2
BRANCH   1  13
ATOM     13  C   UNL     1      20.745 -21.703 -19.615  1.00  0.00     0.000 C 
BRANCH  13  14
ATOM     14  C   UNL     1      19.439 -21.129 -20.195  1.00  0.00     0.000 C 
BRANCH  14  15
ATOM     15  C   UNL     1      18.333 -22.186 -20.329  1.00  0.00     0.000 C 
BRANCH  15  16
ATOM     16  C   UNL     1      18.781 -23.530 -19.733  1.00  0.00     0.000 C 
BRANCH  16  17
ATOM     17  C   UNL     1      17.752 -24.120 -18.753  1.00  0.00     0.000 C 
BRANCH  17  18
ATOM     18  C   UNL     1      16.613 -23.163 -18.346  1.00  0.00     0.000 C 
BRANCH  18  19
ATOM     19  C   UNL     1      15.349 -23.851 -17.799  1.00  0.00     0.000 C 
BRANCH  19  20
ATOM     20  C   UNL     1      14.458 -24.428 -18.909  1.00  0.00     0.006 C 
BRANCH  20  21
ATOM     21  C   UNL     1      14.915 -23.941 -20.288  1.00  0.00     0.053 C 
BRANCH  21  22
ATOM     22  C   UNL     1      13.977 -22.902 -20.815  1.00  0.00     0.041 C 
ATOM     23  O   UNL     1      12.773 -23.194 -21.045  1.00  0.00    -0.550 OA
ATOM     24  O   UNL     1      14.422 -21.602 -21.018  1.00  0.00    -0.550 OA
ENDBRANCH  21  22
ENDBRANCH  20  21
ENDBRANCH  19  20
ENDBRANCH  18  19
ENDBRANCH  17  18
ENDBRANCH  16  17
ENDBRANCH  15  16
ENDBRANCH  14  15
ENDBRANCH  13  14
ENDBRANCH   1  13
TORSDOF 20
ENDMDL
MODEL 8
REMARK VINA RESULT:    -3.227     18.308     22.072
REMARK INTER + INTRA:          -8.792
REMARK INTER:                  -7.230
REMARK INTRA:                  -1.563
REMARK UNBOUND:                -1.793
REMARK SMILES CCCCCCCCCCCCCCCCCCCCCC(=O)[O-]
REMARK SMILES IDX 12 1 11 2 10 3 9 4 8 5 7 6 6 7 5 8 4 9 3 10 2 11 1 12 13 13
REMARK SMILES IDX 14 14 15 15 16 16 17 17 18 18 19 19 20 20 21 21 22 22 23 23
REMARK SMILES IDX 24 24
REMARK H PARENT
REMARK Flexibility Score: inf
ROOT
ATOM      1  C   UNL     1       8.415  -5.971  -6.504  1.00  0.00     0.000 C 
ENDROOT
BRANCH   1   2
ATOM      2  C   UNL     1       8.847  -5.281  -5.194  1.00  0.00     0.000 C 
BRANCH   2   3
ATOM      3  C   UNL     1      10.338  -4.905  -5.122  1.00  0.00     0.000 C 
BRANCH   3   4
ATOM      4  C   UNL     1      11.132  -5.805  -4.163  1.00  0.00    -0.000 C 
BRANCH   4   5
ATOM      5  C   UNL     1      10.220  -6.849  -3.504  1.00  0.00    -0.000 C 
BRANCH   5   6
ATOM      6  C   UNL     1       9.807  -6.465  -2.071  1.00  0.00    -0.000 C 
BRANCH   6   7
ATOM      7  C   UNL     1       9.243  -7.622  -1.225  1.00  0.00    -0.000 C 
BRANCH   7   8
ATOM      8  C   UNL     1       7.747  -7.498  -0.876  1.00  0.00    -0.000 C 
BRANCH   8   9
ATOM      9  C   UNL     1       7.114  -6.162  -1.328  1.00  0.00    -0.000 C 
BRANCH   9  10
ATOM     10  C   UNL     1       5.582  -6.124  -1.184  1.00  0.00    -0.000 C 
BRANCH  10  11
ATOM     11  C   UNL     1       4.875  -5.830  -2.516  1.00  0.00    -0.003 C 
ATOM     12  C   UNL     1       5.387  -6.747  -3.623  1.00  0.00     0.004 C 
ENDBRANCH  10  11
ENDBRANCH   9  10
ENDBRANCH   8   9
ENDBRANCH   7   8
ENDBRANCH   6   7
ENDBRANCH   5   6
ENDBRANCH   4   5
ENDBRANCH   3   4
ENDBRANCH   2   3
ENDBRANCH   1   2
BRANCH   1  13
ATOM     13  C   UNL     1       6.895  -6.181  -6.661  1.00  0.00     0.000 C 
BRANCH  13  14
ATOM     14  C   UNL     1       6.124  -4.961  -7.198  1.00  0.00     0.000 C 
BRANCH  14  15
ATOM     15  C   UNL     1       5.287  -5.287  -8.443  1.00  0.00     0.000 C 
BRANCH  15  16
ATOM     16  C   UNL     1       4.941  -6.783  -8.497  1.00  0.00     0.000 C 
BRANCH  16  17
ATOM     17  C   UNL     1       5.245  -7.417  -9.865  1.00  0.00     0.000 C 
BRANCH  17  18
ATOM     18  C   UNL     1       6.158  -8.659  -9.822  1.00  0.00     0.000 C 
BRANCH  18  19
ATOM     19  C   UNL     1       6.088  -9.563 -11.066  1.00  0.00     0.000 C 
BRANCH  19  20
ATOM     20  C   UNL     1       5.145  -9.015 -12.147  1.00  0.00     0.006 C 
BRANCH  20  21
ATOM     21  C   UNL     1       5.932  -8.552 -13.378  1.00  0.00     0.053 C 
BRANCH  21  22
ATOM     22  C   UNL     1       5.305  -7.330 -13.972  1.00  0.00     0.041 C 
ATOM     23  O   UNL     1       5.130  -7.249 -15.217  1.00  0.00    -0.550 OA
ATOM     24  O   UNL     1       4.882  -6.296 -13.147  1.00  0.00    -0.550 OA
ENDBRANCH  21  22
ENDBRANCH  20  21
ENDBRANCH  19  20
ENDBRANCH  18  19
ENDBRANCH  17  18
ENDBRANCH  16  17
ENDBRANCH  15  16
ENDBRANCH  14  15
ENDBRANCH  13  14
ENDBRANCH   1  13
TORSDOF 20
ENDMDL
MODEL 9
REMARK VINA RESULT:    -3.162      2.959      7.755
REMARK INTER + INTRA:          -8.652
REMARK INTER:                  -7.428
REMARK INTRA:                  -1.224
REMARK UNBOUND:                -1.793
REMARK SMILES CCCCCCCCCCCCCCCCCCCCCC(=O)[O-]
REMARK SMILES IDX 12 1 11 2 10 3 9 4 8 5 7 6 6 7 5 8 4 9 3 10 2 11 1 12 13 13
REMARK SMILES IDX 14 14 15 15 16 16 17 17 18 18 19 19 20 20 21 21 22 22 23 23
REMARK SMILES IDX 24 24
REMARK H PARENT
REMARK Flexibility Score: inf
ROOT
ATOM      1  C   UNL     1      24.746 -20.132 -19.729  1.00  0.00     0.000 C 
ENDROOT
BRANCH   1   2
ATOM      2  C   UNL     1      23.593 -19.642 -18.830  1.00  0.00     0.000 C 
BRANCH   2   3
ATOM      3  C   UNL     1      24.035 -18.932 -17.538  1.00  0.00     0.000 C 
BRANCH   3   4
ATOM      4  C   UNL     1      24.916 -17.703 -17.809  1.00  0.00    -0.000 C 
BRANCH   4   5
ATOM      5  C   UNL     1      24.062 -16.437 -17.968  1.00  0.00    -0.000 C 
BRANCH   5   6
ATOM      6  C   UNL     1      23.450 -15.956 -16.639  1.00  0.00    -0.000 C 
BRANCH   6   7
ATOM      7  C   UNL     1      22.016 -15.404 -16.746  1.00  0.00    -0.000 C 
BRANCH   7   8
ATOM      8  C   UNL     1      20.912 -16.385 -16.307  1.00  0.00    -0.000 C 
BRANCH   8   9
ATOM      9  C   UNL     1      19.500 -15.757 -16.279  1.00  0.00    -0.000 C 
BRANCH   9  10
ATOM     10  C   UNL     1      18.595 -16.319 -15.168  1.00  0.00    -0.000 C 
BRANCH  10  11
ATOM     11  C   UNL     1      17.346 -15.455 -14.937  1.00  0.00    -0.003 C 
ATOM     12  C   UNL     1      17.295 -14.288 -15.920  1.00  0.00     0.004 C 
ENDBRANCH  10  11
ENDBRANCH   9  10
ENDBRANCH   8   9
ENDBRANCH   7   8
ENDBRANCH   6   7
ENDBRANCH   5   6
ENDBRANCH   4   5
ENDBRANCH   3   4
ENDBRANCH   2   3
ENDBRANCH   1   2
BRANCH   1  13
ATOM     13  C   UNL     1      24.525 -21.511 -20.384  1.00  0.00     0.000 C 
BRANCH  13  14
ATOM     14  C   UNL     1      23.106 -21.748 -20.934  1.00  0.00     0.000 C 
BRANCH  14  15
ATOM     15  C   UNL     1      22.695 -23.227 -20.902  1.00  0.00     0.000 C 
BRANCH  15  16
ATOM     16  C   UNL     1      21.224 -23.380 -20.485  1.00  0.00     0.000 C 
BRANCH  16  17
ATOM     17  C   UNL     1      20.604 -22.062 -19.988  1.00  0.00     0.000 C 
BRANCH  17  18
ATOM     18  C   UNL     1      19.299 -22.217 -19.181  1.00  0.00     0.000 C 
BRANCH  18  19
ATOM     19  C   UNL     1      18.585 -23.570 -19.352  1.00  0.00     0.000 C 
BRANCH  19  20
ATOM     20  C   UNL     1      17.417 -23.754 -18.373  1.00  0.00     0.006 C 
BRANCH  20  21
ATOM     21  C   UNL     1      16.241 -22.845 -18.744  1.00  0.00     0.053 C 
BRANCH  21  22
ATOM     22  C   UNL     1      14.997 -23.281 -18.037  1.00  0.00     0.041 C 
ATOM     23  O   UNL     1      14.885 -23.120 -16.793  1.00  0.00    -0.550 OA
ATOM     24  O   UNL     1      13.945 -23.832 -18.758  1.00  0.00    -0.550 OA
ENDBRANCH  21  22
ENDBRANCH  20  21
ENDBRANCH  19  20
ENDBRANCH  18  19
ENDBRANCH  17  18
ENDBRANCH  16  17
ENDBRANCH  15  16
ENDBRANCH  14  15
ENDBRANCH  13  14
ENDBRANCH   1  13
TORSDOF 20
ENDMDL
