MODEL 1
REMARK VINA RESULT:    -4.410      0.000      0.000
REMARK INTER + INTRA:         -16.371
REMARK INTER:                 -11.113
REMARK INTRA:                  -5.258
REMARK UNBOUND:                -5.258
REMARK SMILES CCCCCCCCCCCCCCCCCCCCCCCCCCCC(=O)[O-]
REMARK SMILES IDX 15 1 16 2 17 3 18 4 19 5 20 6 21 7 22 8 23 9 24 10 25 11
REMARK SMILES IDX 26 12 27 13 28 14 29 15 30 16 14 17 13 18 12 19 11 20 10 21
REMARK SMILES IDX 9 22 8 23 7 24 6 25 5 26 4 27 3 28 2 29 1 30
REMARK H PARENT
REMARK Flexibility Score: inf
ROOT
ATOM      1  C   UNL     1       8.185  -5.832 -32.495  1.00  0.00     0.000 C 
ENDROOT
BRANCH   1   2
ATOM      2  C   UNL     1       6.658  -5.971 -32.366  1.00  0.00     0.000 C 
BRANCH   2   3
ATOM      3  C   UNL     1       6.231  -7.281 -31.678  1.00  0.00     0.000 C 
BRANCH   3   4
ATOM      4  C   UNL     1       5.455  -8.265 -32.571  1.00  0.00     0.000 C 
BRANCH   4   5
ATOM      5  C   UNL     1       4.217  -7.628 -33.228  1.00  0.00     0.000 C 
BRANCH   5   6
ATOM      6  C   UNL     1       4.304  -7.613 -34.762  1.00  0.00     0.000 C 
BRANCH   6   7
ATOM      7  C   UNL     1       4.404  -9.023 -35.362  1.00  0.00     0.000 C 
BRANCH   7   8
ATOM      8  C   UNL     1       3.559  -9.138 -36.639  1.00  0.00     0.000 C 
BRANCH   8   9
ATOM      9  C   UNL     1       2.091  -8.734 -36.423  1.00  0.00     0.000 C 
BRANCH   9  10
ATOM     10  C   UNL     1       1.301  -9.638 -35.456  1.00  0.00     0.000 C 
BRANCH  10  11
ATOM     11  C   UNL     1       0.891  -8.973 -34.127  1.00  0.00     0.000 C 
BRANCH  11  12
ATOM     12  C   UNL     1       1.346  -9.722 -32.857  1.00  0.00     0.006 C 
BRANCH  12  13
ATOM     13  C   UNL     1       2.304 -10.894 -33.121  1.00  0.00     0.053 C 
BRANCH  13  14
ATOM     14  C   UNL     1       2.363 -11.839 -31.960  1.00  0.00     0.041 C 
ATOM     15  O   UNL     1       1.561 -12.807 -31.887  1.00  0.00    -0.550 OA
ATOM     16  O   UNL     1       3.287 -11.634 -30.943  1.00  0.00    -0.550 OA
ENDBRANCH  13  14
ENDBRANCH  12  13
ENDBRANCH  11  12
ENDBRANCH  10  11
ENDBRANCH   9  10
ENDBRANCH   8   9
ENDBRANCH   7   8
ENDBRANCH   6   7
ENDBRANCH   5   6
ENDBRANCH   4   5
ENDBRANCH   3   4
ENDBRANCH   2   3
ENDBRANCH   1   2
BRANCH   1  17
ATOM     17  C   UNL     1       8.685  -6.100 -33.924  1.00  0.00     0.000 C 
BRANCH  17  18
ATOM     18  C   UNL     1       7.541  -6.213 -34.943  1.00  0.00     0.000 C 
BRANCH  18  19
ATOM     19  C   UNL     1       7.812  -7.345 -35.945  1.00  0.00     0.000 C 
BRANCH  19  20
ATOM     20  C   UNL     1       7.032  -7.175 -37.258  1.00  0.00     0.000 C 
BRANCH  20  21
ATOM     21  C   UNL     1       6.342  -5.807 -37.364  1.00  0.00     0.000 C 
BRANCH  21  22
ATOM     22  C   UNL     1       4.955  -5.940 -38.010  1.00  0.00    -0.000 C 
BRANCH  22  23
ATOM     23  C   UNL     1       3.849  -5.230 -37.207  1.00  0.00    -0.000 C 
BRANCH  23  24
ATOM     24  C   UNL     1       3.406  -3.867 -37.775  1.00  0.00    -0.000 C 
BRANCH  24  25
ATOM     25  C   UNL     1       3.922  -2.638 -37.002  1.00  0.00    -0.000 C 
BRANCH  25  26
ATOM     26  C   UNL     1       5.322  -2.148 -37.422  1.00  0.00    -0.000 C 
BRANCH  26  27
ATOM     27  C   UNL     1       6.447  -2.443 -36.409  1.00  0.00    -0.000 C 
BRANCH  27  28
ATOM     28  C   UNL     1       5.972  -2.961 -35.041  1.00  0.00    -0.000 C 
BRANCH  28  29
ATOM     29  C   UNL     1       6.971  -2.669 -33.912  1.00  0.00    -0.003 C 
ATOM     30  C   UNL     1       8.365  -2.394 -34.470  1.00  0.00     0.004 C 
ENDBRANCH  28  29
ENDBRANCH  27  28
ENDBRANCH  26  27
ENDBRANCH  25  26
ENDBRANCH  24  25
ENDBRANCH  23  24
ENDBRANCH  22  23
ENDBRANCH  21  22
ENDBRANCH  20  21
ENDBRANCH  19  20
ENDBRANCH  18  19
ENDBRANCH  17  18
ENDBRANCH   1  17
TORSDOF 26
ENDMDL
MODEL 2
REMARK VINA RESULT:    -3.972      9.721     12.581
REMARK INTER + INTRA:         -15.268
REMARK INTER:                 -11.902
REMARK INTRA:                  -3.366
REMARK UNBOUND:                -5.258
REMARK SMILES CCCCCCCCCCCCCCCCCCCCCCCCCCCC(=O)[O-]
REMARK SMILES IDX 15 1 16 2 17 3 18 4 19 5 20 6 21 7 22 8 23 9 24 10 25 11
REMARK SMILES IDX 26 12 27 13 28 14 29 15 30 16 14 17 13 18 12 19 11 20 10 21
REMARK SMILES IDX 9 22 8 23 7 24 6 25 5 26 4 27 3 28 2 29 1 30
REMARK H PARENT
REMARK Flexibility Score: inf
ROOT
ATOM      1  C   UNL     1       8.762 -12.118 -23.932  1.00  0.00     0.000 C 
ENDROOT
BRANCH   1   2
ATOM      2  C   UNL     1       7.484 -12.867 -23.519  1.00  0.00     0.000 C 
BRANCH   2   3
ATOM      3  C   UNL     1       7.712 -14.377 -23.317  1.00  0.00     0.000 C 
BRANCH   3   4
ATOM      4  C   UNL     1       7.195 -14.942 -21.982  1.00  0.00     0.000 C 
BRANCH   4   5
ATOM      5  C   UNL     1       5.660 -15.045 -21.930  1.00  0.00     0.000 C 
BRANCH   5   6
ATOM      6  C   UNL     1       5.085 -14.615 -20.571  1.00  0.00     0.000 C 
BRANCH   6   7
ATOM      7  C   UNL     1       5.467 -13.176 -20.197  1.00  0.00     0.000 C 
BRANCH   7   8
ATOM      8  C   UNL     1       4.745 -12.163 -21.098  1.00  0.00     0.000 C 
BRANCH   8   9
ATOM      9  C   UNL     1       3.231 -12.099 -20.831  1.00  0.00     0.000 C 
BRANCH   9  10
ATOM     10  C   UNL     1       2.349 -12.040 -22.094  1.00  0.00     0.000 C 
BRANCH  10  11
ATOM     11  C   UNL     1       2.265 -13.354 -22.896  1.00  0.00     0.000 C 
BRANCH  11  12
ATOM     12  C   UNL     1       2.647 -13.234 -24.386  1.00  0.00     0.006 C 
BRANCH  12  13
ATOM     13  C   UNL     1       4.158 -13.281 -24.659  1.00  0.00     0.053 C 
BRANCH  13  14
ATOM     14  C   UNL     1       4.462 -13.243 -26.126  1.00  0.00     0.041 C 
ATOM     15  O   UNL     1       3.590 -12.849 -26.944  1.00  0.00    -0.550 OA
ATOM     16  O   UNL     1       5.700 -13.668 -26.590  1.00  0.00    -0.550 OA
ENDBRANCH  13  14
ENDBRANCH  12  13
ENDBRANCH  11  12
ENDBRANCH  10  11
ENDBRANCH   9  10
ENDBRANCH   8   9
ENDBRANCH   7   8
ENDBRANCH   6   7
ENDBRANCH   5   6
ENDBRANCH   4   5
ENDBRANCH   3   4
ENDBRANCH   2   3
ENDBRANCH   1   2
BRANCH   1  17
ATOM     17  C   UNL     1       8.569 -11.276 -25.204  1.00  0.00     0.000 C 
BRANCH  17  18
ATOM     18  C   UNL     1       9.882 -10.669 -25.721  1.00  0.00     0.000 C 
BRANCH  18  19
ATOM     19  C   UNL     1      11.036 -11.675 -25.593  1.00  0.00     0.000 C 
BRANCH  19  20
ATOM     20  C   UNL     1      11.683 -12.011 -26.946  1.00  0.00     0.000 C 
BRANCH  20  21
ATOM     21  C   UNL     1      10.666 -12.520 -27.978  1.00  0.00     0.000 C 
BRANCH  21  22
ATOM     22  C   UNL     1      11.021 -12.027 -29.388  1.00  0.00    -0.000 C 
BRANCH  22  23
ATOM     23  C   UNL     1      11.671 -10.631 -29.389  1.00  0.00    -0.000 C 
BRANCH  23  24
ATOM     24  C   UNL     1      12.925 -10.497 -30.277  1.00  0.00    -0.000 C 
BRANCH  24  25
ATOM     25  C   UNL     1      13.159 -11.664 -31.256  1.00  0.00    -0.000 C 
BRANCH  25  26
ATOM     26  C   UNL     1      14.181 -12.715 -30.781  1.00  0.00    -0.000 C 
BRANCH  26  27
ATOM     27  C   UNL     1      15.122 -12.246 -29.653  1.00  0.00    -0.000 C 
BRANCH  27  28
ATOM     28  C   UNL     1      14.881 -12.910 -28.286  1.00  0.00    -0.000 C 
BRANCH  28  29
ATOM     29  C   UNL     1      15.504 -12.123 -27.123  1.00  0.00    -0.003 C 
ATOM     30  C   UNL     1      16.956 -11.761 -27.420  1.00  0.00     0.004 C 
ENDBRANCH  28  29
ENDBRANCH  27  28
ENDBRANCH  26  27
ENDBRANCH  25  26
ENDBRANCH  24  25
ENDBRANCH  23  24
ENDBRANCH  22  23
ENDBRANCH  21  22
ENDBRANCH  20  21
ENDBRANCH  19  20
ENDBRANCH  18  19
ENDBRANCH  17  18
ENDBRANCH   1  17
TORSDOF 26
ENDMDL
MODEL 3
REMARK VINA RESULT:    -3.898     10.555     14.325
REMARK INTER + INTRA:         -15.081
REMARK INTER:                 -11.655
REMARK INTRA:                  -3.426
REMARK UNBOUND:                -5.258
REMARK SMILES CCCCCCCCCCCCCCCCCCCCCCCCCCCC(=O)[O-]
REMARK SMILES IDX 15 1 16 2 17 3 18 4 19 5 20 6 21 7 22 8 23 9 24 10 25 11
REMARK SMILES IDX 26 12 27 13 28 14 29 15 30 16 14 17 13 18 12 19 11 20 10 21
REMARK SMILES IDX 9 22 8 23 7 24 6 25 5 26 4 27 3 28 2 29 1 30
REMARK H PARENT
REMARK Flexibility Score: inf
ROOT
ATOM      1  C   UNL     1      11.536 -11.586 -26.963  1.00  0.00     0.000 C 
ENDROOT
BRANCH   1   2
ATOM      2  C   UNL     1      11.168 -12.667 -27.993  1.00  0.00     0.000 C 
BRANCH   2   3
ATOM      3  C   UNL     1      11.232 -12.158 -29.445  1.00  0.00     0.000 C 
BRANCH   3   4
ATOM      4  C   UNL     1      11.674 -10.692 -29.604  1.00  0.00     0.000 C 
BRANCH   4   5
ATOM      5  C   UNL     1      13.002 -10.546 -30.367  1.00  0.00     0.000 C 
BRANCH   5   6
ATOM      6  C   UNL     1      13.221 -11.670 -31.392  1.00  0.00     0.000 C 
BRANCH   6   7
ATOM      7  C   UNL     1      14.684 -12.134 -31.456  1.00  0.00     0.000 C 
BRANCH   7   8
ATOM      8  C   UNL     1      14.982 -13.164 -30.357  1.00  0.00     0.000 C 
BRANCH   8   9
ATOM      9  C   UNL     1      15.932 -12.626 -29.274  1.00  0.00     0.000 C 
BRANCH   9  10
ATOM     10  C   UNL     1      15.236 -12.067 -28.017  1.00  0.00     0.000 C 
BRANCH  10  11
ATOM     11  C   UNL     1      14.886 -13.115 -26.942  1.00  0.00     0.000 C 
BRANCH  11  12
ATOM     12  C   UNL     1      15.361 -12.769 -25.516  1.00  0.00     0.006 C 
BRANCH  12  13
ATOM     13  C   UNL     1      14.943 -11.372 -25.030  1.00  0.00     0.053 C 
BRANCH  13  14
ATOM     14  C   UNL     1      16.129 -10.503 -24.744  1.00  0.00     0.041 C 
ATOM     15  O   UNL     1      15.970  -9.299 -24.412  1.00  0.00    -0.550 OA
ATOM     16  O   UNL     1      17.414 -11.017 -24.870  1.00  0.00    -0.550 OA
ENDBRANCH  13  14
ENDBRANCH  12  13
ENDBRANCH  11  12
ENDBRANCH  10  11
ENDBRANCH   9  10
ENDBRANCH   8   9
ENDBRANCH   7   8
ENDBRANCH   6   7
ENDBRANCH   5   6
ENDBRANCH   4   5
ENDBRANCH   3   4
ENDBRANCH   2   3
ENDBRANCH   1   2
BRANCH   1  17
ATOM     17  C   UNL     1      11.083 -11.949 -25.539  1.00  0.00     0.000 C 
BRANCH  17  18
ATOM     18  C   UNL     1       9.996 -11.007 -25.001  1.00  0.00     0.000 C 
BRANCH  18  19
ATOM     19  C   UNL     1       8.772 -11.801 -24.522  1.00  0.00     0.000 C 
BRANCH  19  20
ATOM     20  C   UNL     1       7.672 -11.900 -25.591  1.00  0.00     0.000 C 
BRANCH  20  21
ATOM     21  C   UNL     1       7.353 -13.351 -25.979  1.00  0.00     0.000 C 
BRANCH  21  22
ATOM     22  C   UNL     1       5.862 -13.660 -25.772  1.00  0.00    -0.000 C 
BRANCH  22  23
ATOM     23  C   UNL     1       5.293 -13.030 -24.487  1.00  0.00    -0.000 C 
BRANCH  23  24
ATOM     24  C   UNL     1       5.543 -13.840 -23.199  1.00  0.00    -0.000 C 
BRANCH  24  25
ATOM     25  C   UNL     1       6.219 -13.057 -22.057  1.00  0.00    -0.000 C 
BRANCH  25  26
ATOM     26  C   UNL     1       5.405 -12.983 -20.751  1.00  0.00    -0.000 C 
BRANCH  26  27
ATOM     27  C   UNL     1       4.242 -11.971 -20.763  1.00  0.00    -0.000 C 
BRANCH  27  28
ATOM     28  C   UNL     1       2.897 -12.530 -21.257  1.00  0.00    -0.000 C 
BRANCH  28  29
ATOM     29  C   UNL     1       2.204 -11.610 -22.272  1.00  0.00    -0.003 C 
ATOM     30  C   UNL     1       1.766 -12.388 -23.510  1.00  0.00     0.004 C 
ENDBRANCH  28  29
ENDBRANCH  27  28
ENDBRANCH  26  27
ENDBRANCH  25  26
ENDBRANCH  24  25
ENDBRANCH  23  24
ENDBRANCH  22  23
ENDBRANCH  21  22
ENDBRANCH  20  21
ENDBRANCH  19  20
ENDBRANCH  18  19
ENDBRANCH  17  18
ENDBRANCH   1  17
TORSDOF 26
ENDMDL
MODEL 4
REMARK VINA RESULT:    -3.884      1.631      2.680
REMARK INTER + INTRA:         -15.047
REMARK INTER:                 -11.245
REMARK INTRA:                  -3.801
REMARK UNBOUND:                -5.258
REMARK SMILES CCCCCCCCCCCCCCCCCCCCCCCCCCCC(=O)[O-]
REMARK SMILES IDX 15 1 16 2 17 3 18 4 19 5 20 6 21 7 22 8 23 9 24 10 25 11
REMARK SMILES IDX 26 12 27 13 28 14 29 15 30 16 14 17 13 18 12 19 11 20 10 21
REMARK SMILES IDX 9 22 8 23 7 24 6 25 5 26 4 27 3 28 2 29 1 30
REMARK H PARENT
REMARK Flexibility Score: inf
ROOT
ATOM      1  C   UNL     1       8.421  -5.880 -33.367  1.00  0.00     0.000 C 
ENDROOT
BRANCH   1   2
ATOM      2  C   UNL     1       7.272  -5.472 -32.428  1.00  0.00     0.000 C 
BRANCH   2   3
ATOM      3  C   UNL     1       6.920  -6.565 -31.401  1.00  0.00     0.000 C 
BRANCH   3   4
ATOM      4  C   UNL     1       5.859  -7.579 -31.865  1.00  0.00     0.000 C 
BRANCH   4   5
ATOM      5  C   UNL     1       4.889  -6.996 -32.907  1.00  0.00     0.000 C 
BRANCH   5   6
ATOM      6  C   UNL     1       4.807  -7.850 -34.182  1.00  0.00     0.000 C 
BRANCH   6   7
ATOM      7  C   UNL     1       4.053  -9.170 -33.960  1.00  0.00     0.000 C 
BRANCH   7   8
ATOM      8  C   UNL     1       2.538  -8.931 -33.884  1.00  0.00     0.000 C 
BRANCH   8   9
ATOM      9  C   UNL     1       1.825  -9.908 -32.933  1.00  0.00     0.000 C 
BRANCH   9  10
ATOM     10  C   UNL     1       2.357 -11.354 -32.966  1.00  0.00     0.000 C 
BRANCH  10  11
ATOM     11  C   UNL     1       2.113 -12.171 -31.681  1.00  0.00     0.000 C 
BRANCH  11  12
ATOM     12  C   UNL     1       3.289 -12.184 -30.684  1.00  0.00     0.006 C 
BRANCH  12  13
ATOM     13  C   UNL     1       4.564 -11.496 -31.198  1.00  0.00     0.053 C 
BRANCH  13  14
ATOM     14  C   UNL     1       5.653 -12.483 -31.487  1.00  0.00     0.041 C 
ATOM     15  O   UNL     1       6.852 -12.104 -31.554  1.00  0.00    -0.550 OA
ATOM     16  O   UNL     1       5.340 -13.818 -31.709  1.00  0.00    -0.550 OA
ENDBRANCH  13  14
ENDBRANCH  12  13
ENDBRANCH  11  12
ENDBRANCH  10  11
ENDBRANCH   9  10
ENDBRANCH   8   9
ENDBRANCH   7   8
ENDBRANCH   6   7
ENDBRANCH   5   6
ENDBRANCH   4   5
ENDBRANCH   3   4
ENDBRANCH   2   3
ENDBRANCH   1   2
BRANCH   1  17
ATOM     17  C   UNL     1       8.007  -5.868 -34.847  1.00  0.00     0.000 C 
BRANCH  17  18
ATOM     18  C   UNL     1       7.968  -7.273 -35.466  1.00  0.00     0.000 C 
BRANCH  18  19
ATOM     19  C   UNL     1       7.648  -7.201 -36.966  1.00  0.00     0.000 C 
BRANCH  19  20
ATOM     20  C   UNL     1       6.882  -5.925 -37.349  1.00  0.00     0.000 C 
BRANCH  20  21
ATOM     21  C   UNL     1       5.372  -6.163 -37.495  1.00  0.00     0.000 C 
BRANCH  21  22
ATOM     22  C   UNL     1       4.575  -5.201 -36.602  1.00  0.00    -0.000 C 
BRANCH  22  23
ATOM     23  C   UNL     1       4.519  -3.769 -37.163  1.00  0.00    -0.000 C 
BRANCH  23  24
ATOM     24  C   UNL     1       5.127  -2.687 -36.248  1.00  0.00    -0.000 C 
BRANCH  24  25
ATOM     25  C   UNL     1       5.619  -3.193 -34.877  1.00  0.00    -0.000 C 
BRANCH  25  26
ATOM     26  C   UNL     1       6.858  -2.463 -34.323  1.00  0.00    -0.000 C 
BRANCH  26  27
ATOM     27  C   UNL     1       8.098  -2.495 -35.240  1.00  0.00    -0.000 C 
BRANCH  27  28
ATOM     28  C   UNL     1       9.387  -1.938 -34.611  1.00  0.00    -0.000 C 
BRANCH  28  29
ATOM     29  C   UNL     1      10.445  -1.558 -35.657  1.00  0.00    -0.003 C 
ATOM     30  C   UNL     1      11.837  -2.007 -35.218  1.00  0.00     0.004 C 
ENDBRANCH  28  29
ENDBRANCH  27  28
ENDBRANCH  26  27
ENDBRANCH  25  26
ENDBRANCH  24  25
ENDBRANCH  23  24
ENDBRANCH  22  23
ENDBRANCH  21  22
ENDBRANCH  20  21
ENDBRANCH  19  20
ENDBRANCH  18  19
ENDBRANCH  17  18
ENDBRANCH   1  17
TORSDOF 26
ENDMDL
MODEL 5
REMARK VINA RESULT:    -3.884     10.604     14.677
REMARK INTER + INTRA:         -15.046
REMARK INTER:                 -12.770
REMARK INTRA:                  -2.275
REMARK UNBOUND:                -5.258
REMARK SMILES CCCCCCCCCCCCCCCCCCCCCCCCCCCC(=O)[O-]
REMARK SMILES IDX 15 1 16 2 17 3 18 4 19 5 20 6 21 7 22 8 23 9 24 10 25 11
REMARK SMILES IDX 26 12 27 13 28 14 29 15 30 16 14 17 13 18 12 19 11 20 10 21
REMARK SMILES IDX 9 22 8 23 7 24 6 25 5 26 4 27 3 28 2 29 1 30
REMARK H PARENT
REMARK Flexibility Score: inf
ROOT
ATOM      1  C   UNL     1      12.067 -11.720 -26.160  1.00  0.00     0.000 C 
ENDROOT
BRANCH   1   2
ATOM      2  C   UNL     1      12.162 -12.963 -27.062  1.00  0.00     0.000 C 
BRANCH   2   3
ATOM      3  C   UNL     1      11.778 -12.673 -28.525  1.00  0.00     0.000 C 
BRANCH   3   4
ATOM      4  C   UNL     1      11.233 -11.258 -28.789  1.00  0.00     0.000 C 
BRANCH   4   5
ATOM      5  C   UNL     1      12.034 -10.499 -29.862  1.00  0.00     0.000 C 
BRANCH   5   6
ATOM      6  C   UNL     1      13.438 -11.087 -30.077  1.00  0.00     0.000 C 
BRANCH   6   7
ATOM      7  C   UNL     1      13.638 -11.632 -31.500  1.00  0.00     0.000 C 
BRANCH   7   8
ATOM      8  C   UNL     1      14.811 -12.621 -31.549  1.00  0.00     0.000 C 
BRANCH   8   9
ATOM      9  C   UNL     1      16.058 -12.106 -30.809  1.00  0.00     0.000 C 
BRANCH   9  10
ATOM     10  C   UNL     1      17.354 -12.891 -31.093  1.00  0.00     0.000 C 
BRANCH  10  11
ATOM     11  C   UNL     1      18.385 -12.157 -31.974  1.00  0.00     0.000 C 
BRANCH  11  12
ATOM     12  C   UNL     1      18.866 -12.946 -33.208  1.00  0.00     0.006 C 
BRANCH  12  13
ATOM     13  C   UNL     1      17.743 -13.639 -33.995  1.00  0.00     0.053 C 
BRANCH  13  14
ATOM     14  C   UNL     1      17.086 -12.708 -34.968  1.00  0.00     0.041 C 
ATOM     15  O   UNL     1      16.467 -13.164 -35.965  1.00  0.00    -0.550 OA
ATOM     16  O   UNL     1      17.182 -11.334 -34.787  1.00  0.00    -0.550 OA
ENDBRANCH  13  14
ENDBRANCH  12  13
ENDBRANCH  11  12
ENDBRANCH  10  11
ENDBRANCH   9  10
ENDBRANCH   8   9
ENDBRANCH   7   8
ENDBRANCH   6   7
ENDBRANCH   5   6
ENDBRANCH   4   5
ENDBRANCH   3   4
ENDBRANCH   2   3
ENDBRANCH   1   2
BRANCH   1  17
ATOM     17  C   UNL     1      10.902 -11.802 -25.161  1.00  0.00     0.000 C 
BRANCH  17  18
ATOM     18  C   UNL     1       9.827 -10.733 -25.410  1.00  0.00     0.000 C 
BRANCH  18  19
ATOM     19  C   UNL     1       8.422 -11.302 -25.158  1.00  0.00     0.000 C 
BRANCH  19  20
ATOM     20  C   UNL     1       8.222 -12.690 -25.785  1.00  0.00     0.000 C 
BRANCH  20  21
ATOM     21  C   UNL     1       7.638 -13.708 -24.795  1.00  0.00     0.000 C 
BRANCH  21  22
ATOM     22  C   UNL     1       7.695 -13.171 -23.357  1.00  0.00    -0.000 C 
BRANCH  22  23
ATOM     23  C   UNL     1       6.312 -13.113 -22.683  1.00  0.00    -0.000 C 
BRANCH  23  24
ATOM     24  C   UNL     1       6.279 -13.604 -21.222  1.00  0.00    -0.000 C 
BRANCH  24  25
ATOM     25  C   UNL     1       5.057 -13.142 -20.405  1.00  0.00    -0.000 C 
BRANCH  25  26
ATOM     26  C   UNL     1       4.312 -11.924 -20.985  1.00  0.00    -0.000 C 
BRANCH  26  27
ATOM     27  C   UNL     1       2.775 -12.045 -20.998  1.00  0.00    -0.000 C 
BRANCH  27  28
ATOM     28  C   UNL     1       2.106 -11.699 -22.339  1.00  0.00    -0.000 C 
BRANCH  28  29
ATOM     29  C   UNL     1       2.179 -12.847 -23.356  1.00  0.00    -0.003 C 
ATOM     30  C   UNL     1       2.075 -14.203 -22.662  1.00  0.00     0.004 C 
ENDBRANCH  28  29
ENDBRANCH  27  28
ENDBRANCH  26  27
ENDBRANCH  25  26
ENDBRANCH  24  25
ENDBRANCH  23  24
ENDBRANCH  22  23
ENDBRANCH  21  22
ENDBRANCH  20  21
ENDBRANCH  19  20
ENDBRANCH  18  19
ENDBRANCH  17  18
ENDBRANCH   1  17
TORSDOF 26
ENDMDL
MODEL 6
REMARK VINA RESULT:    -3.852      1.711      3.334
REMARK INTER + INTRA:         -14.964
REMARK INTER:                 -11.286
REMARK INTRA:                  -3.678
REMARK UNBOUND:                -5.258
REMARK SMILES CCCCCCCCCCCCCCCCCCCCCCCCCCCC(=O)[O-]
REMARK SMILES IDX 15 1 16 2 17 3 18 4 19 5 20 6 21 7 22 8 23 9 24 10 25 11
REMARK SMILES IDX 26 12 27 13 28 14 29 15 30 16 14 17 13 18 12 19 11 20 10 21
REMARK SMILES IDX 9 22 8 23 7 24 6 25 5 26 4 27 3 28 2 29 1 30
REMARK H PARENT
REMARK Flexibility Score: inf
ROOT
ATOM      1  C   UNL     1       6.209  -6.929 -31.403  1.00  0.00     0.000 C 
ENDROOT
BRANCH   1   2
ATOM      2  C   UNL     1       5.224  -7.106 -32.571  1.00  0.00     0.000 C 
BRANCH   2   3
ATOM      3  C   UNL     1       5.351  -8.477 -33.261  1.00  0.00     0.000 C 
BRANCH   3   4
ATOM      4  C   UNL     1       4.977  -8.494 -34.754  1.00  0.00     0.000 C 
BRANCH   4   5
ATOM      5  C   UNL     1       3.680  -7.723 -35.055  1.00  0.00     0.000 C 
BRANCH   5   6
ATOM      6  C   UNL     1       2.752  -8.480 -36.018  1.00  0.00     0.000 C 
BRANCH   6   7
ATOM      7  C   UNL     1       1.520  -9.067 -35.312  1.00  0.00     0.000 C 
BRANCH   7   8
ATOM      8  C   UNL     1       1.369  -8.486 -33.898  1.00  0.00     0.000 C 
BRANCH   8   9
ATOM      9  C   UNL     1       1.311  -9.570 -32.809  1.00  0.00     0.000 C 
BRANCH   9  10
ATOM     10  C   UNL     1       2.485 -10.570 -32.822  1.00  0.00     0.000 C 
BRANCH  10  11
ATOM     11  C   UNL     1       2.079 -12.057 -32.773  1.00  0.00     0.000 C 
BRANCH  11  12
ATOM     12  C   UNL     1       1.725 -12.589 -31.370  1.00  0.00     0.006 C 
BRANCH  12  13
ATOM     13  C   UNL     1       2.701 -13.645 -30.828  1.00  0.00     0.053 C 
BRANCH  13  14
ATOM     14  C   UNL     1       4.038 -13.054 -30.501  1.00  0.00     0.041 C 
ATOM     15  O   UNL     1       4.115 -11.938 -29.925  1.00  0.00    -0.550 OA
ATOM     16  O   UNL     1       5.201 -13.726 -30.858  1.00  0.00    -0.550 OA
ENDBRANCH  13  14
ENDBRANCH  12  13
ENDBRANCH  11  12
ENDBRANCH  10  11
ENDBRANCH   9  10
ENDBRANCH   8   9
ENDBRANCH   7   8
ENDBRANCH   6   7
ENDBRANCH   5   6
ENDBRANCH   4   5
ENDBRANCH   3   4
ENDBRANCH   2   3
ENDBRANCH   1   2
BRANCH   1  17
ATOM     17  C   UNL     1       7.158  -5.737 -31.606  1.00  0.00     0.000 C 
BRANCH  17  18
ATOM     18  C   UNL     1       8.366  -6.082 -32.491  1.00  0.00     0.000 C 
BRANCH  18  19
ATOM     19  C   UNL     1       8.345  -5.260 -33.788  1.00  0.00     0.000 C 
BRANCH  19  20
ATOM     20  C   UNL     1       7.686  -6.010 -34.956  1.00  0.00     0.000 C 
BRANCH  20  21
ATOM     21  C   UNL     1       6.481  -5.256 -35.538  1.00  0.00     0.000 C 
BRANCH  21  22
ATOM     22  C   UNL     1       6.153  -4.012 -34.698  1.00  0.00    -0.000 C 
BRANCH  22  23
ATOM     23  C   UNL     1       6.222  -2.706 -35.510  1.00  0.00    -0.000 C 
BRANCH  23  24
ATOM     24  C   UNL     1       6.729  -2.864 -36.957  1.00  0.00    -0.000 C 
BRANCH  24  25
ATOM     25  C   UNL     1       8.262  -2.871 -37.115  1.00  0.00    -0.000 C 
BRANCH  25  26
ATOM     26  C   UNL     1       8.999  -1.760 -36.341  1.00  0.00    -0.000 C 
BRANCH  26  27
ATOM     27  C   UNL     1       9.786  -2.239 -35.104  1.00  0.00    -0.000 C 
BRANCH  27  28
ATOM     28  C   UNL     1      10.654  -1.164 -34.429  1.00  0.00    -0.000 C 
BRANCH  28  29
ATOM     29  C   UNL     1      12.148  -1.516 -34.429  1.00  0.00    -0.003 C 
ATOM     30  C   UNL     1      12.628  -1.873 -35.834  1.00  0.00     0.004 C 
ENDBRANCH  28  29
ENDBRANCH  27  28
ENDBRANCH  26  27
ENDBRANCH  25  26
ENDBRANCH  24  25
ENDBRANCH  23  24
ENDBRANCH  22  23
ENDBRANCH  21  22
ENDBRANCH  20  21
ENDBRANCH  19  20
ENDBRANCH  18  19
ENDBRANCH  17  18
ENDBRANCH   1  17
TORSDOF 26
ENDMDL
MODEL 7
REMARK VINA RESULT:    -3.828     14.431     17.732
REMARK INTER + INTRA:         -14.904
REMARK INTER:                 -12.337
REMARK INTRA:                  -2.567
REMARK UNBOUND:                -5.258
REMARK SMILES CCCCCCCCCCCCCCCCCCCCCCCCCCCC(=O)[O-]
REMARK SMILES IDX 15 1 16 2 17 3 18 4 19 5 20 6 21 7 22 8 23 9 24 10 25 11
REMARK SMILES IDX 26 12 27 13 28 14 29 15 30 16 14 17 13 18 12 19 11 20 10 21
REMARK SMILES IDX 9 22 8 23 7 24 6 25 5 26 4 27 3 28 2 29 1 30
REMARK H PARENT
REMARK Flexibility Score: inf
ROOT
ATOM      1  C   UNL     1      15.359  -2.445 -20.387  1.00  0.00     0.000 C 
ENDROOT
BRANCH   1   2
ATOM      2  C   UNL     1      15.079  -2.285 -18.883  1.00  0.00     0.000 C 
BRANCH   2   3
ATOM      3  C   UNL     1      15.634  -3.450 -18.043  1.00  0.00     0.000 C 
BRANCH   3   4
ATOM      4  C   UNL     1      16.508  -4.454 -18.815  1.00  0.00     0.000 C 
BRANCH   4   5
ATOM      5  C   UNL     1      17.698  -4.972 -17.989  1.00  0.00     0.000 C 
BRANCH   5   6
ATOM      6  C   UNL     1      19.052  -4.680 -18.655  1.00  0.00     0.000 C 
BRANCH   6   7
ATOM      7  C   UNL     1      19.946  -5.926 -18.745  1.00  0.00     0.000 C 
BRANCH   7   8
ATOM      8  C   UNL     1      20.621  -6.019 -20.121  1.00  0.00     0.000 C 
BRANCH   8   9
ATOM      9  C   UNL     1      19.814  -6.857 -21.128  1.00  0.00     0.000 C 
BRANCH   9  10
ATOM     10  C   UNL     1      18.730  -7.759 -20.504  1.00  0.00     0.000 C 
BRANCH  10  11
ATOM     11  C   UNL     1      17.337  -7.653 -21.156  1.00  0.00     0.000 C 
BRANCH  11  12
ATOM     12  C   UNL     1      17.178  -6.503 -22.171  1.00  0.00     0.006 C 
BRANCH  12  13
ATOM     13  C   UNL     1      15.825  -5.778 -22.100  1.00  0.00     0.053 C 
BRANCH  13  14
ATOM     14  C   UNL     1      15.092  -5.835 -23.405  1.00  0.00     0.041 C 
ATOM     15  O   UNL     1      14.229  -4.963 -23.688  1.00  0.00    -0.550 OA
ATOM     16  O   UNL     1      15.345  -6.868 -24.299  1.00  0.00    -0.550 OA
ENDBRANCH  13  14
ENDBRANCH  12  13
ENDBRANCH  11  12
ENDBRANCH  10  11
ENDBRANCH   9  10
ENDBRANCH   8   9
ENDBRANCH   7   8
ENDBRANCH   6   7
ENDBRANCH   5   6
ENDBRANCH   4   5
ENDBRANCH   3   4
ENDBRANCH   2   3
ENDBRANCH   1   2
BRANCH   1  17
ATOM     17  C   UNL     1      14.080  -2.375 -21.238  1.00  0.00     0.000 C 
BRANCH  17  18
ATOM     18  C   UNL     1      12.819  -2.755 -20.448  1.00  0.00     0.000 C 
BRANCH  18  19
ATOM     19  C   UNL     1      11.691  -1.743 -20.700  1.00  0.00     0.000 C 
BRANCH  19  20
ATOM     20  C   UNL     1      10.299  -2.396 -20.711  1.00  0.00     0.000 C 
BRANCH  20  21
ATOM     21  C   UNL     1       9.215  -1.467 -21.278  1.00  0.00     0.000 C 
BRANCH  21  22
ATOM     22  C   UNL     1       9.841  -0.224 -21.927  1.00  0.00    -0.000 C 
BRANCH  22  23
ATOM     23  C   UNL     1       9.176   1.089 -21.472  1.00  0.00    -0.000 C 
BRANCH  23  24
ATOM     24  C   UNL     1       9.487   2.315 -22.353  1.00  0.00    -0.000 C 
BRANCH  24  25
ATOM     25  C   UNL     1      10.506   2.066 -23.483  1.00  0.00    -0.000 C 
BRANCH  25  26
ATOM     26  C   UNL     1      11.651   3.095 -23.562  1.00  0.00    -0.000 C 
BRANCH  26  27
ATOM     27  C   UNL     1      11.658   3.965 -24.835  1.00  0.00    -0.000 C 
BRANCH  27  28
ATOM     28  C   UNL     1      11.742   3.184 -26.158  1.00  0.00    -0.000 C 
BRANCH  28  29
ATOM     29  C   UNL     1      12.218   4.049 -27.333  1.00  0.00    -0.003 C 
ATOM     30  C   UNL     1      12.839   3.190 -28.432  1.00  0.00     0.004 C 
ENDBRANCH  28  29
ENDBRANCH  27  28
ENDBRANCH  26  27
ENDBRANCH  25  26
ENDBRANCH  24  25
ENDBRANCH  23  24
ENDBRANCH  22  23
ENDBRANCH  21  22
ENDBRANCH  20  21
ENDBRANCH  19  20
ENDBRANCH  18  19
ENDBRANCH  17  18
ENDBRANCH   1  17
TORSDOF 26
ENDMDL
MODEL 8
REMARK VINA RESULT:    -3.814     11.185     14.566
REMARK INTER + INTRA:         -14.869
REMARK INTER:                  -9.933
REMARK INTRA:                  -4.936
REMARK UNBOUND:                -5.258
REMARK SMILES CCCCCCCCCCCCCCCCCCCCCCCCCCCC(=O)[O-]
REMARK SMILES IDX 15 1 16 2 17 3 18 4 19 5 20 6 21 7 22 8 23 9 24 10 25 11
REMARK SMILES IDX 26 12 27 13 28 14 29 15 30 16 14 17 13 18 12 19 11 20 10 21
REMARK SMILES IDX 9 22 8 23 7 24 6 25 5 26 4 27 3 28 2 29 1 30
REMARK H PARENT
REMARK Flexibility Score: inf
ROOT
ATOM      1  C   UNL     1      13.464 -10.624 -30.255  1.00  0.00     0.000 C 
ENDROOT
BRANCH   1   2
ATOM      2  C   UNL     1      12.071 -10.674 -29.604  1.00  0.00     0.000 C 
BRANCH   2   3
ATOM      3  C   UNL     1      11.389 -12.047 -29.750  1.00  0.00     0.000 C 
BRANCH   3   4
ATOM      4  C   UNL     1       9.951 -12.123 -29.208  1.00  0.00     0.000 C 
BRANCH   4   5
ATOM      5  C   UNL     1       9.796 -13.141 -28.064  1.00  0.00     0.000 C 
BRANCH   5   6
ATOM      6  C   UNL     1       9.352 -12.485 -26.747  1.00  0.00     0.000 C 
BRANCH   6   7
ATOM      7  C   UNL     1      10.262 -11.321 -26.330  1.00  0.00     0.000 C 
BRANCH   7   8
ATOM      8  C   UNL     1      11.379 -11.804 -25.393  1.00  0.00     0.000 C 
BRANCH   8   9
ATOM      9  C   UNL     1      12.784 -11.616 -25.990  1.00  0.00     0.000 C 
BRANCH   9  10
ATOM     10  C   UNL     1      13.337 -12.836 -26.753  1.00  0.00     0.000 C 
BRANCH  10  11
ATOM     11  C   UNL     1      14.722 -12.632 -27.399  1.00  0.00     0.000 C 
BRANCH  11  12
ATOM     12  C   UNL     1      15.886 -12.455 -26.403  1.00  0.00     0.006 C 
BRANCH  12  13
ATOM     13  C   UNL     1      16.532 -11.061 -26.423  1.00  0.00     0.053 C 
BRANCH  13  14
ATOM     14  C   UNL     1      16.729 -10.517 -25.041  1.00  0.00     0.041 C 
ATOM     15  O   UNL     1      15.766  -9.994 -24.421  1.00  0.00    -0.550 OA
ATOM     16  O   UNL     1      17.985 -10.564 -24.449  1.00  0.00    -0.550 OA
ENDBRANCH  13  14
ENDBRANCH  12  13
ENDBRANCH  11  12
ENDBRANCH  10  11
ENDBRANCH   9  10
ENDBRANCH   8   9
ENDBRANCH   7   8
ENDBRANCH   6   7
ENDBRANCH   5   6
ENDBRANCH   4   5
ENDBRANCH   3   4
ENDBRANCH   2   3
ENDBRANCH   1   2
BRANCH   1  17
ATOM     17  C   UNL     1      13.703 -11.790 -31.228  1.00  0.00     0.000 C 
BRANCH  17  18
ATOM     18  C   UNL     1      15.193 -12.025 -31.520  1.00  0.00     0.000 C 
BRANCH  18  19
ATOM     19  C   UNL     1      15.535 -13.521 -31.443  1.00  0.00     0.000 C 
BRANCH  19  20
ATOM     20  C   UNL     1      16.626 -13.827 -30.404  1.00  0.00     0.000 C 
BRANCH  20  21
ATOM     21  C   UNL     1      17.397 -12.573 -29.968  1.00  0.00     0.000 C 
BRANCH  21  22
ATOM     22  C   UNL     1      18.505 -12.930 -28.966  1.00  0.00    -0.000 C 
BRANCH  22  23
ATOM     23  C   UNL     1      19.780 -12.088 -29.157  1.00  0.00    -0.000 C 
BRANCH  23  24
ATOM     24  C   UNL     1      20.575 -12.393 -30.442  1.00  0.00    -0.000 C 
BRANCH  24  25
ATOM     25  C   UNL     1      20.831 -13.889 -30.712  1.00  0.00    -0.000 C 
BRANCH  25  26
ATOM     26  C   UNL     1      20.189 -14.435 -32.002  1.00  0.00    -0.000 C 
BRANCH  26  27
ATOM     27  C   UNL     1      20.063 -13.413 -33.151  1.00  0.00    -0.000 C 
BRANCH  27  28
ATOM     28  C   UNL     1      18.622 -13.017 -33.515  1.00  0.00    -0.000 C 
BRANCH  28  29
ATOM     29  C   UNL     1      18.357 -11.514 -33.353  1.00  0.00    -0.003 C 
ATOM     30  C   UNL     1      19.626 -10.702 -33.601  1.00  0.00     0.004 C 
ENDBRANCH  28  29
ENDBRANCH  27  28
ENDBRANCH  26  27
ENDBRANCH  25  26
ENDBRANCH  24  25
ENDBRANCH  23  24
ENDBRANCH  22  23
ENDBRANCH  21  22
ENDBRANCH  20  21
ENDBRANCH  19  20
ENDBRANCH  18  19
ENDBRANCH  17  18
ENDBRANCH   1  17
TORSDOF 26
ENDMDL
MODEL 9
REMARK VINA RESULT:    -3.811      2.764      4.864
REMARK INTER + INTRA:         -14.862
REMARK INTER:                 -11.280
REMARK INTRA:                  -3.582
REMARK UNBOUND:                -5.258
REMARK SMILES CCCCCCCCCCCCCCCCCCCCCCCCCCCC(=O)[O-]
REMARK SMILES IDX 15 1 16 2 17 3 18 4 19 5 20 6 21 7 22 8 23 9 24 10 25 11
REMARK SMILES IDX 26 12 27 13 28 14 29 15 30 16 14 17 13 18 12 19 11 20 10 21
REMARK SMILES IDX 9 22 8 23 7 24 6 25 5 26 4 27 3 28 2 29 1 30
REMARK H PARENT
REMARK Flexibility Score: inf
ROOT
ATOM      1  C   UNL     1       6.781  -5.069 -33.183  1.00  0.00     0.000 C 
ENDROOT
BRANCH   1   2
ATOM      2  C   UNL     1       6.704  -6.311 -34.087  1.00  0.00     0.000 C 
BRANCH   2   3
ATOM      3  C   UNL     1       7.961  -6.498 -34.957  1.00  0.00     0.000 C 
BRANCH   3   4
ATOM      4  C   UNL     1       7.741  -7.286 -36.261  1.00  0.00     0.000 C 
BRANCH   4   5
ATOM      5  C   UNL     1       6.278  -7.719 -36.459  1.00  0.00     0.000 C 
BRANCH   5   6
ATOM      6  C   UNL     1       5.668  -7.165 -37.756  1.00  0.00     0.000 C 
BRANCH   6   7
ATOM      7  C   UNL     1       5.567  -5.632 -37.752  1.00  0.00     0.000 C 
BRANCH   7   8
ATOM      8  C   UNL     1       4.463  -5.157 -36.797  1.00  0.00     0.000 C 
BRANCH   8   9
ATOM      9  C   UNL     1       3.053  -5.561 -37.263  1.00  0.00     0.000 C 
BRANCH   9  10
ATOM     10  C   UNL     1       2.269  -6.446 -36.274  1.00  0.00     0.000 C 
BRANCH  10  11
ATOM     11  C   UNL     1       2.078  -7.911 -36.715  1.00  0.00     0.000 C 
BRANCH  11  12
ATOM     12  C   UNL     1       1.008  -8.694 -35.927  1.00  0.00     0.006 C 
BRANCH  12  13
ATOM     13  C   UNL     1       1.576  -9.741 -34.956  1.00  0.00     0.053 C 
BRANCH  13  14
ATOM     14  C   UNL     1       1.523  -9.271 -33.535  1.00  0.00     0.041 C 
ATOM     15  O   UNL     1       1.552 -10.102 -32.590  1.00  0.00    -0.550 OA
ATOM     16  O   UNL     1       1.416  -7.914 -33.256  1.00  0.00    -0.550 OA
ENDBRANCH  13  14
ENDBRANCH  12  13
ENDBRANCH  11  12
ENDBRANCH  10  11
ENDBRANCH   9  10
ENDBRANCH   8   9
ENDBRANCH   7   8
ENDBRANCH   6   7
ENDBRANCH   5   6
ENDBRANCH   4   5
ENDBRANCH   3   4
ENDBRANCH   2   3
ENDBRANCH   1   2
BRANCH   1  17
ATOM     17  C   UNL     1       6.597  -3.758 -33.964  1.00  0.00     0.000 C 
BRANCH  17  18
ATOM     18  C   UNL     1       7.775  -2.788 -33.786  1.00  0.00     0.000 C 
BRANCH  18  19
ATOM     19  C   UNL     1       8.317  -2.330 -35.148  1.00  0.00     0.000 C 
BRANCH  19  20
ATOM     20  C   UNL     1       7.497  -2.877 -36.328  1.00  0.00     0.000 C 
BRANCH  20  21
ATOM     21  C   UNL     1       8.350  -3.108 -37.584  1.00  0.00     0.000 C 
BRANCH  21  22
ATOM     22  C   UNL     1       9.062  -1.816 -38.010  1.00  0.00    -0.000 C 
BRANCH  22  23
ATOM     23  C   UNL     1      10.597  -1.933 -37.960  1.00  0.00    -0.000 C 
BRANCH  23  24
ATOM     24  C   UNL     1      11.273  -1.144 -36.820  1.00  0.00    -0.000 C 
BRANCH  24  25
ATOM     25  C   UNL     1      12.178  -1.980 -35.895  1.00  0.00    -0.000 C 
BRANCH  25  26
ATOM     26  C   UNL     1      12.109  -1.598 -34.403  1.00  0.00    -0.000 C 
BRANCH  26  27
ATOM     27  C   UNL     1      11.325  -0.307 -34.096  1.00  0.00    -0.000 C 
BRANCH  27  28
ATOM     28  C   UNL     1      11.215   0.049 -32.603  1.00  0.00    -0.000 C 
BRANCH  28  29
ATOM     29  C   UNL     1      10.912   1.535 -32.364  1.00  0.00    -0.003 C 
ATOM     30  C   UNL     1      11.629   2.049 -31.119  1.00  0.00     0.004 C 
ENDBRANCH  28  29
ENDBRANCH  27  28
ENDBRANCH  26  27
ENDBRANCH  25  26
ENDBRANCH  24  25
ENDBRANCH  23  24
ENDBRANCH  22  23
ENDBRANCH  21  22
ENDBRANCH  20  21
ENDBRANCH  19  20
ENDBRANCH  18  19
ENDBRANCH  17  18
ENDBRANCH   1  17
TORSDOF 26
ENDMDL
