MODEL 1
REMARK VINA RESULT:     8.782      0.000      0.000
REMARK INTER + INTRA:          10.575
REMARK INTER:                  10.836
REMARK INTRA:                  -0.261
REMARK UNBOUND:                -0.261
REMARK SMILES Oc1cc(O)c2cc(O)c(-c3cc(O)c(O)c(O)c3)[o+]c2c1
REMARK SMILES IDX 10 1 20 2 21 3 22 4 2 5 3 6 4 7 6 8 7 9 8 10 11 11 12 12
REMARK SMILES IDX 13 13 19 14 15 15 17 16 14 17 16 19 18 21 9 23 1 25 5 27
REMARK H PARENT 14 18 16 20 18 22 9 24 1 26 5 28
REMARK Flexibility Score: inf
ROOT
ATOM      1  C   UNL     1      22.000  21.932  35.828  1.00  0.00     0.402 A 
ATOM      2  O   UNL     1      21.771  22.162  34.538  1.00  0.00    -0.202 OA
ATOM      3  C   UNL     1      21.257  23.298  34.079  1.00  0.00     0.368 A 
ATOM      4  C   UNL     1      21.050  23.444  32.705  1.00  0.00     0.162 A 
ATOM      5  C   UNL     1      20.510  24.624  32.194  1.00  0.00     0.128 A 
ATOM      6  C   UNL     1      20.173  25.669  33.063  1.00  0.00     0.093 A 
ATOM      7  C   UNL     1      20.370  25.547  34.443  1.00  0.00     0.136 A 
ATOM      8  C   UNL     1      20.922  24.349  34.966  1.00  0.00     0.125 A 
ATOM      9  C   UNL     1      21.167  24.144  36.334  1.00  0.00     0.078 A 
ATOM     10  C   UNL     1      21.718  22.936  36.773  1.00  0.00     0.223 A 
ENDROOT
BRANCH   1  11
ATOM     11  C   UNL     1      22.567  20.621  36.217  1.00  0.00     0.091 A 
ATOM     12  C   UNL     1      23.837  20.251  35.748  1.00  0.00     0.068 A 
ATOM     13  C   UNL     1      24.389  19.010  36.082  1.00  0.00     0.162 A 
ATOM     14  C   UNL     1      21.837  19.711  37.002  1.00  0.00     0.068 A 
ATOM     15  C   UNL     1      23.664  18.113  36.884  1.00  0.00     0.200 A 
ATOM     16  C   UNL     1      22.383  18.465  37.340  1.00  0.00     0.162 A 
BRANCH  13  17
ATOM     17  O   UNL     1      25.660  18.688  35.607  1.00  0.00    -0.504 OA
ATOM     18  H   UNL     1      25.835  17.855  35.057  1.00  0.00     0.293 HD
ENDBRANCH  13  17
BRANCH  15  19
ATOM     19  O   UNL     1      24.224  16.878  37.216  1.00  0.00    -0.502 OA
ATOM     20  H   UNL     1      24.919  16.780  37.945  1.00  0.00     0.293 HD
ENDBRANCH  15  19
BRANCH  16  21
ATOM     21  O   UNL     1      21.651  17.573  38.125  1.00  0.00    -0.504 OA
ATOM     22  H   UNL     1      21.027  16.890  37.712  1.00  0.00     0.293 HD
ENDBRANCH  16  21
ENDBRANCH   1  11
BRANCH  10  23
ATOM     23  O   UNL     1      22.008  22.750  38.125  1.00  0.00    -0.500 OA
ATOM     24  H   UNL     1      22.699  23.316  38.605  1.00  0.00     0.294 HD
ENDBRANCH  10  23
BRANCH   5  25
ATOM     25  O   UNL     1      20.311  24.751  30.821  1.00  0.00    -0.507 OA
ATOM     26  H   UNL     1      21.059  24.579  30.159  1.00  0.00     0.293 HD
ENDBRANCH   5  25
BRANCH   7  27
ATOM     27  O   UNL     1      20.004  26.633  35.244  1.00  0.00    -0.507 OA
ATOM     28  H   UNL     1      19.906  27.580  34.910  1.00  0.00     0.293 HD
ENDBRANCH   7  27
TORSDOF 7
ENDMDL
MODEL 2
REMARK VINA RESULT:     8.790      0.106      1.797
REMARK INTER + INTRA:          10.585
REMARK INTER:                  10.771
REMARK INTRA:                  -0.186
REMARK UNBOUND:                -0.261
REMARK SMILES Oc1cc(O)c2cc(O)c(-c3cc(O)c(O)c(O)c3)[o+]c2c1
REMARK SMILES IDX 10 1 20 2 21 3 22 4 2 5 3 6 4 7 6 8 7 9 8 10 11 11 12 12
REMARK SMILES IDX 13 13 19 14 15 15 17 16 14 17 16 19 18 21 9 23 1 25 5 27
REMARK H PARENT 14 18 16 20 18 22 9 24 1 26 5 28
REMARK Flexibility Score: inf
ROOT
ATOM      1  C   UNL     1      22.000  21.937  35.794  1.00  0.00     0.402 A 
ATOM      2  O   UNL     1      21.770  22.220  34.515  1.00  0.00    -0.202 OA
ATOM      3  C   UNL     1      21.242  23.369  34.105  1.00  0.00     0.368 A 
ATOM      4  C   UNL     1      21.035  23.572  32.738  1.00  0.00     0.162 A 
ATOM      5  C   UNL     1      20.480  24.766  32.279  1.00  0.00     0.128 A 
ATOM      6  C   UNL     1      20.126  25.767  33.191  1.00  0.00     0.093 A 
ATOM      7  C   UNL     1      20.323  25.587  34.565  1.00  0.00     0.136 A 
ATOM      8  C   UNL     1      20.890  24.375  35.036  1.00  0.00     0.125 A 
ATOM      9  C   UNL     1      21.135  24.113  36.394  1.00  0.00     0.078 A 
ATOM     10  C   UNL     1      21.703  22.895  36.782  1.00  0.00     0.223 A 
ENDROOT
BRANCH   1  11
ATOM     11  C   UNL     1      22.584  20.618  36.127  1.00  0.00     0.091 A 
ATOM     12  C   UNL     1      21.874  19.739  36.959  1.00  0.00     0.068 A 
ATOM     13  C   UNL     1      22.409  18.495  37.307  1.00  0.00     0.162 A 
ATOM     14  C   UNL     1      23.862  20.248  35.674  1.00  0.00     0.068 A 
ATOM     15  C   UNL     1      23.678  18.121  36.834  1.00  0.00     0.200 A 
ATOM     16  C   UNL     1      24.407  19.003  36.019  1.00  0.00     0.162 A 
BRANCH  13  17
ATOM     17  O   UNL     1      21.664  17.645  38.124  1.00  0.00    -0.504 OA
ATOM     18  H   UNL     1      22.102  16.977  38.748  1.00  0.00     0.293 HD
ENDBRANCH  13  17
BRANCH  15  19
ATOM     19  O   UNL     1      24.204  16.875  37.184  1.00  0.00    -0.502 OA
ATOM     20  H   UNL     1      23.683  16.016  37.057  1.00  0.00     0.293 HD
ENDBRANCH  15  19
BRANCH  16  21
ATOM     21  O   UNL     1      25.673  18.643  35.558  1.00  0.00    -0.504 OA
ATOM     22  H   UNL     1      26.490  18.695  36.155  1.00  0.00     0.293 HD
ENDBRANCH  16  21
ENDBRANCH   1  11
BRANCH  10  23
ATOM     23  O   UNL     1      21.993  22.654  38.125  1.00  0.00    -0.500 OA
ATOM     24  H   UNL     1      22.901  22.315  38.421  1.00  0.00     0.294 HD
ENDBRANCH  10  23
BRANCH   5  25
ATOM     25  O   UNL     1      20.281  24.950  30.912  1.00  0.00    -0.507 OA
ATOM     26  H   UNL     1      20.990  24.693  30.234  1.00  0.00     0.293 HD
ENDBRANCH   5  25
BRANCH   7  27
ATOM     27  O   UNL     1      19.940  26.631  35.412  1.00  0.00    -0.507 OA
ATOM     28  H   UNL     1      19.537  26.504  36.329  1.00  0.00     0.293 HD
ENDBRANCH   7  27
TORSDOF 7
ENDMDL
