MODEL 1
REMARK VINA RESULT:    -7.321      0.000      0.000
REMARK INTER + INTRA:          -9.115
REMARK INTER:                  -8.819
REMARK INTRA:                  -0.296
REMARK UNBOUND:                -0.296
REMARK SMILES O=c1c(O)c(-c2ccc(O)c(O)c2)oc2cc(O)cc(O)c12
REMARK SMILES IDX 5 1 3 2 2 3 1 4 22 5 20 6 19 7 17 8 16 9 15 10 14 11 6 12
REMARK SMILES IDX 7 13 8 14 9 15 13 16 11 17 10 18 12 20 4 22 21 24 18 26
REMARK H PARENT 10 19 12 21 4 23 21 25 18 27
REMARK Flexibility Score: inf
ROOT
ATOM      1  C   UNL     1      -7.113 -21.916 -20.004  1.00  0.00     0.180 A 
ATOM      2  C   UNL     1      -6.108 -21.114 -19.437  1.00  0.00     0.208 A 
ATOM      3  C   UNL     1      -5.813 -21.256 -18.071  1.00  0.00     0.238 A 
ATOM      4  O   UNL     1      -4.876 -20.574 -17.581  1.00  0.00    -0.285 OA
ATOM      5  C   UNL     1      -6.538 -22.186 -17.287  1.00  0.00     0.111 A 
ATOM      6  C   UNL     1      -6.351 -22.382 -15.885  1.00  0.00     0.134 A 
ATOM      7  C   UNL     1      -7.032 -23.421 -15.237  1.00  0.00     0.093 A 
ATOM      8  C   UNL     1      -7.941 -24.225 -15.924  1.00  0.00     0.123 A 
ATOM      9  C   UNL     1      -8.176 -24.002 -17.282  1.00  0.00     0.094 A 
ATOM     10  C   UNL     1      -7.485 -22.998 -17.963  1.00  0.00     0.146 A 
ATOM     11  O   UNL     1      -7.729 -22.825 -19.257  1.00  0.00    -0.452 OA
ENDROOT
BRANCH   1  12
ATOM     12  C   UNL     1      -7.497 -21.807 -21.429  1.00  0.00     0.025 A 
ATOM     13  C   UNL     1      -6.739 -22.478 -22.402  1.00  0.00     0.016 A 
ATOM     14  C   UNL     1      -7.096 -22.407 -23.751  1.00  0.00     0.051 A 
ATOM     15  C   UNL     1      -8.221 -21.677 -24.147  1.00  0.00     0.157 A 
ATOM     16  C   UNL     1      -8.640 -21.092 -21.828  1.00  0.00     0.062 A 
ATOM     17  C   UNL     1      -9.000 -21.020 -23.181  1.00  0.00     0.158 A 
BRANCH  15  18
ATOM     18  O   UNL     1      -8.550 -21.621 -25.501  1.00  0.00    -0.504 OA
ATOM     19  H   UNL     1      -8.037 -22.143 -26.202  1.00  0.00     0.293 HD
ENDBRANCH  15  18
BRANCH  17  20
ATOM     20  O   UNL     1     -10.133 -20.303 -23.568  1.00  0.00    -0.504 OA
ATOM     21  H   UNL     1     -10.136 -19.290 -23.595  1.00  0.00     0.293 HD
ENDBRANCH  17  20
ENDBRANCH   1  12
BRANCH   2  22
ATOM     22  O   UNL     1      -5.390 -20.219 -20.234  1.00  0.00    -0.502 OA
ATOM     23  H   UNL     1      -5.813 -19.717 -21.006  1.00  0.00     0.293 HD
ENDBRANCH   2  22
BRANCH   6  24
ATOM     24  O   UNL     1      -5.536 -21.577 -15.085  1.00  0.00    -0.507 OA
ATOM     25  H   UNL     1      -5.695 -20.597 -14.906  1.00  0.00     0.293 HD
ENDBRANCH   6  24
BRANCH   8  26
ATOM     26  O   UNL     1      -8.613 -25.239 -15.244  1.00  0.00    -0.508 OA
ATOM     27  H   UNL     1      -9.553 -25.108 -14.891  1.00  0.00     0.293 HD
ENDBRANCH   8  26
TORSDOF 6
ENDMDL
MODEL 2
REMARK VINA RESULT:    -6.477      1.793      3.337
REMARK INTER + INTRA:          -8.098
REMARK INTER:                  -7.781
REMARK INTRA:                  -0.318
REMARK UNBOUND:                -0.296
REMARK SMILES O=c1c(O)c(-c2ccc(O)c(O)c2)oc2cc(O)cc(O)c12
REMARK SMILES IDX 5 1 3 2 2 3 1 4 22 5 20 6 19 7 17 8 16 9 15 10 14 11 6 12
REMARK SMILES IDX 7 13 8 14 9 15 13 16 11 17 10 18 12 20 4 22 21 24 18 26
REMARK H PARENT 10 19 12 21 4 23 21 25 18 27
REMARK Flexibility Score: inf
ROOT
ATOM      1  C   UNL     1      -6.758 -23.189 -20.776  1.00  0.00     0.180 A 
ATOM      2  C   UNL     1      -7.902 -23.948 -20.483  1.00  0.00     0.208 A 
ATOM      3  C   UNL     1      -8.293 -24.104 -19.143  1.00  0.00     0.238 A 
ATOM      4  O   UNL     1      -9.349 -24.740 -18.890  1.00  0.00    -0.285 OA
ATOM      5  C   UNL     1      -7.523 -23.512 -18.112  1.00  0.00     0.111 A 
ATOM      6  C   UNL     1      -7.802 -23.640 -16.718  1.00  0.00     0.134 A 
ATOM      7  C   UNL     1      -7.050 -22.904 -15.794  1.00  0.00     0.093 A 
ATOM      8  C   UNL     1      -5.989 -22.099 -16.206  1.00  0.00     0.123 A 
ATOM      9  C   UNL     1      -5.669 -22.014 -17.563  1.00  0.00     0.094 A 
ATOM     10  C   UNL     1      -6.424 -22.708 -18.511  1.00  0.00     0.146 A 
ATOM     11  O   UNL     1      -6.095 -22.591 -19.792  1.00  0.00    -0.452 OA
ENDROOT
BRANCH   1  12
ATOM     12  C   UNL     1      -6.271 -23.000 -22.162  1.00  0.00     0.025 A 
ATOM     13  C   UNL     1      -5.332 -23.898 -22.692  1.00  0.00     0.016 A 
ATOM     14  C   UNL     1      -4.875 -23.752 -24.005  1.00  0.00     0.051 A 
ATOM     15  C   UNL     1      -5.359 -22.716 -24.810  1.00  0.00     0.157 A 
ATOM     16  C   UNL     1      -6.772 -21.973 -22.980  1.00  0.00     0.062 A 
ATOM     17  C   UNL     1      -6.316 -21.824 -24.298  1.00  0.00     0.158 A 
BRANCH  15  18
ATOM     18  O   UNL     1      -4.883 -22.593 -26.115  1.00  0.00    -0.504 OA
ATOM     19  H   UNL     1      -4.598 -23.398 -26.662  1.00  0.00     0.293 HD
ENDBRANCH  15  18
BRANCH  17  20
ATOM     20  O   UNL     1      -6.814 -20.799 -25.101  1.00  0.00    -0.504 OA
ATOM     21  H   UNL     1      -6.223 -20.307 -25.761  1.00  0.00     0.293 HD
ENDBRANCH  17  20
ENDBRANCH   1  12
BRANCH   2  22
ATOM     22  O   UNL     1      -8.661 -24.505 -21.517  1.00  0.00    -0.502 OA
ATOM     23  H   UNL     1      -8.475 -24.310 -22.494  1.00  0.00     0.293 HD
ENDBRANCH   2  22
BRANCH   6  24
ATOM     24  O   UNL     1      -8.780 -24.488 -16.191  1.00  0.00    -0.507 OA
ATOM     25  H   UNL     1      -9.433 -24.231 -15.467  1.00  0.00     0.293 HD
ENDBRANCH   6  24
BRANCH   8  26
ATOM     26  O   UNL     1      -5.252 -21.393 -15.258  1.00  0.00    -0.508 OA
ATOM     27  H   UNL     1      -5.333 -21.590 -14.268  1.00  0.00     0.293 HD
ENDBRANCH   8  26
TORSDOF 6
ENDMDL
MODEL 3
REMARK VINA RESULT:    -6.462      1.469      6.993
REMARK INTER + INTRA:          -8.080
REMARK INTER:                  -7.775
REMARK INTRA:                  -0.305
REMARK UNBOUND:                -0.296
REMARK SMILES O=c1c(O)c(-c2ccc(O)c(O)c2)oc2cc(O)cc(O)c12
REMARK SMILES IDX 5 1 3 2 2 3 1 4 22 5 20 6 19 7 17 8 16 9 15 10 14 11 6 12
REMARK SMILES IDX 7 13 8 14 9 15 13 16 11 17 10 18 12 20 4 22 21 24 18 26
REMARK H PARENT 10 19 12 21 4 23 21 25 18 27
REMARK Flexibility Score: inf
ROOT
ATOM      1  C   UNL     1      -7.099 -22.397 -20.059  1.00  0.00     0.180 A 
ATOM      2  C   UNL     1      -6.319 -23.067 -21.017  1.00  0.00     0.208 A 
ATOM      3  C   UNL     1      -6.609 -22.885 -22.380  1.00  0.00     0.238 A 
ATOM      4  O   UNL     1      -5.873 -23.445 -23.234  1.00  0.00    -0.285 OA
ATOM      5  C   UNL     1      -7.684 -22.049 -22.765  1.00  0.00     0.111 A 
ATOM      6  C   UNL     1      -8.092 -21.825 -24.115  1.00  0.00     0.134 A 
ATOM      7  C   UNL     1      -9.085 -20.876 -24.387  1.00  0.00     0.093 A 
ATOM      8  C   UNL     1      -9.730 -20.192 -23.357  1.00  0.00     0.123 A 
ATOM      9  C   UNL     1      -9.381 -20.447 -22.030  1.00  0.00     0.094 A 
ATOM     10  C   UNL     1      -8.368 -21.362 -21.729  1.00  0.00     0.146 A 
ATOM     11  O   UNL     1      -8.058 -21.568 -20.455  1.00  0.00    -0.452 OA
ENDROOT
BRANCH   1  12
ATOM     12  C   UNL     1      -6.870 -22.558 -18.606  1.00  0.00     0.025 A 
ATOM     13  C   UNL     1      -5.893 -21.777 -17.969  1.00  0.00     0.016 A 
ATOM     14  C   UNL     1      -5.676 -21.897 -16.594  1.00  0.00     0.051 A 
ATOM     15  C   UNL     1      -6.439 -22.788 -15.833  1.00  0.00     0.157 A 
ATOM     16  C   UNL     1      -7.651 -23.437 -17.834  1.00  0.00     0.062 A 
ATOM     17  C   UNL     1      -7.435 -23.559 -16.454  1.00  0.00     0.158 A 
BRANCH  15  18
ATOM     18  O   UNL     1      -6.197 -22.888 -14.463  1.00  0.00    -0.504 OA
ATOM     19  H   UNL     1      -6.763 -22.399 -13.779  1.00  0.00     0.293 HD
ENDBRANCH  15  18
BRANCH  17  20
ATOM     20  O   UNL     1      -8.210 -24.438 -15.698  1.00  0.00    -0.504 OA
ATOM     21  H   UNL     1      -8.671 -24.140 -14.846  1.00  0.00     0.293 HD
ENDBRANCH  17  20
ENDBRANCH   1  12
BRANCH   2  22
ATOM     22  O   UNL     1      -5.248 -23.870 -20.615  1.00  0.00    -0.502 OA
ATOM     23  H   UNL     1      -5.351 -24.860 -20.425  1.00  0.00     0.293 HD
ENDBRANCH   2  22
BRANCH   6  24
ATOM     24  O   UNL     1      -7.577 -22.520 -25.212  1.00  0.00    -0.507 OA
ATOM     25  H   UNL     1      -7.571 -23.525 -25.304  1.00  0.00     0.293 HD
ENDBRANCH   6  24
BRANCH   8  26
ATOM     26  O   UNL     1     -10.725 -19.266 -23.663  1.00  0.00    -0.508 OA
ATOM     27  H   UNL     1     -10.780 -18.828 -24.574  1.00  0.00     0.293 HD
ENDBRANCH   8  26
TORSDOF 6
ENDMDL
MODEL 4
REMARK VINA RESULT:    -5.798      1.167      2.879
REMARK INTER + INTRA:          -7.280
REMARK INTER:                  -6.985
REMARK INTRA:                  -0.294
REMARK UNBOUND:                -0.296
REMARK SMILES O=c1c(O)c(-c2ccc(O)c(O)c2)oc2cc(O)cc(O)c12
REMARK SMILES IDX 5 1 3 2 2 3 1 4 22 5 20 6 19 7 17 8 16 9 15 10 14 11 6 12
REMARK SMILES IDX 7 13 8 14 9 15 13 16 11 17 10 18 12 20 4 22 21 24 18 26
REMARK H PARENT 10 19 12 21 4 23 21 25 18 27
REMARK Flexibility Score: inf
ROOT
ATOM      1  C   UNL     1      -7.914 -22.659 -20.177  1.00  0.00     0.180 A 
ATOM      2  C   UNL     1      -8.715 -23.719 -19.721  1.00  0.00     0.208 A 
ATOM      3  C   UNL     1      -8.588 -24.146 -18.389  1.00  0.00     0.238 A 
ATOM      4  O   UNL     1      -9.346 -25.059 -17.972  1.00  0.00    -0.285 OA
ATOM      5  C   UNL     1      -7.649 -23.518 -17.535  1.00  0.00     0.111 A 
ATOM      6  C   UNL     1      -7.407 -23.896 -16.180  1.00  0.00     0.134 A 
ATOM      7  C   UNL     1      -6.549 -23.121 -15.390  1.00  0.00     0.093 A 
ATOM      8  C   UNL     1      -5.875 -22.023 -15.922  1.00  0.00     0.123 A 
ATOM      9  C   UNL     1      -6.058 -21.680 -17.263  1.00  0.00     0.094 A 
ATOM     10  C   UNL     1      -6.935 -22.413 -18.066  1.00  0.00     0.146 A 
ATOM     11  O   UNL     1      -7.090 -22.047 -19.334  1.00  0.00    -0.452 OA
ENDROOT
BRANCH   1  12
ATOM     12  C   UNL     1      -7.974 -22.170 -21.573  1.00  0.00     0.025 A 
ATOM     13  C   UNL     1      -7.036 -22.634 -22.508  1.00  0.00     0.016 A 
ATOM     14  C   UNL     1      -7.087 -22.202 -23.837  1.00  0.00     0.051 A 
ATOM     15  C   UNL     1      -8.083 -21.314 -24.253  1.00  0.00     0.157 A 
ATOM     16  C   UNL     1      -8.988 -21.294 -21.999  1.00  0.00     0.062 A 
ATOM     17  C   UNL     1      -9.042 -20.860 -23.332  1.00  0.00     0.158 A 
BRANCH  15  18
ATOM     18  O   UNL     1      -8.107 -20.898 -25.584  1.00  0.00    -0.504 OA
ATOM     19  H   UNL     1      -8.378 -19.958 -25.850  1.00  0.00     0.293 HD
ENDBRANCH  15  18
BRANCH  17  20
ATOM     20  O   UNL     1     -10.047 -19.986 -23.744  1.00  0.00    -0.504 OA
ATOM     21  H   UNL     1      -9.842 -19.169 -24.307  1.00  0.00     0.293 HD
ENDBRANCH  17  20
ENDBRANCH   1  12
BRANCH   2  22
ATOM     22  O   UNL     1      -9.652 -24.310 -20.574  1.00  0.00    -0.502 OA
ATOM     23  H   UNL     1      -9.494 -24.408 -21.571  1.00  0.00     0.293 HD
ENDBRANCH   2  22
BRANCH   6  24
ATOM     24  O   UNL     1      -7.958 -25.029 -15.575  1.00  0.00    -0.507 OA
ATOM     25  H   UNL     1      -7.582 -25.962 -15.653  1.00  0.00     0.293 HD
ENDBRANCH   6  24
BRANCH   8  26
ATOM     26  O   UNL     1      -5.016 -21.283 -15.112  1.00  0.00    -0.508 OA
ATOM     27  H   UNL     1      -5.336 -20.853 -14.253  1.00  0.00     0.293 HD
ENDBRANCH   8  26
TORSDOF 6
ENDMDL
MODEL 5
REMARK VINA RESULT:    -5.432      2.795      6.748
REMARK INTER + INTRA:          -6.839
REMARK INTER:                  -6.611
REMARK INTRA:                  -0.229
REMARK UNBOUND:                -0.296
REMARK SMILES O=c1c(O)c(-c2ccc(O)c(O)c2)oc2cc(O)cc(O)c12
REMARK SMILES IDX 5 1 3 2 2 3 1 4 22 5 20 6 19 7 17 8 16 9 15 10 14 11 6 12
REMARK SMILES IDX 7 13 8 14 9 15 13 16 11 17 10 18 12 20 4 22 21 24 18 26
REMARK H PARENT 10 19 12 21 4 23 21 25 18 27
REMARK Flexibility Score: inf
ROOT
ATOM      1  C   UNL     1      -6.392 -23.357 -19.560  1.00  0.00     0.180 A 
ATOM      2  C   UNL     1      -6.358 -22.328 -20.516  1.00  0.00     0.208 A 
ATOM      3  C   UNL     1      -5.971 -22.632 -21.832  1.00  0.00     0.238 A 
ATOM      4  O   UNL     1      -5.994 -21.717 -22.695  1.00  0.00    -0.285 OA
ATOM      5  C   UNL     1      -5.606 -23.957 -22.170  1.00  0.00     0.111 A 
ATOM      6  C   UNL     1      -5.157 -24.369 -23.461  1.00  0.00     0.134 A 
ATOM      7  C   UNL     1      -4.948 -25.730 -23.716  1.00  0.00     0.093 A 
ATOM      8  C   UNL     1      -5.107 -26.685 -22.713  1.00  0.00     0.123 A 
ATOM      9  C   UNL     1      -5.487 -26.286 -21.430  1.00  0.00     0.094 A 
ATOM     10  C   UNL     1      -5.738 -24.940 -21.154  1.00  0.00     0.146 A 
ATOM     11  O   UNL     1      -6.108 -24.603 -19.924  1.00  0.00    -0.452 OA
ENDROOT
BRANCH   1  12
ATOM     12  C   UNL     1      -6.767 -23.110 -18.150  1.00  0.00     0.025 A 
ATOM     13  C   UNL     1      -7.941 -23.682 -17.636  1.00  0.00     0.016 A 
ATOM     14  C   UNL     1      -8.303 -23.479 -16.302  1.00  0.00     0.051 A 
ATOM     15  C   UNL     1      -7.490 -22.716 -15.457  1.00  0.00     0.157 A 
ATOM     16  C   UNL     1      -5.941 -22.361 -17.293  1.00  0.00     0.062 A 
ATOM     17  C   UNL     1      -6.301 -22.157 -15.953  1.00  0.00     0.158 A 
BRANCH  15  18
ATOM     18  O   UNL     1      -7.879 -22.529 -14.131  1.00  0.00    -0.504 OA
ATOM     19  H   UNL     1      -8.677 -23.008 -13.732  1.00  0.00     0.293 HD
ENDBRANCH  15  18
BRANCH  17  20
ATOM     20  O   UNL     1      -5.479 -21.407 -15.112  1.00  0.00    -0.504 OA
ATOM     21  H   UNL     1      -4.808 -20.743 -15.480  1.00  0.00     0.293 HD
ENDBRANCH  17  20
ENDBRANCH   1  12
BRANCH   2  22
ATOM     22  O   UNL     1      -6.744 -21.031 -20.167  1.00  0.00    -0.502 OA
ATOM     23  H   UNL     1      -6.085 -20.339 -19.829  1.00  0.00     0.293 HD
ENDBRANCH   2  22
BRANCH   6  24
ATOM     24  O   UNL     1      -4.879 -23.488 -24.509  1.00  0.00    -0.507 OA
ATOM     25  H   UNL     1      -4.138 -22.804 -24.503  1.00  0.00     0.293 HD
ENDBRANCH   6  24
BRANCH   8  26
ATOM     26  O   UNL     1      -4.875 -28.029 -22.998  1.00  0.00    -0.508 OA
ATOM     27  H   UNL     1      -5.488 -28.554 -23.610  1.00  0.00     0.293 HD
ENDBRANCH   8  26
TORSDOF 6
ENDMDL
