MODEL 1
REMARK VINA RESULT:    -3.668      0.000      0.000
REMARK INTER + INTRA:         -14.529
REMARK INTER:                  -9.242
REMARK INTRA:                  -5.286
REMARK UNBOUND:                -5.286
REMARK SMILES CCCCCCCCCCCCCCCCCCCCCCCCCCCC(=O)[O-]
REMARK SMILES IDX 15 1 16 2 17 3 18 4 19 5 20 6 21 7 22 8 23 9 24 10 25 11
REMARK SMILES IDX 26 12 27 13 28 14 29 15 30 16 14 17 13 18 12 19 11 20 10 21
REMARK SMILES IDX 9 22 8 23 7 24 6 25 5 26 4 27 3 28 2 29 1 30
REMARK H PARENT
REMARK Flexibility Score: inf
ROOT
ATOM      1  C   UNL     1      -1.192  30.390  -1.033  1.00  0.00     0.000 C 
ENDROOT
BRANCH   1   2
ATOM      2  C   UNL     1      -2.212  30.104  -2.146  1.00  0.00     0.000 C 
BRANCH   2   3
ATOM      3  C   UNL     1      -2.565  28.611  -2.265  1.00  0.00     0.000 C 
BRANCH   3   4
ATOM      4  C   UNL     1      -4.031  28.316  -2.634  1.00  0.00     0.000 C 
BRANCH   4   5
ATOM      5  C   UNL     1      -4.700  27.320  -1.671  1.00  0.00     0.000 C 
BRANCH   5   6
ATOM      6  C   UNL     1      -3.773  26.909  -0.514  1.00  0.00     0.000 C 
BRANCH   6   7
ATOM      7  C   UNL     1      -3.518  25.393  -0.475  1.00  0.00     0.000 C 
BRANCH   7   8
ATOM      8  C   UNL     1      -2.727  24.950   0.770  1.00  0.00     0.000 C 
BRANCH   8   9
ATOM      9  C   UNL     1      -2.775  25.931   1.956  1.00  0.00     0.000 C 
BRANCH   9  10
ATOM     10  C   UNL     1      -3.837  25.554   3.000  1.00  0.00     0.000 C 
BRANCH  10  11
ATOM     11  C   UNL     1      -4.978  26.583   3.018  1.00  0.00     0.000 C 
BRANCH  11  12
ATOM     12  C   UNL     1      -6.322  25.976   3.447  1.00  0.00     0.006 C 
BRANCH  12  13
ATOM     13  C   UNL     1      -7.409  26.113   2.368  1.00  0.00     0.053 C 
BRANCH  13  14
ATOM     14  C   UNL     1      -7.138  25.205   1.207  1.00  0.00     0.041 C 
ATOM     15  O   UNL     1      -7.110  25.661   0.032  1.00  0.00    -0.550 OA
ATOM     16  O   UNL     1      -6.953  23.845   1.419  1.00  0.00    -0.550 OA
ENDBRANCH  13  14
ENDBRANCH  12  13
ENDBRANCH  11  12
ENDBRANCH  10  11
ENDBRANCH   9  10
ENDBRANCH   8   9
ENDBRANCH   7   8
ENDBRANCH   6   7
ENDBRANCH   5   6
ENDBRANCH   4   5
ENDBRANCH   3   4
ENDBRANCH   2   3
ENDBRANCH   1   2
BRANCH   1  17
ATOM     17  C   UNL     1      -0.438  29.112  -0.639  1.00  0.00     0.000 C 
BRANCH  17  18
ATOM     18  C   UNL     1      -0.661  28.719   0.833  1.00  0.00     0.000 C 
BRANCH  18  19
ATOM     19  C   UNL     1      -0.632  29.896   1.830  1.00  0.00     0.000 C 
BRANCH  19  20
ATOM     20  C   UNL     1      -1.908  30.073   2.676  1.00  0.00     0.000 C 
BRANCH  20  21
ATOM     21  C   UNL     1      -3.210  29.592   2.008  1.00  0.00     0.000 C 
BRANCH  21  22
ATOM     22  C   UNL     1      -3.960  30.723   1.282  1.00  0.00    -0.000 C 
BRANCH  22  23
ATOM     23  C   UNL     1      -5.232  30.229   0.574  1.00  0.00    -0.000 C 
BRANCH  23  24
ATOM     24  C   UNL     1      -5.964  31.345  -0.187  1.00  0.00    -0.000 C 
BRANCH  24  25
ATOM     25  C   UNL     1      -6.172  30.955  -1.660  1.00  0.00    -0.000 C 
BRANCH  25  26
ATOM     26  C   UNL     1      -5.814  32.086  -2.640  1.00  0.00    -0.000 C 
BRANCH  26  27
ATOM     27  C   UNL     1      -5.908  33.510  -2.061  1.00  0.00    -0.000 C 
BRANCH  27  28
ATOM     28  C   UNL     1      -4.741  34.413  -2.500  1.00  0.00    -0.000 C 
BRANCH  28  29
ATOM     29  C   UNL     1      -3.878  34.880  -1.316  1.00  0.00    -0.003 C 
ATOM     30  C   UNL     1      -3.114  33.734  -0.651  1.00  0.00     0.004 C 
ENDBRANCH  28  29
ENDBRANCH  27  28
ENDBRANCH  26  27
ENDBRANCH  25  26
ENDBRANCH  24  25
ENDBRANCH  23  24
ENDBRANCH  22  23
ENDBRANCH  21  22
ENDBRANCH  20  21
ENDBRANCH  19  20
ENDBRANCH  18  19
ENDBRANCH  17  18
ENDBRANCH   1  17
TORSDOF 26
ENDMDL
MODEL 2
REMARK VINA RESULT:    -3.576      2.662      7.616
REMARK INTER + INTRA:         -14.297
REMARK INTER:                  -9.541
REMARK INTRA:                  -4.756
REMARK UNBOUND:                -5.286
REMARK SMILES CCCCCCCCCCCCCCCCCCCCCCCCCCCC(=O)[O-]
REMARK SMILES IDX 15 1 16 2 17 3 18 4 19 5 20 6 21 7 22 8 23 9 24 10 25 11
REMARK SMILES IDX 26 12 27 13 28 14 29 15 30 16 14 17 13 18 12 19 11 20 10 21
REMARK SMILES IDX 9 22 8 23 7 24 6 25 5 26 4 27 3 28 2 29 1 30
REMARK H PARENT
REMARK Flexibility Score: inf
ROOT
ATOM      1  C   UNL     1      -6.414  25.451   0.668  1.00  0.00     0.000 C 
ENDROOT
BRANCH   1   2
ATOM      2  C   UNL     1      -5.819  24.783   1.918  1.00  0.00     0.000 C 
BRANCH   2   3
ATOM      3  C   UNL     1      -4.281  24.724   1.891  1.00  0.00     0.000 C 
BRANCH   3   4
ATOM      4  C   UNL     1      -3.580  25.491   3.028  1.00  0.00     0.000 C 
BRANCH   4   5
ATOM      5  C   UNL     1      -2.837  26.744   2.534  1.00  0.00     0.000 C 
BRANCH   5   6
ATOM      6  C   UNL     1      -3.017  27.944   3.478  1.00  0.00     0.000 C 
BRANCH   6   7
ATOM      7  C   UNL     1      -1.830  28.920   3.422  1.00  0.00     0.000 C 
BRANCH   7   8
ATOM      8  C   UNL     1      -2.115  30.162   2.557  1.00  0.00     0.000 C 
BRANCH   8   9
ATOM      9  C   UNL     1      -1.558  30.098   1.122  1.00  0.00     0.000 C 
BRANCH   9  10
ATOM     10  C   UNL     1      -2.635  30.334   0.052  1.00  0.00     0.000 C 
BRANCH  10  11
ATOM     11  C   UNL     1      -4.028  29.971   0.586  1.00  0.00     0.000 C 
BRANCH  11  12
ATOM     12  C   UNL     1      -5.044  31.113   0.431  1.00  0.00     0.006 C 
BRANCH  12  13
ATOM     13  C   UNL     1      -5.786  31.073  -0.914  1.00  0.00     0.053 C 
BRANCH  13  14
ATOM     14  C   UNL     1      -7.137  31.713  -0.808  1.00  0.00     0.041 C 
ATOM     15  O   UNL     1      -7.572  32.447  -1.737  1.00  0.00    -0.550 OA
ATOM     16  O   UNL     1      -7.903  31.530   0.336  1.00  0.00    -0.550 OA
ENDBRANCH  13  14
ENDBRANCH  12  13
ENDBRANCH  11  12
ENDBRANCH  10  11
ENDBRANCH   9  10
ENDBRANCH   8   9
ENDBRANCH   7   8
ENDBRANCH   6   7
ENDBRANCH   5   6
ENDBRANCH   4   5
ENDBRANCH   3   4
ENDBRANCH   2   3
ENDBRANCH   1   2
BRANCH   1  17
ATOM     17  C   UNL     1      -5.663  26.747   0.329  1.00  0.00     0.000 C 
BRANCH  17  18
ATOM     18  C   UNL     1      -5.690  27.074  -1.175  1.00  0.00     0.000 C 
BRANCH  18  19
ATOM     19  C   UNL     1      -4.415  26.678  -1.948  1.00  0.00     0.000 C 
BRANCH  19  20
ATOM     20  C   UNL     1      -3.218  26.259  -1.070  1.00  0.00     0.000 C 
BRANCH  20  21
ATOM     21  C   UNL     1      -1.910  27.029  -1.335  1.00  0.00     0.000 C 
BRANCH  21  22
ATOM     22  C   UNL     1      -0.723  26.485  -0.520  1.00  0.00    -0.000 C 
BRANCH  22  23
ATOM     23  C   UNL     1      -1.021  25.119   0.118  1.00  0.00    -0.000 C 
BRANCH  23  24
ATOM     24  C   UNL     1      -0.045  24.022  -0.335  1.00  0.00    -0.000 C 
BRANCH  24  25
ATOM     25  C   UNL     1      -0.566  23.315  -1.597  1.00  0.00    -0.000 C 
BRANCH  25  26
ATOM     26  C   UNL     1      -1.047  21.878  -1.328  1.00  0.00    -0.000 C 
BRANCH  26  27
ATOM     27  C   UNL     1      -1.835  21.684  -0.019  1.00  0.00    -0.000 C 
BRANCH  27  28
ATOM     28  C   UNL     1      -3.358  21.777  -0.217  1.00  0.00    -0.000 C 
BRANCH  28  29
ATOM     29  C   UNL     1      -3.748  22.032  -1.682  1.00  0.00    -0.003 C 
ATOM     30  C   UNL     1      -4.892  23.037  -1.825  1.00  0.00     0.004 C 
ENDBRANCH  28  29
ENDBRANCH  27  28
ENDBRANCH  26  27
ENDBRANCH  25  26
ENDBRANCH  24  25
ENDBRANCH  23  24
ENDBRANCH  22  23
ENDBRANCH  21  22
ENDBRANCH  20  21
ENDBRANCH  19  20
ENDBRANCH  18  19
ENDBRANCH  17  18
ENDBRANCH   1  17
TORSDOF 26
ENDMDL
MODEL 3
REMARK VINA RESULT:    -3.559      1.932      3.778
REMARK INTER + INTRA:         -14.255
REMARK INTER:                  -9.003
REMARK INTRA:                  -5.252
REMARK UNBOUND:                -5.286
REMARK SMILES CCCCCCCCCCCCCCCCCCCCCCCCCCCC(=O)[O-]
REMARK SMILES IDX 15 1 16 2 17 3 18 4 19 5 20 6 21 7 22 8 23 9 24 10 25 11
REMARK SMILES IDX 26 12 27 13 28 14 29 15 30 16 14 17 13 18 12 19 11 20 10 21
REMARK SMILES IDX 9 22 8 23 7 24 6 25 5 26 4 27 3 28 2 29 1 30
REMARK H PARENT
REMARK Flexibility Score: inf
ROOT
ATOM      1  C   UNL     1      -2.868  26.915   2.707  1.00  0.00     0.000 C 
ENDROOT
BRANCH   1   2
ATOM      2  C   UNL     1      -2.496  25.856   1.659  1.00  0.00     0.000 C 
BRANCH   2   3
ATOM      3  C   UNL     1      -1.456  26.359   0.641  1.00  0.00     0.000 C 
BRANCH   3   4
ATOM      4  C   UNL     1      -1.314  25.496  -0.626  1.00  0.00     0.000 C 
BRANCH   4   5
ATOM      5  C   UNL     1       0.028  24.748  -0.692  1.00  0.00     0.000 C 
BRANCH   5   6
ATOM      6  C   UNL     1      -0.151  23.220  -0.690  1.00  0.00     0.000 C 
BRANCH   6   7
ATOM      7  C   UNL     1      -1.229  22.755   0.303  1.00  0.00     0.000 C 
BRANCH   7   8
ATOM      8  C   UNL     1      -2.205  21.732  -0.308  1.00  0.00     0.000 C 
BRANCH   8   9
ATOM      9  C   UNL     1      -3.653  22.231  -0.471  1.00  0.00     0.000 C 
BRANCH   9  10
ATOM     10  C   UNL     1      -3.905  22.899  -1.831  1.00  0.00     0.000 C 
BRANCH  10  11
ATOM     11  C   UNL     1      -5.025  23.945  -1.728  1.00  0.00     0.000 C 
BRANCH  11  12
ATOM     12  C   UNL     1      -4.999  24.719  -0.401  1.00  0.00     0.006 C 
BRANCH  12  13
ATOM     13  C   UNL     1      -6.391  25.205   0.034  1.00  0.00     0.053 C 
BRANCH  13  14
ATOM     14  C   UNL     1      -6.372  25.716   1.442  1.00  0.00     0.041 C 
ATOM     15  O   UNL     1      -6.017  24.965   2.391  1.00  0.00    -0.550 OA
ATOM     16  O   UNL     1      -6.784  27.015   1.714  1.00  0.00    -0.550 OA
ENDBRANCH  13  14
ENDBRANCH  12  13
ENDBRANCH  11  12
ENDBRANCH  10  11
ENDBRANCH   9  10
ENDBRANCH   8   9
ENDBRANCH   7   8
ENDBRANCH   6   7
ENDBRANCH   5   6
ENDBRANCH   4   5
ENDBRANCH   3   4
ENDBRANCH   2   3
ENDBRANCH   1   2
BRANCH   1  17
ATOM     17  C   UNL     1      -1.911  28.114   2.639  1.00  0.00     0.000 C 
BRANCH  17  18
ATOM     18  C   UNL     1      -2.380  29.300   3.502  1.00  0.00     0.000 C 
BRANCH  18  19
ATOM     19  C   UNL     1      -2.788  30.558   2.707  1.00  0.00     0.000 C 
BRANCH  19  20
ATOM     20  C   UNL     1      -3.730  30.304   1.513  1.00  0.00     0.000 C 
BRANCH  20  21
ATOM     21  C   UNL     1      -3.101  30.522   0.124  1.00  0.00     0.000 C 
BRANCH  21  22
ATOM     22  C   UNL     1      -3.139  29.258  -0.752  1.00  0.00    -0.000 C 
BRANCH  22  23
ATOM     23  C   UNL     1      -4.431  28.447  -0.564  1.00  0.00    -0.000 C 
BRANCH  23  24
ATOM     24  C   UNL     1      -5.212  28.255  -1.874  1.00  0.00    -0.000 C 
BRANCH  24  25
ATOM     25  C   UNL     1      -4.658  29.170  -2.978  1.00  0.00    -0.000 C 
BRANCH  25  26
ATOM     26  C   UNL     1      -5.564  30.379  -3.270  1.00  0.00    -0.000 C 
BRANCH  26  27
ATOM     27  C   UNL     1      -4.993  31.744  -2.842  1.00  0.00    -0.000 C 
BRANCH  27  28
ATOM     28  C   UNL     1      -5.794  32.396  -1.701  1.00  0.00    -0.000 C 
BRANCH  28  29
ATOM     29  C   UNL     1      -6.881  31.466  -1.136  1.00  0.00    -0.003 C 
ATOM     30  C   UNL     1      -7.095  31.650   0.367  1.00  0.00     0.004 C 
ENDBRANCH  28  29
ENDBRANCH  27  28
ENDBRANCH  26  27
ENDBRANCH  25  26
ENDBRANCH  24  25
ENDBRANCH  23  24
ENDBRANCH  22  23
ENDBRANCH  21  22
ENDBRANCH  20  21
ENDBRANCH  19  20
ENDBRANCH  18  19
ENDBRANCH  17  18
ENDBRANCH   1  17
TORSDOF 26
ENDMDL
MODEL 4
REMARK VINA RESULT:    -3.519      2.678      6.146
REMARK INTER + INTRA:         -14.154
REMARK INTER:                  -9.084
REMARK INTRA:                  -5.071
REMARK UNBOUND:                -5.286
REMARK SMILES CCCCCCCCCCCCCCCCCCCCCCCCCCCC(=O)[O-]
REMARK SMILES IDX 15 1 16 2 17 3 18 4 19 5 20 6 21 7 22 8 23 9 24 10 25 11
REMARK SMILES IDX 26 12 27 13 28 14 29 15 30 16 14 17 13 18 12 19 11 20 10 21
REMARK SMILES IDX 9 22 8 23 7 24 6 25 5 26 4 27 3 28 2 29 1 30
REMARK H PARENT
REMARK Flexibility Score: inf
ROOT
ATOM      1  C   UNL     1      -1.694  27.480  -0.885  1.00  0.00     0.000 C 
ENDROOT
BRANCH   1   2
ATOM      2  C   UNL     1      -0.754  26.429  -0.276  1.00  0.00     0.000 C 
BRANCH   2   3
ATOM      3  C   UNL     1      -1.491  25.153   0.169  1.00  0.00     0.000 C 
BRANCH   3   4
ATOM      4  C   UNL     1      -0.698  23.845  -0.012  1.00  0.00     0.000 C 
BRANCH   4   5
ATOM      5  C   UNL     1      -1.591  22.594   0.038  1.00  0.00     0.000 C 
BRANCH   5   6
ATOM      6  C   UNL     1      -1.827  21.985  -1.354  1.00  0.00     0.000 C 
BRANCH   6   7
ATOM      7  C   UNL     1      -3.008  22.640  -2.090  1.00  0.00     0.000 C 
BRANCH   7   8
ATOM      8  C   UNL     1      -4.172  23.007  -1.150  1.00  0.00     0.000 C 
BRANCH   8   9
ATOM      9  C   UNL     1      -5.198  23.994  -1.738  1.00  0.00     0.000 C 
BRANCH   9  10
ATOM     10  C   UNL     1      -4.722  25.453  -1.687  1.00  0.00     0.000 C 
BRANCH  10  11
ATOM     11  C   UNL     1      -5.900  26.405  -1.427  1.00  0.00     0.000 C 
BRANCH  11  12
ATOM     12  C   UNL     1      -5.450  27.841  -1.119  1.00  0.00     0.006 C 
BRANCH  12  13
ATOM     13  C   UNL     1      -5.405  28.733  -2.371  1.00  0.00     0.053 C 
BRANCH  13  14
ATOM     14  C   UNL     1      -5.395  30.186  -2.002  1.00  0.00     0.041 C 
ATOM     15  O   UNL     1      -4.999  30.554  -0.863  1.00  0.00    -0.550 OA
ATOM     16  O   UNL     1      -5.859  31.133  -2.906  1.00  0.00    -0.550 OA
ENDBRANCH  13  14
ENDBRANCH  12  13
ENDBRANCH  11  12
ENDBRANCH  10  11
ENDBRANCH   9  10
ENDBRANCH   8   9
ENDBRANCH   7   8
ENDBRANCH   6   7
ENDBRANCH   5   6
ENDBRANCH   4   5
ENDBRANCH   3   4
ENDBRANCH   2   3
ENDBRANCH   1   2
BRANCH   1  17
ATOM     17  C   UNL     1      -1.396  28.877  -0.318  1.00  0.00     0.000 C 
BRANCH  17  18
ATOM     18  C   UNL     1      -0.713  28.826   1.061  1.00  0.00     0.000 C 
BRANCH  18  19
ATOM     19  C   UNL     1      -1.657  29.046   2.261  1.00  0.00     0.000 C 
BRANCH  19  20
ATOM     20  C   UNL     1      -3.152  29.181   1.905  1.00  0.00     0.000 C 
BRANCH  20  21
ATOM     21  C   UNL     1      -4.014  27.945   2.220  1.00  0.00     0.000 C 
BRANCH  21  22
ATOM     22  C   UNL     1      -3.334  26.978   3.205  1.00  0.00    -0.000 C 
BRANCH  22  23
ATOM     23  C   UNL     1      -3.783  25.521   3.009  1.00  0.00    -0.000 C 
BRANCH  23  24
ATOM     24  C   UNL     1      -4.702  25.337   1.791  1.00  0.00    -0.000 C 
BRANCH  24  25
ATOM     25  C   UNL     1      -5.882  24.414   2.134  1.00  0.00    -0.000 C 
BRANCH  25  26
ATOM     26  C   UNL     1      -7.252  25.051   1.840  1.00  0.00    -0.000 C 
BRANCH  26  27
ATOM     27  C   UNL     1      -7.795  25.977   2.944  1.00  0.00    -0.000 C 
BRANCH  27  28
ATOM     28  C   UNL     1      -7.569  25.416   4.359  1.00  0.00    -0.000 C 
BRANCH  28  29
ATOM     29  C   UNL     1      -6.698  26.339   5.228  1.00  0.00    -0.003 C 
ATOM     30  C   UNL     1      -7.036  26.243   6.717  1.00  0.00     0.004 C 
ENDBRANCH  28  29
ENDBRANCH  27  28
ENDBRANCH  26  27
ENDBRANCH  25  26
ENDBRANCH  24  25
ENDBRANCH  23  24
ENDBRANCH  22  23
ENDBRANCH  21  22
ENDBRANCH  20  21
ENDBRANCH  19  20
ENDBRANCH  18  19
ENDBRANCH  17  18
ENDBRANCH   1  17
TORSDOF 26
ENDMDL
MODEL 5
REMARK VINA RESULT:    -3.517      2.896      5.319
REMARK INTER + INTRA:         -14.150
REMARK INTER:                  -8.639
REMARK INTRA:                  -5.510
REMARK UNBOUND:                -5.286
REMARK SMILES CCCCCCCCCCCCCCCCCCCCCCCCCCCC(=O)[O-]
REMARK SMILES IDX 15 1 16 2 17 3 18 4 19 5 20 6 21 7 22 8 23 9 24 10 25 11
REMARK SMILES IDX 26 12 27 13 28 14 29 15 30 16 14 17 13 18 12 19 11 20 10 21
REMARK SMILES IDX 9 22 8 23 7 24 6 25 5 26 4 27 3 28 2 29 1 30
REMARK H PARENT
REMARK Flexibility Score: inf
ROOT
ATOM      1  C   UNL     1      -2.372  26.613   0.902  1.00  0.00     0.000 C 
ENDROOT
BRANCH   1   2
ATOM      2  C   UNL     1      -2.665  26.795   2.399  1.00  0.00     0.000 C 
BRANCH   2   3
ATOM      3  C   UNL     1      -3.424  25.603   3.010  1.00  0.00     0.000 C 
BRANCH   3   4
ATOM      4  C   UNL     1      -4.903  25.874   3.342  1.00  0.00     0.000 C 
BRANCH   4   5
ATOM      5  C   UNL     1      -5.869  25.241   2.325  1.00  0.00     0.000 C 
BRANCH   5   6
ATOM      6  C   UNL     1      -5.239  24.053   1.579  1.00  0.00     0.000 C 
BRANCH   6   7
ATOM      7  C   UNL     1      -5.287  24.226   0.051  1.00  0.00     0.000 C 
BRANCH   7   8
ATOM      8  C   UNL     1      -3.982  23.793  -0.643  1.00  0.00     0.000 C 
BRANCH   8   9
ATOM      9  C   UNL     1      -3.212  22.662   0.064  1.00  0.00     0.000 C 
BRANCH   9  10
ATOM     10  C   UNL     1      -1.790  22.472  -0.485  1.00  0.00     0.000 C 
BRANCH  10  11
ATOM     11  C   UNL     1      -0.800  23.410   0.221  1.00  0.00     0.000 C 
BRANCH  11  12
ATOM     12  C   UNL     1       0.201  24.060  -0.748  1.00  0.00     0.006 C 
BRANCH  12  13
ATOM     13  C   UNL     1      -0.421  25.198  -1.572  1.00  0.00     0.053 C 
BRANCH  13  14
ATOM     14  C   UNL     1       0.412  25.513  -2.778  1.00  0.00     0.041 C 
ATOM     15  O   UNL     1       0.063  26.425  -3.576  1.00  0.00    -0.550 OA
ATOM     16  O   UNL     1       1.557  24.774  -3.041  1.00  0.00    -0.550 OA
ENDBRANCH  13  14
ENDBRANCH  12  13
ENDBRANCH  11  12
ENDBRANCH  10  11
ENDBRANCH   9  10
ENDBRANCH   8   9
ENDBRANCH   7   8
ENDBRANCH   6   7
ENDBRANCH   5   6
ENDBRANCH   4   5
ENDBRANCH   3   4
ENDBRANCH   2   3
ENDBRANCH   1   2
BRANCH   1  17
ATOM     17  C   UNL     1      -3.349  27.433   0.047  1.00  0.00     0.000 C 
BRANCH  17  18
ATOM     18  C   UNL     1      -4.256  28.347   0.891  1.00  0.00     0.000 C 
BRANCH  18  19
ATOM     19  C   UNL     1      -4.371  29.798   0.379  1.00  0.00     0.000 C 
BRANCH  19  20
ATOM     20  C   UNL     1      -3.686  30.862   1.260  1.00  0.00     0.000 C 
BRANCH  20  21
ATOM     21  C   UNL     1      -2.442  30.375   2.027  1.00  0.00     0.000 C 
BRANCH  21  22
ATOM     22  C   UNL     1      -1.126  30.723   1.311  1.00  0.00    -0.000 C 
BRANCH  22  23
ATOM     23  C   UNL     1      -0.162  29.529   1.232  1.00  0.00    -0.000 C 
BRANCH  23  24
ATOM     24  C   UNL     1       0.025  29.006  -0.201  1.00  0.00    -0.000 C 
BRANCH  24  25
ATOM     25  C   UNL     1      -0.466  30.039  -1.227  1.00  0.00    -0.000 C 
BRANCH  25  26
ATOM     26  C   UNL     1      -1.352  29.425  -2.326  1.00  0.00    -0.000 C 
BRANCH  26  27
ATOM     27  C   UNL     1      -2.589  30.258  -2.712  1.00  0.00    -0.000 C 
BRANCH  27  28
ATOM     28  C   UNL     1      -2.509  31.712  -2.216  1.00  0.00    -0.000 C 
BRANCH  28  29
ATOM     29  C   UNL     1      -3.820  32.485  -2.438  1.00  0.00    -0.003 C 
ATOM     30  C   UNL     1      -3.779  33.380  -3.677  1.00  0.00     0.004 C 
ENDBRANCH  28  29
ENDBRANCH  27  28
ENDBRANCH  26  27
ENDBRANCH  25  26
ENDBRANCH  24  25
ENDBRANCH  23  24
ENDBRANCH  22  23
ENDBRANCH  21  22
ENDBRANCH  20  21
ENDBRANCH  19  20
ENDBRANCH  18  19
ENDBRANCH  17  18
ENDBRANCH   1  17
TORSDOF 26
ENDMDL
MODEL 6
REMARK VINA RESULT:    -3.516      2.288      6.791
REMARK INTER + INTRA:         -14.147
REMARK INTER:                  -9.314
REMARK INTRA:                  -4.834
REMARK UNBOUND:                -5.286
REMARK SMILES CCCCCCCCCCCCCCCCCCCCCCCCCCCC(=O)[O-]
REMARK SMILES IDX 15 1 16 2 17 3 18 4 19 5 20 6 21 7 22 8 23 9 24 10 25 11
REMARK SMILES IDX 26 12 27 13 28 14 29 15 30 16 14 17 13 18 12 19 11 20 10 21
REMARK SMILES IDX 9 22 8 23 7 24 6 25 5 26 4 27 3 28 2 29 1 30
REMARK H PARENT
REMARK Flexibility Score: inf
ROOT
ATOM      1  C   UNL     1      -2.457  26.663  -0.747  1.00  0.00     0.000 C 
ENDROOT
BRANCH   1   2
ATOM      2  C   UNL     1      -1.097  26.828  -0.052  1.00  0.00     0.000 C 
BRANCH   2   3
ATOM      3  C   UNL     1      -0.157  27.794  -0.796  1.00  0.00     0.000 C 
BRANCH   3   4
ATOM      4  C   UNL     1       0.086  29.140  -0.088  1.00  0.00     0.000 C 
BRANCH   4   5
ATOM      5  C   UNL     1      -0.398  29.143   1.372  1.00  0.00     0.000 C 
BRANCH   5   6
ATOM      6  C   UNL     1      -1.257  30.375   1.703  1.00  0.00     0.000 C 
BRANCH   6   7
ATOM      7  C   UNL     1      -1.695  31.144   0.444  1.00  0.00     0.000 C 
BRANCH   7   8
ATOM      8  C   UNL     1      -3.189  31.516   0.458  1.00  0.00     0.000 C 
BRANCH   8   9
ATOM      9  C   UNL     1      -3.599  32.604  -0.551  1.00  0.00     0.000 C 
BRANCH   9  10
ATOM     10  C   UNL     1      -3.122  32.306  -1.980  1.00  0.00     0.000 C 
BRANCH  10  11
ATOM     11  C   UNL     1      -3.744  31.003  -2.505  1.00  0.00     0.000 C 
BRANCH  11  12
ATOM     12  C   UNL     1      -5.221  31.161  -2.895  1.00  0.00     0.006 C 
BRANCH  12  13
ATOM     13  C   UNL     1      -6.175  30.454  -1.918  1.00  0.00     0.053 C 
BRANCH  13  14
ATOM     14  C   UNL     1      -6.978  31.445  -1.131  1.00  0.00     0.041 C 
ATOM     15  O   UNL     1      -7.472  32.459  -1.694  1.00  0.00    -0.550 OA
ATOM     16  O   UNL     1      -7.151  31.267   0.236  1.00  0.00    -0.550 OA
ENDBRANCH  13  14
ENDBRANCH  12  13
ENDBRANCH  11  12
ENDBRANCH  10  11
ENDBRANCH   9  10
ENDBRANCH   8   9
ENDBRANCH   7   8
ENDBRANCH   6   7
ENDBRANCH   5   6
ENDBRANCH   4   5
ENDBRANCH   3   4
ENDBRANCH   2   3
ENDBRANCH   1   2
BRANCH   1  17
ATOM     17  C   UNL     1      -3.297  27.943  -0.621  1.00  0.00     0.000 C 
BRANCH  17  18
ATOM     18  C   UNL     1      -4.445  27.803   0.396  1.00  0.00     0.000 C 
BRANCH  18  19
ATOM     19  C   UNL     1      -4.105  28.273   1.826  1.00  0.00     0.000 C 
BRANCH  19  20
ATOM     20  C   UNL     1      -3.319  27.259   2.681  1.00  0.00     0.000 C 
BRANCH  20  21
ATOM     21  C   UNL     1      -4.159  26.113   3.277  1.00  0.00     0.000 C 
BRANCH  21  22
ATOM     22  C   UNL     1      -5.297  26.616   4.181  1.00  0.00    -0.000 C 
BRANCH  22  23
ATOM     23  C   UNL     1      -6.642  25.941   3.868  1.00  0.00    -0.000 C 
BRANCH  23  24
ATOM     24  C   UNL     1      -7.161  26.266   2.458  1.00  0.00    -0.000 C 
BRANCH  24  25
ATOM     25  C   UNL     1      -7.842  25.039   1.831  1.00  0.00    -0.000 C 
BRANCH  25  26
ATOM     26  C   UNL     1      -7.357  24.746   0.400  1.00  0.00    -0.000 C 
BRANCH  26  27
ATOM     27  C   UNL     1      -5.832  24.803   0.200  1.00  0.00    -0.000 C 
BRANCH  27  28
ATOM     28  C   UNL     1      -5.087  23.683   0.948  1.00  0.00    -0.000 C 
BRANCH  28  29
ATOM     29  C   UNL     1      -3.680  23.429   0.383  1.00  0.00    -0.003 C 
ATOM     30  C   UNL     1      -3.475  21.983  -0.070  1.00  0.00     0.004 C 
ENDBRANCH  28  29
ENDBRANCH  27  28
ENDBRANCH  26  27
ENDBRANCH  25  26
ENDBRANCH  24  25
ENDBRANCH  23  24
ENDBRANCH  22  23
ENDBRANCH  21  22
ENDBRANCH  20  21
ENDBRANCH  19  20
ENDBRANCH  18  19
ENDBRANCH  17  18
ENDBRANCH   1  17
TORSDOF 26
ENDMDL
MODEL 7
REMARK VINA RESULT:    -3.499      3.214      6.882
REMARK INTER + INTRA:         -14.103
REMARK INTER:                  -8.693
REMARK INTRA:                  -5.411
REMARK UNBOUND:                -5.286
REMARK SMILES CCCCCCCCCCCCCCCCCCCCCCCCCCCC(=O)[O-]
REMARK SMILES IDX 15 1 16 2 17 3 18 4 19 5 20 6 21 7 22 8 23 9 24 10 25 11
REMARK SMILES IDX 26 12 27 13 28 14 29 15 30 16 14 17 13 18 12 19 11 20 10 21
REMARK SMILES IDX 9 22 8 23 7 24 6 25 5 26 4 27 3 28 2 29 1 30
REMARK H PARENT
REMARK Flexibility Score: inf
ROOT
ATOM      1  C   UNL     1      -0.413  30.623   1.991  1.00  0.00     0.000 C 
ENDROOT
BRANCH   1   2
ATOM      2  C   UNL     1       0.951  30.451   1.305  1.00  0.00     0.000 C 
BRANCH   2   3
ATOM      3  C   UNL     1       0.918  30.807  -0.192  1.00  0.00     0.000 C 
BRANCH   3   4
ATOM      4  C   UNL     1      -0.451  31.270  -0.722  1.00  0.00     0.000 C 
BRANCH   4   5
ATOM      5  C   UNL     1      -0.857  30.565  -2.027  1.00  0.00     0.000 C 
BRANCH   5   6
ATOM      6  C   UNL     1      -1.378  29.138  -1.786  1.00  0.00     0.000 C 
BRANCH   6   7
ATOM      7  C   UNL     1      -2.900  29.097  -1.567  1.00  0.00     0.000 C 
BRANCH   7   8
ATOM      8  C   UNL     1      -3.289  28.787  -0.109  1.00  0.00     0.000 C 
BRANCH   8   9
ATOM      9  C   UNL     1      -4.532  29.534   0.407  1.00  0.00     0.000 C 
BRANCH   9  10
ATOM     10  C   UNL     1      -4.244  30.999   0.765  1.00  0.00     0.000 C 
BRANCH  10  11
ATOM     11  C   UNL     1      -4.880  31.950  -0.260  1.00  0.00     0.000 C 
BRANCH  11  12
ATOM     12  C   UNL     1      -3.839  32.695  -1.109  1.00  0.00     0.006 C 
BRANCH  12  13
ATOM     13  C   UNL     1      -4.123  32.604  -2.617  1.00  0.00     0.053 C 
BRANCH  13  14
ATOM     14  C   UNL     1      -4.394  33.956  -3.202  1.00  0.00     0.041 C 
ATOM     15  O   UNL     1      -3.861  34.300  -4.292  1.00  0.00    -0.550 OA
ATOM     16  O   UNL     1      -5.207  34.855  -2.524  1.00  0.00    -0.550 OA
ENDBRANCH  13  14
ENDBRANCH  12  13
ENDBRANCH  11  12
ENDBRANCH  10  11
ENDBRANCH   9  10
ENDBRANCH   8   9
ENDBRANCH   7   8
ENDBRANCH   6   7
ENDBRANCH   5   6
ENDBRANCH   4   5
ENDBRANCH   3   4
ENDBRANCH   2   3
ENDBRANCH   1   2
BRANCH   1  17
ATOM     17  C   UNL     1      -0.846  29.323   2.685  1.00  0.00     0.000 C 
BRANCH  17  18
ATOM     18  C   UNL     1      -2.221  29.442   3.367  1.00  0.00     0.000 C 
BRANCH  18  19
ATOM     19  C   UNL     1      -2.891  28.097   3.715  1.00  0.00     0.000 C 
BRANCH  19  20
ATOM     20  C   UNL     1      -2.630  26.954   2.712  1.00  0.00     0.000 C 
BRANCH  20  21
ATOM     21  C   UNL     1      -3.432  25.664   2.966  1.00  0.00     0.000 C 
BRANCH  21  22
ATOM     22  C   UNL     1      -4.645  25.522   2.030  1.00  0.00    -0.000 C 
BRANCH  22  23
ATOM     23  C   UNL     1      -4.882  24.071   1.585  1.00  0.00    -0.000 C 
BRANCH  23  24
ATOM     24  C   UNL     1      -4.695  23.871   0.072  1.00  0.00    -0.000 C 
BRANCH  24  25
ATOM     25  C   UNL     1      -4.973  25.178  -0.688  1.00  0.00    -0.000 C 
BRANCH  25  26
ATOM     26  C   UNL     1      -3.910  25.492  -1.756  1.00  0.00    -0.000 C 
BRANCH  26  27
ATOM     27  C   UNL     1      -2.563  24.770  -1.573  1.00  0.00    -0.000 C 
BRANCH  27  28
ATOM     28  C   UNL     1      -1.610  25.513  -0.620  1.00  0.00    -0.000 C 
BRANCH  28  29
ATOM     29  C   UNL     1      -0.896  24.567   0.359  1.00  0.00    -0.003 C 
ATOM     30  C   UNL     1      -1.042  23.094  -0.026  1.00  0.00     0.004 C 
ENDBRANCH  28  29
ENDBRANCH  27  28
ENDBRANCH  26  27
ENDBRANCH  25  26
ENDBRANCH  24  25
ENDBRANCH  23  24
ENDBRANCH  22  23
ENDBRANCH  21  22
ENDBRANCH  20  21
ENDBRANCH  19  20
ENDBRANCH  18  19
ENDBRANCH  17  18
ENDBRANCH   1  17
TORSDOF 26
ENDMDL
MODEL 8
REMARK VINA RESULT:    -3.475      1.879      3.683
REMARK INTER + INTRA:         -14.043
REMARK INTER:                  -8.512
REMARK INTRA:                  -5.530
REMARK UNBOUND:                -5.286
REMARK SMILES CCCCCCCCCCCCCCCCCCCCCCCCCCCC(=O)[O-]
REMARK SMILES IDX 15 1 16 2 17 3 18 4 19 5 20 6 21 7 22 8 23 9 24 10 25 11
REMARK SMILES IDX 26 12 27 13 28 14 29 15 30 16 14 17 13 18 12 19 11 20 10 21
REMARK SMILES IDX 9 22 8 23 7 24 6 25 5 26 4 27 3 28 2 29 1 30
REMARK H PARENT
REMARK Flexibility Score: inf
ROOT
ATOM      1  C   UNL     1      -2.999  27.952  -2.115  1.00  0.00     0.000 C 
ENDROOT
BRANCH   1   2
ATOM      2  C   UNL     1      -2.573  26.929  -3.178  1.00  0.00     0.000 C 
BRANCH   2   3
ATOM      3  C   UNL     1      -1.131  26.426  -2.981  1.00  0.00     0.000 C 
BRANCH   3   4
ATOM      4  C   UNL     1      -0.497  26.780  -1.623  1.00  0.00     0.000 C 
BRANCH   4   5
ATOM      5  C   UNL     1       0.025  25.547  -0.868  1.00  0.00     0.000 C 
BRANCH   5   6
ATOM      6  C   UNL     1      -0.979  25.030   0.177  1.00  0.00     0.000 C 
BRANCH   6   7
ATOM      7  C   UNL     1      -1.120  23.499   0.151  1.00  0.00     0.000 C 
BRANCH   7   8
ATOM      8  C   UNL     1      -2.420  23.028  -0.526  1.00  0.00     0.000 C 
BRANCH   8   9
ATOM      9  C   UNL     1      -3.358  24.157  -0.993  1.00  0.00     0.000 C 
BRANCH   9  10
ATOM     10  C   UNL     1      -4.762  24.061  -0.378  1.00  0.00     0.000 C 
BRANCH  10  11
ATOM     11  C   UNL     1      -4.688  23.622   1.092  1.00  0.00     0.000 C 
BRANCH  11  12
ATOM     12  C   UNL     1      -5.605  24.447   2.009  1.00  0.00     0.006 C 
BRANCH  12  13
ATOM     13  C   UNL     1      -6.812  25.041   1.266  1.00  0.00     0.053 C 
BRANCH  13  14
ATOM     14  C   UNL     1      -7.546  26.027   2.123  1.00  0.00     0.041 C 
ATOM     15  O   UNL     1      -7.096  27.193   2.286  1.00  0.00    -0.550 OA
ATOM     16  O   UNL     1      -8.712  25.645   2.775  1.00  0.00    -0.550 OA
ENDBRANCH  13  14
ENDBRANCH  12  13
ENDBRANCH  11  12
ENDBRANCH  10  11
ENDBRANCH   9  10
ENDBRANCH   8   9
ENDBRANCH   7   8
ENDBRANCH   6   7
ENDBRANCH   5   6
ENDBRANCH   4   5
ENDBRANCH   3   4
ENDBRANCH   2   3
ENDBRANCH   1   2
BRANCH   1  17
ATOM     17  C   UNL     1      -4.458  27.727  -1.689  1.00  0.00     0.000 C 
BRANCH  17  18
ATOM     18  C   UNL     1      -4.646  27.775  -0.162  1.00  0.00     0.000 C 
BRANCH  18  19
ATOM     19  C   UNL     1      -3.369  27.500   0.658  1.00  0.00     0.000 C 
BRANCH  19  20
ATOM     20  C   UNL     1      -3.580  27.367   2.180  1.00  0.00     0.000 C 
BRANCH  20  21
ATOM     21  C   UNL     1      -2.656  28.240   3.049  1.00  0.00     0.000 C 
BRANCH  21  22
ATOM     22  C   UNL     1      -1.305  28.534   2.374  1.00  0.00    -0.000 C 
BRANCH  22  23
ATOM     23  C   UNL     1      -1.141  30.015   1.999  1.00  0.00    -0.000 C 
BRANCH  23  24
ATOM     24  C   UNL     1      -0.295  30.222   0.733  1.00  0.00    -0.000 C 
BRANCH  24  25
ATOM     25  C   UNL     1      -1.183  30.625  -0.456  1.00  0.00    -0.000 C 
BRANCH  25  26
ATOM     26  C   UNL     1      -2.367  31.520  -0.048  1.00  0.00    -0.000 C 
BRANCH  26  27
ATOM     27  C   UNL     1      -3.682  31.251  -0.802  1.00  0.00    -0.000 C 
BRANCH  27  28
ATOM     28  C   UNL     1      -4.920  31.774  -0.051  1.00  0.00    -0.000 C 
BRANCH  28  29
ATOM     29  C   UNL     1      -6.215  31.068  -0.484  1.00  0.00    -0.003 C 
ATOM     30  C   UNL     1      -7.474  31.836  -0.077  1.00  0.00     0.004 C 
ENDBRANCH  28  29
ENDBRANCH  27  28
ENDBRANCH  26  27
ENDBRANCH  25  26
ENDBRANCH  24  25
ENDBRANCH  23  24
ENDBRANCH  22  23
ENDBRANCH  21  22
ENDBRANCH  20  21
ENDBRANCH  19  20
ENDBRANCH  18  19
ENDBRANCH  17  18
ENDBRANCH   1  17
TORSDOF 26
ENDMDL
MODEL 9
REMARK VINA RESULT:    -3.457      2.717      7.003
REMARK INTER + INTRA:         -13.998
REMARK INTER:                  -9.192
REMARK INTRA:                  -4.806
REMARK UNBOUND:                -5.286
REMARK SMILES CCCCCCCCCCCCCCCCCCCCCCCCCCCC(=O)[O-]
REMARK SMILES IDX 15 1 16 2 17 3 18 4 19 5 20 6 21 7 22 8 23 9 24 10 25 11
REMARK SMILES IDX 26 12 27 13 28 14 29 15 30 16 14 17 13 18 12 19 11 20 10 21
REMARK SMILES IDX 9 22 8 23 7 24 6 25 5 26 4 27 3 28 2 29 1 30
REMARK H PARENT
REMARK Flexibility Score: inf
ROOT
ATOM      1  C   UNL     1      -4.330  23.120  -1.589  1.00  0.00     0.000 C 
ENDROOT
BRANCH   1   2
ATOM      2  C   UNL     1      -4.501  24.639  -1.440  1.00  0.00     0.000 C 
BRANCH   2   3
ATOM      3  C   UNL     1      -3.634  25.439  -2.431  1.00  0.00     0.000 C 
BRANCH   3   4
ATOM      4  C   UNL     1      -3.457  26.929  -2.086  1.00  0.00     0.000 C 
BRANCH   4   5
ATOM      5  C   UNL     1      -4.667  27.517  -1.340  1.00  0.00     0.000 C 
BRANCH   5   6
ATOM      6  C   UNL     1      -5.420  28.565  -2.176  1.00  0.00     0.000 C 
BRANCH   6   7
ATOM      7  C   UNL     1      -4.470  29.464  -2.987  1.00  0.00     0.000 C 
BRANCH   7   8
ATOM      8  C   UNL     1      -4.458  30.923  -2.495  1.00  0.00     0.000 C 
BRANCH   8   9
ATOM      9  C   UNL     1      -3.416  31.233  -1.405  1.00  0.00     0.000 C 
BRANCH   9  10
ATOM     10  C   UNL     1      -3.963  32.145  -0.296  1.00  0.00     0.000 C 
BRANCH  10  11
ATOM     11  C   UNL     1      -4.520  31.315   0.871  1.00  0.00     0.000 C 
BRANCH  11  12
ATOM     12  C   UNL     1      -3.650  30.093   1.203  1.00  0.00     0.006 C 
BRANCH  12  13
ATOM     13  C   UNL     1      -2.839  30.273   2.496  1.00  0.00     0.053 C 
BRANCH  13  14
ATOM     14  C   UNL     1      -1.379  30.032   2.259  1.00  0.00     0.041 C 
ATOM     15  O   UNL     1      -0.795  30.562   1.275  1.00  0.00    -0.550 OA
ATOM     16  O   UNL     1      -0.669  29.190   3.105  1.00  0.00    -0.550 OA
ENDBRANCH  13  14
ENDBRANCH  12  13
ENDBRANCH  11  12
ENDBRANCH  10  11
ENDBRANCH   9  10
ENDBRANCH   8   9
ENDBRANCH   7   8
ENDBRANCH   6   7
ENDBRANCH   5   6
ENDBRANCH   4   5
ENDBRANCH   3   4
ENDBRANCH   2   3
ENDBRANCH   1   2
BRANCH   1  17
ATOM     17  C   UNL     1      -3.545  22.537  -0.404  1.00  0.00     0.000 C 
BRANCH  17  18
ATOM     18  C   UNL     1      -2.032  22.451  -0.677  1.00  0.00     0.000 C 
BRANCH  18  19
ATOM     19  C   UNL     1      -1.149  23.228   0.321  1.00  0.00     0.000 C 
BRANCH  19  20
ATOM     20  C   UNL     1      -0.643  24.597  -0.176  1.00  0.00     0.000 C 
BRANCH  20  21
ATOM     21  C   UNL     1      -1.293  25.820   0.499  1.00  0.00     0.000 C 
BRANCH  21  22
ATOM     22  C   UNL     1      -2.364  25.431   1.532  1.00  0.00    -0.000 C 
BRANCH  22  23
ATOM     23  C   UNL     1      -3.124  26.648   2.082  1.00  0.00    -0.000 C 
BRANCH  23  24
ATOM     24  C   UNL     1      -4.629  26.386   2.255  1.00  0.00    -0.000 C 
BRANCH  24  25
ATOM     25  C   UNL     1      -4.932  24.881   2.182  1.00  0.00    -0.000 C 
BRANCH  25  26
ATOM     26  C   UNL     1      -6.435  24.563   2.271  1.00  0.00    -0.000 C 
BRANCH  26  27
ATOM     27  C   UNL     1      -7.359  25.790   2.377  1.00  0.00    -0.000 C 
BRANCH  27  28
ATOM     28  C   UNL     1      -8.139  25.839   3.703  1.00  0.00    -0.000 C 
BRANCH  28  29
ATOM     29  C   UNL     1      -7.215  25.824   4.932  1.00  0.00    -0.003 C 
ATOM     30  C   UNL     1      -7.969  25.564   6.237  1.00  0.00     0.004 C 
ENDBRANCH  28  29
ENDBRANCH  27  28
ENDBRANCH  26  27
ENDBRANCH  25  26
ENDBRANCH  24  25
ENDBRANCH  23  24
ENDBRANCH  22  23
ENDBRANCH  21  22
ENDBRANCH  20  21
ENDBRANCH  19  20
ENDBRANCH  18  19
ENDBRANCH  17  18
ENDBRANCH   1  17
TORSDOF 26
ENDMDL
