MODEL 1
REMARK VINA RESULT:    -3.771      0.000      0.000
REMARK INTER + INTRA:          -6.404
REMARK INTER:                  -5.976
REMARK INTRA:                  -0.428
REMARK UNBOUND:                -0.428
REMARK SMILES CCCCCCCCCCCC(=O)[O-]
REMARK SMILES IDX 7 1 8 2 9 3 10 4 11 5 12 6 13 7 14 8 6 9 5 10 4 11 3 12 2 13
REMARK SMILES IDX 1 14
REMARK H PARENT
REMARK Flexibility Score: inf
ROOT
ATOM      1  C   UNL     1      32.350   8.642 -30.566  1.00  0.00     0.000 C 
ENDROOT
BRANCH   1   2
ATOM      2  C   UNL     1      33.417   7.533 -30.557  1.00  0.00     0.000 C 
BRANCH   2   3
ATOM      3  C   UNL     1      34.649   7.796 -31.449  1.00  0.00     0.000 C 
BRANCH   3   4
ATOM      4  C   UNL     1      35.709   6.680 -31.446  1.00  0.00     0.006 C 
BRANCH   4   5
ATOM      5  C   UNL     1      35.099   5.280 -31.591  1.00  0.00     0.053 C 
BRANCH   5   6
ATOM      6  C   UNL     1      35.005   4.899 -33.035  1.00  0.00     0.041 C 
ATOM      7  O   UNL     1      35.699   5.501 -33.894  1.00  0.00    -0.550 OA
ATOM      8  O   UNL     1      34.114   3.912 -33.436  1.00  0.00    -0.550 OA
ENDBRANCH   5   6
ENDBRANCH   4   5
ENDBRANCH   3   4
ENDBRANCH   2   3
ENDBRANCH   1   2
BRANCH   1   9
ATOM      9  C   UNL     1      32.759   9.870 -29.734  1.00  0.00     0.000 C 
BRANCH   9  10
ATOM     10  C   UNL     1      32.531   9.664 -28.227  1.00  0.00    -0.000 C 
BRANCH  10  11
ATOM     11  C   UNL     1      33.456  10.533 -27.363  1.00  0.00    -0.000 C 
BRANCH  11  12
ATOM     12  C   UNL     1      32.650  11.337 -26.336  1.00  0.00    -0.000 C 
BRANCH  12  13
ATOM     13  C   UNL     1      33.468  11.581 -25.063  1.00  0.00    -0.003 C 
ATOM     14  C   UNL     1      33.884  10.265 -24.414  1.00  0.00     0.004 C 
ENDBRANCH  12  13
ENDBRANCH  11  12
ENDBRANCH  10  11
ENDBRANCH   9  10
ENDBRANCH   1   9
TORSDOF 10
ENDMDL
MODEL 2
REMARK VINA RESULT:    -3.764     15.402     16.779
REMARK INTER + INTRA:          -6.392
REMARK INTER:                  -4.947
REMARK INTRA:                  -1.445
REMARK UNBOUND:                -0.428
REMARK SMILES CCCCCCCCCCCC(=O)[O-]
REMARK SMILES IDX 7 1 8 2 9 3 10 4 11 5 12 6 13 7 14 8 6 9 5 10 4 11 3 12 2 13
REMARK SMILES IDX 1 14
REMARK H PARENT
REMARK Flexibility Score: inf
ROOT
ATOM      1  C   UNL     1      24.319  -4.685 -28.062  1.00  0.00     0.000 C 
ENDROOT
BRANCH   1   2
ATOM      2  C   UNL     1      24.053  -4.338 -29.538  1.00  0.00     0.000 C 
BRANCH   2   3
ATOM      3  C   UNL     1      23.723  -5.540 -30.447  1.00  0.00     0.000 C 
BRANCH   3   4
ATOM      4  C   UNL     1      24.316  -5.468 -31.866  1.00  0.00     0.006 C 
BRANCH   4   5
ATOM      5  C   UNL     1      25.291  -4.298 -32.045  1.00  0.00     0.053 C 
BRANCH   5   6
ATOM      6  C   UNL     1      26.218  -4.562 -33.189  1.00  0.00     0.041 C 
ATOM      7  O   UNL     1      25.796  -5.131 -34.228  1.00  0.00    -0.550 OA
ATOM      8  O   UNL     1      27.561  -4.223 -33.087  1.00  0.00    -0.550 OA
ENDBRANCH   5   6
ENDBRANCH   4   5
ENDBRANCH   3   4
ENDBRANCH   2   3
ENDBRANCH   1   2
BRANCH   1   9
ATOM      9  C   UNL     1      23.969  -6.143 -27.718  1.00  0.00     0.000 C 
BRANCH   9  10
ATOM     10  C   UNL     1      25.099  -6.858 -26.960  1.00  0.00    -0.000 C 
BRANCH  10  11
ATOM     11  C   UNL     1      25.586  -8.124 -27.678  1.00  0.00    -0.000 C 
BRANCH  11  12
ATOM     12  C   UNL     1      26.218  -7.779 -29.032  1.00  0.00    -0.000 C 
BRANCH  12  13
ATOM     13  C   UNL     1      27.576  -7.092 -28.847  1.00  0.00    -0.003 C 
ATOM     14  C   UNL     1      27.630  -5.766 -29.599  1.00  0.00     0.004 C 
ENDBRANCH  12  13
ENDBRANCH  11  12
ENDBRANCH  10  11
ENDBRANCH   9  10
ENDBRANCH   1   9
TORSDOF 10
ENDMDL
MODEL 3
REMARK VINA RESULT:    -3.712     15.028     16.750
REMARK INTER + INTRA:          -6.311
REMARK INTER:                  -4.856
REMARK INTRA:                  -1.455
REMARK UNBOUND:                -0.428
REMARK SMILES CCCCCCCCCCCC(=O)[O-]
REMARK SMILES IDX 7 1 8 2 9 3 10 4 11 5 12 6 13 7 14 8 6 9 5 10 4 11 3 12 2 13
REMARK SMILES IDX 1 14
REMARK H PARENT
REMARK Flexibility Score: inf
ROOT
ATOM      1  C   UNL     1      26.746  -4.617 -29.742  1.00  0.00     0.000 C 
ENDROOT
BRANCH   1   2
ATOM      2  C   UNL     1      25.348  -4.274 -29.196  1.00  0.00     0.000 C 
BRANCH   2   3
ATOM      3  C   UNL     1      24.167  -4.756 -30.065  1.00  0.00     0.000 C 
BRANCH   3   4
ATOM      4  C   UNL     1      24.559  -5.603 -31.289  1.00  0.00     0.006 C 
BRANCH   4   5
ATOM      5  C   UNL     1      24.228  -4.916 -32.620  1.00  0.00     0.053 C 
BRANCH   5   6
ATOM      6  C   UNL     1      25.486  -4.546 -33.341  1.00  0.00     0.041 C 
ATOM      7  O   UNL     1      26.165  -3.557 -32.963  1.00  0.00    -0.550 OA
ATOM      8  O   UNL     1      25.880  -5.264 -34.463  1.00  0.00    -0.550 OA
ENDBRANCH   5   6
ENDBRANCH   4   5
ENDBRANCH   3   4
ENDBRANCH   2   3
ENDBRANCH   1   2
BRANCH   1   9
ATOM      9  C   UNL     1      27.594  -5.427 -28.745  1.00  0.00     0.000 C 
BRANCH   9  10
ATOM     10  C   UNL     1      27.828  -6.874 -29.211  1.00  0.00    -0.000 C 
BRANCH  10  11
ATOM     11  C   UNL     1      26.998  -7.893 -28.417  1.00  0.00    -0.000 C 
BRANCH  11  12
ATOM     12  C   UNL     1      25.613  -8.085 -29.048  1.00  0.00    -0.000 C 
BRANCH  12  13
ATOM     13  C   UNL     1      24.511  -8.036 -27.985  1.00  0.00    -0.003 C 
ATOM     14  C   UNL     1      24.946  -7.211 -26.777  1.00  0.00     0.004 C 
ENDBRANCH  12  13
ENDBRANCH  11  12
ENDBRANCH  10  11
ENDBRANCH   9  10
ENDBRANCH   1   9
TORSDOF 10
ENDMDL
MODEL 4
REMARK VINA RESULT:    -3.699     15.071     16.950
REMARK INTER + INTRA:          -6.290
REMARK INTER:                  -4.739
REMARK INTRA:                  -1.551
REMARK UNBOUND:                -0.428
REMARK SMILES CCCCCCCCCCCC(=O)[O-]
REMARK SMILES IDX 7 1 8 2 9 3 10 4 11 5 12 6 13 7 14 8 6 9 5 10 4 11 3 12 2 13
REMARK SMILES IDX 1 14
REMARK H PARENT
REMARK Flexibility Score: inf
ROOT
ATOM      1  C   UNL     1      27.311  -7.540 -28.535  1.00  0.00     0.000 C 
ENDROOT
BRANCH   1   2
ATOM      2  C   UNL     1      27.854  -6.246 -29.167  1.00  0.00     0.000 C 
BRANCH   2   3
ATOM      3  C   UNL     1      27.263  -4.939 -28.600  1.00  0.00     0.000 C 
BRANCH   3   4
ATOM      4  C   UNL     1      26.613  -4.010 -29.642  1.00  0.00     0.006 C 
BRANCH   4   5
ATOM      5  C   UNL     1      25.101  -4.230 -29.774  1.00  0.00     0.053 C 
BRANCH   5   6
ATOM      6  C   UNL     1      24.800  -5.074 -30.972  1.00  0.00     0.041 C 
ATOM      7  O   UNL     1      25.535  -5.013 -31.991  1.00  0.00    -0.550 OA
ATOM      8  O   UNL     1      23.678  -5.893 -30.979  1.00  0.00    -0.550 OA
ENDBRANCH   5   6
ENDBRANCH   4   5
ENDBRANCH   3   4
ENDBRANCH   2   3
ENDBRANCH   1   2
BRANCH   1   9
ATOM      9  C   UNL     1      26.020  -8.038 -29.207  1.00  0.00     0.000 C 
BRANCH   9  10
ATOM     10  C   UNL     1      24.783  -7.864 -28.311  1.00  0.00    -0.000 C 
BRANCH  10  11
ATOM     11  C   UNL     1      25.094  -8.081 -26.823  1.00  0.00    -0.000 C 
BRANCH  11  12
ATOM     12  C   UNL     1      24.913  -6.782 -26.029  1.00  0.00    -0.000 C 
BRANCH  12  13
ATOM     13  C   UNL     1      23.906  -5.853 -26.715  1.00  0.00    -0.003 C 
ATOM     14  C   UNL     1      24.025  -4.425 -26.190  1.00  0.00     0.004 C 
ENDBRANCH  12  13
ENDBRANCH  11  12
ENDBRANCH  10  11
ENDBRANCH   9  10
ENDBRANCH   1   9
TORSDOF 10
ENDMDL
MODEL 5
REMARK VINA RESULT:    -3.698     15.204     16.878
REMARK INTER + INTRA:          -6.288
REMARK INTER:                  -4.927
REMARK INTRA:                  -1.361
REMARK UNBOUND:                -0.428
REMARK SMILES CCCCCCCCCCCC(=O)[O-]
REMARK SMILES IDX 7 1 8 2 9 3 10 4 11 5 12 6 13 7 14 8 6 9 5 10 4 11 3 12 2 13
REMARK SMILES IDX 1 14
REMARK H PARENT
REMARK Flexibility Score: inf
ROOT
ATOM      1  C   UNL     1      25.498  -4.345 -27.922  1.00  0.00     0.000 C 
ENDROOT
BRANCH   1   2
ATOM      2  C   UNL     1      25.600  -4.209 -29.452  1.00  0.00     0.000 C 
BRANCH   2   3
ATOM      3  C   UNL     1      24.251  -4.172 -30.201  1.00  0.00     0.000 C 
BRANCH   3   4
ATOM      4  C   UNL     1      24.037  -5.307 -31.219  1.00  0.00     0.006 C 
BRANCH   4   5
ATOM      5  C   UNL     1      24.921  -5.163 -32.465  1.00  0.00     0.053 C 
BRANCH   5   6
ATOM      6  C   UNL     1      24.552  -3.929 -33.225  1.00  0.00     0.041 C 
ATOM      7  O   UNL     1      25.284  -2.907 -33.165  1.00  0.00    -0.550 OA
ATOM      8  O   UNL     1      23.375  -3.891 -33.961  1.00  0.00    -0.550 OA
ENDBRANCH   5   6
ENDBRANCH   4   5
ENDBRANCH   3   4
ENDBRANCH   2   3
ENDBRANCH   1   2
BRANCH   1   9
ATOM      9  C   UNL     1      24.049  -4.512 -27.433  1.00  0.00     0.000 C 
BRANCH   9  10
ATOM     10  C   UNL     1      23.841  -5.815 -26.643  1.00  0.00    -0.000 C 
BRANCH  10  11
ATOM     11  C   UNL     1      25.096  -6.699 -26.614  1.00  0.00    -0.000 C 
BRANCH  11  12
ATOM     12  C   UNL     1      24.844  -8.034 -27.325  1.00  0.00    -0.000 C 
BRANCH  12  13
ATOM     13  C   UNL     1      25.125  -7.921 -28.827  1.00  0.00    -0.003 C 
ATOM     14  C   UNL     1      26.622  -7.802 -29.101  1.00  0.00     0.004 C 
ENDBRANCH  12  13
ENDBRANCH  11  12
ENDBRANCH  10  11
ENDBRANCH   9  10
ENDBRANCH   1   9
TORSDOF 10
ENDMDL
MODEL 6
REMARK VINA RESULT:    -3.676      3.435      6.482
REMARK INTER + INTRA:          -6.253
REMARK INTER:                  -4.858
REMARK INTRA:                  -1.395
REMARK UNBOUND:                -0.428
REMARK SMILES CCCCCCCCCCCC(=O)[O-]
REMARK SMILES IDX 7 1 8 2 9 3 10 4 11 5 12 6 13 7 14 8 6 9 5 10 4 11 3 12 2 13
REMARK SMILES IDX 1 14
REMARK H PARENT
REMARK Flexibility Score: inf
ROOT
ATOM      1  C   UNL     1      35.016   5.456 -33.397  1.00  0.00     0.000 C 
ENDROOT
BRANCH   1   2
ATOM      2  C   UNL     1      35.744   5.949 -32.133  1.00  0.00     0.000 C 
BRANCH   2   3
ATOM      3  C   UNL     1      35.208   7.267 -31.536  1.00  0.00     0.000 C 
BRANCH   3   4
ATOM      4  C   UNL     1      33.723   7.244 -31.131  1.00  0.00     0.006 C 
BRANCH   4   5
ATOM      5  C   UNL     1      33.171   8.640 -30.815  1.00  0.00     0.053 C 
BRANCH   5   6
ATOM      6  C   UNL     1      32.975   8.801 -29.341  1.00  0.00     0.041 C 
ATOM      7  O   UNL     1      32.837   7.789 -28.606  1.00  0.00    -0.550 OA
ATOM      8  O   UNL     1      32.896  10.072 -28.786  1.00  0.00    -0.550 OA
ENDBRANCH   5   6
ENDBRANCH   4   5
ENDBRANCH   3   4
ENDBRANCH   2   3
ENDBRANCH   1   2
BRANCH   1   9
ATOM      9  C   UNL     1      34.338   4.089 -33.200  1.00  0.00     0.000 C 
BRANCH   9  10
ATOM     10  C   UNL     1      32.815   4.206 -33.023  1.00  0.00    -0.000 C 
BRANCH  10  11
ATOM     11  C   UNL     1      32.354   3.853 -31.601  1.00  0.00    -0.000 C 
BRANCH  11  12
ATOM     12  C   UNL     1      33.475   3.158 -30.818  1.00  0.00    -0.000 C 
BRANCH  12  13
ATOM     13  C   UNL     1      33.769   3.894 -29.507  1.00  0.00    -0.003 C 
ATOM     14  C   UNL     1      35.264   3.905 -29.203  1.00  0.00     0.004 C 
ENDBRANCH  12  13
ENDBRANCH  11  12
ENDBRANCH  10  11
ENDBRANCH   9  10
ENDBRANCH   1   9
TORSDOF 10
ENDMDL
MODEL 7
REMARK VINA RESULT:    -3.662     15.686     17.501
REMARK INTER + INTRA:          -6.230
REMARK INTER:                  -4.525
REMARK INTRA:                  -1.706
REMARK UNBOUND:                -0.428
REMARK SMILES CCCCCCCCCCCC(=O)[O-]
REMARK SMILES IDX 7 1 8 2 9 3 10 4 11 5 12 6 13 7 14 8 6 9 5 10 4 11 3 12 2 13
REMARK SMILES IDX 1 14
REMARK H PARENT
REMARK Flexibility Score: inf
ROOT
ATOM      1  C   UNL     1      27.554  -6.468 -29.281  1.00  0.00     0.000 C 
ENDROOT
BRANCH   1   2
ATOM      2  C   UNL     1      26.955  -7.838 -28.915  1.00  0.00     0.000 C 
BRANCH   2   3
ATOM      3  C   UNL     1      25.429  -7.962 -29.109  1.00  0.00     0.000 C 
BRANCH   3   4
ATOM      4  C   UNL     1      24.601  -7.922 -27.812  1.00  0.00     0.006 C 
BRANCH   4   5
ATOM      5  C   UNL     1      25.456  -8.115 -26.553  1.00  0.00     0.053 C 
BRANCH   5   6
ATOM      6  C   UNL     1      25.126  -7.071 -25.534  1.00  0.00     0.041 C 
ATOM      7  O   UNL     1      25.670  -7.099 -24.399  1.00  0.00    -0.550 OA
ATOM      8  O   UNL     1      24.181  -6.094 -25.821  1.00  0.00    -0.550 OA
ENDBRANCH   5   6
ENDBRANCH   4   5
ENDBRANCH   3   4
ENDBRANCH   2   3
ENDBRANCH   1   2
BRANCH   1   9
ATOM      9  C   UNL     1      27.770  -5.564 -28.056  1.00  0.00     0.000 C 
BRANCH   9  10
ATOM     10  C   UNL     1      26.654  -4.519 -27.889  1.00  0.00    -0.000 C 
BRANCH  10  11
ATOM     11  C   UNL     1      25.907  -4.236 -29.200  1.00  0.00    -0.000 C 
BRANCH  11  12
ATOM     12  C   UNL     1      24.391  -4.370 -29.008  1.00  0.00    -0.000 C 
BRANCH  12  13
ATOM     13  C   UNL     1      23.697  -4.712 -30.331  1.00  0.00    -0.003 C 
ATOM     14  C   UNL     1      24.692  -5.256 -31.352  1.00  0.00     0.004 C 
ENDBRANCH  12  13
ENDBRANCH  11  12
ENDBRANCH  10  11
ENDBRANCH   9  10
ENDBRANCH   1   9
TORSDOF 10
ENDMDL
MODEL 8
REMARK VINA RESULT:    -3.648      5.062      9.914
REMARK INTER + INTRA:          -6.209
REMARK INTER:                  -5.460
REMARK INTRA:                  -0.749
REMARK UNBOUND:                -0.428
REMARK SMILES CCCCCCCCCCCC(=O)[O-]
REMARK SMILES IDX 7 1 8 2 9 3 10 4 11 5 12 6 13 7 14 8 6 9 5 10 4 11 3 12 2 13
REMARK SMILES IDX 1 14
REMARK H PARENT
REMARK Flexibility Score: inf
ROOT
ATOM      1  C   UNL     1      31.670   2.758 -34.356  1.00  0.00     0.000 C 
ENDROOT
BRANCH   1   2
ATOM      2  C   UNL     1      32.347   3.008 -32.996  1.00  0.00     0.000 C 
BRANCH   2   3
ATOM      3  C   UNL     1      33.094   4.353 -32.871  1.00  0.00     0.000 C 
BRANCH   3   4
ATOM      4  C   UNL     1      34.594   4.301 -33.212  1.00  0.00     0.006 C 
BRANCH   4   5
ATOM      5  C   UNL     1      35.248   5.689 -33.234  1.00  0.00     0.053 C 
BRANCH   5   6
ATOM      6  C   UNL     1      35.233   6.293 -31.865  1.00  0.00     0.041 C 
ATOM      7  O   UNL     1      34.850   7.480 -31.701  1.00  0.00    -0.550 OA
ATOM      8  O   UNL     1      35.689   5.559 -30.777  1.00  0.00    -0.550 OA
ENDBRANCH   5   6
ENDBRANCH   4   5
ENDBRANCH   3   4
ENDBRANCH   2   3
ENDBRANCH   1   2
BRANCH   1   9
ATOM      9  C   UNL     1      31.872   1.321 -34.867  1.00  0.00     0.000 C 
BRANCH   9  10
ATOM     10  C   UNL     1      33.265   0.765 -34.531  1.00  0.00    -0.000 C 
BRANCH  10  11
ATOM     11  C   UNL     1      33.976   0.167 -35.754  1.00  0.00    -0.000 C 
BRANCH  11  12
ATOM     12  C   UNL     1      32.971  -0.496 -36.703  1.00  0.00    -0.000 C 
BRANCH  12  13
ATOM     13  C   UNL     1      33.116   0.050 -38.128  1.00  0.00    -0.003 C 
ATOM     14  C   UNL     1      31.838   0.748 -38.584  1.00  0.00     0.004 C 
ENDBRANCH  12  13
ENDBRANCH  11  12
ENDBRANCH  10  11
ENDBRANCH   9  10
ENDBRANCH   1   9
TORSDOF 10
ENDMDL
MODEL 9
REMARK VINA RESULT:    -3.589     14.590     16.725
REMARK INTER + INTRA:          -6.116
REMARK INTER:                  -4.772
REMARK INTRA:                  -1.344
REMARK UNBOUND:                -0.428
REMARK SMILES CCCCCCCCCCCC(=O)[O-]
REMARK SMILES IDX 7 1 8 2 9 3 10 4 11 5 12 6 13 7 14 8 6 9 5 10 4 11 3 12 2 13
REMARK SMILES IDX 1 14
REMARK H PARENT
REMARK Flexibility Score: inf
ROOT
ATOM      1  C   UNL     1      24.535  -7.716 -28.357  1.00  0.00     0.000 C 
ENDROOT
BRANCH   1   2
ATOM      2  C   UNL     1      24.046  -6.344 -28.855  1.00  0.00     0.000 C 
BRANCH   2   3
ATOM      3  C   UNL     1      23.762  -6.256 -30.369  1.00  0.00     0.000 C 
BRANCH   3   4
ATOM      4  C   UNL     1      24.184  -4.935 -31.037  1.00  0.00     0.006 C 
BRANCH   4   5
ATOM      5  C   UNL     1      24.767  -5.137 -32.441  1.00  0.00     0.053 C 
BRANCH   5   6
ATOM      6  C   UNL     1      24.215  -4.118 -33.387  1.00  0.00     0.041 C 
ATOM      7  O   UNL     1      23.267  -3.371 -33.030  1.00  0.00    -0.550 OA
ATOM      8  O   UNL     1      24.716  -4.026 -34.679  1.00  0.00    -0.550 OA
ENDBRANCH   5   6
ENDBRANCH   4   5
ENDBRANCH   3   4
ENDBRANCH   2   3
ENDBRANCH   1   2
BRANCH   1   9
ATOM      9  C   UNL     1      25.994  -7.689 -27.870  1.00  0.00     0.000 C 
BRANCH   9  10
ATOM     10  C   UNL     1      27.000  -7.934 -29.006  1.00  0.00    -0.000 C 
BRANCH  10  11
ATOM     11  C   UNL     1      27.903  -6.720 -29.272  1.00  0.00    -0.000 C 
BRANCH  11  12
ATOM     12  C   UNL     1      27.634  -5.604 -28.255  1.00  0.00    -0.000 C 
BRANCH  12  13
ATOM     13  C   UNL     1      27.255  -4.297 -28.959  1.00  0.00    -0.003 C 
ATOM     14  C   UNL     1      26.252  -3.496 -28.134  1.00  0.00     0.004 C 
ENDBRANCH  12  13
ENDBRANCH  11  12
ENDBRANCH  10  11
ENDBRANCH   9  10
ENDBRANCH   1   9
TORSDOF 10
ENDMDL
