MODEL 1
REMARK VINA RESULT:    -2.736      0.000      0.000
REMARK INTER + INTRA:         -10.431
REMARK INTER:                  -7.214
REMARK INTRA:                  -3.217
REMARK UNBOUND:                -3.217
REMARK SMILES CCCCCCCCCCCCCCCCCCCCCCCCCCCCCC(=O)[O-]
REMARK SMILES IDX 16 1 17 2 18 3 19 4 20 5 21 6 22 7 23 8 24 9 25 10 26 11
REMARK SMILES IDX 27 12 28 13 29 14 30 15 31 16 32 17 15 18 14 19 13 20 12 21
REMARK SMILES IDX 11 22 10 23 9 24 8 25 7 26 6 27 5 28 4 29 3 30 2 31 1 32
REMARK H PARENT
REMARK Flexibility Score: inf
ROOT
ATOM      1  C   UNL     1      98.192 -68.769   1.426  1.00  0.00     0.000 C 
ENDROOT
BRANCH   1   2
ATOM      2  C   UNL     1      98.637 -69.322   0.059  1.00  0.00     0.000 C 
BRANCH   2   3
ATOM      3  C   UNL     1      98.295 -68.383  -1.111  1.00  0.00     0.000 C 
BRANCH   3   4
ATOM      4  C   UNL     1      99.250 -68.567  -2.302  1.00  0.00     0.000 C 
BRANCH   4   5
ATOM      5  C   UNL     1      98.684 -68.000  -3.612  1.00  0.00     0.000 C 
BRANCH   5   6
ATOM      6  C   UNL     1      99.753 -67.192  -4.360  1.00  0.00     0.000 C 
BRANCH   6   7
ATOM      7  C   UNL     1      99.983 -65.802  -3.745  1.00  0.00     0.000 C 
BRANCH   7   8
ATOM      8  C   UNL     1     101.367 -65.672  -3.084  1.00  0.00     0.000 C 
BRANCH   8   9
ATOM      9  C   UNL     1     101.274 -65.214  -1.613  1.00  0.00     0.000 C 
BRANCH   9  10
ATOM     10  C   UNL     1     101.624 -66.312  -0.590  1.00  0.00     0.000 C 
BRANCH  10  11
ATOM     11  C   UNL     1     102.089 -65.799   0.783  1.00  0.00     0.000 C 
BRANCH  11  12
ATOM     12  C   UNL     1     101.068 -66.071   1.899  1.00  0.00     0.000 C 
BRANCH  12  13
ATOM     13  C   UNL     1     100.127 -64.875   2.089  1.00  0.00     0.006 C 
BRANCH  13  14
ATOM     14  C   UNL     1      98.671 -65.279   1.829  1.00  0.00     0.053 C 
BRANCH  14  15
ATOM     15  C   UNL     1      97.875 -65.281   3.097  1.00  0.00     0.041 C 
ATOM     16  O   UNL     1      98.451 -65.163   4.210  1.00  0.00    -0.550 OA
ATOM     17  O   UNL     1      96.497 -65.457   3.052  1.00  0.00    -0.550 OA
ENDBRANCH  14  15
ENDBRANCH  13  14
ENDBRANCH  12  13
ENDBRANCH  11  12
ENDBRANCH  10  11
ENDBRANCH   9  10
ENDBRANCH   8   9
ENDBRANCH   7   8
ENDBRANCH   6   7
ENDBRANCH   5   6
ENDBRANCH   4   5
ENDBRANCH   3   4
ENDBRANCH   2   3
ENDBRANCH   1   2
BRANCH   1  18
ATOM     18  C   UNL     1      99.240 -68.868   2.550  1.00  0.00     0.000 C 
BRANCH  18  19
ATOM     19  C   UNL     1      98.645 -68.646   3.951  1.00  0.00     0.000 C 
BRANCH  19  20
ATOM     20  C   UNL     1      99.657 -68.930   5.072  1.00  0.00     0.000 C 
BRANCH  20  21
ATOM     21  C   UNL     1     100.828 -67.931   5.063  1.00  0.00     0.000 C 
BRANCH  21  22
ATOM     22  C   UNL     1     102.124 -68.543   5.619  1.00  0.00     0.000 C 
BRANCH  22  23
ATOM     23  C   UNL     1     102.091 -68.765   7.150  1.00  0.00     0.000 C 
BRANCH  23  24
ATOM     24  C   UNL     1     101.404 -67.615   7.911  1.00  0.00    -0.000 C 
BRANCH  24  25
ATOM     25  C   UNL     1     102.095 -66.245   7.733  1.00  0.00    -0.000 C 
BRANCH  25  26
ATOM     26  C   UNL     1     101.603 -65.132   8.683  1.00  0.00    -0.000 C 
BRANCH  26  27
ATOM     27  C   UNL     1     101.470 -65.539  10.161  1.00  0.00    -0.000 C 
BRANCH  27  28
ATOM     28  C   UNL     1     100.007 -65.683  10.611  1.00  0.00    -0.000 C 
BRANCH  28  29
ATOM     29  C   UNL     1      99.810 -66.858  11.584  1.00  0.00    -0.000 C 
BRANCH  29  30
ATOM     30  C   UNL     1     100.156 -68.228  10.954  1.00  0.00    -0.000 C 
BRANCH  30  31
ATOM     31  C   UNL     1     101.545 -68.750  11.359  1.00  0.00    -0.003 C 
ATOM     32  C   UNL     1     101.831 -68.584  12.851  1.00  0.00     0.004 C 
ENDBRANCH  30  31
ENDBRANCH  29  30
ENDBRANCH  28  29
ENDBRANCH  27  28
ENDBRANCH  26  27
ENDBRANCH  25  26
ENDBRANCH  24  25
ENDBRANCH  23  24
ENDBRANCH  22  23
ENDBRANCH  21  22
ENDBRANCH  20  21
ENDBRANCH  19  20
ENDBRANCH  18  19
ENDBRANCH   1  18
TORSDOF 28
ENDMDL
MODEL 2
REMARK VINA RESULT:    -2.479      2.298      9.769
REMARK INTER + INTRA:          -9.753
REMARK INTER:                  -6.939
REMARK INTRA:                  -2.814
REMARK UNBOUND:                -3.217
REMARK SMILES CCCCCCCCCCCCCCCCCCCCCCCCCCCCCC(=O)[O-]
REMARK SMILES IDX 16 1 17 2 18 3 19 4 20 5 21 6 22 7 23 8 24 9 25 10 26 11
REMARK SMILES IDX 27 12 28 13 29 14 30 15 31 16 32 17 15 18 14 19 13 20 12 21
REMARK SMILES IDX 11 22 10 23 9 24 8 25 7 26 6 27 5 28 4 29 3 30 2 31 1 32
REMARK H PARENT
REMARK Flexibility Score: inf
ROOT
ATOM      1  C   UNL     1      97.704 -67.880   3.757  1.00  0.00     0.000 C 
ENDROOT
BRANCH   1   2
ATOM      2  C   UNL     1      99.082 -68.553   3.621  1.00  0.00     0.000 C 
BRANCH   2   3
ATOM      3  C   UNL     1     100.246 -67.547   3.617  1.00  0.00     0.000 C 
BRANCH   3   4
ATOM      4  C   UNL     1     100.536 -66.987   5.019  1.00  0.00     0.000 C 
BRANCH   4   5
ATOM      5  C   UNL     1     101.083 -65.552   4.987  1.00  0.00     0.000 C 
BRANCH   5   6
ATOM      6  C   UNL     1     102.125 -65.344   6.095  1.00  0.00     0.000 C 
BRANCH   6   7
ATOM      7  C   UNL     1     101.498 -65.311   7.499  1.00  0.00     0.000 C 
BRANCH   7   8
ATOM      8  C   UNL     1     101.942 -66.498   8.370  1.00  0.00     0.000 C 
BRANCH   8   9
ATOM      9  C   UNL     1     101.155 -67.788   8.052  1.00  0.00     0.000 C 
BRANCH   9  10
ATOM     10  C   UNL     1     100.896 -68.684   9.278  1.00  0.00     0.000 C 
BRANCH  10  11
ATOM     11  C   UNL     1     101.908 -68.528  10.426  1.00  0.00     0.000 C 
BRANCH  11  12
ATOM     12  C   UNL     1     101.242 -68.506  11.810  1.00  0.00     0.000 C 
BRANCH  12  13
ATOM     13  C   UNL     1     101.889 -67.453  12.717  1.00  0.00     0.006 C 
BRANCH  13  14
ATOM     14  C   UNL     1     101.973 -66.097  12.007  1.00  0.00     0.053 C 
BRANCH  14  15
ATOM     15  C   UNL     1     100.622 -65.462  11.890  1.00  0.00     0.041 C 
ATOM     16  O   UNL     1     100.106 -64.877  12.879  1.00  0.00    -0.550 OA
ATOM     17  O   UNL     1      99.912 -65.552  10.699  1.00  0.00    -0.550 OA
ENDBRANCH  14  15
ENDBRANCH  13  14
ENDBRANCH  12  13
ENDBRANCH  11  12
ENDBRANCH  10  11
ENDBRANCH   9  10
ENDBRANCH   8   9
ENDBRANCH   7   8
ENDBRANCH   6   7
ENDBRANCH   5   6
ENDBRANCH   4   5
ENDBRANCH   3   4
ENDBRANCH   2   3
ENDBRANCH   1   2
BRANCH   1  18
ATOM     18  C   UNL     1      97.700 -66.347   3.598  1.00  0.00     0.000 C 
BRANCH  18  19
ATOM     19  C   UNL     1      97.718 -65.893   2.129  1.00  0.00     0.000 C 
BRANCH  19  20
ATOM     20  C   UNL     1      98.902 -64.965   1.815  1.00  0.00     0.000 C 
BRANCH  20  21
ATOM     21  C   UNL     1      99.389 -65.116   0.363  1.00  0.00     0.000 C 
BRANCH  21  22
ATOM     22  C   UNL     1     100.888 -65.447   0.279  1.00  0.00     0.000 C 
BRANCH  22  23
ATOM     23  C   UNL     1     101.173 -66.946   0.026  1.00  0.00     0.000 C 
BRANCH  23  24
ATOM     24  C   UNL     1     101.965 -67.198  -1.272  1.00  0.00    -0.000 C 
BRANCH  24  25
ATOM     25  C   UNL     1     102.068 -65.963  -2.193  1.00  0.00    -0.000 C 
BRANCH  25  26
ATOM     26  C   UNL     1     101.567 -66.175  -3.637  1.00  0.00    -0.000 C 
BRANCH  26  27
ATOM     27  C   UNL     1     100.387 -67.152  -3.787  1.00  0.00    -0.000 C 
BRANCH  27  28
ATOM     28  C   UNL     1      99.068 -66.582  -3.240  1.00  0.00    -0.000 C 
BRANCH  28  29
ATOM     29  C   UNL     1      98.131 -67.685  -2.716  1.00  0.00    -0.000 C 
BRANCH  29  30
ATOM     30  C   UNL     1      98.671 -68.384  -1.446  1.00  0.00    -0.000 C 
BRANCH  30  31
ATOM     31  C   UNL     1      97.682 -69.393  -0.841  1.00  0.00    -0.003 C 
ATOM     32  C   UNL     1      98.299 -70.236   0.274  1.00  0.00     0.004 C 
ENDBRANCH  30  31
ENDBRANCH  29  30
ENDBRANCH  28  29
ENDBRANCH  27  28
ENDBRANCH  26  27
ENDBRANCH  25  26
ENDBRANCH  24  25
ENDBRANCH  23  24
ENDBRANCH  22  23
ENDBRANCH  21  22
ENDBRANCH  20  21
ENDBRANCH  19  20
ENDBRANCH  18  19
ENDBRANCH   1  18
TORSDOF 28
ENDMDL
MODEL 3
REMARK VINA RESULT:    -2.434      2.607      9.212
REMARK INTER + INTRA:          -9.636
REMARK INTER:                  -7.061
REMARK INTRA:                  -2.576
REMARK UNBOUND:                -3.217
REMARK SMILES CCCCCCCCCCCCCCCCCCCCCCCCCCCCCC(=O)[O-]
REMARK SMILES IDX 16 1 17 2 18 3 19 4 20 5 21 6 22 7 23 8 24 9 25 10 26 11
REMARK SMILES IDX 27 12 28 13 29 14 30 15 31 16 32 17 15 18 14 19 13 20 12 21
REMARK SMILES IDX 11 22 10 23 9 24 8 25 7 26 6 27 5 28 4 29 3 30 2 31 1 32
REMARK H PARENT
REMARK Flexibility Score: inf
ROOT
ATOM      1  C   UNL     1      98.142 -65.090   1.057  1.00  0.00     0.000 C 
ENDROOT
BRANCH   1   2
ATOM      2  C   UNL     1      99.665 -64.875   1.117  1.00  0.00     0.000 C 
BRANCH   2   3
ATOM      3  C   UNL     1     100.329 -64.878  -0.271  1.00  0.00     0.000 C 
BRANCH   3   4
ATOM      4  C   UNL     1     101.609 -65.728  -0.303  1.00  0.00     0.000 C 
BRANCH   4   5
ATOM      5  C   UNL     1     101.861 -66.477   1.014  1.00  0.00     0.000 C 
BRANCH   5   6
ATOM      6  C   UNL     1     102.031 -65.487   2.175  1.00  0.00     0.000 C 
BRANCH   6   7
ATOM      7  C   UNL     1     102.115 -66.187   3.542  1.00  0.00     0.000 C 
BRANCH   7   8
ATOM      8  C   UNL     1     100.819 -66.039   4.359  1.00  0.00     0.000 C 
BRANCH   8   9
ATOM      9  C   UNL     1     100.835 -66.895   5.644  1.00  0.00     0.000 C 
BRANCH   9  10
ATOM     10  C   UNL     1     100.400 -68.358   5.430  1.00  0.00     0.000 C 
BRANCH  10  11
ATOM     11  C   UNL     1     100.982 -69.364   6.436  1.00  0.00     0.000 C 
BRANCH  11  12
ATOM     12  C   UNL     1     101.877 -68.702   7.494  1.00  0.00     0.000 C 
BRANCH  12  13
ATOM     13  C   UNL     1     101.359 -68.981   8.910  1.00  0.00     0.006 C 
BRANCH  13  14
ATOM     14  C   UNL     1     100.999 -67.675   9.628  1.00  0.00     0.053 C 
BRANCH  14  15
ATOM     15  C   UNL     1     100.665 -67.922  11.066  1.00  0.00     0.041 C 
ATOM     16  O   UNL     1     100.242 -66.982  11.791  1.00  0.00    -0.550 OA
ATOM     17  O   UNL     1     100.862 -69.181  11.621  1.00  0.00    -0.550 OA
ENDBRANCH  14  15
ENDBRANCH  13  14
ENDBRANCH  12  13
ENDBRANCH  11  12
ENDBRANCH  10  11
ENDBRANCH   9  10
ENDBRANCH   8   9
ENDBRANCH   7   8
ENDBRANCH   6   7
ENDBRANCH   5   6
ENDBRANCH   4   5
ENDBRANCH   3   4
ENDBRANCH   2   3
ENDBRANCH   1   2
BRANCH   1  18
ATOM     18  C   UNL     1      97.415 -65.037   2.415  1.00  0.00     0.000 C 
BRANCH  18  19
ATOM     19  C   UNL     1      96.650 -66.331   2.740  1.00  0.00     0.000 C 
BRANCH  19  20
ATOM     20  C   UNL     1      97.354 -67.177   3.813  1.00  0.00     0.000 C 
BRANCH  20  21
ATOM     21  C   UNL     1      98.329 -68.198   3.200  1.00  0.00     0.000 C 
BRANCH  21  22
ATOM     22  C   UNL     1      98.346 -68.142   1.664  1.00  0.00     0.000 C 
BRANCH  22  23
ATOM     23  C   UNL     1      98.514 -69.529   1.000  1.00  0.00     0.000 C 
BRANCH  23  24
ATOM     24  C   UNL     1      98.479 -69.470  -0.539  1.00  0.00    -0.000 C 
BRANCH  24  25
ATOM     25  C   UNL     1      98.815 -68.079  -1.120  1.00  0.00    -0.000 C 
BRANCH  25  26
ATOM     26  C   UNL     1      97.644 -67.358  -1.820  1.00  0.00    -0.000 C 
BRANCH  26  27
ATOM     27  C   UNL     1      98.050 -66.248  -2.805  1.00  0.00    -0.000 C 
BRANCH  27  28
ATOM     28  C   UNL     1      97.737 -66.604  -4.268  1.00  0.00    -0.000 C 
BRANCH  28  29
ATOM     29  C   UNL     1      99.013 -66.827  -5.098  1.00  0.00    -0.000 C 
BRANCH  29  30
ATOM     30  C   UNL     1     100.292 -66.329  -4.386  1.00  0.00    -0.000 C 
BRANCH  30  31
ATOM     31  C   UNL     1     101.467 -67.316  -4.485  1.00  0.00    -0.003 C 
ATOM     32  C   UNL     1     101.446 -68.380  -3.388  1.00  0.00     0.004 C 
ENDBRANCH  30  31
ENDBRANCH  29  30
ENDBRANCH  28  29
ENDBRANCH  27  28
ENDBRANCH  26  27
ENDBRANCH  25  26
ENDBRANCH  24  25
ENDBRANCH  23  24
ENDBRANCH  22  23
ENDBRANCH  21  22
ENDBRANCH  20  21
ENDBRANCH  19  20
ENDBRANCH  18  19
ENDBRANCH   1  18
TORSDOF 28
ENDMDL
MODEL 4
REMARK VINA RESULT:    -2.419      2.584      7.721
REMARK INTER + INTRA:          -9.596
REMARK INTER:                  -6.760
REMARK INTRA:                  -2.836
REMARK UNBOUND:                -3.217
REMARK SMILES CCCCCCCCCCCCCCCCCCCCCCCCCCCCCC(=O)[O-]
REMARK SMILES IDX 16 1 17 2 18 3 19 4 20 5 21 6 22 7 23 8 24 9 25 10 26 11
REMARK SMILES IDX 27 12 28 13 29 14 30 15 31 16 32 17 15 18 14 19 13 20 12 21
REMARK SMILES IDX 11 22 10 23 9 24 8 25 7 26 6 27 5 28 4 29 3 30 2 31 1 32
REMARK H PARENT
REMARK Flexibility Score: inf
ROOT
ATOM      1  C   UNL     1      98.807 -69.204  -0.377  1.00  0.00     0.000 C 
ENDROOT
BRANCH   1   2
ATOM      2  C   UNL     1      98.607 -68.208   0.780  1.00  0.00     0.000 C 
BRANCH   2   3
ATOM      3  C   UNL     1      99.909 -67.896   1.538  1.00  0.00     0.000 C 
BRANCH   3   4
ATOM      4  C   UNL     1     100.611 -66.640   0.997  1.00  0.00     0.000 C 
BRANCH   4   5
ATOM      5  C   UNL     1     102.015 -66.441   1.586  1.00  0.00     0.000 C 
BRANCH   5   6
ATOM      6  C   UNL     1     102.107 -65.100   2.327  1.00  0.00     0.000 C 
BRANCH   6   7
ATOM      7  C   UNL     1     100.942 -64.883   3.306  1.00  0.00     0.000 C 
BRANCH   7   8
ATOM      8  C   UNL     1     101.390 -64.942   4.777  1.00  0.00     0.000 C 
BRANCH   8   9
ATOM      9  C   UNL     1     101.537 -66.391   5.289  1.00  0.00     0.000 C 
BRANCH   9  10
ATOM     10  C   UNL     1     102.125 -66.499   6.709  1.00  0.00     0.000 C 
BRANCH  10  11
ATOM     11  C   UNL     1     101.358 -65.722   7.793  1.00  0.00     0.000 C 
BRANCH  11  12
ATOM     12  C   UNL     1     100.874 -66.621   8.941  1.00  0.00     0.000 C 
BRANCH  12  13
ATOM     13  C   UNL     1     100.922 -68.101   8.542  1.00  0.00     0.006 C 
BRANCH  13  14
ATOM     14  C   UNL     1     101.589 -68.941   9.637  1.00  0.00     0.053 C 
BRANCH  14  15
ATOM     15  C   UNL     1     100.860 -68.814  10.938  1.00  0.00     0.041 C 
ATOM     16  O   UNL     1      99.603 -68.878  10.972  1.00  0.00    -0.550 OA
ATOM     17  O   UNL     1     101.567 -68.581  12.112  1.00  0.00    -0.550 OA
ENDBRANCH  14  15
ENDBRANCH  13  14
ENDBRANCH  12  13
ENDBRANCH  11  12
ENDBRANCH  10  11
ENDBRANCH   9  10
ENDBRANCH   8   9
ENDBRANCH   7   8
ENDBRANCH   6   7
ENDBRANCH   5   6
ENDBRANCH   4   5
ENDBRANCH   3   4
ENDBRANCH   2   3
ENDBRANCH   1   2
BRANCH   1  18
ATOM     18  C   UNL     1      97.780 -69.099  -1.522  1.00  0.00     0.000 C 
BRANCH  18  19
ATOM     19  C   UNL     1      98.108 -67.980  -2.525  1.00  0.00     0.000 C 
BRANCH  19  20
ATOM     20  C   UNL     1      99.197 -68.391  -3.529  1.00  0.00     0.000 C 
BRANCH  20  21
ATOM     21  C   UNL     1     100.364 -67.388  -3.562  1.00  0.00     0.000 C 
BRANCH  21  22
ATOM     22  C   UNL     1     100.416 -66.508  -2.302  1.00  0.00     0.000 C 
BRANCH  22  23
ATOM     23  C   UNL     1      99.487 -65.274  -2.376  1.00  0.00     0.000 C 
BRANCH  23  24
ATOM     24  C   UNL     1      98.881 -64.893  -1.012  1.00  0.00    -0.000 C 
BRANCH  24  25
ATOM     25  C   UNL     1      97.345 -65.036  -0.946  1.00  0.00    -0.000 C 
BRANCH  25  26
ATOM     26  C   UNL     1      96.734 -64.927   0.467  1.00  0.00    -0.000 C 
BRANCH  26  27
ATOM     27  C   UNL     1      97.686 -65.277   1.624  1.00  0.00    -0.000 C 
BRANCH  27  28
ATOM     28  C   UNL     1      96.974 -65.334   2.986  1.00  0.00    -0.000 C 
BRANCH  28  29
ATOM     29  C   UNL     1      96.952 -66.757   3.572  1.00  0.00    -0.000 C 
BRANCH  29  30
ATOM     30  C   UNL     1      98.275 -67.142   4.274  1.00  0.00    -0.000 C 
BRANCH  30  31
ATOM     31  C   UNL     1      98.405 -68.650   4.542  1.00  0.00    -0.003 C 
ATOM     32  C   UNL     1      99.617 -68.999   5.405  1.00  0.00     0.004 C 
ENDBRANCH  30  31
ENDBRANCH  29  30
ENDBRANCH  28  29
ENDBRANCH  27  28
ENDBRANCH  26  27
ENDBRANCH  25  26
ENDBRANCH  24  25
ENDBRANCH  23  24
ENDBRANCH  22  23
ENDBRANCH  21  22
ENDBRANCH  20  21
ENDBRANCH  19  20
ENDBRANCH  18  19
ENDBRANCH   1  18
TORSDOF 28
ENDMDL
MODEL 5
REMARK VINA RESULT:    -2.415      2.681      8.320
REMARK INTER + INTRA:          -9.585
REMARK INTER:                  -6.485
REMARK INTRA:                  -3.100
REMARK UNBOUND:                -3.217
REMARK SMILES CCCCCCCCCCCCCCCCCCCCCCCCCCCCCC(=O)[O-]
REMARK SMILES IDX 16 1 17 2 18 3 19 4 20 5 21 6 22 7 23 8 24 9 25 10 26 11
REMARK SMILES IDX 27 12 28 13 29 14 30 15 31 16 32 17 15 18 14 19 13 20 12 21
REMARK SMILES IDX 11 22 10 23 9 24 8 25 7 26 6 27 5 28 4 29 3 30 2 31 1 32
REMARK H PARENT
REMARK Flexibility Score: inf
ROOT
ATOM      1  C   UNL     1      98.394 -67.838  -0.863  1.00  0.00     0.000 C 
ENDROOT
BRANCH   1   2
ATOM      2  C   UNL     1      99.203 -68.888  -0.080  1.00  0.00     0.000 C 
BRANCH   2   3
ATOM      3  C   UNL     1      99.751 -68.353   1.255  1.00  0.00     0.000 C 
BRANCH   3   4
ATOM      4  C   UNL     1     101.261 -68.067   1.192  1.00  0.00     0.000 C 
BRANCH   4   5
ATOM      5  C   UNL     1     101.791 -67.383   2.460  1.00  0.00     0.000 C 
BRANCH   5   6
ATOM      6  C   UNL     1     101.858 -68.380   3.626  1.00  0.00     0.000 C 
BRANCH   6   7
ATOM      7  C   UNL     1     101.561 -67.723   4.984  1.00  0.00     0.000 C 
BRANCH   7   8
ATOM      8  C   UNL     1     101.849 -66.212   4.983  1.00  0.00     0.000 C 
BRANCH   8   9
ATOM      9  C   UNL     1     100.948 -65.441   5.971  1.00  0.00     0.000 C 
BRANCH   9  10
ATOM     10  C   UNL     1     101.610 -65.157   7.334  1.00  0.00     0.000 C 
BRANCH  10  11
ATOM     11  C   UNL     1     100.845 -65.695   8.555  1.00  0.00     0.000 C 
BRANCH  11  12
ATOM     12  C   UNL     1     101.570 -66.859   9.248  1.00  0.00     0.000 C 
BRANCH  12  13
ATOM     13  C   UNL     1     100.951 -68.206   8.856  1.00  0.00     0.006 C 
BRANCH  13  14
ATOM     14  C   UNL     1     100.443 -68.955  10.093  1.00  0.00     0.053 C 
BRANCH  14  15
ATOM     15  C   UNL     1     101.098 -68.449  11.341  1.00  0.00     0.041 C 
ATOM     16  O   UNL     1     102.125 -69.019  11.796  1.00  0.00    -0.550 OA
ATOM     17  O   UNL     1     100.550 -67.372  12.027  1.00  0.00    -0.550 OA
ENDBRANCH  14  15
ENDBRANCH  13  14
ENDBRANCH  12  13
ENDBRANCH  11  12
ENDBRANCH  10  11
ENDBRANCH   9  10
ENDBRANCH   8   9
ENDBRANCH   7   8
ENDBRANCH   6   7
ENDBRANCH   5   6
ENDBRANCH   4   5
ENDBRANCH   3   4
ENDBRANCH   2   3
ENDBRANCH   1   2
BRANCH   1  18
ATOM     18  C   UNL     1      98.029 -68.230  -2.308  1.00  0.00     0.000 C 
BRANCH  18  19
ATOM     19  C   UNL     1      98.797 -67.420  -3.365  1.00  0.00     0.000 C 
BRANCH  19  20
ATOM     20  C   UNL     1      99.628 -68.313  -4.301  1.00  0.00     0.000 C 
BRANCH  20  21
ATOM     21  C   UNL     1     100.764 -67.536  -4.988  1.00  0.00     0.000 C 
BRANCH  21  22
ATOM     22  C   UNL     1     101.519 -66.617  -4.013  1.00  0.00     0.000 C 
BRANCH  22  23
ATOM     23  C   UNL     1     101.525 -67.140  -2.558  1.00  0.00     0.000 C 
BRANCH  23  24
ATOM     24  C   UNL     1     101.985 -66.079  -1.538  1.00  0.00    -0.000 C 
BRANCH  24  25
ATOM     25  C   UNL     1     100.988 -64.915  -1.353  1.00  0.00    -0.000 C 
BRANCH  25  26
ATOM     26  C   UNL     1     100.254 -64.887   0.005  1.00  0.00    -0.000 C 
BRANCH  26  27
ATOM     27  C   UNL     1      98.718 -64.890  -0.079  1.00  0.00    -0.000 C 
BRANCH  27  28
ATOM     28  C   UNL     1      98.045 -64.877   1.304  1.00  0.00    -0.000 C 
BRANCH  28  29
ATOM     29  C   UNL     1      99.026 -65.242   2.432  1.00  0.00    -0.000 C 
BRANCH  29  30
ATOM     30  C   UNL     1      98.322 -65.503   3.784  1.00  0.00    -0.000 C 
BRANCH  30  31
ATOM     31  C   UNL     1      97.076 -66.395   3.658  1.00  0.00    -0.003 C 
ATOM     32  C   UNL     1      97.416 -67.878   3.523  1.00  0.00     0.004 C 
ENDBRANCH  30  31
ENDBRANCH  29  30
ENDBRANCH  28  29
ENDBRANCH  27  28
ENDBRANCH  26  27
ENDBRANCH  25  26
ENDBRANCH  24  25
ENDBRANCH  23  24
ENDBRANCH  22  23
ENDBRANCH  21  22
ENDBRANCH  20  21
ENDBRANCH  19  20
ENDBRANCH  18  19
ENDBRANCH   1  18
TORSDOF 28
ENDMDL
MODEL 6
REMARK VINA RESULT:    -2.323      2.622      8.897
REMARK INTER + INTRA:          -9.342
REMARK INTER:                  -6.172
REMARK INTRA:                  -3.170
REMARK UNBOUND:                -3.217
REMARK SMILES CCCCCCCCCCCCCCCCCCCCCCCCCCCCCC(=O)[O-]
REMARK SMILES IDX 16 1 17 2 18 3 19 4 20 5 21 6 22 7 23 8 24 9 25 10 26 11
REMARK SMILES IDX 27 12 28 13 29 14 30 15 31 16 32 17 15 18 14 19 13 20 12 21
REMARK SMILES IDX 11 22 10 23 9 24 8 25 7 26 6 27 5 28 4 29 3 30 2 31 1 32
REMARK H PARENT
REMARK Flexibility Score: inf
ROOT
ATOM      1  C   UNL     1      97.627 -67.739  -1.164  1.00  0.00     0.000 C 
ENDROOT
BRANCH   1   2
ATOM      2  C   UNL     1      99.057 -67.788  -0.595  1.00  0.00     0.000 C 
BRANCH   2   3
ATOM      3  C   UNL     1      99.239 -68.868   0.486  1.00  0.00     0.000 C 
BRANCH   3   4
ATOM      4  C   UNL     1     100.476 -68.611   1.362  1.00  0.00     0.000 C 
BRANCH   4   5
ATOM      5  C   UNL     1     100.117 -68.109   2.768  1.00  0.00     0.000 C 
BRANCH   5   6
ATOM      6  C   UNL     1     101.376 -67.981   3.637  1.00  0.00     0.000 C 
BRANCH   6   7
ATOM      7  C   UNL     1     101.140 -68.420   5.091  1.00  0.00     0.000 C 
BRANCH   7   8
ATOM      8  C   UNL     1     101.902 -69.707   5.449  1.00  0.00     0.000 C 
BRANCH   8   9
ATOM      9  C   UNL     1     102.071 -69.886   6.973  1.00  0.00     0.000 C 
BRANCH   9  10
ATOM     10  C   UNL     1     101.334 -68.826   7.815  1.00  0.00     0.000 C 
BRANCH  10  11
ATOM     11  C   UNL     1     101.961 -67.422   7.789  1.00  0.00     0.000 C 
BRANCH  11  12
ATOM     12  C   UNL     1     101.645 -66.603   9.050  1.00  0.00     0.000 C 
BRANCH  12  13
ATOM     13  C   UNL     1     100.312 -67.039   9.671  1.00  0.00     0.006 C 
BRANCH  13  14
ATOM     14  C   UNL     1     100.366 -66.949  11.200  1.00  0.00     0.053 C 
BRANCH  14  15
ATOM     15  C   UNL     1     101.088 -68.122  11.787  1.00  0.00     0.041 C 
ATOM     16  O   UNL     1     100.801 -69.293  11.423  1.00  0.00    -0.550 OA
ATOM     17  O   UNL     1     102.051 -67.925  12.770  1.00  0.00    -0.550 OA
ENDBRANCH  14  15
ENDBRANCH  13  14
ENDBRANCH  12  13
ENDBRANCH  11  12
ENDBRANCH  10  11
ENDBRANCH   9  10
ENDBRANCH   8   9
ENDBRANCH   7   8
ENDBRANCH   6   7
ENDBRANCH   5   6
ENDBRANCH   4   5
ENDBRANCH   3   4
ENDBRANCH   2   3
ENDBRANCH   1   2
BRANCH   1  18
ATOM     18  C   UNL     1      97.507 -68.023  -2.673  1.00  0.00     0.000 C 
BRANCH  18  19
ATOM     19  C   UNL     1      97.525 -66.747  -3.530  1.00  0.00     0.000 C 
BRANCH  19  20
ATOM     20  C   UNL     1      98.485 -66.854  -4.726  1.00  0.00     0.000 C 
BRANCH  20  21
ATOM     21  C   UNL     1      99.256 -68.185  -4.734  1.00  0.00     0.000 C 
BRANCH  21  22
ATOM     22  C   UNL     1     100.740 -68.001  -5.095  1.00  0.00     0.000 C 
BRANCH  22  23
ATOM     23  C   UNL     1     101.643 -67.743  -3.866  1.00  0.00     0.000 C 
BRANCH  23  24
ATOM     24  C   UNL     1     102.062 -66.266  -3.726  1.00  0.00    -0.000 C 
BRANCH  24  25
ATOM     25  C   UNL     1     101.174 -65.451  -2.761  1.00  0.00    -0.000 C 
BRANCH  25  26
ATOM     26  C   UNL     1     101.673 -65.390  -1.302  1.00  0.00    -0.000 C 
BRANCH  26  27
ATOM     27  C   UNL     1     100.646 -64.875  -0.278  1.00  0.00    -0.000 C 
BRANCH  27  28
ATOM     28  C   UNL     1     101.092 -65.094   1.177  1.00  0.00    -0.000 C 
BRANCH  28  29
ATOM     29  C   UNL     1      99.944 -64.875   2.178  1.00  0.00    -0.000 C 
BRANCH  29  30
ATOM     30  C   UNL     1      98.546 -64.976   1.524  1.00  0.00    -0.000 C 
BRANCH  30  31
ATOM     31  C   UNL     1      97.488 -65.604   2.446  1.00  0.00    -0.003 C 
ATOM     32  C   UNL     1      97.931 -65.662   3.908  1.00  0.00     0.004 C 
ENDBRANCH  30  31
ENDBRANCH  29  30
ENDBRANCH  28  29
ENDBRANCH  27  28
ENDBRANCH  26  27
ENDBRANCH  25  26
ENDBRANCH  24  25
ENDBRANCH  23  24
ENDBRANCH  22  23
ENDBRANCH  21  22
ENDBRANCH  20  21
ENDBRANCH  19  20
ENDBRANCH  18  19
ENDBRANCH   1  18
TORSDOF 28
ENDMDL
MODEL 7
REMARK VINA RESULT:    -1.451      2.662     10.016
REMARK INTER + INTRA:          -7.043
REMARK INTER:                  -4.642
REMARK INTRA:                  -2.402
REMARK UNBOUND:                -3.217
REMARK SMILES CCCCCCCCCCCCCCCCCCCCCCCCCCCCCC(=O)[O-]
REMARK SMILES IDX 16 1 17 2 18 3 19 4 20 5 21 6 22 7 23 8 24 9 25 10 26 11
REMARK SMILES IDX 27 12 28 13 29 14 30 15 31 16 32 17 15 18 14 19 13 20 12 21
REMARK SMILES IDX 11 22 10 23 9 24 8 25 7 26 6 27 5 28 4 29 3 30 2 31 1 32
REMARK H PARENT
REMARK Flexibility Score: inf
ROOT
ATOM      1  C   UNL     1      97.708 -67.094   2.759  1.00  0.00     0.000 C 
ENDROOT
BRANCH   1   2
ATOM      2  C   UNL     1      98.979 -66.231   2.663  1.00  0.00     0.000 C 
BRANCH   2   3
ATOM      3  C   UNL     1      99.550 -65.845   4.039  1.00  0.00     0.000 C 
BRANCH   3   4
ATOM      4  C   UNL     1     101.086 -65.910   4.071  1.00  0.00     0.000 C 
BRANCH   4   5
ATOM      5  C   UNL     1     101.645 -67.155   3.368  1.00  0.00     0.000 C 
BRANCH   5   6
ATOM      6  C   UNL     1     101.258 -68.428   4.133  1.00  0.00     0.000 C 
BRANCH   6   7
ATOM      7  C   UNL     1     101.969 -68.544   5.491  1.00  0.00     0.000 C 
BRANCH   7   8
ATOM      8  C   UNL     1     100.982 -68.598   6.670  1.00  0.00     0.000 C 
BRANCH   8   9
ATOM      9  C   UNL     1     101.693 -68.494   8.037  1.00  0.00     0.000 C 
BRANCH   9  10
ATOM     10  C   UNL     1     101.935 -67.047   8.510  1.00  0.00     0.000 C 
BRANCH  10  11
ATOM     11  C   UNL     1     100.869 -66.030   8.071  1.00  0.00     0.000 C 
BRANCH  11  12
ATOM     12  C   UNL     1     100.245 -65.271   9.252  1.00  0.00     0.000 C 
BRANCH  12  13
ATOM     13  C   UNL     1     100.857 -65.724  10.583  1.00  0.00     0.006 C 
BRANCH  13  14
ATOM     14  C   UNL     1     100.024 -66.844  11.215  1.00  0.00     0.053 C 
BRANCH  14  15
ATOM     15  C   UNL     1     100.892 -67.977  11.668  1.00  0.00     0.041 C 
ATOM     16  O   UNL     1     101.934 -67.750  12.339  1.00  0.00    -0.550 OA
ATOM     17  O   UNL     1     100.576 -69.282  11.312  1.00  0.00    -0.550 OA
ENDBRANCH  14  15
ENDBRANCH  13  14
ENDBRANCH  12  13
ENDBRANCH  11  12
ENDBRANCH  10  11
ENDBRANCH   9  10
ENDBRANCH   8   9
ENDBRANCH   7   8
ENDBRANCH   6   7
ENDBRANCH   5   6
ENDBRANCH   4   5
ENDBRANCH   3   4
ENDBRANCH   2   3
ENDBRANCH   1   2
BRANCH   1  18
ATOM     18  C   UNL     1      97.934 -68.615   2.651  1.00  0.00     0.000 C 
BRANCH  18  19
ATOM     19  C   UNL     1      98.952 -68.998   1.564  1.00  0.00     0.000 C 
BRANCH  19  20
ATOM     20  C   UNL     1      98.367 -68.887   0.146  1.00  0.00     0.000 C 
BRANCH  20  21
ATOM     21  C   UNL     1      99.268 -68.062  -0.791  1.00  0.00     0.000 C 
BRANCH  21  22
ATOM     22  C   UNL     1     100.285 -67.205  -0.020  1.00  0.00     0.000 C 
BRANCH  22  23
ATOM     23  C   UNL     1     101.755 -67.526  -0.378  1.00  0.00     0.000 C 
BRANCH  23  24
ATOM     24  C   UNL     1     102.125 -67.130  -1.821  1.00  0.00    -0.000 C 
BRANCH  24  25
ATOM     25  C   UNL     1     101.482 -68.026  -2.901  1.00  0.00    -0.000 C 
BRANCH  25  26
ATOM     26  C   UNL     1     101.606 -67.503  -4.349  1.00  0.00    -0.000 C 
BRANCH  26  27
ATOM     27  C   UNL     1     102.034 -66.031  -4.481  1.00  0.00    -0.000 C 
BRANCH  27  28
ATOM     28  C   UNL     1     100.910 -65.048  -4.114  1.00  0.00    -0.000 C 
BRANCH  28  29
ATOM     29  C   UNL     1      99.750 -65.086  -5.125  1.00  0.00    -0.000 C 
BRANCH  29  30
ATOM     30  C   UNL     1      98.366 -65.239  -4.451  1.00  0.00    -0.000 C 
BRANCH  30  31
ATOM     31  C   UNL     1      98.379 -66.196  -3.247  1.00  0.00    -0.003 C 
ATOM     32  C   UNL     1      97.246 -67.220  -3.289  1.00  0.00     0.004 C 
ENDBRANCH  30  31
ENDBRANCH  29  30
ENDBRANCH  28  29
ENDBRANCH  27  28
ENDBRANCH  26  27
ENDBRANCH  25  26
ENDBRANCH  24  25
ENDBRANCH  23  24
ENDBRANCH  22  23
ENDBRANCH  21  22
ENDBRANCH  20  21
ENDBRANCH  19  20
ENDBRANCH  18  19
ENDBRANCH   1  18
TORSDOF 28
ENDMDL
