MODEL 1
REMARK VINA RESULT:    -6.898      0.000      0.000
REMARK INTER + INTRA:          -8.790
REMARK INTER:                  -8.511
REMARK INTRA:                  -0.279
REMARK UNBOUND:                -0.279
REMARK SMILES Oc1cc(O)c2cc(O)c(-c3cc(O)c(O)c(O)c3)[o+]c2c1
REMARK SMILES IDX 10 1 20 2 21 3 22 4 2 5 3 6 4 7 6 8 7 9 8 10 11 11 12 12
REMARK SMILES IDX 13 13 19 14 15 15 17 16 14 17 16 19 18 21 9 23 1 25 5 27
REMARK H PARENT 14 18 16 20 18 22 9 24 1 26 5 28
REMARK Flexibility Score: inf
ROOT
ATOM      1  C   UNL     1      42.723  -9.945  11.707  1.00  0.00     0.402 A 
ATOM      2  O   UNL     1      43.416 -10.028  12.841  1.00  0.00    -0.202 OA
ATOM      3  C   UNL     1      43.165  -9.269  13.904  1.00  0.00     0.368 A 
ATOM      4  C   UNL     1      43.937  -9.421  15.060  1.00  0.00     0.162 A 
ATOM      5  C   UNL     1      43.680  -8.631  16.187  1.00  0.00     0.128 A 
ATOM      6  C   UNL     1      42.649  -7.686  16.157  1.00  0.00     0.093 A 
ATOM      7  C   UNL     1      41.866  -7.522  15.004  1.00  0.00     0.136 A 
ATOM      8  C   UNL     1      42.125  -8.316  13.871  1.00  0.00     0.125 A 
ATOM      9  C   UNL     1      41.383  -8.191  12.691  1.00  0.00     0.078 A 
ATOM     10  C   UNL     1      41.683  -8.999  11.591  1.00  0.00     0.223 A 
ENDROOT
BRANCH   1  11
ATOM     11  C   UNL     1      43.091 -10.850  10.593  1.00  0.00     0.091 A 
ATOM     12  C   UNL     1      43.745 -10.326   9.467  1.00  0.00     0.068 A 
ATOM     13  C   UNL     1      44.122 -11.164   8.409  1.00  0.00     0.162 A 
ATOM     14  C   UNL     1      42.849 -12.232  10.663  1.00  0.00     0.068 A 
ATOM     15  C   UNL     1      43.860 -12.538   8.475  1.00  0.00     0.200 A 
ATOM     16  C   UNL     1      43.226 -13.075   9.608  1.00  0.00     0.162 A 
BRANCH  13  17
ATOM     17  O   UNL     1      44.759 -10.637   7.287  1.00  0.00    -0.504 OA
ATOM     18  H   UNL     1      45.565 -10.028   7.371  1.00  0.00     0.293 HD
ENDBRANCH  13  17
BRANCH  15  19
ATOM     19  O   UNL     1      44.240 -13.356   7.410  1.00  0.00    -0.502 OA
ATOM     20  H   UNL     1      43.905 -14.307   7.315  1.00  0.00     0.293 HD
ENDBRANCH  15  19
BRANCH  16  21
ATOM     21  O   UNL     1      42.976 -14.445   9.684  1.00  0.00    -0.504 OA
ATOM     22  H   UNL     1      42.501 -14.940   8.939  1.00  0.00     0.293 HD
ENDBRANCH  16  21
ENDBRANCH   1  11
BRANCH  10  23
ATOM     23  O   UNL     1      40.981  -8.844  10.396  1.00  0.00    -0.500 OA
ATOM     24  H   UNL     1      40.402  -8.032  10.222  1.00  0.00     0.294 HD
ENDBRANCH  10  23
BRANCH   5  25
ATOM     25  O   UNL     1      44.443  -8.776  17.343  1.00  0.00    -0.507 OA
ATOM     26  H   UNL     1      44.597  -9.685  17.766  1.00  0.00     0.293 HD
ENDBRANCH   5  25
BRANCH   7  27
ATOM     27  O   UNL     1      40.842  -6.575  14.986  1.00  0.00    -0.507 OA
ATOM     28  H   UNL     1      40.647  -5.988  15.789  1.00  0.00     0.293 HD
ENDBRANCH   7  27
TORSDOF 7
ENDMDL
MODEL 2
REMARK VINA RESULT:    -6.841     16.726     19.248
REMARK INTER + INTRA:          -8.719
REMARK INTER:                  -8.338
REMARK INTRA:                  -0.381
REMARK UNBOUND:                -0.279
REMARK SMILES Oc1cc(O)c2cc(O)c(-c3cc(O)c(O)c(O)c3)[o+]c2c1
REMARK SMILES IDX 10 1 20 2 21 3 22 4 2 5 3 6 4 7 6 8 7 9 8 10 11 11 12 12
REMARK SMILES IDX 13 13 19 14 15 15 17 16 14 17 16 19 18 21 9 23 1 25 5 27
REMARK H PARENT 14 18 16 20 18 22 9 24 1 26 5 28
REMARK Flexibility Score: inf
ROOT
ATOM      1  C   UNL     1      57.757 -21.544  10.809  1.00  0.00     0.402 A 
ATOM      2  O   UNL     1      57.073 -21.871  11.904  1.00  0.00    -0.202 OA
ATOM      3  C   UNL     1      57.434 -22.857  12.719  1.00  0.00     0.368 A 
ATOM      4  C   UNL     1      56.663 -23.134  13.852  1.00  0.00     0.162 A 
ATOM      5  C   UNL     1      57.035 -24.168  14.721  1.00  0.00     0.128 A 
ATOM      6  C   UNL     1      58.180 -24.926  14.455  1.00  0.00     0.093 A 
ATOM      7  C   UNL     1      58.963 -24.660  13.321  1.00  0.00     0.136 A 
ATOM      8  C   UNL     1      58.589 -23.621  12.448  1.00  0.00     0.125 A 
ATOM      9  C   UNL     1      59.326 -23.316  11.298  1.00  0.00     0.078 A 
ATOM     10  C   UNL     1      58.909 -22.278  10.460  1.00  0.00     0.223 A 
ENDROOT
BRANCH   1  11
ATOM     11  C   UNL     1      57.261 -20.419   9.982  1.00  0.00     0.091 A 
ATOM     12  C   UNL     1      56.203 -20.637   9.086  1.00  0.00     0.068 A 
ATOM     13  C   UNL     1      55.701 -19.585   8.308  1.00  0.00     0.162 A 
ATOM     14  C   UNL     1      57.788 -19.123  10.116  1.00  0.00     0.068 A 
ATOM     15  C   UNL     1      56.245 -18.301   8.430  1.00  0.00     0.200 A 
ATOM     16  C   UNL     1      57.289 -18.067   9.341  1.00  0.00     0.162 A 
BRANCH  13  17
ATOM     17  O   UNL     1      54.660 -19.810   7.408  1.00  0.00    -0.504 OA
ATOM     18  H   UNL     1      54.627 -20.643   6.832  1.00  0.00     0.293 HD
ENDBRANCH  13  17
BRANCH  15  19
ATOM     19  O   UNL     1      55.735 -17.266   7.644  1.00  0.00    -0.502 OA
ATOM     20  H   UNL     1      55.555 -16.343   8.019  1.00  0.00     0.293 HD
ENDBRANCH  15  19
BRANCH  16  21
ATOM     21  O   UNL     1      57.824 -16.787   9.477  1.00  0.00    -0.504 OA
ATOM     22  H   UNL     1      58.686 -16.622   9.982  1.00  0.00     0.293 HD
ENDBRANCH  16  21
ENDBRANCH   1  11
BRANCH  10  23
ATOM     23  O   UNL     1      59.610 -22.001   9.286  1.00  0.00    -0.500 OA
ATOM     24  H   UNL     1      60.525 -21.565   9.305  1.00  0.00     0.294 HD
ENDBRANCH  10  23
BRANCH   5  25
ATOM     25  O   UNL     1      56.274 -24.450  15.854  1.00  0.00    -0.507 OA
ATOM     26  H   UNL     1      55.315 -24.769  15.781  1.00  0.00     0.293 HD
ENDBRANCH   5  25
BRANCH   7  27
ATOM     27  O   UNL     1      60.101 -25.424  13.065  1.00  0.00    -0.507 OA
ATOM     28  H   UNL     1      60.090 -26.435  13.138  1.00  0.00     0.293 HD
ENDBRANCH   7  27
TORSDOF 7
ENDMDL
MODEL 3
REMARK VINA RESULT:    -6.826      0.162      1.787
REMARK INTER + INTRA:          -8.700
REMARK INTER:                  -8.507
REMARK INTRA:                  -0.194
REMARK UNBOUND:                -0.279
REMARK SMILES Oc1cc(O)c2cc(O)c(-c3cc(O)c(O)c(O)c3)[o+]c2c1
REMARK SMILES IDX 10 1 20 2 21 3 22 4 2 5 3 6 4 7 6 8 7 9 8 10 11 11 12 12
REMARK SMILES IDX 13 13 19 14 15 15 17 16 14 17 16 19 18 21 9 23 1 25 5 27
REMARK H PARENT 14 18 16 20 18 22 9 24 1 26 5 28
REMARK Flexibility Score: inf
ROOT
ATOM      1  C   UNL     1      42.695  -9.938  11.702  1.00  0.00     0.402 A 
ATOM      2  O   UNL     1      43.396 -10.026  12.831  1.00  0.00    -0.202 OA
ATOM      3  C   UNL     1      43.143  -9.283  13.904  1.00  0.00     0.368 A 
ATOM      4  C   UNL     1      43.923  -9.440  15.053  1.00  0.00     0.162 A 
ATOM      5  C   UNL     1      43.664  -8.666  16.192  1.00  0.00     0.128 A 
ATOM      6  C   UNL     1      42.622  -7.733  16.179  1.00  0.00     0.093 A 
ATOM      7  C   UNL     1      41.831  -7.564  15.033  1.00  0.00     0.136 A 
ATOM      8  C   UNL     1      42.092  -8.342  13.889  1.00  0.00     0.125 A 
ATOM      9  C   UNL     1      41.341  -8.211  12.714  1.00  0.00     0.078 A 
ATOM     10  C   UNL     1      41.644  -9.002  11.603  1.00  0.00     0.223 A 
ENDROOT
BRANCH   1  11
ATOM     11  C   UNL     1      43.066 -10.825  10.575  1.00  0.00     0.091 A 
ATOM     12  C   UNL     1      42.916 -12.213  10.713  1.00  0.00     0.068 A 
ATOM     13  C   UNL     1      43.240 -13.073   9.655  1.00  0.00     0.162 A 
ATOM     14  C   UNL     1      43.513 -10.303   9.349  1.00  0.00     0.068 A 
ATOM     15  C   UNL     1      43.705 -12.549   8.442  1.00  0.00     0.200 A 
ATOM     16  C   UNL     1      43.837 -11.159   8.286  1.00  0.00     0.162 A 
BRANCH  13  17
ATOM     17  O   UNL     1      43.101 -14.452   9.801  1.00  0.00    -0.504 OA
ATOM     18  H   UNL     1      42.325 -14.857  10.312  1.00  0.00     0.293 HD
ENDBRANCH  13  17
BRANCH  15  19
ATOM     19  O   UNL     1      44.025 -13.421   7.401  1.00  0.00    -0.502 OA
ATOM     20  H   UNL     1      44.429 -13.096   6.531  1.00  0.00     0.293 HD
ENDBRANCH  15  19
BRANCH  16  21
ATOM     21  O   UNL     1      44.286 -10.632   7.076  1.00  0.00    -0.504 OA
ATOM     22  H   UNL     1      45.066 -11.041   6.575  1.00  0.00     0.293 HD
ENDBRANCH  16  21
ENDBRANCH   1  11
BRANCH  10  23
ATOM     23  O   UNL     1      40.933  -8.841  10.414  1.00  0.00    -0.500 OA
ATOM     24  H   UNL     1      40.067  -8.316  10.380  1.00  0.00     0.294 HD
ENDBRANCH  10  23
BRANCH   5  25
ATOM     25  O   UNL     1      44.436  -8.817  17.342  1.00  0.00    -0.507 OA
ATOM     26  H   UNL     1      44.066  -8.601  18.260  1.00  0.00     0.293 HD
ENDBRANCH   5  25
BRANCH   7  27
ATOM     27  O   UNL     1      40.796  -6.629  15.032  1.00  0.00    -0.507 OA
ATOM     28  H   UNL     1      40.154  -6.547  15.811  1.00  0.00     0.293 HD
ENDBRANCH   7  27
TORSDOF 7
ENDMDL
MODEL 4
REMARK VINA RESULT:    -6.742      2.522      3.891
REMARK INTER + INTRA:          -8.598
REMARK INTER:                  -8.222
REMARK INTRA:                  -0.376
REMARK UNBOUND:                -0.279
REMARK SMILES Oc1cc(O)c2cc(O)c(-c3cc(O)c(O)c(O)c3)[o+]c2c1
REMARK SMILES IDX 10 1 20 2 21 3 22 4 2 5 3 6 4 7 6 8 7 9 8 10 11 11 12 12
REMARK SMILES IDX 13 13 19 14 15 15 17 16 14 17 16 19 18 21 9 23 1 25 5 27
REMARK H PARENT 14 18 16 20 18 22 9 24 1 26 5 28
REMARK Flexibility Score: inf
ROOT
ATOM      1  C   UNL     1      42.821  -8.902  11.625  1.00  0.00     0.402 A 
ATOM      2  O   UNL     1      43.332  -8.326  12.713  1.00  0.00    -0.202 OA
ATOM      3  C   UNL     1      43.285  -8.882  13.920  1.00  0.00     0.368 A 
ATOM      4  C   UNL     1      43.849  -8.214  15.011  1.00  0.00     0.162 A 
ATOM      5  C   UNL     1      43.810  -8.791  16.287  1.00  0.00     0.128 A 
ATOM      6  C   UNL     1      43.206 -10.039  16.470  1.00  0.00     0.093 A 
ATOM      7  C   UNL     1      42.635 -10.721  15.385  1.00  0.00     0.136 A 
ATOM      8  C   UNL     1      42.674 -10.140  14.103  1.00  0.00     0.125 A 
ATOM      9  C   UNL     1      42.115 -10.771  12.985  1.00  0.00     0.078 A 
ATOM     10  C   UNL     1      42.174 -10.150  11.735  1.00  0.00     0.223 A 
ENDROOT
BRANCH   1  11
ATOM     11  C   UNL     1      42.941  -8.188  10.333  1.00  0.00     0.091 A 
ATOM     12  C   UNL     1      44.078  -8.392   9.536  1.00  0.00     0.068 A 
ATOM     13  C   UNL     1      44.206  -7.746   8.300  1.00  0.00     0.162 A 
ATOM     14  C   UNL     1      41.914  -7.354   9.859  1.00  0.00     0.068 A 
ATOM     15  C   UNL     1      43.189  -6.899   7.842  1.00  0.00     0.200 A 
ATOM     16  C   UNL     1      42.037  -6.706   8.622  1.00  0.00     0.162 A 
BRANCH  13  17
ATOM     17  O   UNL     1      45.344  -7.941   7.518  1.00  0.00    -0.504 OA
ATOM     18  H   UNL     1      45.849  -7.161   7.111  1.00  0.00     0.293 HD
ENDBRANCH  13  17
BRANCH  15  19
ATOM     19  O   UNL     1      43.336  -6.261   6.609  1.00  0.00    -0.502 OA
ATOM     20  H   UNL     1      43.326  -5.252   6.520  1.00  0.00     0.293 HD
ENDBRANCH  15  19
BRANCH  16  21
ATOM     21  O   UNL     1      41.015  -5.875   8.164  1.00  0.00    -0.504 OA
ATOM     22  H   UNL     1      40.871  -5.705   7.175  1.00  0.00     0.293 HD
ENDBRANCH  16  21
ENDBRANCH   1  11
BRANCH  10  23
ATOM     23  O   UNL     1      41.575 -10.748  10.627  1.00  0.00    -0.500 OA
ATOM     24  H   UNL     1      42.010 -10.727   9.712  1.00  0.00     0.294 HD
ENDBRANCH  10  23
BRANCH   5  25
ATOM     25  O   UNL     1      44.370  -8.132  17.379  1.00  0.00    -0.507 OA
ATOM     26  H   UNL     1      43.909  -7.343  17.816  1.00  0.00     0.293 HD
ENDBRANCH   5  25
BRANCH   7  27
ATOM     27  O   UNL     1      42.033 -11.964  15.581  1.00  0.00    -0.507 OA
ATOM     28  H   UNL     1      41.031 -12.087  15.497  1.00  0.00     0.293 HD
ENDBRANCH   7  27
TORSDOF 7
ENDMDL
MODEL 5
REMARK VINA RESULT:    -6.731      2.503      3.901
REMARK INTER + INTRA:          -8.584
REMARK INTER:                  -8.210
REMARK INTRA:                  -0.374
REMARK UNBOUND:                -0.279
REMARK SMILES Oc1cc(O)c2cc(O)c(-c3cc(O)c(O)c(O)c3)[o+]c2c1
REMARK SMILES IDX 10 1 20 2 21 3 22 4 2 5 3 6 4 7 6 8 7 9 8 10 11 11 12 12
REMARK SMILES IDX 13 13 19 14 15 15 17 16 14 17 16 19 18 21 9 23 1 25 5 27
REMARK H PARENT 14 18 16 20 18 22 9 24 1 26 5 28
REMARK Flexibility Score: inf
ROOT
ATOM      1  C   UNL     1      42.737  -9.054  11.615  1.00  0.00     0.402 A 
ATOM      2  O   UNL     1      43.292  -8.506  12.695  1.00  0.00    -0.202 OA
ATOM      3  C   UNL     1      43.232  -9.058  13.903  1.00  0.00     0.368 A 
ATOM      4  C   UNL     1      43.846  -8.420  14.986  1.00  0.00     0.162 A 
ATOM      5  C   UNL     1      43.794  -8.993  16.262  1.00  0.00     0.128 A 
ATOM      6  C   UNL     1      43.126 -10.207  16.456  1.00  0.00     0.093 A 
ATOM      7  C   UNL     1      42.505 -10.858  15.380  1.00  0.00     0.136 A 
ATOM      8  C   UNL     1      42.557 -10.281  14.096  1.00  0.00     0.125 A 
ATOM      9  C   UNL     1      41.949 -10.882  12.988  1.00  0.00     0.078 A 
ATOM     10  C   UNL     1      42.025 -10.266  11.735  1.00  0.00     0.223 A 
ENDROOT
BRANCH   1  11
ATOM     11  C   UNL     1      42.877  -8.349  10.321  1.00  0.00     0.091 A 
ATOM     12  C   UNL     1      41.878  -7.451   9.913  1.00  0.00     0.068 A 
ATOM     13  C   UNL     1      41.997  -6.756   8.703  1.00  0.00     0.162 A 
ATOM     14  C   UNL     1      44.016  -8.517   9.515  1.00  0.00     0.068 A 
ATOM     15  C   UNL     1      43.125  -6.943   7.894  1.00  0.00     0.200 A 
ATOM     16  C   UNL     1      44.140  -7.822   8.303  1.00  0.00     0.162 A 
BRANCH  13  17
ATOM     17  O   UNL     1      40.995  -5.875   8.296  1.00  0.00    -0.504 OA
ATOM     18  H   UNL     1      40.023  -6.029   8.538  1.00  0.00     0.293 HD
ENDBRANCH  13  17
BRANCH  15  19
ATOM     19  O   UNL     1      43.224  -6.244   6.689  1.00  0.00    -0.502 OA
ATOM     20  H   UNL     1      43.921  -6.470   5.991  1.00  0.00     0.293 HD
ENDBRANCH  15  19
BRANCH  16  21
ATOM     21  O   UNL     1      45.272  -8.001   7.508  1.00  0.00    -0.504 OA
ATOM     22  H   UNL     1      46.195  -8.103   7.913  1.00  0.00     0.293 HD
ENDBRANCH  16  21
ENDBRANCH   1  11
BRANCH  10  23
ATOM     23  O   UNL     1      41.379 -10.832  10.636  1.00  0.00    -0.500 OA
ATOM     24  H   UNL     1      41.616 -10.568   9.687  1.00  0.00     0.294 HD
ENDBRANCH  10  23
BRANCH   5  25
ATOM     25  O   UNL     1      44.403  -8.365  17.347  1.00  0.00    -0.507 OA
ATOM     26  H   UNL     1      44.608  -8.866  18.203  1.00  0.00     0.293 HD
ENDBRANCH   5  25
BRANCH   7  27
ATOM     27  O   UNL     1      41.840 -12.067  15.586  1.00  0.00    -0.507 OA
ATOM     28  H   UNL     1      41.804 -12.782  14.869  1.00  0.00     0.293 HD
ENDBRANCH   7  27
TORSDOF 7
ENDMDL
MODEL 6
REMARK VINA RESULT:    -6.516      1.874      6.968
REMARK INTER + INTRA:          -8.319
REMARK INTER:                  -8.259
REMARK INTRA:                  -0.060
REMARK UNBOUND:                -0.279
REMARK SMILES Oc1cc(O)c2cc(O)c(-c3cc(O)c(O)c(O)c3)[o+]c2c1
REMARK SMILES IDX 10 1 20 2 21 3 22 4 2 5 3 6 4 7 6 8 7 9 8 10 11 11 12 12
REMARK SMILES IDX 13 13 19 14 15 15 17 16 14 17 16 19 18 21 9 23 1 25 5 27
REMARK H PARENT 14 18 16 20 18 22 9 24 1 26 5 28
REMARK Flexibility Score: inf
ROOT
ATOM      1  C   UNL     1      42.816  -8.620  11.809  1.00  0.00     0.402 A 
ATOM      2  O   UNL     1      43.338  -9.588  11.057  1.00  0.00    -0.202 OA
ATOM      3  C   UNL     1      43.131  -9.684   9.747  1.00  0.00     0.368 A 
ATOM      4  C   UNL     1      43.719 -10.729   9.029  1.00  0.00     0.162 A 
ATOM      5  C   UNL     1      43.512 -10.838   7.648  1.00  0.00     0.128 A 
ATOM      6  C   UNL     1      42.714  -9.900   6.985  1.00  0.00     0.093 A 
ATOM      7  C   UNL     1      42.116  -8.847   7.694  1.00  0.00     0.136 A 
ATOM      8  C   UNL     1      42.324  -8.737   9.081  1.00  0.00     0.125 A 
ATOM      9  C   UNL     1      41.747  -7.712   9.840  1.00  0.00     0.078 A 
ATOM     10  C   UNL     1      41.980  -7.651  11.217  1.00  0.00     0.223 A 
ENDROOT
BRANCH   1  11
ATOM     11  C   UNL     1      43.125  -8.613  13.257  1.00  0.00     0.091 A 
ATOM     12  C   UNL     1      43.069  -9.815  13.980  1.00  0.00     0.068 A 
ATOM     13  C   UNL     1      43.377  -9.839  15.346  1.00  0.00     0.162 A 
ATOM     14  C   UNL     1      43.530  -7.438  13.914  1.00  0.00     0.068 A 
ATOM     15  C   UNL     1      43.759  -8.661  16.000  1.00  0.00     0.200 A 
ATOM     16  C   UNL     1      43.840  -7.457  15.281  1.00  0.00     0.162 A 
BRANCH  13  17
ATOM     17  O   UNL     1      43.306 -11.033  16.062  1.00  0.00    -0.504 OA
ATOM     18  H   UNL     1      43.121 -11.045  17.059  1.00  0.00     0.293 HD
ENDBRANCH  13  17
BRANCH  15  19
ATOM     19  O   UNL     1      44.059  -8.704  17.363  1.00  0.00    -0.502 OA
ATOM     20  H   UNL     1      43.649  -8.058  18.026  1.00  0.00     0.293 HD
ENDBRANCH  15  19
BRANCH  16  21
ATOM     21  O   UNL     1      44.234  -6.285  15.925  1.00  0.00    -0.504 OA
ATOM     22  H   UNL     1      45.143  -6.199  16.364  1.00  0.00     0.293 HD
ENDBRANCH  16  21
ENDBRANCH   1  11
BRANCH  10  23
ATOM     23  O   UNL     1      41.368  -6.662  11.987  1.00  0.00    -0.500 OA
ATOM     24  H   UNL     1      41.193  -5.735  11.619  1.00  0.00     0.294 HD
ENDBRANCH  10  23
BRANCH   5  25
ATOM     25  O   UNL     1      44.096 -11.876   6.924  1.00  0.00    -0.507 OA
ATOM     26  H   UNL     1      43.536 -12.525   6.384  1.00  0.00     0.293 HD
ENDBRANCH   5  25
BRANCH   7  27
ATOM     27  O   UNL     1      41.320  -7.918   7.022  1.00  0.00    -0.507 OA
ATOM     28  H   UNL     1      41.711  -7.279   6.339  1.00  0.00     0.293 HD
ENDBRANCH   7  27
TORSDOF 7
ENDMDL
MODEL 7
REMARK VINA RESULT:    -6.438      2.627      3.656
REMARK INTER + INTRA:          -8.222
REMARK INTER:                  -7.967
REMARK INTRA:                  -0.255
REMARK UNBOUND:                -0.279
REMARK SMILES Oc1cc(O)c2cc(O)c(-c3cc(O)c(O)c(O)c3)[o+]c2c1
REMARK SMILES IDX 10 1 20 2 21 3 22 4 2 5 3 6 4 7 6 8 7 9 8 10 11 11 12 12
REMARK SMILES IDX 13 13 19 14 15 15 17 16 14 17 16 19 18 21 9 23 1 25 5 27
REMARK H PARENT 14 18 16 20 18 22 9 24 1 26 5 28
REMARK Flexibility Score: inf
ROOT
ATOM      1  C   UNL     1      43.290  -8.115  11.333  1.00  0.00     0.402 A 
ATOM      2  O   UNL     1      42.909  -9.221  11.971  1.00  0.00    -0.202 OA
ATOM      3  C   UNL     1      42.955  -9.349  13.294  1.00  0.00     0.368 A 
ATOM      4  C   UNL     1      42.533 -10.542  13.887  1.00  0.00     0.162 A 
ATOM      5  C   UNL     1      42.572 -10.688  15.280  1.00  0.00     0.128 A 
ATOM      6  C   UNL     1      43.036  -9.638  16.080  1.00  0.00     0.093 A 
ATOM      7  C   UNL     1      43.463  -8.436  15.497  1.00  0.00     0.136 A 
ATOM      8  C   UNL     1      43.424  -8.289  14.098  1.00  0.00     0.125 A 
ATOM      9  C   UNL     1      43.845  -7.115  13.462  1.00  0.00     0.078 A 
ATOM     10  C   UNL     1      43.792  -7.022  12.069  1.00  0.00     0.223 A 
ENDROOT
BRANCH   1  11
ATOM     11  C   UNL     1      43.185  -8.087   9.856  1.00  0.00     0.091 A 
ATOM     12  C   UNL     1      42.280  -7.205   9.246  1.00  0.00     0.068 A 
ATOM     13  C   UNL     1      42.176  -7.145   7.850  1.00  0.00     0.162 A 
ATOM     14  C   UNL     1      44.014  -8.885   9.048  1.00  0.00     0.068 A 
ATOM     15  C   UNL     1      42.989  -7.957   7.050  1.00  0.00     0.200 A 
ATOM     16  C   UNL     1      43.915  -8.827   7.650  1.00  0.00     0.162 A 
BRANCH  13  17
ATOM     17  O   UNL     1      41.266  -6.277   7.249  1.00  0.00    -0.504 OA
ATOM     18  H   UNL     1      41.194  -6.197   6.241  1.00  0.00     0.293 HD
ENDBRANCH  13  17
BRANCH  15  19
ATOM     19  O   UNL     1      42.870  -7.885   5.661  1.00  0.00    -0.502 OA
ATOM     20  H   UNL     1      42.213  -7.262   5.208  1.00  0.00     0.293 HD
ENDBRANCH  15  19
BRANCH  16  21
ATOM     21  O   UNL     1      44.737  -9.628   6.858  1.00  0.00    -0.504 OA
ATOM     22  H   UNL     1      44.994 -10.566   7.138  1.00  0.00     0.293 HD
ENDBRANCH  16  21
ENDBRANCH   1  11
BRANCH  10  23
ATOM     23  O   UNL     1      44.257  -5.875  11.425  1.00  0.00    -0.500 OA
ATOM     24  H   UNL     1      44.448  -5.021  11.936  1.00  0.00     0.294 HD
ENDBRANCH  10  23
BRANCH   5  25
ATOM     25  O   UNL     1      42.152 -11.874  15.880  1.00  0.00    -0.507 OA
ATOM     26  H   UNL     1      42.811 -12.600  16.138  1.00  0.00     0.293 HD
ENDBRANCH   5  25
BRANCH   7  27
ATOM     27  O   UNL     1      43.926  -7.396  16.305  1.00  0.00    -0.507 OA
ATOM     28  H   UNL     1      44.425  -7.577  17.169  1.00  0.00     0.293 HD
ENDBRANCH   7  27
TORSDOF 7
ENDMDL
MODEL 8
REMARK VINA RESULT:    -6.402      2.143      6.950
REMARK INTER + INTRA:          -8.178
REMARK INTER:                  -8.251
REMARK INTRA:                   0.073
REMARK UNBOUND:                -0.279
REMARK SMILES Oc1cc(O)c2cc(O)c(-c3cc(O)c(O)c(O)c3)[o+]c2c1
REMARK SMILES IDX 10 1 20 2 21 3 22 4 2 5 3 6 4 7 6 8 7 9 8 10 11 11 12 12
REMARK SMILES IDX 13 13 19 14 15 15 17 16 14 17 16 19 18 21 9 23 1 25 5 27
REMARK H PARENT 14 18 16 20 18 22 9 24 1 26 5 28
REMARK Flexibility Score: inf
ROOT
ATOM      1  C   UNL     1      43.336  -9.330  11.792  1.00  0.00     0.402 A 
ATOM      2  O   UNL     1      42.786  -8.339  11.090  1.00  0.00    -0.202 OA
ATOM      3  C   UNL     1      42.574  -8.407   9.780  1.00  0.00     0.368 A 
ATOM      4  C   UNL     1      41.988  -7.325   9.117  1.00  0.00     0.162 A 
ATOM      5  C   UNL     1      41.755  -7.386   7.737  1.00  0.00     0.128 A 
ATOM      6  C   UNL     1      42.110  -8.532   7.019  1.00  0.00     0.093 A 
ATOM      7  C   UNL     1      42.700  -9.626   7.671  1.00  0.00     0.136 A 
ATOM      8  C   UNL     1      42.934  -9.565   9.057  1.00  0.00     0.125 A 
ATOM      9  C   UNL     1      43.527 -10.622   9.758  1.00  0.00     0.078 A 
ATOM     10  C   UNL     1      43.743 -10.509  11.134  1.00  0.00     0.223 A 
ENDROOT
BRANCH   1  11
ATOM     11  C   UNL     1      43.514  -9.141  13.250  1.00  0.00     0.091 A 
ATOM     12  C   UNL     1      43.812  -7.862  13.748  1.00  0.00     0.068 A 
ATOM     13  C   UNL     1      43.965  -7.653  15.125  1.00  0.00     0.162 A 
ATOM     14  C   UNL     1      43.337 -10.203  14.153  1.00  0.00     0.068 A 
ATOM     15  C   UNL     1      43.808  -8.719  16.019  1.00  0.00     0.200 A 
ATOM     16  C   UNL     1      43.488  -9.998  15.532  1.00  0.00     0.162 A 
BRANCH  13  17
ATOM     17  O   UNL     1      44.274  -6.384  15.613  1.00  0.00    -0.504 OA
ATOM     18  H   UNL     1      45.086  -5.872  15.286  1.00  0.00     0.293 HD
ENDBRANCH  13  17
BRANCH  15  19
ATOM     19  O   UNL     1      43.968  -8.492  17.386  1.00  0.00    -0.502 OA
ATOM     20  H   UNL     1      44.533  -9.096  17.971  1.00  0.00     0.293 HD
ENDBRANCH  15  19
BRANCH  16  21
ATOM     21  O   UNL     1      43.316 -11.060  16.419  1.00  0.00    -0.504 OA
ATOM     22  H   UNL     1      43.501 -12.017  16.144  1.00  0.00     0.293 HD
ENDBRANCH  16  21
ENDBRANCH   1  11
BRANCH  10  23
ATOM     23  O   UNL     1      44.378 -11.537  11.830  1.00  0.00    -0.500 OA
ATOM     24  H   UNL     1      43.853 -12.282  12.273  1.00  0.00     0.294 HD
ENDBRANCH  10  23
BRANCH   5  25
ATOM     25  O   UNL     1      41.171  -6.312   7.069  1.00  0.00    -0.507 OA
ATOM     26  H   UNL     1      41.459  -5.357   7.247  1.00  0.00     0.293 HD
ENDBRANCH   5  25
BRANCH   7  27
ATOM     27  O   UNL     1      43.052 -10.763   6.943  1.00  0.00    -0.507 OA
ATOM     28  H   UNL     1      43.988 -10.889   6.574  1.00  0.00     0.293 HD
ENDBRANCH   7  27
TORSDOF 7
ENDMDL
MODEL 9
REMARK VINA RESULT:    -6.336     19.054     20.691
REMARK INTER + INTRA:          -8.097
REMARK INTER:                  -8.075
REMARK INTRA:                  -0.022
REMARK UNBOUND:                -0.279
REMARK SMILES Oc1cc(O)c2cc(O)c(-c3cc(O)c(O)c(O)c3)[o+]c2c1
REMARK SMILES IDX 10 1 20 2 21 3 22 4 2 5 3 6 4 7 6 8 7 9 8 10 11 11 12 12
REMARK SMILES IDX 13 13 19 14 15 15 17 16 14 17 16 19 18 21 9 23 1 25 5 27
REMARK H PARENT 14 18 16 20 18 22 9 24 1 26 5 28
REMARK Flexibility Score: inf
ROOT
ATOM      1  C   UNL     1      58.781 -22.362   7.141  1.00  0.00     0.402 A 
ATOM      2  O   UNL     1      58.787 -21.549   8.197  1.00  0.00    -0.202 OA
ATOM      3  C   UNL     1      58.908 -21.983   9.447  1.00  0.00     0.368 A 
ATOM      4  C   UNL     1      58.909 -21.063  10.501  1.00  0.00     0.162 A 
ATOM      5  C   UNL     1      59.040 -21.507  11.823  1.00  0.00     0.128 A 
ATOM      6  C   UNL     1      59.169 -22.874  12.091  1.00  0.00     0.093 A 
ATOM      7  C   UNL     1      59.169 -23.808  11.044  1.00  0.00     0.136 A 
ATOM      8  C   UNL     1      59.037 -23.362   9.716  1.00  0.00     0.125 A 
ATOM      9  C   UNL     1      59.022 -24.248   8.633  1.00  0.00     0.078 A 
ATOM     10  C   UNL     1      58.882 -23.755   7.332  1.00  0.00     0.223 A 
ENDROOT
BRANCH   1  11
ATOM     11  C   UNL     1      58.649 -21.760   5.794  1.00  0.00     0.091 A 
ATOM     12  C   UNL     1      57.742 -20.707   5.596  1.00  0.00     0.068 A 
ATOM     13  C   UNL     1      57.613 -20.107   4.336  1.00  0.00     0.162 A 
ATOM     14  C   UNL     1      59.452 -22.183   4.721  1.00  0.00     0.068 A 
ATOM     15  C   UNL     1      58.401 -20.547   3.265  1.00  0.00     0.200 A 
ATOM     16  C   UNL     1      59.328 -21.585   3.459  1.00  0.00     0.162 A 
BRANCH  13  17
ATOM     17  O   UNL     1      56.701 -19.071   4.141  1.00  0.00    -0.504 OA
ATOM     18  H   UNL     1      56.029 -19.091   3.382  1.00  0.00     0.293 HD
ENDBRANCH  13  17
BRANCH  15  19
ATOM     19  O   UNL     1      58.256 -19.939   2.017  1.00  0.00    -0.502 OA
ATOM     20  H   UNL     1      59.027 -19.482   1.547  1.00  0.00     0.293 HD
ENDBRANCH  15  19
BRANCH  16  21
ATOM     21  O   UNL     1      60.125 -22.016   2.400  1.00  0.00    -0.504 OA
ATOM     22  H   UNL     1      60.425 -21.382   1.669  1.00  0.00     0.293 HD
ENDBRANCH  16  21
ENDBRANCH   1  11
BRANCH  10  23
ATOM     23  O   UNL     1      58.816 -24.636   6.253  1.00  0.00    -0.500 OA
ATOM     24  H   UNL     1      57.930 -24.994   5.914  1.00  0.00     0.294 HD
ENDBRANCH  10  23
BRANCH   5  25
ATOM     25  O   UNL     1      59.044 -20.597  12.878  1.00  0.00    -0.507 OA
ATOM     26  H   UNL     1      58.386 -19.828  12.917  1.00  0.00     0.293 HD
ENDBRANCH   5  25
BRANCH   7  27
ATOM     27  O   UNL     1      59.296 -25.169  11.325  1.00  0.00    -0.507 OA
ATOM     28  H   UNL     1      59.846 -25.500  12.108  1.00  0.00     0.293 HD
ENDBRANCH   7  27
TORSDOF 7
ENDMDL
