MODEL 1
REMARK VINA RESULT:    -4.007      0.000      0.000
REMARK INTER + INTRA:          -8.748
REMARK INTER:                  -7.287
REMARK INTRA:                  -1.462
REMARK UNBOUND:                -1.462
REMARK SMILES CCCCCCCCCCCCCCCC(=O)[O-]
REMARK SMILES IDX 9 1 10 2 11 3 12 4 13 5 14 6 15 7 16 8 17 9 18 10 8 11 7 12
REMARK SMILES IDX 6 13 5 14 4 15 3 16 2 17 1 18
REMARK H PARENT
REMARK Flexibility Score: inf
ROOT
ATOM      1  C   UNL     1     136.446 144.667 143.070  1.00  0.00     0.000 C 
ENDROOT
BRANCH   1   2
ATOM      2  C   UNL     1     136.741 143.224 142.634  1.00  0.00     0.000 C 
BRANCH   2   3
ATOM      3  C   UNL     1     138.158 142.768 143.021  1.00  0.00     0.000 C 
BRANCH   3   4
ATOM      4  C   UNL     1     138.161 141.763 144.185  1.00  0.00     0.000 C 
BRANCH   4   5
ATOM      5  C   UNL     1     138.687 142.388 145.496  1.00  0.00     0.000 C 
BRANCH   5   6
ATOM      6  C   UNL     1     137.569 142.807 146.469  1.00  0.00     0.006 C 
BRANCH   6   7
ATOM      7  C   UNL     1     138.021 142.916 147.933  1.00  0.00     0.053 C 
BRANCH   7   8
ATOM      8  C   UNL     1     139.485 143.220 148.043  1.00  0.00     0.041 C 
ATOM      9  O   UNL     1     140.296 142.313 148.369  1.00  0.00    -0.550 OA
ATOM     10  O   UNL     1     139.951 144.506 147.807  1.00  0.00    -0.550 OA
ENDBRANCH   7   8
ENDBRANCH   6   7
ENDBRANCH   5   6
ENDBRANCH   4   5
ENDBRANCH   3   4
ENDBRANCH   2   3
ENDBRANCH   1   2
BRANCH   1  11
ATOM     11  C   UNL     1     135.047 144.778 143.688  1.00  0.00     0.000 C 
BRANCH  11  12
ATOM     12  C   UNL     1     133.976 144.937 142.602  1.00  0.00    -0.000 C 
BRANCH  12  13
ATOM     13  C   UNL     1     134.366 146.035 141.601  1.00  0.00    -0.000 C 
BRANCH  13  14
ATOM     14  C   UNL     1     133.607 147.349 141.841  1.00  0.00    -0.000 C 
BRANCH  14  15
ATOM     15  C   UNL     1     134.548 148.553 142.010  1.00  0.00    -0.000 C 
BRANCH  15  16
ATOM     16  C   UNL     1     136.034 148.156 142.000  1.00  0.00    -0.000 C 
BRANCH  16  17
ATOM     17  C   UNL     1     136.722 148.302 143.373  1.00  0.00    -0.003 C 
ATOM     18  C   UNL     1     135.769 148.812 144.453  1.00  0.00     0.004 C 
ENDBRANCH  16  17
ENDBRANCH  15  16
ENDBRANCH  14  15
ENDBRANCH  13  14
ENDBRANCH  12  13
ENDBRANCH  11  12
ENDBRANCH   1  11
TORSDOF 14
ENDMDL
MODEL 2
REMARK VINA RESULT:    -3.853      2.803      7.237
REMARK INTER + INTRA:          -8.468
REMARK INTER:                  -7.225
REMARK INTRA:                  -1.243
REMARK UNBOUND:                -1.462
REMARK SMILES CCCCCCCCCCCCCCCC(=O)[O-]
REMARK SMILES IDX 9 1 10 2 11 3 12 4 13 5 14 6 15 7 16 8 17 9 18 10 8 11 7 12
REMARK SMILES IDX 6 13 5 14 4 15 3 16 2 17 1 18
REMARK H PARENT
REMARK Flexibility Score: inf
ROOT
ATOM      1  C   UNL     1     138.144 142.323 142.900  1.00  0.00     0.000 C 
ENDROOT
BRANCH   1   2
ATOM      2  C   UNL     1     136.867 143.145 142.666  1.00  0.00     0.000 C 
BRANCH   2   3
ATOM      3  C   UNL     1     136.564 144.107 143.826  1.00  0.00     0.000 C 
BRANCH   3   4
ATOM      4  C   UNL     1     135.221 144.836 143.656  1.00  0.00     0.000 C 
BRANCH   4   5
ATOM      5  C   UNL     1     135.178 145.692 142.371  1.00  0.00     0.000 C 
BRANCH   5   6
ATOM      6  C   UNL     1     136.010 146.985 142.465  1.00  0.00     0.006 C 
BRANCH   6   7
ATOM      7  C   UNL     1     135.190 148.231 142.832  1.00  0.00     0.053 C 
BRANCH   7   8
ATOM      8  C   UNL     1     135.926 149.122 143.787  1.00  0.00     0.041 C 
ATOM      9  O   UNL     1     136.801 149.920 143.359  1.00  0.00    -0.550 OA
ATOM     10  O   UNL     1     135.662 149.057 145.148  1.00  0.00    -0.550 OA
ENDBRANCH   7   8
ENDBRANCH   6   7
ENDBRANCH   5   6
ENDBRANCH   4   5
ENDBRANCH   3   4
ENDBRANCH   2   3
ENDBRANCH   1   2
BRANCH   1  11
ATOM     11  C   UNL     1     138.468 142.228 144.396  1.00  0.00     0.000 C 
BRANCH  11  12
ATOM     12  C   UNL     1     138.820 140.789 144.793  1.00  0.00    -0.000 C 
BRANCH  12  13
ATOM     13  C   UNL     1     140.229 140.714 145.401  1.00  0.00    -0.000 C 
BRANCH  13  14
ATOM     14  C   UNL     1     140.241 140.037 146.780  1.00  0.00    -0.000 C 
BRANCH  14  15
ATOM     15  C   UNL     1     139.244 140.675 147.761  1.00  0.00    -0.000 C 
BRANCH  15  16
ATOM     16  C   UNL     1     139.743 142.011 148.336  1.00  0.00    -0.000 C 
BRANCH  16  17
ATOM     17  C   UNL     1     138.876 143.222 147.930  1.00  0.00    -0.003 C 
ATOM     18  C   UNL     1     137.387 142.882 147.876  1.00  0.00     0.004 C 
ENDBRANCH  16  17
ENDBRANCH  15  16
ENDBRANCH  14  15
ENDBRANCH  13  14
ENDBRANCH  12  13
ENDBRANCH  11  12
ENDBRANCH   1  11
TORSDOF 14
ENDMDL
MODEL 3
REMARK VINA RESULT:    -3.778      9.772     13.678
REMARK INTER + INTRA:          -8.332
REMARK INTER:                  -5.721
REMARK INTRA:                  -2.611
REMARK UNBOUND:                -1.462
REMARK SMILES CCCCCCCCCCCCCCCC(=O)[O-]
REMARK SMILES IDX 9 1 10 2 11 3 12 4 13 5 14 6 15 7 16 8 17 9 18 10 8 11 7 12
REMARK SMILES IDX 6 13 5 14 4 15 3 16 2 17 1 18
REMARK H PARENT
REMARK Flexibility Score: inf
ROOT
ATOM      1  C   UNL     1     147.908 137.027 149.612  1.00  0.00     0.000 C 
ENDROOT
BRANCH   1   2
ATOM      2  C   UNL     1     148.266 138.113 148.586  1.00  0.00     0.000 C 
BRANCH   2   3
ATOM      3  C   UNL     1     149.044 137.556 147.383  1.00  0.00     0.000 C 
BRANCH   3   4
ATOM      4  C   UNL     1     148.261 137.671 146.065  1.00  0.00     0.000 C 
BRANCH   4   5
ATOM      5  C   UNL     1     147.452 138.984 145.978  1.00  0.00     0.000 C 
BRANCH   5   6
ATOM      6  C   UNL     1     146.445 139.011 144.813  1.00  0.00     0.006 C 
BRANCH   6   7
ATOM      7  C   UNL     1     145.215 139.894 145.069  1.00  0.00     0.053 C 
BRANCH   7   8
ATOM      8  C   UNL     1     143.943 139.207 144.674  1.00  0.00     0.041 C 
ATOM      9  O   UNL     1     143.979 138.066 144.141  1.00  0.00    -0.550 OA
ATOM     10  O   UNL     1     142.720 139.833 144.874  1.00  0.00    -0.550 OA
ENDBRANCH   7   8
ENDBRANCH   6   7
ENDBRANCH   5   6
ENDBRANCH   4   5
ENDBRANCH   3   4
ENDBRANCH   2   3
ENDBRANCH   1   2
BRANCH   1  11
ATOM     11  C   UNL     1     148.520 135.678 149.216  1.00  0.00     0.000 C 
BRANCH  11  12
ATOM     12  C   UNL     1     147.442 134.590 149.126  1.00  0.00    -0.000 C 
BRANCH  12  13
ATOM     13  C   UNL     1     146.930 134.441 147.685  1.00  0.00    -0.000 C 
BRANCH  13  14
ATOM     14  C   UNL     1     145.422 134.705 147.564  1.00  0.00    -0.000 C 
BRANCH  14  15
ATOM     15  C   UNL     1     145.108 136.005 146.805  1.00  0.00    -0.000 C 
BRANCH  15  16
ATOM     16  C   UNL     1     144.745 137.170 147.741  1.00  0.00    -0.000 C 
BRANCH  16  17
ATOM     17  C   UNL     1     143.725 136.790 148.835  1.00  0.00    -0.003 C 
ATOM     18  C   UNL     1     144.265 137.028 150.245  1.00  0.00     0.004 C 
ENDBRANCH  16  17
ENDBRANCH  15  16
ENDBRANCH  14  15
ENDBRANCH  13  14
ENDBRANCH  12  13
ENDBRANCH  11  12
ENDBRANCH   1  11
TORSDOF 14
ENDMDL
MODEL 4
REMARK VINA RESULT:    -3.768      1.239      2.175
REMARK INTER + INTRA:          -8.314
REMARK INTER:                  -6.827
REMARK INTRA:                  -1.487
REMARK UNBOUND:                -1.462
REMARK SMILES CCCCCCCCCCCCCCCC(=O)[O-]
REMARK SMILES IDX 9 1 10 2 11 3 12 4 13 5 14 6 15 7 16 8 17 9 18 10 8 11 7 12
REMARK SMILES IDX 6 13 5 14 4 15 3 16 2 17 1 18
REMARK H PARENT
REMARK Flexibility Score: inf
ROOT
ATOM      1  C   UNL     1     136.022 142.397 140.938  1.00  0.00     0.000 C 
ENDROOT
BRANCH   1   2
ATOM      2  C   UNL     1     136.833 141.898 142.144  1.00  0.00     0.000 C 
BRANCH   2   3
ATOM      3  C   UNL     1     137.696 143.003 142.773  1.00  0.00     0.000 C 
BRANCH   3   4
ATOM      4  C   UNL     1     137.318 143.290 144.236  1.00  0.00     0.000 C 
BRANCH   4   5
ATOM      5  C   UNL     1     138.449 142.910 145.217  1.00  0.00     0.000 C 
BRANCH   5   6
ATOM      6  C   UNL     1     137.946 142.219 146.499  1.00  0.00     0.006 C 
BRANCH   6   7
ATOM      7  C   UNL     1     138.113 143.063 147.771  1.00  0.00     0.053 C 
BRANCH   7   8
ATOM      8  C   UNL     1     139.556 143.314 148.088  1.00  0.00     0.041 C 
ATOM      9  O   UNL     1     140.356 142.348 148.202  1.00  0.00    -0.550 OA
ATOM     10  O   UNL     1     140.013 144.611 148.280  1.00  0.00    -0.550 OA
ENDBRANCH   7   8
ENDBRANCH   6   7
ENDBRANCH   5   6
ENDBRANCH   4   5
ENDBRANCH   3   4
ENDBRANCH   2   3
ENDBRANCH   1   2
BRANCH   1  11
ATOM     11  C   UNL     1     135.819 143.916 141.006  1.00  0.00     0.000 C 
BRANCH  11  12
ATOM     12  C   UNL     1     134.400 144.261 141.476  1.00  0.00    -0.000 C 
BRANCH  12  13
ATOM     13  C   UNL     1     134.436 145.106 142.759  1.00  0.00    -0.000 C 
BRANCH  13  14
ATOM     14  C   UNL     1     135.505 146.208 142.711  1.00  0.00    -0.000 C 
BRANCH  14  15
ATOM     15  C   UNL     1     134.946 147.591 143.079  1.00  0.00    -0.000 C 
BRANCH  15  16
ATOM     16  C   UNL     1     133.693 147.964 142.269  1.00  0.00    -0.000 C 
BRANCH  16  17
ATOM     17  C   UNL     1     134.006 148.468 140.844  1.00  0.00    -0.003 C 
ATOM     18  C   UNL     1     133.537 147.494 139.764  1.00  0.00     0.004 C 
ENDBRANCH  16  17
ENDBRANCH  15  16
ENDBRANCH  14  15
ENDBRANCH  13  14
ENDBRANCH  12  13
ENDBRANCH  11  12
ENDBRANCH   1  11
TORSDOF 14
ENDMDL
MODEL 5
REMARK VINA RESULT:    -3.717     12.629     14.759
REMARK INTER + INTRA:          -8.221
REMARK INTER:                  -5.659
REMARK INTRA:                  -2.562
REMARK UNBOUND:                -1.462
REMARK SMILES CCCCCCCCCCCCCCCC(=O)[O-]
REMARK SMILES IDX 9 1 10 2 11 3 12 4 13 5 14 6 15 7 16 8 17 9 18 10 8 11 7 12
REMARK SMILES IDX 6 13 5 14 4 15 3 16 2 17 1 18
REMARK H PARENT
REMARK Flexibility Score: inf
ROOT
ATOM      1  C   UNL     1     146.063 134.370 147.990  1.00  0.00     0.000 C 
ENDROOT
BRANCH   1   2
ATOM      2  C   UNL     1     147.521 134.685 148.359  1.00  0.00     0.000 C 
BRANCH   2   3
ATOM      3  C   UNL     1     147.741 134.765 149.879  1.00  0.00     0.000 C 
BRANCH   3   4
ATOM      4  C   UNL     1     148.229 136.150 150.335  1.00  0.00     0.000 C 
BRANCH   4   5
ATOM      5  C   UNL     1     148.997 136.896 149.221  1.00  0.00     0.000 C 
BRANCH   5   6
ATOM      6  C   UNL     1     148.522 138.346 149.011  1.00  0.00     0.006 C 
BRANCH   6   7
ATOM      7  C   UNL     1     148.281 138.719 147.541  1.00  0.00     0.053 C 
BRANCH   7   8
ATOM      8  C   UNL     1     149.147 137.921 146.614  1.00  0.00     0.041 C 
ATOM      9  O   UNL     1     148.647 136.992 145.925  1.00  0.00    -0.550 OA
ATOM     10  O   UNL     1     150.506 138.187 146.525  1.00  0.00    -0.550 OA
ENDBRANCH   7   8
ENDBRANCH   6   7
ENDBRANCH   5   6
ENDBRANCH   4   5
ENDBRANCH   3   4
ENDBRANCH   2   3
ENDBRANCH   1   2
BRANCH   1  11
ATOM     11  C   UNL     1     145.476 135.467 147.093  1.00  0.00     0.000 C 
BRANCH  11  12
ATOM     12  C   UNL     1     145.305 136.779 147.868  1.00  0.00    -0.000 C 
BRANCH  12  13
ATOM     13  C   UNL     1     144.087 136.713 148.801  1.00  0.00    -0.000 C 
BRANCH  13  14
ATOM     14  C   UNL     1     144.450 136.987 150.268  1.00  0.00    -0.000 C 
BRANCH  14  15
ATOM     15  C   UNL     1     143.724 136.046 151.243  1.00  0.00    -0.000 C 
BRANCH  15  16
ATOM     16  C   UNL     1     144.674 135.055 151.936  1.00  0.00    -0.000 C 
BRANCH  16  17
ATOM     17  C   UNL     1     144.610 133.627 151.354  1.00  0.00    -0.003 C 
ATOM     18  C   UNL     1     143.381 133.411 150.472  1.00  0.00     0.004 C 
ENDBRANCH  16  17
ENDBRANCH  15  16
ENDBRANCH  14  15
ENDBRANCH  13  14
ENDBRANCH  12  13
ENDBRANCH  11  12
ENDBRANCH   1  11
TORSDOF 14
ENDMDL
MODEL 6
REMARK VINA RESULT:    -3.701     10.887     14.331
REMARK INTER + INTRA:          -8.192
REMARK INTER:                  -5.744
REMARK INTRA:                  -2.448
REMARK UNBOUND:                -1.462
REMARK SMILES CCCCCCCCCCCCCCCC(=O)[O-]
REMARK SMILES IDX 9 1 10 2 11 3 12 4 13 5 14 6 15 7 16 8 17 9 18 10 8 11 7 12
REMARK SMILES IDX 6 13 5 14 4 15 3 16 2 17 1 18
REMARK H PARENT
REMARK Flexibility Score: inf
ROOT
ATOM      1  C   UNL     1     146.978 134.570 149.236  1.00  0.00     0.000 C 
ENDROOT
BRANCH   1   2
ATOM      2  C   UNL     1     146.685 134.411 147.736  1.00  0.00     0.000 C 
BRANCH   2   3
ATOM      3  C   UNL     1     145.457 135.220 147.286  1.00  0.00     0.000 C 
BRANCH   3   4
ATOM      4  C   UNL     1     145.058 136.305 148.299  1.00  0.00     0.000 C 
BRANCH   4   5
ATOM      5  C   UNL     1     144.578 137.601 147.609  1.00  0.00     0.000 C 
BRANCH   5   6
ATOM      6  C   UNL     1     144.900 137.651 146.102  1.00  0.00     0.006 C 
BRANCH   6   7
ATOM      7  C   UNL     1     145.122 139.069 145.557  1.00  0.00     0.053 C 
BRANCH   7   8
ATOM      8  C   UNL     1     145.345 139.068 144.074  1.00  0.00     0.041 C 
ATOM      9  O   UNL     1     145.990 140.004 143.532  1.00  0.00    -0.550 OA
ATOM     10  O   UNL     1     144.825 138.048 143.290  1.00  0.00    -0.550 OA
ENDBRANCH   7   8
ENDBRANCH   6   7
ENDBRANCH   5   6
ENDBRANCH   4   5
ENDBRANCH   3   4
ENDBRANCH   2   3
ENDBRANCH   1   2
BRANCH   1  11
ATOM     11  C   UNL     1     148.478 134.775 149.482  1.00  0.00     0.000 C 
BRANCH  11  12
ATOM     12  C   UNL     1     148.734 136.046 150.300  1.00  0.00    -0.000 C 
BRANCH  12  13
ATOM     13  C   UNL     1     149.318 137.160 149.419  1.00  0.00    -0.000 C 
BRANCH  13  14
ATOM     14  C   UNL     1     148.284 138.240 149.068  1.00  0.00    -0.000 C 
BRANCH  14  15
ATOM     15  C   UNL     1     148.179 138.489 147.554  1.00  0.00    -0.000 C 
BRANCH  15  16
ATOM     16  C   UNL     1     148.617 137.275 146.718  1.00  0.00    -0.000 C 
BRANCH  16  17
ATOM     17  C   UNL     1     148.587 137.528 145.196  1.00  0.00    -0.003 C 
ATOM     18  C   UNL     1     149.971 137.424 144.558  1.00  0.00     0.004 C 
ENDBRANCH  16  17
ENDBRANCH  15  16
ENDBRANCH  14  15
ENDBRANCH  13  14
ENDBRANCH  12  13
ENDBRANCH  11  12
ENDBRANCH   1  11
TORSDOF 14
ENDMDL
MODEL 7
REMARK VINA RESULT:    -3.664     11.885     14.062
REMARK INTER + INTRA:          -8.124
REMARK INTER:                  -5.655
REMARK INTRA:                  -2.469
REMARK UNBOUND:                -1.462
REMARK SMILES CCCCCCCCCCCCCCCC(=O)[O-]
REMARK SMILES IDX 9 1 10 2 11 3 12 4 13 5 14 6 15 7 16 8 17 9 18 10 8 11 7 12
REMARK SMILES IDX 6 13 5 14 4 15 3 16 2 17 1 18
REMARK H PARENT
REMARK Flexibility Score: inf
ROOT
ATOM      1  C   UNL     1     147.446 134.583 147.732  1.00  0.00     0.000 C 
ENDROOT
BRANCH   1   2
ATOM      2  C   UNL     1     145.985 134.340 148.141  1.00  0.00     0.000 C 
BRANCH   2   3
ATOM      3  C   UNL     1     144.991 135.129 147.274  1.00  0.00     0.000 C 
BRANCH   3   4
ATOM      4  C   UNL     1     145.578 136.450 146.750  1.00  0.00     0.000 C 
BRANCH   4   5
ATOM      5  C   UNL     1     145.062 137.673 147.541  1.00  0.00     0.000 C 
BRANCH   5   6
ATOM      6  C   UNL     1     143.915 137.337 148.514  1.00  0.00     0.006 C 
BRANCH   6   7
ATOM      7  C   UNL     1     144.314 137.401 149.995  1.00  0.00     0.053 C 
BRANCH   7   8
ATOM      8  C   UNL     1     143.933 136.152 150.731  1.00  0.00     0.041 C 
ATOM      9  O   UNL     1     144.582 135.795 151.749  1.00  0.00    -0.550 OA
ATOM     10  O   UNL     1     142.877 135.371 150.281  1.00  0.00    -0.550 OA
ENDBRANCH   7   8
ENDBRANCH   6   7
ENDBRANCH   5   6
ENDBRANCH   4   5
ENDBRANCH   3   4
ENDBRANCH   2   3
ENDBRANCH   1   2
BRANCH   1  11
ATOM     11  C   UNL     1     148.329 134.811 148.965  1.00  0.00     0.000 C 
BRANCH  11  12
ATOM     12  C   UNL     1     147.686 135.821 149.924  1.00  0.00    -0.000 C 
BRANCH  12  13
ATOM     13  C   UNL     1     148.049 137.261 149.531  1.00  0.00    -0.000 C 
BRANCH  13  14
ATOM     14  C   UNL     1     149.424 137.359 148.853  1.00  0.00    -0.000 C 
BRANCH  14  15
ATOM     15  C   UNL     1     149.346 137.964 147.442  1.00  0.00    -0.000 C 
BRANCH  15  16
ATOM     16  C   UNL     1     148.446 139.210 147.375  1.00  0.00    -0.000 C 
BRANCH  16  17
ATOM     17  C   UNL     1     148.213 139.728 145.940  1.00  0.00    -0.003 C 
ATOM     18  C   UNL     1     147.979 138.595 144.941  1.00  0.00     0.004 C 
ENDBRANCH  16  17
ENDBRANCH  15  16
ENDBRANCH  14  15
ENDBRANCH  13  14
ENDBRANCH  12  13
ENDBRANCH  11  12
ENDBRANCH   1  11
TORSDOF 14
ENDMDL
MODEL 8
REMARK VINA RESULT:    -3.639     12.060     14.522
REMARK INTER + INTRA:          -8.079
REMARK INTER:                  -5.600
REMARK INTRA:                  -2.479
REMARK UNBOUND:                -1.462
REMARK SMILES CCCCCCCCCCCCCCCC(=O)[O-]
REMARK SMILES IDX 9 1 10 2 11 3 12 4 13 5 14 6 15 7 16 8 17 9 18 10 8 11 7 12
REMARK SMILES IDX 6 13 5 14 4 15 3 16 2 17 1 18
REMARK H PARENT
REMARK Flexibility Score: inf
ROOT
ATOM      1  C   UNL     1     147.528 135.257 148.928  1.00  0.00     0.000 C 
ENDROOT
BRANCH   1   2
ATOM      2  C   UNL     1     148.775 135.583 149.764  1.00  0.00     0.000 C 
BRANCH   2   3
ATOM      3  C   UNL     1     149.222 137.046 149.612  1.00  0.00     0.000 C 
BRANCH   3   4
ATOM      4  C   UNL     1     148.070 137.978 149.201  1.00  0.00     0.000 C 
BRANCH   4   5
ATOM      5  C   UNL     1     148.372 138.739 147.891  1.00  0.00     0.000 C 
BRANCH   5   6
ATOM      6  C   UNL     1     149.355 138.000 146.963  1.00  0.00     0.006 C 
BRANCH   6   7
ATOM      7  C   UNL     1     148.675 137.174 145.862  1.00  0.00     0.053 C 
BRANCH   7   8
ATOM      8  C   UNL     1     149.263 137.452 144.512  1.00  0.00     0.041 C 
ATOM      9  O   UNL     1     150.408 137.016 144.220  1.00  0.00    -0.550 OA
ATOM     10  O   UNL     1     148.558 138.208 143.585  1.00  0.00    -0.550 OA
ENDBRANCH   7   8
ENDBRANCH   6   7
ENDBRANCH   5   6
ENDBRANCH   4   5
ENDBRANCH   3   4
ENDBRANCH   2   3
ENDBRANCH   1   2
BRANCH   1  11
ATOM     11  C   UNL     1     146.525 134.428 149.740  1.00  0.00     0.000 C 
BRANCH  11  12
ATOM     12  C   UNL     1     145.948 135.247 150.902  1.00  0.00    -0.000 C 
BRANCH  12  13
ATOM     13  C   UNL     1     144.535 135.751 150.571  1.00  0.00    -0.000 C 
BRANCH  13  14
ATOM     14  C   UNL     1     144.533 137.185 150.020  1.00  0.00    -0.000 C 
BRANCH  14  15
ATOM     15  C   UNL     1     143.835 137.294 148.654  1.00  0.00    -0.000 C 
BRANCH  15  16
ATOM     16  C   UNL     1     144.805 137.650 147.515  1.00  0.00    -0.000 C 
BRANCH  16  17
ATOM     17  C   UNL     1     144.985 136.521 146.480  1.00  0.00    -0.003 C 
ATOM     18  C   UNL     1     144.235 135.247 146.868  1.00  0.00     0.004 C 
ENDBRANCH  16  17
ENDBRANCH  15  16
ENDBRANCH  14  15
ENDBRANCH  13  14
ENDBRANCH  12  13
ENDBRANCH  11  12
ENDBRANCH   1  11
TORSDOF 14
ENDMDL
MODEL 9
REMARK VINA RESULT:    -3.622     10.857     13.730
REMARK INTER + INTRA:          -8.047
REMARK INTER:                  -5.489
REMARK INTRA:                  -2.558
REMARK UNBOUND:                -1.462
REMARK SMILES CCCCCCCCCCCCCCCC(=O)[O-]
REMARK SMILES IDX 9 1 10 2 11 3 12 4 13 5 14 6 15 7 16 8 17 9 18 10 8 11 7 12
REMARK SMILES IDX 6 13 5 14 4 15 3 16 2 17 1 18
REMARK H PARENT
REMARK Flexibility Score: inf
ROOT
ATOM      1  C   UNL     1     148.805 136.058 150.169  1.00  0.00     0.000 C 
ENDROOT
BRANCH   1   2
ATOM      2  C   UNL     1     148.545 134.947 149.141  1.00  0.00     0.000 C 
BRANCH   2   3
ATOM      3  C   UNL     1     147.065 134.536 149.078  1.00  0.00     0.000 C 
BRANCH   3   4
ATOM      4  C   UNL     1     146.521 134.496 147.640  1.00  0.00     0.000 C 
BRANCH   4   5
ATOM      5  C   UNL     1     145.347 135.478 147.432  1.00  0.00     0.000 C 
BRANCH   5   6
ATOM      6  C   UNL     1     145.363 136.671 148.408  1.00  0.00     0.006 C 
BRANCH   6   7
ATOM      7  C   UNL     1     143.999 136.975 149.045  1.00  0.00     0.053 C 
BRANCH   7   8
ATOM      8  C   UNL     1     143.454 135.793 149.787  1.00  0.00     0.041 C 
ATOM      9  O   UNL     1     144.049 135.358 150.809  1.00  0.00    -0.550 OA
ATOM     10  O   UNL     1     142.303 135.159 149.341  1.00  0.00    -0.550 OA
ENDBRANCH   7   8
ENDBRANCH   6   7
ENDBRANCH   5   6
ENDBRANCH   4   5
ENDBRANCH   3   4
ENDBRANCH   2   3
ENDBRANCH   1   2
BRANCH   1  11
ATOM     11  C   UNL     1     148.702 137.442 149.517  1.00  0.00     0.000 C 
BRANCH  11  12
ATOM     12  C   UNL     1     149.304 137.433 148.106  1.00  0.00    -0.000 C 
BRANCH  12  13
ATOM     13  C   UNL     1     148.434 138.242 147.132  1.00  0.00    -0.000 C 
BRANCH  13  14
ATOM     14  C   UNL     1     148.053 137.443 145.877  1.00  0.00    -0.000 C 
BRANCH  14  15
ATOM     15  C   UNL     1     147.198 138.259 144.893  1.00  0.00    -0.000 C 
BRANCH  15  16
ATOM     16  C   UNL     1     146.237 139.229 145.601  1.00  0.00    -0.000 C 
BRANCH  16  17
ATOM     17  C   UNL     1     144.755 138.809 145.509  1.00  0.00    -0.003 C 
ATOM     18  C   UNL     1     144.532 137.664 144.521  1.00  0.00     0.004 C 
ENDBRANCH  16  17
ENDBRANCH  15  16
ENDBRANCH  14  15
ENDBRANCH  13  14
ENDBRANCH  12  13
ENDBRANCH  11  12
ENDBRANCH   1  11
TORSDOF 14
ENDMDL
