MODEL 1
REMARK VINA RESULT:    -3.663      0.000      0.000
REMARK INTER + INTRA:          -8.998
REMARK INTER:                  -6.875
REMARK INTRA:                  -2.123
REMARK UNBOUND:                -2.123
REMARK SMILES CCCCCCCCC=CCCCCCCCC(=O)[O-]
REMARK SMILES IDX 10 1 9 2 11 3 12 4 13 5 14 6 15 7 16 8 17 9 18 10 19 11
REMARK SMILES IDX 20 12 8 13 7 14 6 15 5 16 4 17 3 18 2 19 1 20
REMARK H PARENT
REMARK Flexibility Score: inf
ROOT
ATOM      1  C   UNL     1      -5.850  28.336 -22.763  1.00  0.00    -0.031 C 
ATOM      2  C   UNL     1      -6.207  29.627 -22.847  1.00  0.00    -0.031 C 
ENDROOT
BRANCH   1   3
ATOM      3  C   UNL     1      -6.832  27.271 -22.359  1.00  0.00     0.027 C 
BRANCH   3   4
ATOM      4  C   UNL     1      -8.164  27.891 -21.911  1.00  0.00     0.004 C 
BRANCH   4   5
ATOM      5  C   UNL     1      -9.285  26.849 -21.780  1.00  0.00     0.000 C 
BRANCH   5   6
ATOM      6  C   UNL     1      -9.048  25.609 -22.657  1.00  0.00     0.000 C 
BRANCH   6   7
ATOM      7  C   UNL     1      -8.811  24.331 -21.834  1.00  0.00     0.000 C 
BRANCH   7   8
ATOM      8  C   UNL     1      -8.737  24.580 -20.314  1.00  0.00     0.006 C 
BRANCH   8   9
ATOM      9  C   UNL     1      -7.688  23.693 -19.629  1.00  0.00     0.053 C 
BRANCH   9  10
ATOM     10  C   UNL     1      -8.088  23.404 -18.217  1.00  0.00     0.041 C 
ATOM     11  O   UNL     1      -8.024  22.231 -17.767  1.00  0.00    -0.550 OA
ATOM     12  O   UNL     1      -8.578  24.425 -17.412  1.00  0.00    -0.550 OA
ENDBRANCH   9  10
ENDBRANCH   8   9
ENDBRANCH   7   8
ENDBRANCH   6   7
ENDBRANCH   5   6
ENDBRANCH   4   5
ENDBRANCH   3   4
ENDBRANCH   1   3
BRANCH   2  13
ATOM     13  C   UNL     1      -5.230  30.686 -23.273  1.00  0.00     0.027 C 
BRANCH  13  14
ATOM     14  C   UNL     1      -5.625  31.286 -24.632  1.00  0.00     0.004 C 
BRANCH  14  15
ATOM     15  C   UNL     1      -7.107  31.062 -24.979  1.00  0.00     0.000 C 
BRANCH  15  16
ATOM     16  C   UNL     1      -7.444  31.150 -26.479  1.00  0.00     0.000 C 
BRANCH  16  17
ATOM     17  C   UNL     1      -7.781  29.783 -27.101  1.00  0.00    -0.000 C 
BRANCH  17  18
ATOM     18  C   UNL     1      -7.600  28.624 -26.097  1.00  0.00    -0.000 C 
BRANCH  18  19
ATOM     19  C   UNL     1      -6.547  27.591 -26.532  1.00  0.00    -0.003 C 
ATOM     20  C   UNL     1      -5.117  28.120 -26.445  1.00  0.00     0.004 C 
ENDBRANCH  18  19
ENDBRANCH  17  18
ENDBRANCH  16  17
ENDBRANCH  15  16
ENDBRANCH  14  15
ENDBRANCH  13  14
ENDBRANCH   2  13
TORSDOF 15
ENDMDL
MODEL 2
REMARK VINA RESULT:    -3.657      2.367      4.558
REMARK INTER + INTRA:          -8.986
REMARK INTER:                  -6.309
REMARK INTRA:                  -2.677
REMARK UNBOUND:                -2.123
REMARK SMILES CCCCCCCCC=CCCCCCCCC(=O)[O-]
REMARK SMILES IDX 10 1 9 2 11 3 12 4 13 5 14 6 15 7 16 8 17 9 18 10 19 11
REMARK SMILES IDX 20 12 8 13 7 14 6 15 5 16 4 17 3 18 2 19 1 20
REMARK H PARENT
REMARK Flexibility Score: inf
ROOT
ATOM      1  C   UNL     1      -7.466  28.370 -22.410  1.00  0.00    -0.031 C 
ATOM      2  C   UNL     1      -8.491  28.320 -21.544  1.00  0.00    -0.031 C 
ENDROOT
BRANCH   1   3
ATOM      3  C   UNL     1      -6.500  29.522 -22.422  1.00  0.00     0.027 C 
BRANCH   3   4
ATOM      4  C   UNL     1      -5.047  29.022 -22.434  1.00  0.00     0.004 C 
BRANCH   4   5
ATOM      5  C   UNL     1      -4.946  27.499 -22.265  1.00  0.00     0.000 C 
BRANCH   5   6
ATOM      6  C   UNL     1      -3.777  27.078 -21.360  1.00  0.00     0.000 C 
BRANCH   6   7
ATOM      7  C   UNL     1      -3.789  25.576 -21.026  1.00  0.00     0.000 C 
BRANCH   7   8
ATOM      8  C   UNL     1      -5.154  24.900 -21.273  1.00  0.00     0.006 C 
BRANCH   8   9
ATOM      9  C   UNL     1      -5.014  23.405 -21.589  1.00  0.00     0.053 C 
BRANCH   9  10
ATOM     10  C   UNL     1      -4.744  22.629 -20.339  1.00  0.00     0.041 C 
ATOM     11  O   UNL     1      -5.633  22.521 -19.455  1.00  0.00    -0.550 OA
ATOM     12  O   UNL     1      -3.493  22.062 -20.130  1.00  0.00    -0.550 OA
ENDBRANCH   9  10
ENDBRANCH   8   9
ENDBRANCH   7   8
ENDBRANCH   6   7
ENDBRANCH   5   6
ENDBRANCH   4   5
ENDBRANCH   3   4
ENDBRANCH   1   3
BRANCH   2  13
ATOM     13  C   UNL     1      -9.443  27.157 -21.520  1.00  0.00     0.027 C 
BRANCH  13  14
ATOM     14  C   UNL     1      -8.706  25.849 -21.192  1.00  0.00     0.004 C 
BRANCH  14  15
ATOM     15  C   UNL     1      -8.579  24.912 -22.406  1.00  0.00     0.000 C 
BRANCH  15  16
ATOM     16  C   UNL     1      -9.506  25.251 -23.587  1.00  0.00     0.000 C 
BRANCH  16  17
ATOM     17  C   UNL     1      -8.740  25.716 -24.838  1.00  0.00    -0.000 C 
BRANCH  17  18
ATOM     18  C   UNL     1      -7.244  25.336 -24.782  1.00  0.00    -0.000 C 
BRANCH  18  19
ATOM     19  C   UNL     1      -6.307  26.444 -25.292  1.00  0.00    -0.003 C 
ATOM     20  C   UNL     1      -7.042  27.547 -26.053  1.00  0.00     0.004 C 
ENDBRANCH  18  19
ENDBRANCH  17  18
ENDBRANCH  16  17
ENDBRANCH  15  16
ENDBRANCH  14  15
ENDBRANCH  13  14
ENDBRANCH   2  13
TORSDOF 15
ENDMDL
MODEL 3
REMARK VINA RESULT:    -3.584      4.412      7.038
REMARK INTER + INTRA:          -8.849
REMARK INTER:                  -6.202
REMARK INTRA:                  -2.647
REMARK UNBOUND:                -2.123
REMARK SMILES CCCCCCCCC=CCCCCCCCC(=O)[O-]
REMARK SMILES IDX 10 1 9 2 11 3 12 4 13 5 14 6 15 7 16 8 17 9 18 10 19 11
REMARK SMILES IDX 20 12 8 13 7 14 6 15 5 16 4 17 3 18 2 19 1 20
REMARK H PARENT
REMARK Flexibility Score: inf
ROOT
ATOM      1  C   UNL     1      -8.940  25.117 -22.894  1.00  0.00    -0.031 C 
ATOM      2  C   UNL     1      -9.230  26.415 -22.719  1.00  0.00    -0.031 C 
ENDROOT
BRANCH   1   3
ATOM      3  C   UNL     1      -8.970  24.480 -24.256  1.00  0.00     0.027 C 
BRANCH   3   4
ATOM      4  C   UNL     1      -9.348  25.505 -25.336  1.00  0.00     0.004 C 
BRANCH   4   5
ATOM      5  C   UNL     1      -8.178  25.828 -26.277  1.00  0.00     0.000 C 
BRANCH   5   6
ATOM      6  C   UNL     1      -7.494  27.163 -25.937  1.00  0.00     0.000 C 
BRANCH   6   7
ATOM      7  C   UNL     1      -6.502  27.619 -27.020  1.00  0.00     0.000 C 
BRANCH   7   8
ATOM      8  C   UNL     1      -6.872  28.971 -27.666  1.00  0.00     0.006 C 
BRANCH   8   9
ATOM      9  C   UNL     1      -7.185  30.050 -26.621  1.00  0.00     0.053 C 
BRANCH   9  10
ATOM     10  C   UNL     1      -8.021  31.134 -27.222  1.00  0.00     0.041 C 
ATOM     11  O   UNL     1      -8.305  32.161 -26.553  1.00  0.00    -0.550 OA
ATOM     12  O   UNL     1      -8.525  30.989 -28.508  1.00  0.00    -0.550 OA
ENDBRANCH   9  10
ENDBRANCH   8   9
ENDBRANCH   7   8
ENDBRANCH   6   7
ENDBRANCH   5   6
ENDBRANCH   4   5
ENDBRANCH   3   4
ENDBRANCH   1   3
BRANCH   2  13
ATOM     13  C   UNL     1      -9.178  27.055 -21.360  1.00  0.00     0.027 C 
BRANCH  13  14
ATOM     14  C   UNL     1      -8.418  28.390 -21.408  1.00  0.00     0.004 C 
BRANCH  14  15
ATOM     15  C   UNL     1      -7.652  28.597 -22.727  1.00  0.00     0.000 C 
BRANCH  15  16
ATOM     16  C   UNL     1      -6.249  29.211 -22.574  1.00  0.00     0.000 C 
BRANCH  16  17
ATOM     17  C   UNL     1      -5.161  28.161 -22.285  1.00  0.00    -0.000 C 
BRANCH  17  18
ATOM     18  C   UNL     1      -4.953  27.193 -23.470  1.00  0.00    -0.000 C 
BRANCH  18  19
ATOM     19  C   UNL     1      -5.323  25.736 -23.149  1.00  0.00    -0.003 C 
ATOM     20  C   UNL     1      -5.519  25.483 -21.656  1.00  0.00     0.004 C 
ENDBRANCH  18  19
ENDBRANCH  17  18
ENDBRANCH  16  17
ENDBRANCH  15  16
ENDBRANCH  14  15
ENDBRANCH  13  14
ENDBRANCH   2  13
TORSDOF 15
ENDMDL
MODEL 4
REMARK VINA RESULT:    -3.518      3.871      5.923
REMARK INTER + INTRA:          -8.726
REMARK INTER:                  -5.888
REMARK INTRA:                  -2.839
REMARK UNBOUND:                -2.123
REMARK SMILES CCCCCCCCC=CCCCCCCCC(=O)[O-]
REMARK SMILES IDX 10 1 9 2 11 3 12 4 13 5 14 6 15 7 16 8 17 9 18 10 19 11
REMARK SMILES IDX 20 12 8 13 7 14 6 15 5 16 4 17 3 18 2 19 1 20
REMARK H PARENT
REMARK Flexibility Score: inf
ROOT
ATOM      1  C   UNL     1      -8.586  28.217 -21.627  1.00  0.00    -0.031 C 
ATOM      2  C   UNL     1      -7.409  28.235 -22.271  1.00  0.00    -0.031 C 
ENDROOT
BRANCH   1   3
ATOM      3  C   UNL     1      -9.409  26.962 -21.525  1.00  0.00     0.027 C 
BRANCH   3   4
ATOM      4  C   UNL     1      -8.514  25.733 -21.297  1.00  0.00     0.004 C 
BRANCH   4   5
ATOM      5  C   UNL     1      -8.817  24.594 -22.282  1.00  0.00     0.000 C 
BRANCH   5   6
ATOM      6  C   UNL     1      -9.383  25.101 -23.619  1.00  0.00     0.000 C 
BRANCH   6   7
ATOM      7  C   UNL     1      -8.297  25.308 -24.688  1.00  0.00     0.000 C 
BRANCH   7   8
ATOM      8  C   UNL     1      -8.422  26.647 -25.445  1.00  0.00     0.006 C 
BRANCH   8   9
ATOM      9  C   UNL     1      -7.056  27.223 -25.840  1.00  0.00     0.053 C 
BRANCH   9  10
ATOM     10  C   UNL     1      -7.226  28.405 -26.741  1.00  0.00     0.041 C 
ATOM     11  O   UNL     1      -7.564  29.520 -26.267  1.00  0.00    -0.550 OA
ATOM     12  O   UNL     1      -7.057  28.262 -28.112  1.00  0.00    -0.550 OA
ENDBRANCH   9  10
ENDBRANCH   8   9
ENDBRANCH   7   8
ENDBRANCH   6   7
ENDBRANCH   5   6
ENDBRANCH   4   5
ENDBRANCH   3   4
ENDBRANCH   1   3
BRANCH   2  13
ATOM     13  C   UNL     1      -6.578  29.484 -22.353  1.00  0.00     0.027 C 
BRANCH  13  14
ATOM     14  C   UNL     1      -5.448  29.329 -23.384  1.00  0.00     0.004 C 
BRANCH  14  15
ATOM     15  C   UNL     1      -4.055  29.603 -22.792  1.00  0.00     0.000 C 
BRANCH  15  16
ATOM     16  C   UNL     1      -3.753  28.870 -21.472  1.00  0.00     0.000 C 
BRANCH  16  17
ATOM     17  C   UNL     1      -2.901  27.604 -21.669  1.00  0.00    -0.000 C 
BRANCH  17  18
ATOM     18  C   UNL     1      -3.532  26.364 -21.000  1.00  0.00    -0.000 C 
BRANCH  18  19
ATOM     19  C   UNL     1      -4.893  25.967 -21.596  1.00  0.00    -0.003 C 
ATOM     20  C   UNL     1      -4.818  25.619 -23.081  1.00  0.00     0.004 C 
ENDBRANCH  18  19
ENDBRANCH  17  18
ENDBRANCH  16  17
ENDBRANCH  15  16
ENDBRANCH  14  15
ENDBRANCH  13  14
ENDBRANCH   2  13
TORSDOF 15
ENDMDL
MODEL 5
REMARK VINA RESULT:    -3.486      1.566      3.385
REMARK INTER + INTRA:          -8.665
REMARK INTER:                  -6.165
REMARK INTRA:                  -2.500
REMARK UNBOUND:                -2.123
REMARK SMILES CCCCCCCCC=CCCCCCCCC(=O)[O-]
REMARK SMILES IDX 10 1 9 2 11 3 12 4 13 5 14 6 15 7 16 8 17 9 18 10 19 11
REMARK SMILES IDX 20 12 8 13 7 14 6 15 5 16 4 17 3 18 2 19 1 20
REMARK H PARENT
REMARK Flexibility Score: inf
ROOT
ATOM      1  C   UNL     1      -7.682  26.783 -26.045  1.00  0.00    -0.031 C 
ATOM      2  C   UNL     1      -7.220  27.722 -25.205  1.00  0.00    -0.031 C 
ENDROOT
BRANCH   1   3
ATOM      3  C   UNL     1      -7.936  25.373 -25.589  1.00  0.00     0.027 C 
BRANCH   3   4
ATOM      4  C   UNL     1      -9.344  25.232 -24.990  1.00  0.00     0.004 C 
BRANCH   4   5
ATOM      5  C   UNL     1      -9.316  24.891 -23.493  1.00  0.00     0.000 C 
BRANCH   5   6
ATOM      6  C   UNL     1      -9.070  26.124 -22.608  1.00  0.00     0.000 C 
BRANCH   6   7
ATOM      7  C   UNL     1      -8.685  25.757 -21.164  1.00  0.00     0.000 C 
BRANCH   7   8
ATOM      8  C   UNL     1      -8.624  24.237 -20.909  1.00  0.00     0.006 C 
BRANCH   8   9
ATOM      9  C   UNL     1      -7.679  23.878 -19.754  1.00  0.00     0.053 C 
BRANCH   9  10
ATOM     10  C   UNL     1      -8.461  23.506 -18.534  1.00  0.00     0.041 C 
ATOM     11  O   UNL     1      -8.470  24.265 -17.530  1.00  0.00    -0.550 OA
ATOM     12  O   UNL     1      -9.143  22.297 -18.489  1.00  0.00    -0.550 OA
ENDBRANCH   9  10
ENDBRANCH   8   9
ENDBRANCH   7   8
ENDBRANCH   6   7
ENDBRANCH   5   6
ENDBRANCH   4   5
ENDBRANCH   3   4
ENDBRANCH   1   3
BRANCH   2  13
ATOM     13  C   UNL     1      -6.988  29.136 -25.657  1.00  0.00     0.027 C 
BRANCH  13  14
ATOM     14  C   UNL     1      -6.785  30.073 -24.456  1.00  0.00     0.004 C 
BRANCH  14  15
ATOM     15  C   UNL     1      -6.973  29.363 -23.104  1.00  0.00     0.000 C 
BRANCH  15  16
ATOM     16  C   UNL     1      -5.713  29.303 -22.221  1.00  0.00     0.000 C 
BRANCH  16  17
ATOM     17  C   UNL     1      -4.756  28.164 -22.617  1.00  0.00    -0.000 C 
BRANCH  17  18
ATOM     18  C   UNL     1      -5.217  26.795 -22.072  1.00  0.00    -0.000 C 
BRANCH  18  19
ATOM     19  C   UNL     1      -4.605  25.597 -22.816  1.00  0.00    -0.003 C 
ATOM     20  C   UNL     1      -5.609  24.475 -23.074  1.00  0.00     0.004 C 
ENDBRANCH  18  19
ENDBRANCH  17  18
ENDBRANCH  16  17
ENDBRANCH  15  16
ENDBRANCH  14  15
ENDBRANCH  13  14
ENDBRANCH   2  13
TORSDOF 15
ENDMDL
MODEL 6
REMARK VINA RESULT:    -3.480      1.459      2.715
REMARK INTER + INTRA:          -8.655
REMARK INTER:                  -6.110
REMARK INTRA:                  -2.545
REMARK UNBOUND:                -2.123
REMARK SMILES CCCCCCCCC=CCCCCCCCC(=O)[O-]
REMARK SMILES IDX 10 1 9 2 11 3 12 4 13 5 14 6 15 7 16 8 17 9 18 10 19 11
REMARK SMILES IDX 20 12 8 13 7 14 6 15 5 16 4 17 3 18 2 19 1 20
REMARK H PARENT
REMARK Flexibility Score: inf
ROOT
ATOM      1  C   UNL     1      -7.448  28.279 -22.385  1.00  0.00    -0.031 C 
ATOM      2  C   UNL     1      -6.446  29.171 -22.413  1.00  0.00    -0.031 C 
ENDROOT
BRANCH   1   3
ATOM      3  C   UNL     1      -8.616  28.434 -21.450  1.00  0.00     0.027 C 
BRANCH   3   4
ATOM      4  C   UNL     1      -9.401  27.119 -21.325  1.00  0.00     0.004 C 
BRANCH   4   5
ATOM      5  C   UNL     1      -9.102  26.144 -22.473  1.00  0.00     0.000 C 
BRANCH   5   6
ATOM      6  C   UNL     1      -8.765  24.728 -21.976  1.00  0.00     0.000 C 
BRANCH   6   7
ATOM      7  C   UNL     1      -7.453  24.672 -21.175  1.00  0.00     0.000 C 
BRANCH   7   8
ATOM      8  C   UNL     1      -7.121  23.267 -20.631  1.00  0.00     0.006 C 
BRANCH   8   9
ATOM      9  C   UNL     1      -6.903  23.267 -19.112  1.00  0.00     0.053 C 
BRANCH   9  10
ATOM     10  C   UNL     1      -8.215  23.299 -18.395  1.00  0.00     0.041 C 
ATOM     11  O   UNL     1      -9.106  22.452 -18.664  1.00  0.00    -0.550 OA
ATOM     12  O   UNL     1      -8.472  24.295 -17.461  1.00  0.00    -0.550 OA
ENDBRANCH   9  10
ENDBRANCH   8   9
ENDBRANCH   7   8
ENDBRANCH   6   7
ENDBRANCH   5   6
ENDBRANCH   4   5
ENDBRANCH   3   4
ENDBRANCH   1   3
BRANCH   2  13
ATOM     13  C   UNL     1      -5.291  29.026 -23.364  1.00  0.00     0.027 C 
BRANCH  13  14
ATOM     14  C   UNL     1      -4.173  28.170 -22.747  1.00  0.00     0.004 C 
BRANCH  14  15
ATOM     15  C   UNL     1      -4.307  26.675 -23.085  1.00  0.00     0.000 C 
BRANCH  15  16
ATOM     16  C   UNL     1      -4.823  26.374 -24.504  1.00  0.00     0.000 C 
BRANCH  16  17
ATOM     17  C   UNL     1      -6.100  25.515 -24.509  1.00  0.00    -0.000 C 
BRANCH  17  18
ATOM     18  C   UNL     1      -7.080  25.931 -25.628  1.00  0.00    -0.000 C 
BRANCH  18  19
ATOM     19  C   UNL     1      -6.633  27.180 -26.406  1.00  0.00    -0.003 C 
ATOM     20  C   UNL     1      -7.547  28.383 -26.183  1.00  0.00     0.004 C 
ENDBRANCH  18  19
ENDBRANCH  17  18
ENDBRANCH  16  17
ENDBRANCH  15  16
ENDBRANCH  14  15
ENDBRANCH  13  14
ENDBRANCH   2  13
TORSDOF 15
ENDMDL
MODEL 7
REMARK VINA RESULT:    -3.476      4.566      7.908
REMARK INTER + INTRA:          -8.648
REMARK INTER:                  -6.178
REMARK INTRA:                  -2.470
REMARK UNBOUND:                -2.123
REMARK SMILES CCCCCCCCC=CCCCCCCCC(=O)[O-]
REMARK SMILES IDX 10 1 9 2 11 3 12 4 13 5 14 6 15 7 16 8 17 9 18 10 19 11
REMARK SMILES IDX 20 12 8 13 7 14 6 15 5 16 4 17 3 18 2 19 1 20
REMARK H PARENT
REMARK Flexibility Score: inf
ROOT
ATOM      1  C   UNL     1      -6.597  26.670 -24.695  1.00  0.00    -0.031 C 
ATOM      2  C   UNL     1      -7.753  27.106 -25.219  1.00  0.00    -0.031 C 
ENDROOT
BRANCH   1   3
ATOM      3  C   UNL     1      -5.568  27.623 -24.152  1.00  0.00     0.027 C 
BRANCH   3   4
ATOM      4  C   UNL     1      -5.951  28.104 -22.744  1.00  0.00     0.004 C 
BRANCH   4   5
ATOM      5  C   UNL     1      -6.608  29.492 -22.753  1.00  0.00     0.000 C 
BRANCH   5   6
ATOM      6  C   UNL     1      -6.005  30.426 -23.816  1.00  0.00     0.000 C 
BRANCH   6   7
ATOM      7  C   UNL     1      -7.031  30.869 -24.873  1.00  0.00     0.000 C 
BRANCH   7   8
ATOM      8  C   UNL     1      -6.668  30.433 -26.308  1.00  0.00     0.006 C 
BRANCH   8   9
ATOM      9  C   UNL     1      -6.682  31.608 -27.295  1.00  0.00     0.053 C 
BRANCH   9  10
ATOM     10  C   UNL     1      -8.023  31.731 -27.944  1.00  0.00     0.041 C 
ATOM     11  O   UNL     1      -8.839  32.607 -27.555  1.00  0.00    -0.550 OA
ATOM     12  O   UNL     1      -8.392  30.846 -28.949  1.00  0.00    -0.550 OA
ENDBRANCH   9  10
ENDBRANCH   8   9
ENDBRANCH   7   8
ENDBRANCH   6   7
ENDBRANCH   5   6
ENDBRANCH   4   5
ENDBRANCH   3   4
ENDBRANCH   1   3
BRANCH   2  13
ATOM     13  C   UNL     1      -8.789  26.150 -25.740  1.00  0.00     0.027 C 
BRANCH  13  14
ATOM     14  C   UNL     1      -8.260  24.707 -25.736  1.00  0.00     0.004 C 
BRANCH  14  15
ATOM     15  C   UNL     1      -9.246  23.708 -25.105  1.00  0.00     0.000 C 
BRANCH  15  16
ATOM     16  C   UNL     1      -9.640  24.017 -23.649  1.00  0.00     0.000 C 
BRANCH  16  17
ATOM     17  C   UNL     1      -8.424  24.182 -22.719  1.00  0.00    -0.000 C 
BRANCH  17  18
ATOM     18  C   UNL     1      -8.710  25.147 -21.548  1.00  0.00    -0.000 C 
BRANCH  18  19
ATOM     19  C   UNL     1      -9.390  26.457 -21.981  1.00  0.00    -0.003 C 
ATOM     20  C   UNL     1      -9.212  27.587 -20.968  1.00  0.00     0.004 C 
ENDBRANCH  18  19
ENDBRANCH  17  18
ENDBRANCH  16  17
ENDBRANCH  15  16
ENDBRANCH  14  15
ENDBRANCH  13  14
ENDBRANCH   2  13
TORSDOF 15
ENDMDL
MODEL 8
REMARK VINA RESULT:    -3.470      3.078      6.275
REMARK INTER + INTRA:          -8.635
REMARK INTER:                  -6.435
REMARK INTRA:                  -2.200
REMARK UNBOUND:                -2.123
REMARK SMILES CCCCCCCCC=CCCCCCCCC(=O)[O-]
REMARK SMILES IDX 10 1 9 2 11 3 12 4 13 5 14 6 15 7 16 8 17 9 18 10 19 11
REMARK SMILES IDX 20 12 8 13 7 14 6 15 5 16 4 17 3 18 2 19 1 20
REMARK H PARENT
REMARK Flexibility Score: inf
ROOT
ATOM      1  C   UNL     1      -7.436  28.256 -22.406  1.00  0.00    -0.031 C 
ATOM      2  C   UNL     1      -8.448  28.226 -21.524  1.00  0.00    -0.031 C 
ENDROOT
BRANCH   1   3
ATOM      3  C   UNL     1      -6.519  29.443 -22.513  1.00  0.00     0.027 C 
BRANCH   3   4
ATOM      4  C   UNL     1      -5.052  29.024 -22.330  1.00  0.00     0.004 C 
BRANCH   4   5
ATOM      5  C   UNL     1      -4.875  27.499 -22.299  1.00  0.00     0.000 C 
BRANCH   5   6
ATOM      6  C   UNL     1      -3.466  27.074 -21.853  1.00  0.00     0.000 C 
BRANCH   6   7
ATOM      7  C   UNL     1      -3.480  26.158 -20.617  1.00  0.00     0.000 C 
BRANCH   7   8
ATOM      8  C   UNL     1      -2.528  24.950 -20.732  1.00  0.00     0.006 C 
BRANCH   8   9
ATOM      9  C   UNL     1      -3.117  23.824 -21.593  1.00  0.00     0.053 C 
BRANCH   9  10
ATOM     10  C   UNL     1      -3.041  22.517 -20.870  1.00  0.00     0.041 C 
ATOM     11  O   UNL     1      -2.017  22.221 -20.202  1.00  0.00    -0.550 OA
ATOM     12  O   UNL     1      -4.083  21.605 -20.973  1.00  0.00    -0.550 OA
ENDBRANCH   9  10
ENDBRANCH   8   9
ENDBRANCH   7   8
ENDBRANCH   6   7
ENDBRANCH   5   6
ENDBRANCH   4   5
ENDBRANCH   3   4
ENDBRANCH   1   3
BRANCH   2  13
ATOM     13  C   UNL     1      -9.349  27.030 -21.404  1.00  0.00     0.027 C 
BRANCH  13  14
ATOM     14  C   UNL     1      -9.273  26.153 -22.663  1.00  0.00     0.004 C 
BRANCH  14  15
ATOM     15  C   UNL     1      -8.812  24.715 -22.366  1.00  0.00     0.000 C 
BRANCH  15  16
ATOM     16  C   UNL     1      -7.288  24.502 -22.397  1.00  0.00     0.000 C 
BRANCH  16  17
ATOM     17  C   UNL     1      -6.661  24.448 -20.992  1.00  0.00    -0.000 C 
BRANCH  17  18
ATOM     18  C   UNL     1      -7.133  23.218 -20.188  1.00  0.00    -0.000 C 
BRANCH  18  19
ATOM     19  C   UNL     1      -7.870  23.577 -18.887  1.00  0.00    -0.003 C 
ATOM     20  C   UNL     1      -9.376  23.330 -18.964  1.00  0.00     0.004 C 
ENDBRANCH  18  19
ENDBRANCH  17  18
ENDBRANCH  16  17
ENDBRANCH  15  16
ENDBRANCH  14  15
ENDBRANCH  13  14
ENDBRANCH   2  13
TORSDOF 15
ENDMDL
MODEL 9
REMARK VINA RESULT:    -3.425      4.355      7.224
REMARK INTER + INTRA:          -8.551
REMARK INTER:                  -5.896
REMARK INTRA:                  -2.655
REMARK UNBOUND:                -2.123
REMARK SMILES CCCCCCCCC=CCCCCCCCC(=O)[O-]
REMARK SMILES IDX 10 1 9 2 11 3 12 4 13 5 14 6 15 7 16 8 17 9 18 10 19 11
REMARK SMILES IDX 20 12 8 13 7 14 6 15 5 16 4 17 3 18 2 19 1 20
REMARK H PARENT
REMARK Flexibility Score: inf
ROOT
ATOM      1  C   UNL     1      -7.378  28.189 -22.389  1.00  0.00    -0.031 C 
ATOM      2  C   UNL     1      -8.448  27.999 -21.601  1.00  0.00    -0.031 C 
ENDROOT
BRANCH   1   3
ATOM      3  C   UNL     1      -6.701  29.528 -22.487  1.00  0.00     0.027 C 
BRANCH   3   4
ATOM      4  C   UNL     1      -5.175  29.383 -22.383  1.00  0.00     0.004 C 
BRANCH   4   5
ATOM      5  C   UNL     1      -4.506  29.192 -23.752  1.00  0.00     0.000 C 
BRANCH   5   6
ATOM      6  C   UNL     1      -4.788  30.355 -24.718  1.00  0.00     0.000 C 
BRANCH   6   7
ATOM      7  C   UNL     1      -5.410  29.892 -26.046  1.00  0.00     0.000 C 
BRANCH   7   8
ATOM      8  C   UNL     1      -6.952  29.858 -26.027  1.00  0.00     0.006 C 
BRANCH   8   9
ATOM      9  C   UNL     1      -7.563  31.252 -25.832  1.00  0.00     0.053 C 
BRANCH   9  10
ATOM     10  C   UNL     1      -8.226  31.715 -27.090  1.00  0.00     0.041 C 
ATOM     11  O   UNL     1      -8.698  30.878 -27.903  1.00  0.00    -0.550 OA
ATOM     12  O   UNL     1      -8.279  33.070 -27.389  1.00  0.00    -0.550 OA
ENDBRANCH   9  10
ENDBRANCH   8   9
ENDBRANCH   7   8
ENDBRANCH   6   7
ENDBRANCH   5   6
ENDBRANCH   4   5
ENDBRANCH   3   4
ENDBRANCH   1   3
BRANCH   2  13
ATOM     13  C   UNL     1      -9.110  26.654 -21.487  1.00  0.00     0.027 C 
BRANCH  13  14
ATOM     14  C   UNL     1      -8.093  25.520 -21.690  1.00  0.00     0.004 C 
BRANCH  14  15
ATOM     15  C   UNL     1      -8.402  24.651 -22.922  1.00  0.00     0.000 C 
BRANCH  15  16
ATOM     16  C   UNL     1      -9.440  25.244 -23.891  1.00  0.00     0.000 C 
BRANCH  16  17
ATOM     17  C   UNL     1      -8.800  25.998 -25.070  1.00  0.00    -0.000 C 
BRANCH  17  18
ATOM     18  C   UNL     1      -7.474  25.351 -25.527  1.00  0.00    -0.000 C 
BRANCH  18  19
ATOM     19  C   UNL     1      -6.252  26.269 -25.365  1.00  0.00    -0.003 C 
ATOM     20  C   UNL     1      -5.186  25.689 -24.438  1.00  0.00     0.004 C 
ENDBRANCH  18  19
ENDBRANCH  17  18
ENDBRANCH  16  17
ENDBRANCH  15  16
ENDBRANCH  14  15
ENDBRANCH  13  14
ENDBRANCH   2  13
TORSDOF 15
ENDMDL
