MODEL 1
REMARK VINA RESULT:    -4.290      0.000      0.000
REMARK INTER + INTRA:         -14.214
REMARK INTER:                  -9.808
REMARK INTRA:                  -4.406
REMARK UNBOUND:                -4.406
REMARK SMILES CCCCCCCCCCCCCCCCCCCCCCCC(=O)[O-]
REMARK SMILES IDX 13 1 14 2 15 3 16 4 17 5 18 6 19 7 20 8 21 9 22 10 23 11
REMARK SMILES IDX 24 12 25 13 26 14 12 15 11 16 10 17 9 18 8 19 7 20 6 21 5 22
REMARK SMILES IDX 4 23 3 24 2 25 1 26
REMARK H PARENT
REMARK Flexibility Score: inf
ROOT
ATOM      1  C   UNL     1      17.692  24.068  50.526  1.00  0.00     0.000 C 
ENDROOT
BRANCH   1   2
ATOM      2  C   UNL     1      17.470  24.143  49.007  1.00  0.00     0.000 C 
BRANCH   2   3
ATOM      3  C   UNL     1      17.456  25.587  48.481  1.00  0.00     0.000 C 
BRANCH   3   4
ATOM      4  C   UNL     1      16.215  25.898  47.625  1.00  0.00     0.000 C 
BRANCH   4   5
ATOM      5  C   UNL     1      14.923  25.316  48.220  1.00  0.00     0.000 C 
BRANCH   5   6
ATOM      6  C   UNL     1      14.063  26.376  48.924  1.00  0.00     0.000 C 
BRANCH   6   7
ATOM      7  C   UNL     1      14.213  26.277  50.449  1.00  0.00     0.000 C 
BRANCH   7   8
ATOM      8  C   UNL     1      14.640  27.608  51.090  1.00  0.00     0.000 C 
BRANCH   8   9
ATOM      9  C   UNL     1      15.547  28.440  50.172  1.00  0.00     0.000 C 
BRANCH   9  10
ATOM     10  C   UNL     1      15.003  29.868  50.010  1.00  0.00     0.006 C 
BRANCH  10  11
ATOM     11  C   UNL     1      14.620  30.501  51.355  1.00  0.00     0.053 C 
BRANCH  11  12
ATOM     12  C   UNL     1      15.204  31.872  51.509  1.00  0.00     0.041 C 
ATOM     13  O   UNL     1      15.597  32.511  50.498  1.00  0.00    -0.550 OA
ATOM     14  O   UNL     1      15.283  32.456  52.767  1.00  0.00    -0.550 OA
ENDBRANCH  11  12
ENDBRANCH  10  11
ENDBRANCH   9  10
ENDBRANCH   8   9
ENDBRANCH   7   8
ENDBRANCH   6   7
ENDBRANCH   5   6
ENDBRANCH   4   5
ENDBRANCH   3   4
ENDBRANCH   2   3
ENDBRANCH   1   2
BRANCH   1  15
ATOM     15  C   UNL     1      17.672  25.454  51.193  1.00  0.00     0.000 C 
BRANCH  15  16
ATOM     16  C   UNL     1      18.587  25.530  52.427  1.00  0.00     0.000 C 
BRANCH  16  17
ATOM     17  C   UNL     1      17.793  25.640  53.746  1.00  0.00     0.000 C 
BRANCH  17  18
ATOM     18  C   UNL     1      16.278  25.411  53.582  1.00  0.00    -0.000 C 
BRANCH  18  19
ATOM     19  C   UNL     1      15.383  26.267  54.500  1.00  0.00    -0.000 C 
BRANCH  19  20
ATOM     20  C   UNL     1      16.091  27.446  55.194  1.00  0.00    -0.000 C 
BRANCH  20  21
ATOM     21  C   UNL     1      15.882  28.785  54.465  1.00  0.00    -0.000 C 
BRANCH  21  22
ATOM     22  C   UNL     1      17.195  29.563  54.257  1.00  0.00    -0.000 C 
BRANCH  22  23
ATOM     23  C   UNL     1      17.853  29.391  52.873  1.00  0.00    -0.000 C 
BRANCH  23  24
ATOM     24  C   UNL     1      19.351  29.041  52.900  1.00  0.00    -0.000 C 
BRANCH  24  25
ATOM     25  C   UNL     1      20.117  29.781  54.006  1.00  0.00    -0.003 C 
ATOM     26  C   UNL     1      20.730  31.074  53.478  1.00  0.00     0.004 C 
ENDBRANCH  24  25
ENDBRANCH  23  24
ENDBRANCH  22  23
ENDBRANCH  21  22
ENDBRANCH  20  21
ENDBRANCH  19  20
ENDBRANCH  18  19
ENDBRANCH  17  18
ENDBRANCH  16  17
ENDBRANCH  15  16
ENDBRANCH   1  15
TORSDOF 22
ENDMDL
MODEL 2
REMARK VINA RESULT:    -4.213      1.522      3.871
REMARK INTER + INTRA:         -14.038
REMARK INTER:                  -9.860
REMARK INTRA:                  -4.178
REMARK UNBOUND:                -4.406
REMARK SMILES CCCCCCCCCCCCCCCCCCCCCCCC(=O)[O-]
REMARK SMILES IDX 13 1 14 2 15 3 16 4 17 5 18 6 19 7 20 8 21 9 22 10 23 11
REMARK SMILES IDX 24 12 25 13 26 14 12 15 11 16 10 17 9 18 8 19 7 20 6 21 5 22
REMARK SMILES IDX 4 23 3 24 2 25 1 26
REMARK H PARENT
REMARK Flexibility Score: inf
ROOT
ATOM      1  C   UNL     1      15.298  26.174  53.755  1.00  0.00     0.000 C 
ENDROOT
BRANCH   1   2
ATOM      2  C   UNL     1      15.780  24.723  53.590  1.00  0.00     0.000 C 
BRANCH   2   3
ATOM      3  C   UNL     1      15.229  24.057  52.320  1.00  0.00     0.000 C 
BRANCH   3   4
ATOM      4  C   UNL     1      14.230  24.951  51.563  1.00  0.00     0.000 C 
BRANCH   4   5
ATOM      5  C   UNL     1      14.680  25.259  50.126  1.00  0.00     0.000 C 
BRANCH   5   6
ATOM      6  C   UNL     1      16.023  26.002  50.071  1.00  0.00     0.000 C 
BRANCH   6   7
ATOM      7  C   UNL     1      15.809  27.501  49.816  1.00  0.00     0.000 C 
BRANCH   7   8
ATOM      8  C   UNL     1      16.103  28.361  51.057  1.00  0.00     0.000 C 
BRANCH   8   9
ATOM      9  C   UNL     1      14.950  29.315  51.400  1.00  0.00     0.000 C 
BRANCH   9  10
ATOM     10  C   UNL     1      15.166  30.692  50.754  1.00  0.00     0.006 C 
BRANCH  10  11
ATOM     11  C   UNL     1      14.167  31.739  51.267  1.00  0.00     0.053 C 
BRANCH  11  12
ATOM     12  C   UNL     1      14.831  33.054  51.537  1.00  0.00     0.041 C 
ATOM     13  O   UNL     1      14.213  33.963  52.149  1.00  0.00    -0.550 OA
ATOM     14  O   UNL     1      16.147  33.262  51.141  1.00  0.00    -0.550 OA
ENDBRANCH  11  12
ENDBRANCH  10  11
ENDBRANCH   9  10
ENDBRANCH   8   9
ENDBRANCH   7   8
ENDBRANCH   6   7
ENDBRANCH   5   6
ENDBRANCH   4   5
ENDBRANCH   3   4
ENDBRANCH   2   3
ENDBRANCH   1   2
BRANCH   1  15
ATOM     15  C   UNL     1      16.007  26.901  54.910  1.00  0.00     0.000 C 
BRANCH  15  16
ATOM     16  C   UNL     1      15.665  28.401  54.964  1.00  0.00     0.000 C 
BRANCH  16  17
ATOM     17  C   UNL     1      16.923  29.292  55.033  1.00  0.00     0.000 C 
BRANCH  17  18
ATOM     18  C   UNL     1      16.824  30.575  54.185  1.00  0.00    -0.000 C 
BRANCH  18  19
ATOM     19  C   UNL     1      18.057  30.879  53.311  1.00  0.00    -0.000 C 
BRANCH  19  20
ATOM     20  C   UNL     1      19.263  29.946  53.531  1.00  0.00    -0.000 C 
BRANCH  20  21
ATOM     21  C   UNL     1      19.414  28.889  52.424  1.00  0.00    -0.000 C 
BRANCH  21  22
ATOM     22  C   UNL     1      19.701  27.481  52.977  1.00  0.00    -0.000 C 
BRANCH  22  23
ATOM     23  C   UNL     1      18.738  26.374  52.501  1.00  0.00    -0.000 C 
BRANCH  23  24
ATOM     24  C   UNL     1      19.415  25.069  52.046  1.00  0.00    -0.000 C 
BRANCH  24  25
ATOM     25  C   UNL     1      19.756  25.065  50.549  1.00  0.00    -0.003 C 
ATOM     26  C   UNL     1      21.259  25.201  50.329  1.00  0.00     0.004 C 
ENDBRANCH  24  25
ENDBRANCH  23  24
ENDBRANCH  22  23
ENDBRANCH  21  22
ENDBRANCH  20  21
ENDBRANCH  19  20
ENDBRANCH  18  19
ENDBRANCH  17  18
ENDBRANCH  16  17
ENDBRANCH  15  16
ENDBRANCH   1  15
TORSDOF 22
ENDMDL
MODEL 3
REMARK VINA RESULT:    -4.151      4.662      7.581
REMARK INTER + INTRA:         -13.895
REMARK INTER:                 -11.618
REMARK INTRA:                  -2.277
REMARK UNBOUND:                -4.406
REMARK SMILES CCCCCCCCCCCCCCCCCCCCCCCC(=O)[O-]
REMARK SMILES IDX 13 1 14 2 15 3 16 4 17 5 18 6 19 7 20 8 21 9 22 10 23 11
REMARK SMILES IDX 24 12 25 13 26 14 12 15 11 16 10 17 9 18 8 19 7 20 6 21 5 22
REMARK SMILES IDX 4 23 3 24 2 25 1 26
REMARK H PARENT
REMARK Flexibility Score: inf
ROOT
ATOM      1  C   UNL     1      15.779  28.572  54.639  1.00  0.00     0.000 C 
ENDROOT
BRANCH   1   2
ATOM      2  C   UNL     1      16.673  29.623  55.319  1.00  0.00     0.000 C 
BRANCH   2   3
ATOM      3  C   UNL     1      16.011  30.253  56.554  1.00  0.00     0.000 C 
BRANCH   3   4
ATOM      4  C   UNL     1      16.741  31.517  57.043  1.00  0.00     0.000 C 
BRANCH   4   5
ATOM      5  C   UNL     1      15.777  32.664  57.387  1.00  0.00     0.000 C 
BRANCH   5   6
ATOM      6  C   UNL     1      14.677  32.852  56.332  1.00  0.00     0.000 C 
BRANCH   6   7
ATOM      7  C   UNL     1      13.285  32.677  56.957  1.00  0.00     0.000 C 
BRANCH   7   8
ATOM      8  C   UNL     1      12.239  33.626  56.348  1.00  0.00     0.000 C 
BRANCH   8   9
ATOM      9  C   UNL     1      12.755  35.066  56.215  1.00  0.00     0.000 C 
BRANCH   9  10
ATOM     10  C   UNL     1      12.400  35.894  57.460  1.00  0.00     0.006 C 
BRANCH  10  11
ATOM     11  C   UNL     1      13.496  36.908  57.815  1.00  0.00     0.053 C 
BRANCH  11  12
ATOM     12  C   UNL     1      12.931  38.119  58.493  1.00  0.00     0.041 C 
ATOM     13  O   UNL     1      13.464  39.247  58.325  1.00  0.00    -0.550 OA
ATOM     14  O   UNL     1      11.795  38.006  59.286  1.00  0.00    -0.550 OA
ENDBRANCH  11  12
ENDBRANCH  10  11
ENDBRANCH   9  10
ENDBRANCH   8   9
ENDBRANCH   7   8
ENDBRANCH   6   7
ENDBRANCH   5   6
ENDBRANCH   4   5
ENDBRANCH   3   4
ENDBRANCH   2   3
ENDBRANCH   1   2
BRANCH   1  15
ATOM     15  C   UNL     1      15.934  27.176  55.265  1.00  0.00     0.000 C 
BRANCH  15  16
ATOM     16  C   UNL     1      15.948  26.054  54.213  1.00  0.00     0.000 C 
BRANCH  16  17
ATOM     17  C   UNL     1      17.340  25.859  53.574  1.00  0.00     0.000 C 
BRANCH  17  18
ATOM     18  C   UNL     1      17.371  26.126  52.057  1.00  0.00    -0.000 C 
BRANCH  18  19
ATOM     19  C   UNL     1      16.032  25.906  51.326  1.00  0.00    -0.000 C 
BRANCH  19  20
ATOM     20  C   UNL     1      15.729  26.908  50.195  1.00  0.00    -0.000 C 
BRANCH  20  21
ATOM     21  C   UNL     1      16.026  28.365  50.588  1.00  0.00    -0.000 C 
BRANCH  21  22
ATOM     22  C   UNL     1      14.816  29.296  50.389  1.00  0.00    -0.000 C 
BRANCH  22  23
ATOM     23  C   UNL     1      15.076  30.789  50.680  1.00  0.00    -0.000 C 
BRANCH  23  24
ATOM     24  C   UNL     1      15.747  31.085  52.033  1.00  0.00    -0.000 C 
BRANCH  24  25
ATOM     25  C   UNL     1      15.353  32.453  52.607  1.00  0.00    -0.003 C 
ATOM     26  C   UNL     1      14.181  33.054  51.837  1.00  0.00     0.004 C 
ENDBRANCH  24  25
ENDBRANCH  23  24
ENDBRANCH  22  23
ENDBRANCH  21  22
ENDBRANCH  20  21
ENDBRANCH  19  20
ENDBRANCH  18  19
ENDBRANCH  17  18
ENDBRANCH  16  17
ENDBRANCH  15  16
ENDBRANCH   1  15
TORSDOF 22
ENDMDL
MODEL 4
REMARK VINA RESULT:    -4.129      3.081      5.887
REMARK INTER + INTRA:         -13.845
REMARK INTER:                 -10.354
REMARK INTRA:                  -3.491
REMARK UNBOUND:                -4.406
REMARK SMILES CCCCCCCCCCCCCCCCCCCCCCCC(=O)[O-]
REMARK SMILES IDX 13 1 14 2 15 3 16 4 17 5 18 6 19 7 20 8 21 9 22 10 23 11
REMARK SMILES IDX 24 12 25 13 26 14 12 15 11 16 10 17 9 18 8 19 7 20 6 21 5 22
REMARK SMILES IDX 4 23 3 24 2 25 1 26
REMARK H PARENT
REMARK Flexibility Score: inf
ROOT
ATOM      1  C   UNL     1      15.151  26.983  50.375  1.00  0.00     0.000 C 
ENDROOT
BRANCH   1   2
ATOM      2  C   UNL     1      14.561  26.963  51.794  1.00  0.00     0.000 C 
BRANCH   2   3
ATOM      3  C   UNL     1      14.913  25.680  52.564  1.00  0.00     0.000 C 
BRANCH   3   4
ATOM      4  C   UNL     1      15.383  25.958  54.003  1.00  0.00     0.000 C 
BRANCH   4   5
ATOM      5  C   UNL     1      16.803  26.542  54.060  1.00  0.00     0.000 C 
BRANCH   5   6
ATOM      6  C   UNL     1      17.880  25.528  53.649  1.00  0.00     0.000 C 
BRANCH   6   7
ATOM      7  C   UNL     1      18.980  26.204  52.817  1.00  0.00     0.000 C 
BRANCH   7   8
ATOM      8  C   UNL     1      18.617  27.643  52.414  1.00  0.00     0.000 C 
BRANCH   8   9
ATOM      9  C   UNL     1      19.569  28.684  53.022  1.00  0.00     0.000 C 
BRANCH   9  10
ATOM     10  C   UNL     1      21.026  28.201  52.955  1.00  0.00     0.006 C 
BRANCH  10  11
ATOM     11  C   UNL     1      21.706  28.587  51.635  1.00  0.00     0.053 C 
BRANCH  11  12
ATOM     12  C   UNL     1      22.025  27.383  50.803  1.00  0.00     0.041 C 
ATOM     13  O   UNL     1      23.158  26.840  50.880  1.00  0.00    -0.550 OA
ATOM     14  O   UNL     1      21.058  26.842  49.965  1.00  0.00    -0.550 OA
ENDBRANCH  11  12
ENDBRANCH  10  11
ENDBRANCH   9  10
ENDBRANCH   8   9
ENDBRANCH   7   8
ENDBRANCH   6   7
ENDBRANCH   5   6
ENDBRANCH   4   5
ENDBRANCH   3   4
ENDBRANCH   2   3
ENDBRANCH   1   2
BRANCH   1  15
ATOM     15  C   UNL     1      15.766  28.346  50.013  1.00  0.00     0.000 C 
BRANCH  15  16
ATOM     16  C   UNL     1      14.978  29.078  48.914  1.00  0.00     0.000 C 
BRANCH  16  17
ATOM     17  C   UNL     1      14.596  30.518  49.318  1.00  0.00     0.000 C 
BRANCH  17  18
ATOM     18  C   UNL     1      14.564  30.749  50.841  1.00  0.00    -0.000 C 
BRANCH  18  19
ATOM     19  C   UNL     1      15.482  31.878  51.351  1.00  0.00    -0.000 C 
BRANCH  19  20
ATOM     20  C   UNL     1      16.088  31.650  52.749  1.00  0.00    -0.000 C 
BRANCH  20  21
ATOM     21  C   UNL     1      16.041  30.178  53.191  1.00  0.00    -0.000 C 
BRANCH  21  22
ATOM     22  C   UNL     1      16.216  30.004  54.711  1.00  0.00    -0.000 C 
BRANCH  22  23
ATOM     23  C   UNL     1      17.498  30.624  55.304  1.00  0.00    -0.000 C 
BRANCH  23  24
ATOM     24  C   UNL     1      17.337  31.248  56.702  1.00  0.00    -0.000 C 
BRANCH  24  25
ATOM     25  C   UNL     1      15.882  31.615  57.026  1.00  0.00    -0.003 C 
ATOM     26  C   UNL     1      15.758  33.090  57.397  1.00  0.00     0.004 C 
ENDBRANCH  24  25
ENDBRANCH  23  24
ENDBRANCH  22  23
ENDBRANCH  21  22
ENDBRANCH  20  21
ENDBRANCH  19  20
ENDBRANCH  18  19
ENDBRANCH  17  18
ENDBRANCH  16  17
ENDBRANCH  15  16
ENDBRANCH   1  15
TORSDOF 22
ENDMDL
MODEL 5
REMARK VINA RESULT:    -4.128      1.577      3.334
REMARK INTER + INTRA:         -13.844
REMARK INTER:                 -10.238
REMARK INTRA:                  -3.606
REMARK UNBOUND:                -4.406
REMARK SMILES CCCCCCCCCCCCCCCCCCCCCCCC(=O)[O-]
REMARK SMILES IDX 13 1 14 2 15 3 16 4 17 5 18 6 19 7 20 8 21 9 22 10 23 11
REMARK SMILES IDX 24 12 25 13 26 14 12 15 11 16 10 17 9 18 8 19 7 20 6 21 5 22
REMARK SMILES IDX 4 23 3 24 2 25 1 26
REMARK H PARENT
REMARK Flexibility Score: inf
ROOT
ATOM      1  C   UNL     1      15.368  25.287  53.193  1.00  0.00     0.000 C 
ENDROOT
BRANCH   1   2
ATOM      2  C   UNL     1      14.233  26.149  52.616  1.00  0.00     0.000 C 
BRANCH   2   3
ATOM      3  C   UNL     1      13.879  25.770  51.169  1.00  0.00     0.000 C 
BRANCH   3   4
ATOM      4  C   UNL     1      14.898  24.803  50.540  1.00  0.00     0.000 C 
BRANCH   4   5
ATOM      5  C   UNL     1      15.375  25.263  49.153  1.00  0.00     0.000 C 
BRANCH   5   6
ATOM      6  C   UNL     1      14.868  26.665  48.785  1.00  0.00     0.000 C 
BRANCH   6   7
ATOM      7  C   UNL     1      15.936  27.728  49.083  1.00  0.00     0.000 C 
BRANCH   7   8
ATOM      8  C   UNL     1      15.328  29.076  49.505  1.00  0.00     0.000 C 
BRANCH   8   9
ATOM      9  C   UNL     1      15.581  29.400  50.985  1.00  0.00     0.000 C 
BRANCH   9  10
ATOM     10  C   UNL     1      14.805  30.655  51.413  1.00  0.00     0.006 C 
BRANCH  10  11
ATOM     11  C   UNL     1      15.736  31.812  51.800  1.00  0.00     0.053 C 
BRANCH  11  12
ATOM     12  C   UNL     1      15.176  33.137  51.385  1.00  0.00     0.041 C 
ATOM     13  O   UNL     1      14.120  33.573  51.912  1.00  0.00    -0.550 OA
ATOM     14  O   UNL     1      15.841  33.906  50.437  1.00  0.00    -0.550 OA
ENDBRANCH  11  12
ENDBRANCH  10  11
ENDBRANCH   9  10
ENDBRANCH   8   9
ENDBRANCH   7   8
ENDBRANCH   6   7
ENDBRANCH   5   6
ENDBRANCH   4   5
ENDBRANCH   3   4
ENDBRANCH   2   3
ENDBRANCH   1   2
BRANCH   1  15
ATOM     15  C   UNL     1      16.414  26.122  53.950  1.00  0.00     0.000 C 
BRANCH  15  16
ATOM     16  C   UNL     1      17.852  25.832  53.486  1.00  0.00     0.000 C 
BRANCH  16  17
ATOM     17  C   UNL     1      18.052  26.099  51.980  1.00  0.00     0.000 C 
BRANCH  17  18
ATOM     18  C   UNL     1      18.681  27.472  51.670  1.00  0.00    -0.000 C 
BRANCH  18  19
ATOM     19  C   UNL     1      19.612  28.028  52.765  1.00  0.00    -0.000 C 
BRANCH  19  20
ATOM     20  C   UNL     1      19.521  29.549  52.994  1.00  0.00    -0.000 C 
BRANCH  20  21
ATOM     21  C   UNL     1      19.037  29.915  54.408  1.00  0.00    -0.000 C 
BRANCH  21  22
ATOM     22  C   UNL     1      17.655  30.593  54.410  1.00  0.00    -0.000 C 
BRANCH  22  23
ATOM     23  C   UNL     1      16.470  29.679  54.782  1.00  0.00    -0.000 C 
BRANCH  23  24
ATOM     24  C   UNL     1      16.031  29.744  56.256  1.00  0.00    -0.000 C 
BRANCH  24  25
ATOM     25  C   UNL     1      16.500  31.024  56.961  1.00  0.00    -0.003 C 
ATOM     26  C   UNL     1      15.379  32.056  57.029  1.00  0.00     0.004 C 
ENDBRANCH  24  25
ENDBRANCH  23  24
ENDBRANCH  22  23
ENDBRANCH  21  22
ENDBRANCH  20  21
ENDBRANCH  19  20
ENDBRANCH  18  19
ENDBRANCH  17  18
ENDBRANCH  16  17
ENDBRANCH  15  16
ENDBRANCH   1  15
TORSDOF 22
ENDMDL
MODEL 6
REMARK VINA RESULT:    -4.115      2.173      5.286
REMARK INTER + INTRA:         -13.813
REMARK INTER:                  -9.627
REMARK INTRA:                  -4.186
REMARK UNBOUND:                -4.406
REMARK SMILES CCCCCCCCCCCCCCCCCCCCCCCC(=O)[O-]
REMARK SMILES IDX 13 1 14 2 15 3 16 4 17 5 18 6 19 7 20 8 21 9 22 10 23 11
REMARK SMILES IDX 24 12 25 13 26 14 12 15 11 16 10 17 9 18 8 19 7 20 6 21 5 22
REMARK SMILES IDX 4 23 3 24 2 25 1 26
REMARK H PARENT
REMARK Flexibility Score: inf
ROOT
ATOM      1  C   UNL     1      18.331  26.514  51.521  1.00  0.00     0.000 C 
ENDROOT
BRANCH   1   2
ATOM      2  C   UNL     1      18.767  25.753  52.784  1.00  0.00     0.000 C 
BRANCH   2   3
ATOM      3  C   UNL     1      17.642  25.641  53.825  1.00  0.00     0.000 C 
BRANCH   3   4
ATOM      4  C   UNL     1      16.254  25.957  53.239  1.00  0.00     0.000 C 
BRANCH   4   5
ATOM      5  C   UNL     1      15.318  26.625  54.259  1.00  0.00     0.000 C 
BRANCH   5   6
ATOM      6  C   UNL     1      16.077  27.424  55.328  1.00  0.00     0.000 C 
BRANCH   6   7
ATOM      7  C   UNL     1      15.766  28.923  55.215  1.00  0.00     0.000 C 
BRANCH   7   8
ATOM      8  C   UNL     1      17.017  29.767  54.923  1.00  0.00     0.000 C 
BRANCH   8   9
ATOM      9  C   UNL     1      17.614  29.478  53.538  1.00  0.00     0.000 C 
BRANCH   9  10
ATOM     10  C   UNL     1      18.964  30.190  53.362  1.00  0.00     0.006 C 
BRANCH  10  11
ATOM     11  C   UNL     1      20.150  29.291  53.736  1.00  0.00     0.053 C 
BRANCH  11  12
ATOM     12  C   UNL     1      21.380  29.643  52.959  1.00  0.00     0.041 C 
ATOM     13  O   UNL     1      21.283  30.111  51.795  1.00  0.00    -0.550 OA
ATOM     14  O   UNL     1      22.635  29.485  53.535  1.00  0.00    -0.550 OA
ENDBRANCH  11  12
ENDBRANCH  10  11
ENDBRANCH   9  10
ENDBRANCH   8   9
ENDBRANCH   7   8
ENDBRANCH   6   7
ENDBRANCH   5   6
ENDBRANCH   4   5
ENDBRANCH   3   4
ENDBRANCH   2   3
ENDBRANCH   1   2
BRANCH   1  15
ATOM     15  C   UNL     1      18.597  25.717  50.233  1.00  0.00     0.000 C 
BRANCH  15  16
ATOM     16  C   UNL     1      17.577  24.585  50.017  1.00  0.00     0.000 C 
BRANCH  16  17
ATOM     17  C   UNL     1      17.003  24.572  48.584  1.00  0.00     0.000 C 
BRANCH  17  18
ATOM     18  C   UNL     1      15.642  25.283  48.452  1.00  0.00    -0.000 C 
BRANCH  18  19
ATOM     19  C   UNL     1      14.751  25.227  49.708  1.00  0.00    -0.000 C 
BRANCH  19  20
ATOM     20  C   UNL     1      14.399  26.595  50.325  1.00  0.00    -0.000 C 
BRANCH  20  21
ATOM     21  C   UNL     1      15.045  27.774  49.577  1.00  0.00    -0.000 C 
BRANCH  21  22
ATOM     22  C   UNL     1      15.637  28.831  50.527  1.00  0.00    -0.000 C 
BRANCH  22  23
ATOM     23  C   UNL     1      14.620  29.535  51.449  1.00  0.00    -0.000 C 
BRANCH  23  24
ATOM     24  C   UNL     1      14.401  31.031  51.160  1.00  0.00    -0.000 C 
BRANCH  24  25
ATOM     25  C   UNL     1      15.432  31.930  51.857  1.00  0.00    -0.003 C 
ATOM     26  C   UNL     1      15.802  33.123  50.981  1.00  0.00     0.004 C 
ENDBRANCH  24  25
ENDBRANCH  23  24
ENDBRANCH  22  23
ENDBRANCH  21  22
ENDBRANCH  20  21
ENDBRANCH  19  20
ENDBRANCH  18  19
ENDBRANCH  17  18
ENDBRANCH  16  17
ENDBRANCH  15  16
ENDBRANCH   1  15
TORSDOF 22
ENDMDL
MODEL 7
REMARK VINA RESULT:    -4.097      2.838      6.433
REMARK INTER + INTRA:         -13.771
REMARK INTER:                 -10.106
REMARK INTRA:                  -3.665
REMARK UNBOUND:                -4.406
REMARK SMILES CCCCCCCCCCCCCCCCCCCCCCCC(=O)[O-]
REMARK SMILES IDX 13 1 14 2 15 3 16 4 17 5 18 6 19 7 20 8 21 9 22 10 23 11
REMARK SMILES IDX 24 12 25 13 26 14 12 15 11 16 10 17 9 18 8 19 7 20 6 21 5 22
REMARK SMILES IDX 4 23 3 24 2 25 1 26
REMARK H PARENT
REMARK Flexibility Score: inf
ROOT
ATOM      1  C   UNL     1      17.253  26.934  53.913  1.00  0.00     0.000 C 
ENDROOT
BRANCH   1   2
ATOM      2  C   UNL     1      16.018  27.426  54.686  1.00  0.00     0.000 C 
BRANCH   2   3
ATOM      3  C   UNL     1      15.876  28.956  54.662  1.00  0.00     0.000 C 
BRANCH   3   4
ATOM      4  C   UNL     1      15.781  29.568  56.071  1.00  0.00     0.000 C 
BRANCH   4   5
ATOM      5  C   UNL     1      16.866  30.624  56.333  1.00  0.00     0.000 C 
BRANCH   5   6
ATOM      6  C   UNL     1      17.774  30.858  55.117  1.00  0.00     0.000 C 
BRANCH   6   7
ATOM      7  C   UNL     1      19.197  31.230  55.560  1.00  0.00     0.000 C 
BRANCH   7   8
ATOM      8  C   UNL     1      20.273  30.360  54.891  1.00  0.00     0.000 C 
BRANCH   8   9
ATOM      9  C   UNL     1      19.762  29.661  53.622  1.00  0.00     0.000 C 
BRANCH   9  10
ATOM     10  C   UNL     1      20.848  28.757  53.019  1.00  0.00     0.006 C 
BRANCH  10  11
ATOM     11  C   UNL     1      20.272  27.739  52.025  1.00  0.00     0.053 C 
BRANCH  11  12
ATOM     12  C   UNL     1      20.847  26.372  52.235  1.00  0.00     0.041 C 
ATOM     13  O   UNL     1      20.693  25.781  53.335  1.00  0.00    -0.550 OA
ATOM     14  O   UNL     1      21.526  25.738  51.202  1.00  0.00    -0.550 OA
ENDBRANCH  11  12
ENDBRANCH  10  11
ENDBRANCH   9  10
ENDBRANCH   8   9
ENDBRANCH   7   8
ENDBRANCH   6   7
ENDBRANCH   5   6
ENDBRANCH   4   5
ENDBRANCH   3   4
ENDBRANCH   2   3
ENDBRANCH   1   2
BRANCH   1  15
ATOM     15  C   UNL     1      17.131  25.460  53.488  1.00  0.00     0.000 C 
BRANCH  15  16
ATOM     16  C   UNL     1      15.696  24.922  53.623  1.00  0.00     0.000 C 
BRANCH  16  17
ATOM     17  C   UNL     1      15.319  23.951  52.484  1.00  0.00     0.000 C 
BRANCH  17  18
ATOM     18  C   UNL     1      16.201  24.093  51.227  1.00  0.00    -0.000 C 
BRANCH  18  19
ATOM     19  C   UNL     1      15.480  24.644  49.981  1.00  0.00    -0.000 C 
BRANCH  19  20
ATOM     20  C   UNL     1      14.434  25.740  50.259  1.00  0.00    -0.000 C 
BRANCH  20  21
ATOM     21  C   UNL     1      14.885  27.134  49.789  1.00  0.00    -0.000 C 
BRANCH  21  22
ATOM     22  C   UNL     1      16.100  27.664  50.572  1.00  0.00    -0.000 C 
BRANCH  22  23
ATOM     23  C   UNL     1      16.016  29.143  51.002  1.00  0.00    -0.000 C 
BRANCH  23  24
ATOM     24  C   UNL     1      14.597  29.655  51.307  1.00  0.00    -0.000 C 
BRANCH  24  25
ATOM     25  C   UNL     1      14.519  31.187  51.380  1.00  0.00    -0.003 C 
ATOM     26  C   UNL     1      15.717  31.762  52.129  1.00  0.00     0.004 C 
ENDBRANCH  24  25
ENDBRANCH  23  24
ENDBRANCH  22  23
ENDBRANCH  21  22
ENDBRANCH  20  21
ENDBRANCH  19  20
ENDBRANCH  18  19
ENDBRANCH  17  18
ENDBRANCH  16  17
ENDBRANCH  15  16
ENDBRANCH   1  15
TORSDOF 22
ENDMDL
MODEL 8
REMARK VINA RESULT:    -4.064      2.789      6.127
REMARK INTER + INTRA:         -13.698
REMARK INTER:                  -9.723
REMARK INTRA:                  -3.975
REMARK UNBOUND:                -4.406
REMARK SMILES CCCCCCCCCCCCCCCCCCCCCCCC(=O)[O-]
REMARK SMILES IDX 13 1 14 2 15 3 16 4 17 5 18 6 19 7 20 8 21 9 22 10 23 11
REMARK SMILES IDX 24 12 25 13 26 14 12 15 11 16 10 17 9 18 8 19 7 20 6 21 5 22
REMARK SMILES IDX 4 23 3 24 2 25 1 26
REMARK H PARENT
REMARK Flexibility Score: inf
ROOT
ATOM      1  C   UNL     1      18.574  25.697  53.514  1.00  0.00     0.000 C 
ENDROOT
BRANCH   1   2
ATOM      2  C   UNL     1      17.188  26.319  53.281  1.00  0.00     0.000 C 
BRANCH   2   3
ATOM      3  C   UNL     1      16.180  25.948  54.381  1.00  0.00     0.000 C 
BRANCH   3   4
ATOM      4  C   UNL     1      15.285  27.131  54.792  1.00  0.00     0.000 C 
BRANCH   4   5
ATOM      5  C   UNL     1      16.064  28.241  55.515  1.00  0.00     0.000 C 
BRANCH   5   6
ATOM      6  C   UNL     1      16.271  29.488  54.643  1.00  0.00     0.000 C 
BRANCH   6   7
ATOM      7  C   UNL     1      17.757  29.868  54.575  1.00  0.00     0.000 C 
BRANCH   7   8
ATOM      8  C   UNL     1      18.342  29.721  53.160  1.00  0.00     0.000 C 
BRANCH   8   9
ATOM      9  C   UNL     1      19.827  29.329  53.173  1.00  0.00     0.000 C 
BRANCH   9  10
ATOM     10  C   UNL     1      20.576  30.054  54.302  1.00  0.00     0.006 C 
BRANCH  10  11
ATOM     11  C   UNL     1      21.803  29.268  54.784  1.00  0.00     0.053 C 
BRANCH  11  12
ATOM     12  C   UNL     1      23.039  30.113  54.783  1.00  0.00     0.041 C 
ATOM     13  O   UNL     1      23.199  31.005  55.657  1.00  0.00    -0.550 OA
ATOM     14  O   UNL     1      24.030  29.894  53.834  1.00  0.00    -0.550 OA
ENDBRANCH  11  12
ENDBRANCH  10  11
ENDBRANCH   9  10
ENDBRANCH   8   9
ENDBRANCH   7   8
ENDBRANCH   6   7
ENDBRANCH   5   6
ENDBRANCH   4   5
ENDBRANCH   3   4
ENDBRANCH   2   3
ENDBRANCH   1   2
BRANCH   1  15
ATOM     15  C   UNL     1      19.373  25.535  52.210  1.00  0.00     0.000 C 
BRANCH  15  16
ATOM     16  C   UNL     1      18.828  26.412  51.069  1.00  0.00     0.000 C 
BRANCH  16  17
ATOM     17  C   UNL     1      18.470  25.592  49.812  1.00  0.00     0.000 C 
BRANCH  17  18
ATOM     18  C   UNL     1      18.006  24.155  50.117  1.00  0.00    -0.000 C 
BRANCH  18  19
ATOM     19  C   UNL     1      16.499  23.898  49.922  1.00  0.00    -0.000 C 
BRANCH  19  20
ATOM     20  C   UNL     1      15.656  23.925  51.212  1.00  0.00    -0.000 C 
BRANCH  20  21
ATOM     21  C   UNL     1      14.201  24.359  50.969  1.00  0.00    -0.000 C 
BRANCH  21  22
ATOM     22  C   UNL     1      13.923  25.802  51.427  1.00  0.00    -0.000 C 
BRANCH  22  23
ATOM     23  C   UNL     1      14.766  26.890  50.731  1.00  0.00    -0.000 C 
BRANCH  23  24
ATOM     24  C   UNL     1      14.695  28.286  51.376  1.00  0.00    -0.000 C 
BRANCH  24  25
ATOM     25  C   UNL     1      15.506  29.340  50.609  1.00  0.00    -0.003 C 
ATOM     26  C   UNL     1      14.716  30.636  50.456  1.00  0.00     0.004 C 
ENDBRANCH  24  25
ENDBRANCH  23  24
ENDBRANCH  22  23
ENDBRANCH  21  22
ENDBRANCH  20  21
ENDBRANCH  19  20
ENDBRANCH  18  19
ENDBRANCH  17  18
ENDBRANCH  16  17
ENDBRANCH  15  16
ENDBRANCH   1  15
TORSDOF 22
ENDMDL
MODEL 9
REMARK VINA RESULT:    -4.063      3.115      5.985
REMARK INTER + INTRA:         -13.695
REMARK INTER:                  -9.255
REMARK INTRA:                  -4.440
REMARK UNBOUND:                -4.406
REMARK SMILES CCCCCCCCCCCCCCCCCCCCCCCC(=O)[O-]
REMARK SMILES IDX 13 1 14 2 15 3 16 4 17 5 18 6 19 7 20 8 21 9 22 10 23 11
REMARK SMILES IDX 24 12 25 13 26 14 12 15 11 16 10 17 9 18 8 19 7 20 6 21 5 22
REMARK SMILES IDX 4 23 3 24 2 25 1 26
REMARK H PARENT
REMARK Flexibility Score: inf
ROOT
ATOM      1  C   UNL     1      17.491  29.475  53.356  1.00  0.00     0.000 C 
ENDROOT
BRANCH   1   2
ATOM      2  C   UNL     1      18.482  28.322  53.125  1.00  0.00     0.000 C 
BRANCH   2   3
ATOM      3  C   UNL     1      18.303  27.654  51.752  1.00  0.00     0.000 C 
BRANCH   3   4
ATOM      4  C   UNL     1      18.508  26.129  51.800  1.00  0.00     0.000 C 
BRANCH   4   5
ATOM      5  C   UNL     1      19.072  25.649  53.147  1.00  0.00     0.000 C 
BRANCH   5   6
ATOM      6  C   UNL     1      20.522  25.155  53.042  1.00  0.00     0.000 C 
BRANCH   6   7
ATOM      7  C   UNL     1      20.997  25.159  51.581  1.00  0.00     0.000 C 
BRANCH   7   8
ATOM      8  C   UNL     1      22.082  26.214  51.314  1.00  0.00     0.000 C 
BRANCH   8   9
ATOM      9  C   UNL     1      21.691  27.196  50.200  1.00  0.00     0.000 C 
BRANCH   9  10
ATOM     10  C   UNL     1      21.801  28.649  50.684  1.00  0.00     0.006 C 
BRANCH  10  11
ATOM     11  C   UNL     1      22.114  28.741  52.184  1.00  0.00     0.053 C 
BRANCH  11  12
ATOM     12  C   UNL     1      23.405  29.456  52.438  1.00  0.00     0.041 C 
ATOM     13  O   UNL     1      24.360  29.351  51.625  1.00  0.00    -0.550 OA
ATOM     14  O   UNL     1      23.541  30.266  53.560  1.00  0.00    -0.550 OA
ENDBRANCH  11  12
ENDBRANCH  10  11
ENDBRANCH   9  10
ENDBRANCH   8   9
ENDBRANCH   7   8
ENDBRANCH   6   7
ENDBRANCH   5   6
ENDBRANCH   4   5
ENDBRANCH   3   4
ENDBRANCH   2   3
ENDBRANCH   1   2
BRANCH   1  15
ATOM     15  C   UNL     1      16.250  29.033  54.150  1.00  0.00     0.000 C 
BRANCH  15  16
ATOM     16  C   UNL     1      16.488  27.739  54.948  1.00  0.00     0.000 C 
BRANCH  16  17
ATOM     17  C   UNL     1      15.295  26.763  54.860  1.00  0.00     0.000 C 
BRANCH  17  18
ATOM     18  C   UNL     1      15.390  25.768  53.687  1.00  0.00    -0.000 C 
BRANCH  18  19
ATOM     19  C   UNL     1      14.408  26.028  52.527  1.00  0.00    -0.000 C 
BRANCH  19  20
ATOM     20  C   UNL     1      14.933  25.657  51.127  1.00  0.00    -0.000 C 
BRANCH  20  21
ATOM     21  C   UNL     1      15.022  26.866  50.180  1.00  0.00    -0.000 C 
BRANCH  21  22
ATOM     22  C   UNL     1      14.776  28.206  50.897  1.00  0.00    -0.000 C 
BRANCH  22  23
ATOM     23  C   UNL     1      15.396  29.443  50.217  1.00  0.00    -0.000 C 
BRANCH  23  24
ATOM     24  C   UNL     1      14.568  30.736  50.331  1.00  0.00    -0.000 C 
BRANCH  24  25
ATOM     25  C   UNL     1      14.853  31.514  51.623  1.00  0.00    -0.003 C 
ATOM     26  C   UNL     1      15.817  32.668  51.367  1.00  0.00     0.004 C 
ENDBRANCH  24  25
ENDBRANCH  23  24
ENDBRANCH  22  23
ENDBRANCH  21  22
ENDBRANCH  20  21
ENDBRANCH  19  20
ENDBRANCH  18  19
ENDBRANCH  17  18
ENDBRANCH  16  17
ENDBRANCH  15  16
ENDBRANCH   1  15
TORSDOF 22
ENDMDL
