MODEL 1
REMARK VINA RESULT:    -4.654      0.000      0.000
REMARK INTER + INTRA:          -5.297
REMARK INTER:                  -5.607
REMARK INTRA:                   0.310
REMARK UNBOUND:                 0.310
REMARK SMILES O=c1c(O)c(-c2ccc(O)c(O)c2)oc2cc(O)cc(O)c12
REMARK SMILES IDX 5 1 3 2 2 3 1 4 22 5 20 6 19 7 17 8 16 9 15 10 14 11 6 12
REMARK SMILES IDX 7 13 8 14 9 15 13 16 11 17 10 18 12 20 4 22 21 24 18 26
REMARK H PARENT 10 19 12 21 4 23 21 25 18 27
REMARK Flexibility Score: inf
ROOT
ATOM      1  C   UNL     1     -29.247  21.245  47.823  1.00  0.00     0.180 A 
ATOM      2  C   UNL     1     -28.930  20.073  48.536  1.00  0.00     0.208 A 
ATOM      3  C   UNL     1     -28.886  20.122  49.938  1.00  0.00     0.238 A 
ATOM      4  O   UNL     1     -28.593  19.081  50.587  1.00  0.00    -0.285 OA
ATOM      5  C   UNL     1     -29.179  21.331  50.602  1.00  0.00     0.111 A 
ATOM      6  C   UNL     1     -29.163  21.464  52.011  1.00  0.00     0.134 A 
ATOM      7  C   UNL     1     -29.474  22.700  52.598  1.00  0.00     0.093 A 
ATOM      8  C   UNL     1     -29.803  23.802  51.805  1.00  0.00     0.123 A 
ATOM      9  C   UNL     1     -29.822  23.676  50.412  1.00  0.00     0.094 A 
ATOM     10  C   UNL     1     -29.512  22.454  49.808  1.00  0.00     0.146 A 
ATOM     11  O   UNL     1     -29.532  22.364  48.484  1.00  0.00    -0.452 OA
ENDROOT
BRANCH   1  12
ATOM     12  C   UNL     1     -29.293  21.277  46.344  1.00  0.00     0.025 A 
ATOM     13  C   UNL     1     -30.034  22.280  45.698  1.00  0.00     0.016 A 
ATOM     14  C   UNL     1     -30.076  22.342  44.304  1.00  0.00     0.051 A 
ATOM     15  C   UNL     1     -29.364  21.413  43.532  1.00  0.00     0.157 A 
ATOM     16  C   UNL     1     -28.564  20.359  45.566  1.00  0.00     0.062 A 
ATOM     17  C   UNL     1     -28.601  20.420  44.169  1.00  0.00     0.158 A 
BRANCH  15  18
ATOM     18  O   UNL     1     -29.408  21.477  42.141  1.00  0.00    -0.504 OA
ATOM     19  H   UNL     1     -28.569  21.391  41.578  1.00  0.00     0.293 HD
ENDBRANCH  15  18
BRANCH  17  20
ATOM     20  O   UNL     1     -27.870  19.489  43.431  1.00  0.00    -0.504 OA
ATOM     21  H   UNL     1     -28.316  18.735  42.922  1.00  0.00     0.293 HD
ENDBRANCH  17  20
ENDBRANCH   1  12
BRANCH   2  22
ATOM     22  O   UNL     1     -28.692  18.875  47.856  1.00  0.00    -0.502 OA
ATOM     23  H   UNL     1     -27.956  18.780  47.167  1.00  0.00     0.293 HD
ENDBRANCH   2  22
BRANCH   6  24
ATOM     24  O   UNL     1     -28.839  20.382  52.832  1.00  0.00    -0.507 OA
ATOM     25  H   UNL     1     -29.172  20.319  53.786  1.00  0.00     0.293 HD
ENDBRANCH   6  24
BRANCH   8  26
ATOM     26  O   UNL     1     -30.111  25.017  52.411  1.00  0.00    -0.508 OA
ATOM     27  H   UNL     1     -30.740  25.071  53.203  1.00  0.00     0.293 HD
ENDBRANCH   8  26
TORSDOF 6
ENDMDL
MODEL 2
REMARK VINA RESULT:    -4.018      1.351      6.809
REMARK INTER + INTRA:          -4.531
REMARK INTER:                  -4.368
REMARK INTRA:                  -0.163
REMARK UNBOUND:                 0.310
REMARK SMILES O=c1c(O)c(-c2ccc(O)c(O)c2)oc2cc(O)cc(O)c12
REMARK SMILES IDX 5 1 3 2 2 3 1 4 22 5 20 6 19 7 17 8 16 9 15 10 14 11 6 12
REMARK SMILES IDX 7 13 8 14 9 15 13 16 11 17 10 18 12 20 4 22 21 24 18 26
REMARK H PARENT 10 19 12 21 4 23 21 25 18 27
REMARK Flexibility Score: inf
ROOT
ATOM      1  C   UNL     1     -28.820  21.493  47.857  1.00  0.00     0.180 A 
ATOM      2  C   UNL     1     -28.059  20.334  47.609  1.00  0.00     0.208 A 
ATOM      3  C   UNL     1     -27.869  19.918  46.283  1.00  0.00     0.238 A 
ATOM      4  O   UNL     1     -27.198  18.875  46.049  1.00  0.00    -0.285 OA
ATOM      5  C   UNL     1     -28.422  20.673  45.229  1.00  0.00     0.111 A 
ATOM      6  C   UNL     1     -28.273  20.325  43.865  1.00  0.00     0.134 A 
ATOM      7  C   UNL     1     -28.848  21.135  42.873  1.00  0.00     0.093 A 
ATOM      8  C   UNL     1     -29.565  22.282  43.218  1.00  0.00     0.123 A 
ATOM      9  C   UNL     1     -29.715  22.632  44.564  1.00  0.00     0.094 A 
ATOM     10  C   UNL     1     -29.153  21.837  45.567  1.00  0.00     0.146 A 
ATOM     11  O   UNL     1     -29.315  22.189  46.837  1.00  0.00    -0.452 OA
ENDROOT
BRANCH   1  12
ATOM     12  C   UNL     1     -29.081  21.985  49.228  1.00  0.00     0.025 A 
ATOM     13  C   UNL     1     -29.835  21.197  50.113  1.00  0.00     0.016 A 
ATOM     14  C   UNL     1     -30.077  21.631  51.418  1.00  0.00     0.051 A 
ATOM     15  C   UNL     1     -29.554  22.852  51.865  1.00  0.00     0.157 A 
ATOM     16  C   UNL     1     -28.541  23.200  49.688  1.00  0.00     0.062 A 
ATOM     17  C   UNL     1     -28.779  23.637  50.995  1.00  0.00     0.158 A 
BRANCH  15  18
ATOM     18  O   UNL     1     -29.798  23.284  53.167  1.00  0.00    -0.504 OA
ATOM     19  H   UNL     1     -29.523  24.208  53.481  1.00  0.00     0.293 HD
ENDBRANCH  15  18
BRANCH  17  20
ATOM     20  O   UNL     1     -28.233  24.850  51.413  1.00  0.00    -0.504 OA
ATOM     21  H   UNL     1     -27.511  25.327  50.886  1.00  0.00     0.293 HD
ENDBRANCH  17  20
ENDBRANCH   1  12
BRANCH   2  22
ATOM     22  O   UNL     1     -27.480  19.631  48.669  1.00  0.00    -0.502 OA
ATOM     23  H   UNL     1     -26.609  19.917  49.098  1.00  0.00     0.293 HD
ENDBRANCH   2  22
BRANCH   6  24
ATOM     24  O   UNL     1     -27.563  19.185  43.487  1.00  0.00    -0.507 OA
ATOM     25  H   UNL     1     -26.550  19.166  43.480  1.00  0.00     0.293 HD
ENDBRANCH   6  24
BRANCH   8  26
ATOM     26  O   UNL     1     -30.125  23.070  42.214  1.00  0.00    -0.508 OA
ATOM     27  H   UNL     1     -30.533  23.975  42.415  1.00  0.00     0.293 HD
ENDBRANCH   8  26
TORSDOF 6
ENDMDL
MODEL 3
REMARK VINA RESULT:    -3.054      1.682      2.858
REMARK INTER + INTRA:          -3.370
REMARK INTER:                  -3.076
REMARK INTRA:                  -0.293
REMARK UNBOUND:                 0.310
REMARK SMILES O=c1c(O)c(-c2ccc(O)c(O)c2)oc2cc(O)cc(O)c12
REMARK SMILES IDX 5 1 3 2 2 3 1 4 22 5 20 6 19 7 17 8 16 9 15 10 14 11 6 12
REMARK SMILES IDX 7 13 8 14 9 15 13 16 11 17 10 18 12 20 4 22 21 24 18 26
REMARK H PARENT 10 19 12 21 4 23 21 25 18 27
REMARK Flexibility Score: inf
ROOT
ATOM      1  C   UNL     1     -28.651  20.811  47.881  1.00  0.00     0.180 A 
ATOM      2  C   UNL     1     -28.221  22.116  48.188  1.00  0.00     0.208 A 
ATOM      3  C   UNL     1     -28.276  22.554  49.521  1.00  0.00     0.238 A 
ATOM      4  O   UNL     1     -27.903  23.725  49.806  1.00  0.00    -0.285 OA
ATOM      5  C   UNL     1     -28.740  21.677  50.523  1.00  0.00     0.111 A 
ATOM      6  C   UNL     1     -28.823  22.037  51.889  1.00  0.00     0.134 A 
ATOM      7  C   UNL     1     -29.288  21.104  52.828  1.00  0.00     0.093 A 
ATOM      8  C   UNL     1     -29.668  19.821  52.429  1.00  0.00     0.123 A 
ATOM      9  C   UNL     1     -29.587  19.459  51.080  1.00  0.00     0.094 A 
ATOM     10  C   UNL     1     -29.130  20.375  50.129  1.00  0.00     0.146 A 
ATOM     11  O   UNL     1     -29.068  20.007  48.855  1.00  0.00    -0.452 OA
ENDROOT
BRANCH   1  12
ATOM     12  C   UNL     1     -28.640  20.285  46.498  1.00  0.00     0.025 A 
ATOM     13  C   UNL     1     -29.823  20.306  45.742  1.00  0.00     0.016 A 
ATOM     14  C   UNL     1     -29.833  19.833  44.428  1.00  0.00     0.051 A 
ATOM     15  C   UNL     1     -28.656  19.347  43.842  1.00  0.00     0.157 A 
ATOM     16  C   UNL     1     -27.457  19.816  45.900  1.00  0.00     0.062 A 
ATOM     17  C   UNL     1     -27.461  19.344  44.583  1.00  0.00     0.158 A 
BRANCH  15  18
ATOM     18  O   UNL     1     -28.668  18.875  42.532  1.00  0.00    -0.504 OA
ATOM     19  H   UNL     1     -28.060  18.120  42.233  1.00  0.00     0.293 HD
ENDBRANCH  15  18
BRANCH  17  20
ATOM     20  O   UNL     1     -26.270  18.880  44.025  1.00  0.00    -0.504 OA
ATOM     21  H   UNL     1     -25.546  18.446  44.585  1.00  0.00     0.293 HD
ENDBRANCH  17  20
ENDBRANCH   1  12
BRANCH   2  22
ATOM     22  O   UNL     1     -27.719  22.949  47.184  1.00  0.00    -0.502 OA
ATOM     23  H   UNL     1     -27.964  22.831  46.209  1.00  0.00     0.293 HD
ENDBRANCH   2  22
BRANCH   6  24
ATOM     24  O   UNL     1     -28.450  23.311  52.321  1.00  0.00    -0.507 OA
ATOM     25  H   UNL     1     -28.462  23.567  53.300  1.00  0.00     0.293 HD
ENDBRANCH   6  24
BRANCH   8  26
ATOM     26  O   UNL     1     -30.124  18.912  53.381  1.00  0.00    -0.508 OA
ATOM     27  H   UNL     1     -29.506  18.228  53.800  1.00  0.00     0.293 HD
ENDBRANCH   8  26
TORSDOF 6
ENDMDL
MODEL 4
REMARK VINA RESULT:    -2.842      1.681      3.044
REMARK INTER + INTRA:          -3.114
REMARK INTER:                  -3.046
REMARK INTRA:                  -0.068
REMARK UNBOUND:                 0.310
REMARK SMILES O=c1c(O)c(-c2ccc(O)c(O)c2)oc2cc(O)cc(O)c12
REMARK SMILES IDX 5 1 3 2 2 3 1 4 22 5 20 6 19 7 17 8 16 9 15 10 14 11 6 12
REMARK SMILES IDX 7 13 8 14 9 15 13 16 11 17 10 18 12 20 4 22 21 24 18 26
REMARK H PARENT 10 19 12 21 4 23 21 25 18 27
REMARK Flexibility Score: inf
ROOT
ATOM      1  C   UNL     1     -28.876  21.223  48.649  1.00  0.00     0.180 A 
ATOM      2  C   UNL     1     -29.526  22.450  48.882  1.00  0.00     0.208 A 
ATOM      3  C   UNL     1     -29.536  22.976  50.183  1.00  0.00     0.238 A 
ATOM      4  O   UNL     1     -30.125  24.070  50.405  1.00  0.00    -0.285 OA
ATOM      5  C   UNL     1     -28.882  22.283  51.221  1.00  0.00     0.111 A 
ATOM      6  C   UNL     1     -28.841  22.747  52.558  1.00  0.00     0.134 A 
ATOM      7  C   UNL     1     -28.162  22.001  53.533  1.00  0.00     0.093 A 
ATOM      8  C   UNL     1     -27.522  20.806  53.199  1.00  0.00     0.123 A 
ATOM      9  C   UNL     1     -27.559  20.342  51.879  1.00  0.00     0.094 A 
ATOM     10  C   UNL     1     -28.233  21.068  50.894  1.00  0.00     0.146 A 
ATOM     11  O   UNL     1     -28.257  20.603  49.651  1.00  0.00    -0.452 OA
ENDROOT
BRANCH   1  12
ATOM     12  C   UNL     1     -28.839  20.594  47.310  1.00  0.00     0.025 A 
ATOM     13  C   UNL     1     -30.042  20.325  46.639  1.00  0.00     0.016 A 
ATOM     14  C   UNL     1     -30.031  19.751  45.367  1.00  0.00     0.051 A 
ATOM     15  C   UNL     1     -28.816  19.452  44.736  1.00  0.00     0.157 A 
ATOM     16  C   UNL     1     -27.621  20.311  46.666  1.00  0.00     0.062 A 
ATOM     17  C   UNL     1     -27.605  19.738  45.389  1.00  0.00     0.158 A 
BRANCH  15  18
ATOM     18  O   UNL     1     -28.807  18.877  43.467  1.00  0.00    -0.504 OA
ATOM     19  H   UNL     1     -29.544  19.061  42.795  1.00  0.00     0.293 HD
ENDBRANCH  15  18
BRANCH  17  20
ATOM     20  O   UNL     1     -26.378  19.465  44.784  1.00  0.00    -0.504 OA
ATOM     21  H   UNL     1     -26.178  18.571  44.352  1.00  0.00     0.293 HD
ENDBRANCH  17  20
ENDBRANCH   1  12
BRANCH   2  22
ATOM     22  O   UNL     1     -30.125  23.143  47.826  1.00  0.00    -0.502 OA
ATOM     23  H   UNL     1     -29.595  23.725  47.190  1.00  0.00     0.293 HD
ENDBRANCH   2  22
BRANCH   6  24
ATOM     24  O   UNL     1     -29.469  23.938  52.924  1.00  0.00    -0.507 OA
ATOM     25  H   UNL     1     -30.264  24.301  52.412  1.00  0.00     0.293 HD
ENDBRANCH   6  24
BRANCH   8  26
ATOM     26  O   UNL     1     -26.853  20.085  54.185  1.00  0.00    -0.508 OA
ATOM     27  H   UNL     1     -26.178  19.367  53.952  1.00  0.00     0.293 HD
ENDBRANCH   8  26
TORSDOF 6
ENDMDL
MODEL 5
REMARK VINA RESULT:    -1.824      1.679      3.553
REMARK INTER + INTRA:          -1.888
REMARK INTER:                  -2.352
REMARK INTRA:                   0.464
REMARK UNBOUND:                 0.310
REMARK SMILES O=c1c(O)c(-c2ccc(O)c(O)c2)oc2cc(O)cc(O)c12
REMARK SMILES IDX 5 1 3 2 2 3 1 4 22 5 20 6 19 7 17 8 16 9 15 10 14 11 6 12
REMARK SMILES IDX 7 13 8 14 9 15 13 16 11 17 10 18 12 20 4 22 21 24 18 26
REMARK H PARENT 10 19 12 21 4 23 21 25 18 27
REMARK Flexibility Score: inf
ROOT
ATOM      1  C   UNL     1     -28.701  21.776  49.488  1.00  0.00     0.180 A 
ATOM      2  C   UNL     1     -29.441  22.900  49.902  1.00  0.00     0.208 A 
ATOM      3  C   UNL     1     -29.456  23.239  51.264  1.00  0.00     0.238 A 
ATOM      4  O   UNL     1     -30.125  24.238  51.647  1.00  0.00    -0.285 OA
ATOM      5  C   UNL     1     -28.718  22.466  52.183  1.00  0.00     0.111 A 
ATOM      6  C   UNL     1     -28.676  22.743  53.570  1.00  0.00     0.134 A 
ATOM      7  C   UNL     1     -27.910  21.930  54.419  1.00  0.00     0.093 A 
ATOM      8  C   UNL     1     -27.185  20.850  53.909  1.00  0.00     0.123 A 
ATOM      9  C   UNL     1     -27.222  20.572  52.539  1.00  0.00     0.094 A 
ATOM     10  C   UNL     1     -27.982  21.368  51.677  1.00  0.00     0.146 A 
ATOM     11  O   UNL     1     -28.004  21.079  50.381  1.00  0.00    -0.452 OA
ENDROOT
BRANCH   1  12
ATOM     12  C   UNL     1     -28.652  21.344  48.073  1.00  0.00     0.025 A 
ATOM     13  C   UNL     1     -27.909  20.204  47.725  1.00  0.00     0.016 A 
ATOM     14  C   UNL     1     -27.865  19.766  46.400  1.00  0.00     0.051 A 
ATOM     15  C   UNL     1     -28.576  20.449  45.404  1.00  0.00     0.157 A 
ATOM     16  C   UNL     1     -29.381  22.015  47.075  1.00  0.00     0.062 A 
ATOM     17  C   UNL     1     -29.341  21.578  45.747  1.00  0.00     0.158 A 
BRANCH  15  18
ATOM     18  O   UNL     1     -28.530  20.011  44.082  1.00  0.00    -0.504 OA
ATOM     19  H   UNL     1     -27.716  19.536  43.709  1.00  0.00     0.293 HD
ENDBRANCH  15  18
BRANCH  17  20
ATOM     20  O   UNL     1     -30.072  22.272  44.783  1.00  0.00    -0.504 OA
ATOM     21  H   UNL     1     -30.046  23.283  44.712  1.00  0.00     0.293 HD
ENDBRANCH  17  20
ENDBRANCH   1  12
BRANCH   2  22
ATOM     22  O   UNL     1     -30.125  23.679  48.964  1.00  0.00    -0.502 OA
ATOM     23  H   UNL     1     -30.675  24.487  49.228  1.00  0.00     0.293 HD
ENDBRANCH   2  22
BRANCH   6  24
ATOM     24  O   UNL     1     -29.387  23.815  54.111  1.00  0.00    -0.507 OA
ATOM     25  H   UNL     1     -30.195  23.672  54.705  1.00  0.00     0.293 HD
ENDBRANCH   6  24
BRANCH   8  26
ATOM     26  O   UNL     1     -26.431  20.060  54.773  1.00  0.00    -0.508 OA
ATOM     27  H   UNL     1     -26.703  19.922  55.739  1.00  0.00     0.293 HD
ENDBRANCH   8  26
TORSDOF 6
ENDMDL
