MODEL 1
REMARK VINA RESULT:    -6.873      0.000      0.000
REMARK INTER + INTRA:          -8.530
REMARK INTER:                  -8.279
REMARK INTRA:                  -0.251
REMARK UNBOUND:                -0.251
REMARK SMILES O=c1c(O)c(-c2ccc(O)c(O)c2)oc2cc(O)cc(O)c12
REMARK SMILES IDX 5 1 3 2 2 3 1 4 22 5 20 6 19 7 17 8 16 9 15 10 14 11 6 12
REMARK SMILES IDX 7 13 8 14 9 15 13 16 11 17 10 18 12 20 4 22 21 24 18 26
REMARK H PARENT 10 19 12 21 4 23 21 25 18 27
REMARK Flexibility Score: inf
ROOT
ATOM      1  C   UNL     1      12.910   9.913  12.806  1.00  0.00     0.180 A 
ATOM      2  C   UNL     1      12.688  10.351  14.126  1.00  0.00     0.208 A 
ATOM      3  C   UNL     1      11.398  10.243  14.668  1.00  0.00     0.238 A 
ATOM      4  O   UNL     1      11.189  10.621  15.853  1.00  0.00    -0.285 OA
ATOM      5  C   UNL     1      10.351   9.723  13.880  1.00  0.00     0.111 A 
ATOM      6  C   UNL     1       9.022   9.585  14.348  1.00  0.00     0.134 A 
ATOM      7  C   UNL     1       8.035   9.066  13.498  1.00  0.00     0.093 A 
ATOM      8  C   UNL     1       8.350   8.685  12.190  1.00  0.00     0.123 A 
ATOM      9  C   UNL     1       9.659   8.817  11.723  1.00  0.00     0.094 A 
ATOM     10  C   UNL     1      10.658   9.330  12.555  1.00  0.00     0.146 A 
ATOM     11  O   UNL     1      11.896   9.441  12.087  1.00  0.00    -0.452 OA
ENDROOT
BRANCH   1  12
ATOM     12  C   UNL     1      14.246   9.976  12.171  1.00  0.00     0.025 A 
ATOM     13  C   UNL     1      14.745  11.214  11.736  1.00  0.00     0.016 A 
ATOM     14  C   UNL     1      15.995  11.295  11.116  1.00  0.00     0.051 A 
ATOM     15  C   UNL     1      16.755  10.136  10.907  1.00  0.00     0.157 A 
ATOM     16  C   UNL     1      15.004   8.813  11.941  1.00  0.00     0.062 A 
ATOM     17  C   UNL     1      16.257   8.893  11.316  1.00  0.00     0.158 A 
BRANCH  15  18
ATOM     18  O   UNL     1      18.003  10.213  10.291  1.00  0.00    -0.504 OA
ATOM     19  H   UNL     1      18.101  10.153   9.284  1.00  0.00     0.293 HD
ENDBRANCH  15  18
BRANCH  17  20
ATOM     20  O   UNL     1      17.010   7.741  11.095  1.00  0.00    -0.504 OA
ATOM     21  H   UNL     1      16.754   7.071  10.379  1.00  0.00     0.293 HD
ENDBRANCH  17  20
ENDBRANCH   1  12
BRANCH   2  22
ATOM     22  O   UNL     1      13.731  10.908  14.870  1.00  0.00    -0.502 OA
ATOM     23  H   UNL     1      14.665  11.022  14.493  1.00  0.00     0.293 HD
ENDBRANCH   2  22
BRANCH   6  24
ATOM     24  O   UNL     1       8.677   9.960  15.648  1.00  0.00    -0.507 OA
ATOM     25  H   UNL     1       9.352   9.948  16.403  1.00  0.00     0.293 HD
ENDBRANCH   6  24
BRANCH   8  26
ATOM     26  O   UNL     1       7.369   8.170  11.344  1.00  0.00    -0.508 OA
ATOM     27  H   UNL     1       6.386   8.215  11.584  1.00  0.00     0.293 HD
ENDBRANCH   8  26
TORSDOF 6
ENDMDL
MODEL 2
REMARK VINA RESULT:    -6.627      1.570      6.945
REMARK INTER + INTRA:          -8.234
REMARK INTER:                  -7.967
REMARK INTRA:                  -0.267
REMARK UNBOUND:                -0.251
REMARK SMILES O=c1c(O)c(-c2ccc(O)c(O)c2)oc2cc(O)cc(O)c12
REMARK SMILES IDX 5 1 3 2 2 3 1 4 22 5 20 6 19 7 17 8 16 9 15 10 14 11 6 12
REMARK SMILES IDX 7 13 8 14 9 15 13 16 11 17 10 18 12 20 4 22 21 24 18 26
REMARK H PARENT 10 19 12 21 4 23 21 25 18 27
REMARK Flexibility Score: inf
ROOT
ATOM      1  C   UNL     1      12.486  10.298  12.533  1.00  0.00     0.180 A 
ATOM      2  C   UNL     1      12.775  11.619  12.136  1.00  0.00     0.208 A 
ATOM      3  C   UNL     1      13.987  11.879  11.478  1.00  0.00     0.238 A 
ATOM      4  O   UNL     1      14.253  13.055  11.107  1.00  0.00    -0.285 OA
ATOM      5  C   UNL     1      14.896  10.825  11.247  1.00  0.00     0.111 A 
ATOM      6  C   UNL     1      16.140  11.004  10.596  1.00  0.00     0.134 A 
ATOM      7  C   UNL     1      16.993   9.905  10.412  1.00  0.00     0.093 A 
ATOM      8  C   UNL     1      16.627   8.634  10.869  1.00  0.00     0.123 A 
ATOM      9  C   UNL     1      15.401   8.454  11.511  1.00  0.00     0.094 A 
ATOM     10  C   UNL     1      14.535   9.534  11.702  1.00  0.00     0.146 A 
ATOM     11  O   UNL     1      13.373   9.333  12.312  1.00  0.00    -0.452 OA
ENDROOT
BRANCH   1  12
ATOM     12  C   UNL     1      11.220   9.942  13.214  1.00  0.00     0.025 A 
ATOM     13  C   UNL     1      10.190   9.334  12.478  1.00  0.00     0.016 A 
ATOM     14  C   UNL     1       8.979   9.008  13.094  1.00  0.00     0.051 A 
ATOM     15  C   UNL     1       8.775   9.300  14.449  1.00  0.00     0.157 A 
ATOM     16  C   UNL     1      11.004  10.252  14.569  1.00  0.00     0.062 A 
ATOM     17  C   UNL     1       9.787   9.927  15.186  1.00  0.00     0.158 A 
BRANCH  15  18
ATOM     18  O   UNL     1       7.569   8.974  15.068  1.00  0.00    -0.504 OA
ATOM     19  H   UNL     1       7.448   8.099  15.563  1.00  0.00     0.293 HD
ENDBRANCH  15  18
BRANCH  17  20
ATOM     20  O   UNL     1       9.576  10.229  16.530  1.00  0.00    -0.504 OA
ATOM     21  H   UNL     1      10.166  10.889  17.024  1.00  0.00     0.293 HD
ENDBRANCH  17  20
ENDBRANCH   1  12
BRANCH   2  22
ATOM     22  O   UNL     1      11.880  12.653  12.420  1.00  0.00    -0.502 OA
ATOM     23  H   UNL     1      11.595  13.330  11.721  1.00  0.00     0.293 HD
ENDBRANCH   2  22
BRANCH   6  24
ATOM     24  O   UNL     1      16.534  12.259  10.131  1.00  0.00    -0.507 OA
ATOM     25  H   UNL     1      17.445  12.412   9.715  1.00  0.00     0.293 HD
ENDBRANCH   6  24
BRANCH   8  26
ATOM     26  O   UNL     1      17.474   7.543  10.687  1.00  0.00    -0.508 OA
ATOM     27  H   UNL     1      17.385   6.705  11.250  1.00  0.00     0.293 HD
ENDBRANCH   8  26
TORSDOF 6
ENDMDL
MODEL 3
REMARK VINA RESULT:    -6.549      1.591      3.109
REMARK INTER + INTRA:          -8.140
REMARK INTER:                  -7.889
REMARK INTRA:                  -0.251
REMARK UNBOUND:                -0.251
REMARK SMILES O=c1c(O)c(-c2ccc(O)c(O)c2)oc2cc(O)cc(O)c12
REMARK SMILES IDX 5 1 3 2 2 3 1 4 22 5 20 6 19 7 17 8 16 9 15 10 14 11 6 12
REMARK SMILES IDX 7 13 8 14 9 15 13 16 11 17 10 18 12 20 4 22 21 24 18 26
REMARK H PARENT 10 19 12 21 4 23 21 25 18 27
REMARK Flexibility Score: inf
ROOT
ATOM      1  C   UNL     1      12.885  10.641  12.319  1.00  0.00     0.180 A 
ATOM      2  C   UNL     1      12.015   9.997  11.418  1.00  0.00     0.208 A 
ATOM      3  C   UNL     1      10.798   9.488  11.898  1.00  0.00     0.238 A 
ATOM      4  O   UNL     1      10.005   8.919  11.098  1.00  0.00    -0.285 OA
ATOM      5  C   UNL     1      10.481   9.610  13.266  1.00  0.00     0.111 A 
ATOM      6  C   UNL     1       9.279   9.121  13.830  1.00  0.00     0.134 A 
ATOM      7  C   UNL     1       9.042   9.274  15.204  1.00  0.00     0.093 A 
ATOM      8  C   UNL     1       9.984   9.905  16.024  1.00  0.00     0.123 A 
ATOM      9  C   UNL     1      11.171  10.390  15.472  1.00  0.00     0.094 A 
ATOM     10  C   UNL     1      11.425  10.249  14.105  1.00  0.00     0.146 A 
ATOM     11  O   UNL     1      12.561  10.725  13.606  1.00  0.00    -0.452 OA
ENDROOT
BRANCH   1  12
ATOM     12  C   UNL     1      14.177  11.221  11.886  1.00  0.00     0.025 A 
ATOM     13  C   UNL     1      14.182  12.406  11.133  1.00  0.00     0.016 A 
ATOM     14  C   UNL     1      15.387  12.961  10.694  1.00  0.00     0.051 A 
ATOM     15  C   UNL     1      16.603  12.329  10.988  1.00  0.00     0.157 A 
ATOM     16  C   UNL     1      15.398  10.579  12.161  1.00  0.00     0.062 A 
ATOM     17  C   UNL     1      16.608  11.134  11.718  1.00  0.00     0.158 A 
BRANCH  15  18
ATOM     18  O   UNL     1      17.808  12.880  10.555  1.00  0.00    -0.504 OA
ATOM     19  H   UNL     1      17.980  13.070   9.575  1.00  0.00     0.293 HD
ENDBRANCH  15  18
BRANCH  17  20
ATOM     20  O   UNL     1      17.818  10.501  11.997  1.00  0.00    -0.504 OA
ATOM     21  H   UNL     1      18.696  10.851  11.631  1.00  0.00     0.293 HD
ENDBRANCH  17  20
ENDBRANCH   1  12
BRANCH   2  22
ATOM     22  O   UNL     1      12.374   9.845  10.076  1.00  0.00    -0.502 OA
ATOM     23  H   UNL     1      12.911   9.053   9.745  1.00  0.00     0.293 HD
ENDBRANCH   2  22
BRANCH   6  24
ATOM     24  O   UNL     1       8.321   8.485  13.039  1.00  0.00    -0.507 OA
ATOM     25  H   UNL     1       7.635   9.008  12.508  1.00  0.00     0.293 HD
ENDBRANCH   6  24
BRANCH   8  26
ATOM     26  O   UNL     1       9.749  10.057  17.389  1.00  0.00    -0.508 OA
ATOM     27  H   UNL     1       9.346   9.311  17.943  1.00  0.00     0.293 HD
ENDBRANCH   8  26
TORSDOF 6
ENDMDL
MODEL 4
REMARK VINA RESULT:    -6.173      2.334      7.028
REMARK INTER + INTRA:          -7.687
REMARK INTER:                  -7.363
REMARK INTRA:                  -0.324
REMARK UNBOUND:                -0.251
REMARK SMILES O=c1c(O)c(-c2ccc(O)c(O)c2)oc2cc(O)cc(O)c12
REMARK SMILES IDX 5 1 3 2 2 3 1 4 22 5 20 6 19 7 17 8 16 9 15 10 14 11 6 12
REMARK SMILES IDX 7 13 8 14 9 15 13 16 11 17 10 18 12 20 4 22 21 24 18 26
REMARK H PARENT 10 19 12 21 4 23 21 25 18 27
REMARK Flexibility Score: inf
ROOT
ATOM      1  C   UNL     1      14.013   8.992  12.895  1.00  0.00     0.180 A 
ATOM      2  C   UNL     1      14.502   9.367  11.628  1.00  0.00     0.208 A 
ATOM      3  C   UNL     1      15.478   8.566  11.014  1.00  0.00     0.238 A 
ATOM      4  O   UNL     1      15.917   8.885   9.875  1.00  0.00    -0.285 OA
ATOM      5  C   UNL     1      15.963   7.422  11.682  1.00  0.00     0.111 A 
ATOM      6  C   UNL     1      16.949   6.566  11.135  1.00  0.00     0.134 A 
ATOM      7  C   UNL     1      17.385   5.451  11.866  1.00  0.00     0.093 A 
ATOM      8  C   UNL     1      16.857   5.178  13.133  1.00  0.00     0.123 A 
ATOM      9  C   UNL     1      15.884   6.020  13.675  1.00  0.00     0.094 A 
ATOM     10  C   UNL     1      15.434   7.134  12.962  1.00  0.00     0.146 A 
ATOM     11  O   UNL     1      14.504   7.915  13.500  1.00  0.00    -0.452 OA
ENDROOT
BRANCH   1  12
ATOM     12  C   UNL     1      12.970   9.774  13.597  1.00  0.00     0.025 A 
ATOM     13  C   UNL     1      11.617   9.466  13.381  1.00  0.00     0.016 A 
ATOM     14  C   UNL     1      10.614  10.203  14.016  1.00  0.00     0.051 A 
ATOM     15  C   UNL     1      10.949  11.269  14.862  1.00  0.00     0.157 A 
ATOM     16  C   UNL     1      13.301  10.857  14.431  1.00  0.00     0.062 A 
ATOM     17  C   UNL     1      12.295  11.599  15.066  1.00  0.00     0.158 A 
BRANCH  15  18
ATOM     18  O   UNL     1       9.952  12.005  15.499  1.00  0.00    -0.504 OA
ATOM     19  H   UNL     1      10.172  12.673  16.229  1.00  0.00     0.293 HD
ENDBRANCH  15  18
BRANCH  17  20
ATOM     20  O   UNL     1      12.625  12.668  15.897  1.00  0.00    -0.504 OA
ATOM     21  H   UNL     1      11.937  13.362  16.167  1.00  0.00     0.293 HD
ENDBRANCH  17  20
ENDBRANCH   1  12
BRANCH   2  22
ATOM     22  O   UNL     1      14.041  10.532  11.010  1.00  0.00    -0.502 OA
ATOM     23  H   UNL     1      13.190  10.554  10.460  1.00  0.00     0.293 HD
ENDBRANCH   2  22
BRANCH   6  24
ATOM     24  O   UNL     1      17.497   6.813   9.875  1.00  0.00    -0.507 OA
ATOM     25  H   UNL     1      17.006   7.362   9.179  1.00  0.00     0.293 HD
ENDBRANCH   6  24
BRANCH   8  26
ATOM     26  O   UNL     1      17.290   4.072  13.860  1.00  0.00    -0.508 OA
ATOM     27  H   UNL     1      16.876   3.830  14.753  1.00  0.00     0.293 HD
ENDBRANCH   8  26
TORSDOF 6
ENDMDL
MODEL 5
REMARK VINA RESULT:    -5.906      3.880      6.538
REMARK INTER + INTRA:          -7.366
REMARK INTER:                  -7.038
REMARK INTRA:                  -0.329
REMARK UNBOUND:                -0.251
REMARK SMILES O=c1c(O)c(-c2ccc(O)c(O)c2)oc2cc(O)cc(O)c12
REMARK SMILES IDX 5 1 3 2 2 3 1 4 22 5 20 6 19 7 17 8 16 9 15 10 14 11 6 12
REMARK SMILES IDX 7 13 8 14 9 15 13 16 11 17 10 18 12 20 4 22 21 24 18 26
REMARK H PARENT 10 19 12 21 4 23 21 25 18 27
REMARK Flexibility Score: inf
ROOT
ATOM      1  C   UNL     1      15.862   6.305  12.554  1.00  0.00     0.180 A 
ATOM      2  C   UNL     1      15.859   6.831  11.247  1.00  0.00     0.208 A 
ATOM      3  C   UNL     1      15.361   8.126  11.039  1.00  0.00     0.238 A 
ATOM      4  O   UNL     1      15.362   8.612   9.875  1.00  0.00    -0.285 OA
ATOM      5  C   UNL     1      14.857   8.864  12.130  1.00  0.00     0.111 A 
ATOM      6  C   UNL     1      14.333  10.173  12.005  1.00  0.00     0.134 A 
ATOM      7  C   UNL     1      13.843  10.837  13.139  1.00  0.00     0.093 A 
ATOM      8  C   UNL     1      13.865  10.218  14.393  1.00  0.00     0.123 A 
ATOM      9  C   UNL     1      14.381   8.928  14.521  1.00  0.00     0.094 A 
ATOM     10  C   UNL     1      14.877   8.249  13.405  1.00  0.00     0.146 A 
ATOM     11  O   UNL     1      15.366   7.023  13.557  1.00  0.00    -0.452 OA
ENDROOT
BRANCH   1  12
ATOM     12  C   UNL     1      16.390   4.955  12.857  1.00  0.00     0.025 A 
ATOM     13  C   UNL     1      15.497   3.877  12.976  1.00  0.00     0.016 A 
ATOM     14  C   UNL     1      15.969   2.598  13.281  1.00  0.00     0.051 A 
ATOM     15  C   UNL     1      17.338   2.382  13.488  1.00  0.00     0.157 A 
ATOM     16  C   UNL     1      17.761   4.737  13.085  1.00  0.00     0.062 A 
ATOM     17  C   UNL     1      18.234   3.454  13.394  1.00  0.00     0.158 A 
BRANCH  15  18
ATOM     18  O   UNL     1      17.814   1.107  13.791  1.00  0.00    -0.504 OA
ATOM     19  H   UNL     1      17.264   0.452  14.334  1.00  0.00     0.293 HD
ENDBRANCH  15  18
BRANCH  17  20
ATOM     20  O   UNL     1      19.594   3.238  13.614  1.00  0.00    -0.504 OA
ATOM     21  H   UNL     1      20.163   3.912  14.112  1.00  0.00     0.293 HD
ENDBRANCH  17  20
ENDBRANCH   1  12
BRANCH   2  22
ATOM     22  O   UNL     1      16.318   6.061  10.176  1.00  0.00    -0.502 OA
ATOM     23  H   UNL     1      16.074   6.270   9.214  1.00  0.00     0.293 HD
ENDBRANCH   2  22
BRANCH   6  24
ATOM     24  O   UNL     1      14.296  10.816  10.767  1.00  0.00    -0.507 OA
ATOM     25  H   UNL     1      15.133  11.191  10.336  1.00  0.00     0.293 HD
ENDBRANCH   6  24
BRANCH   8  26
ATOM     26  O   UNL     1      13.377  10.877  15.520  1.00  0.00    -0.508 OA
ATOM     27  H   UNL     1      13.867  11.665  15.926  1.00  0.00     0.293 HD
ENDBRANCH   8  26
TORSDOF 6
ENDMDL
MODEL 6
REMARK VINA RESULT:    -5.705     13.858     15.824
REMARK INTER + INTRA:          -7.123
REMARK INTER:                  -7.153
REMARK INTRA:                   0.030
REMARK UNBOUND:                -0.251
REMARK SMILES O=c1c(O)c(-c2ccc(O)c(O)c2)oc2cc(O)cc(O)c12
REMARK SMILES IDX 5 1 3 2 2 3 1 4 22 5 20 6 19 7 17 8 16 9 15 10 14 11 6 12
REMARK SMILES IDX 7 13 8 14 9 15 13 16 11 17 10 18 12 20 4 22 21 24 18 26
REMARK H PARENT 10 19 12 21 4 23 21 25 18 27
REMARK Flexibility Score: inf
ROOT
ATOM      1  C   UNL     1       3.918   6.180  24.201  1.00  0.00     0.180 A 
ATOM      2  C   UNL     1       3.858   6.175  22.793  1.00  0.00     0.208 A 
ATOM      3  C   UNL     1       3.613   4.962  22.130  1.00  0.00     0.238 A 
ATOM      4  O   UNL     1       3.546   4.947  20.870  1.00  0.00    -0.285 OA
ATOM      5  C   UNL     1       3.453   3.778  22.878  1.00  0.00     0.111 A 
ATOM      6  C   UNL     1       3.208   2.515  22.286  1.00  0.00     0.134 A 
ATOM      7  C   UNL     1       3.069   1.381  23.100  1.00  0.00     0.093 A 
ATOM      8  C   UNL     1       3.173   1.485  24.491  1.00  0.00     0.123 A 
ATOM      9  C   UNL     1       3.414   2.728  25.079  1.00  0.00     0.094 A 
ATOM     10  C   UNL     1       3.553   3.871  24.286  1.00  0.00     0.146 A 
ATOM     11  O   UNL     1       3.778   5.041  24.872  1.00  0.00    -0.452 OA
ENDROOT
BRANCH   1  12
ATOM     12  C   UNL     1       4.153   7.422  24.973  1.00  0.00     0.025 A 
ATOM     13  C   UNL     1       5.051   7.402  26.052  1.00  0.00     0.016 A 
ATOM     14  C   UNL     1       5.274   8.556  26.808  1.00  0.00     0.051 A 
ATOM     15  C   UNL     1       4.589   9.741  26.506  1.00  0.00     0.157 A 
ATOM     16  C   UNL     1       3.453   8.607  24.685  1.00  0.00     0.062 A 
ATOM     17  C   UNL     1       3.674   9.765  25.446  1.00  0.00     0.158 A 
BRANCH  15  18
ATOM     18  O   UNL     1       4.809  10.895  27.255  1.00  0.00    -0.504 OA
ATOM     19  H   UNL     1       5.621  10.991  27.853  1.00  0.00     0.293 HD
ENDBRANCH  15  18
BRANCH  17  20
ATOM     20  O   UNL     1       2.984  10.941  25.156  1.00  0.00    -0.504 OA
ATOM     21  H   UNL     1       2.456  11.434  25.867  1.00  0.00     0.293 HD
ENDBRANCH  17  20
ENDBRANCH   1  12
BRANCH   2  22
ATOM     22  O   UNL     1       4.069   7.353  22.073  1.00  0.00    -0.502 OA
ATOM     23  H   UNL     1       4.948   7.558  21.612  1.00  0.00     0.293 HD
ENDBRANCH   2  22
BRANCH   6  24
ATOM     24  O   UNL     1       3.101   2.379  20.901  1.00  0.00    -0.507 OA
ATOM     25  H   UNL     1       3.903   2.487  20.292  1.00  0.00     0.293 HD
ENDBRANCH   6  24
BRANCH   8  26
ATOM     26  O   UNL     1       3.036   0.358  25.300  1.00  0.00    -0.508 OA
ATOM     27  H   UNL     1       3.495  -0.516  25.073  1.00  0.00     0.293 HD
ENDBRANCH   8  26
TORSDOF 6
ENDMDL
MODEL 7
REMARK VINA RESULT:    -5.611      2.083      2.568
REMARK INTER + INTRA:          -7.010
REMARK INTER:                  -6.685
REMARK INTRA:                  -0.326
REMARK UNBOUND:                -0.251
REMARK SMILES O=c1c(O)c(-c2ccc(O)c(O)c2)oc2cc(O)cc(O)c12
REMARK SMILES IDX 5 1 3 2 2 3 1 4 22 5 20 6 19 7 17 8 16 9 15 10 14 11 6 12
REMARK SMILES IDX 7 13 8 14 9 15 13 16 11 17 10 18 12 20 4 22 21 24 18 26
REMARK H PARENT 10 19 12 21 4 23 21 25 18 27
REMARK Flexibility Score: inf
ROOT
ATOM      1  C   UNL     1      13.357   9.361  12.845  1.00  0.00     0.180 A 
ATOM      2  C   UNL     1      13.681  10.664  13.270  1.00  0.00     0.208 A 
ATOM      3  C   UNL     1      12.730  11.395  14.000  1.00  0.00     0.238 A 
ATOM      4  O   UNL     1      13.013  12.559  14.396  1.00  0.00    -0.285 OA
ATOM      5  C   UNL     1      11.470  10.824  14.273  1.00  0.00     0.111 A 
ATOM      6  C   UNL     1      10.456  11.494  14.997  1.00  0.00     0.134 A 
ATOM      7  C   UNL     1       9.225  10.860  15.219  1.00  0.00     0.093 A 
ATOM      8  C   UNL     1       8.989   9.571  14.730  1.00  0.00     0.123 A 
ATOM      9  C   UNL     1       9.987   8.905  14.017  1.00  0.00     0.094 A 
ATOM     10  C   UNL     1      11.221   9.519  13.786  1.00  0.00     0.146 A 
ATOM     11  O   UNL     1      12.154   8.860  13.107  1.00  0.00    -0.452 OA
ENDROOT
BRANCH   1  12
ATOM     12  C   UNL     1      14.314   8.521  12.089  1.00  0.00     0.025 A 
ATOM     13  C   UNL     1      14.341   8.599  10.687  1.00  0.00     0.016 A 
ATOM     14  C   UNL     1      15.221   7.801   9.951  1.00  0.00     0.051 A 
ATOM     15  C   UNL     1      16.073   6.902  10.605  1.00  0.00     0.157 A 
ATOM     16  C   UNL     1      15.157   7.602  12.740  1.00  0.00     0.062 A 
ATOM     17  C   UNL     1      16.038   6.799  12.001  1.00  0.00     0.158 A 
BRANCH  15  18
ATOM     18  O   UNL     1      16.954   6.105   9.875  1.00  0.00    -0.504 OA
ATOM     19  H   UNL     1      17.771   5.689  10.305  1.00  0.00     0.293 HD
ENDBRANCH  15  18
BRANCH  17  20
ATOM     20  O   UNL     1      16.877   5.894  12.648  1.00  0.00    -0.504 OA
ATOM     21  H   UNL     1      17.879   5.897  12.494  1.00  0.00     0.293 HD
ENDBRANCH  17  20
ENDBRANCH   1  12
BRANCH   2  22
ATOM     22  O   UNL     1      14.918  11.226  12.945  1.00  0.00    -0.502 OA
ATOM     23  H   UNL     1      15.306  12.015  13.450  1.00  0.00     0.293 HD
ENDBRANCH   2  22
BRANCH   6  24
ATOM     24  O   UNL     1      10.660  12.782  15.495  1.00  0.00    -0.507 OA
ATOM     25  H   UNL     1      11.516  13.294  15.314  1.00  0.00     0.293 HD
ENDBRANCH   6  24
BRANCH   8  26
ATOM     26  O   UNL     1       7.766   8.940  14.950  1.00  0.00    -0.508 OA
ATOM     27  H   UNL     1       7.013   8.993  14.273  1.00  0.00     0.293 HD
ENDBRANCH   8  26
TORSDOF 6
ENDMDL
MODEL 8
REMARK VINA RESULT:    -5.568      3.238      5.163
REMARK INTER + INTRA:          -6.959
REMARK INTER:                  -7.377
REMARK INTRA:                   0.419
REMARK UNBOUND:                -0.251
REMARK SMILES O=c1c(O)c(-c2ccc(O)c(O)c2)oc2cc(O)cc(O)c12
REMARK SMILES IDX 5 1 3 2 2 3 1 4 22 5 20 6 19 7 17 8 16 9 15 10 14 11 6 12
REMARK SMILES IDX 7 13 8 14 9 15 13 16 11 17 10 18 12 20 4 22 21 24 18 26
REMARK H PARENT 10 19 12 21 4 23 21 25 18 27
REMARK Flexibility Score: inf
ROOT
ATOM      1  C   UNL     1      14.867   8.078  12.457  1.00  0.00     0.180 A 
ATOM      2  C   UNL     1      14.503   8.578  11.192  1.00  0.00     0.208 A 
ATOM      3  C   UNL     1      13.759   9.767  11.122  1.00  0.00     0.238 A 
ATOM      4  O   UNL     1      13.436  10.231   9.995  1.00  0.00    -0.285 OA
ATOM      5  C   UNL     1      13.375  10.421  12.311  1.00  0.00     0.111 A 
ATOM      6  C   UNL     1      12.622  11.619  12.327  1.00  0.00     0.134 A 
ATOM      7  C   UNL     1      12.272  12.204  13.553  1.00  0.00     0.093 A 
ATOM      8  C   UNL     1      12.659  11.613  14.761  1.00  0.00     0.123 A 
ATOM      9  C   UNL     1      13.403  10.432  14.749  1.00  0.00     0.094 A 
ATOM     10  C   UNL     1      13.763   9.834  13.539  1.00  0.00     0.146 A 
ATOM     11  O   UNL     1      14.475   8.713  13.557  1.00  0.00    -0.452 OA
ENDROOT
BRANCH   1  12
ATOM     12  C   UNL     1      15.668   6.841  12.612  1.00  0.00     0.025 A 
ATOM     13  C   UNL     1      16.439   6.380  11.533  1.00  0.00     0.016 A 
ATOM     14  C   UNL     1      17.186   5.205  11.649  1.00  0.00     0.051 A 
ATOM     15  C   UNL     1      17.159   4.466  12.839  1.00  0.00     0.157 A 
ATOM     16  C   UNL     1      15.627   6.085  13.798  1.00  0.00     0.062 A 
ATOM     17  C   UNL     1      16.375   4.904  13.913  1.00  0.00     0.158 A 
BRANCH  15  18
ATOM     18  O   UNL     1      17.904   3.294  12.960  1.00  0.00    -0.504 OA
ATOM     19  H   UNL     1      18.912   3.295  12.854  1.00  0.00     0.293 HD
ENDBRANCH  15  18
BRANCH  17  20
ATOM     20  O   UNL     1      16.339   4.160  15.091  1.00  0.00    -0.504 OA
ATOM     21  H   UNL     1      16.720   3.221  15.136  1.00  0.00     0.293 HD
ENDBRANCH  17  20
ENDBRANCH   1  12
BRANCH   2  22
ATOM     22  O   UNL     1      14.853   7.885  10.031  1.00  0.00    -0.502 OA
ATOM     23  H   UNL     1      14.171   7.392   9.466  1.00  0.00     0.293 HD
ENDBRANCH   2  22
BRANCH   6  24
ATOM     24  O   UNL     1      12.219  12.231  11.139  1.00  0.00    -0.507 OA
ATOM     25  H   UNL     1      12.321  13.228  10.992  1.00  0.00     0.293 HD
ENDBRANCH   6  24
BRANCH   8  26
ATOM     26  O   UNL     1      12.311  12.193  15.979  1.00  0.00    -0.508 OA
ATOM     27  H   UNL     1      12.448  13.182  16.153  1.00  0.00     0.293 HD
ENDBRANCH   8  26
TORSDOF 6
ENDMDL
MODEL 9
REMARK VINA RESULT:    -5.564      3.239      7.360
REMARK INTER + INTRA:          -6.953
REMARK INTER:                  -7.053
REMARK INTRA:                   0.099
REMARK UNBOUND:                -0.251
REMARK SMILES O=c1c(O)c(-c2ccc(O)c(O)c2)oc2cc(O)cc(O)c12
REMARK SMILES IDX 5 1 3 2 2 3 1 4 22 5 20 6 19 7 17 8 16 9 15 10 14 11 6 12
REMARK SMILES IDX 7 13 8 14 9 15 13 16 11 17 10 18 12 20 4 22 21 24 18 26
REMARK H PARENT 10 19 12 21 4 23 21 25 18 27
REMARK Flexibility Score: inf
ROOT
ATOM      1  C   UNL     1      15.255   7.732  12.305  1.00  0.00     0.180 A 
ATOM      2  C   UNL     1      16.099   7.785  11.178  1.00  0.00     0.208 A 
ATOM      3  C   UNL     1      16.912   6.679  10.888  1.00  0.00     0.238 A 
ATOM      4  O   UNL     1      17.664   6.710   9.875  1.00  0.00    -0.285 OA
ATOM      5  C   UNL     1      16.886   5.552  11.735  1.00  0.00     0.111 A 
ATOM      6  C   UNL     1      17.678   4.400  11.516  1.00  0.00     0.134 A 
ATOM      7  C   UNL     1      17.601   3.322  12.412  1.00  0.00     0.093 A 
ATOM      8  C   UNL     1      16.751   3.377  13.521  1.00  0.00     0.123 A 
ATOM      9  C   UNL     1      15.967   4.512  13.740  1.00  0.00     0.094 A 
ATOM     10  C   UNL     1      16.028   5.595  12.859  1.00  0.00     0.146 A 
ATOM     11  O   UNL     1      15.268   6.660  13.090  1.00  0.00    -0.452 OA
ENDROOT
BRANCH   1  12
ATOM     12  C   UNL     1      14.354   8.851  12.665  1.00  0.00     0.025 A 
ATOM     13  C   UNL     1      13.603   9.482  11.659  1.00  0.00     0.016 A 
ATOM     14  C   UNL     1      12.762  10.552  11.971  1.00  0.00     0.051 A 
ATOM     15  C   UNL     1      12.672  11.018  13.290  1.00  0.00     0.157 A 
ATOM     16  C   UNL     1      14.276   9.335  13.983  1.00  0.00     0.062 A 
ATOM     17  C   UNL     1      13.434  10.412  14.296  1.00  0.00     0.158 A 
BRANCH  15  18
ATOM     18  O   UNL     1      11.832  12.085  13.606  1.00  0.00    -0.504 OA
ATOM     19  H   UNL     1      12.183  12.916  14.067  1.00  0.00     0.293 HD
ENDBRANCH  15  18
BRANCH  17  20
ATOM     20  O   UNL     1      13.353  10.886  15.604  1.00  0.00    -0.504 OA
ATOM     21  H   UNL     1      13.908  10.483  16.350  1.00  0.00     0.293 HD
ENDBRANCH  17  20
ENDBRANCH   1  12
BRANCH   2  22
ATOM     22  O   UNL     1      16.142   8.932  10.382  1.00  0.00    -0.502 OA
ATOM     23  H   UNL     1      16.126   8.891   9.369  1.00  0.00     0.293 HD
ENDBRANCH   2  22
BRANCH   6  24
ATOM     24  O   UNL     1      18.538   4.316  10.420  1.00  0.00    -0.507 OA
ATOM     25  H   UNL     1      18.598   5.058   9.732  1.00  0.00     0.293 HD
ENDBRANCH   6  24
BRANCH   8  26
ATOM     26  O   UNL     1      16.675   2.308  14.411  1.00  0.00    -0.508 OA
ATOM     27  H   UNL     1      15.816   1.786  14.540  1.00  0.00     0.293 HD
ENDBRANCH   8  26
TORSDOF 6
ENDMDL
