MODEL 1
REMARK VINA RESULT:    -1.478      0.000      0.000
REMARK INTER + INTRA:          -7.542
REMARK INTER:                  -3.380
REMARK INTRA:                  -4.163
REMARK UNBOUND:                -4.163
REMARK SMILES CCCCCCCCCCCCCCCCCCCCCCCC(=O)[O-]
REMARK SMILES IDX 13 1 14 2 15 3 16 4 17 5 18 6 19 7 20 8 21 9 22 10 23 11
REMARK SMILES IDX 24 12 25 13 26 14 12 15 11 16 10 17 9 18 8 19 7 20 6 21 5 22
REMARK SMILES IDX 4 23 3 24 2 25 1 26
REMARK H PARENT
REMARK Flexibility Score: inf
ROOT
ATOM      1  C   UNL     1     174.241 177.893 195.049  1.00  0.00     0.000 C 
ENDROOT
BRANCH   1   2
ATOM      2  C   UNL     1     172.936 177.162 195.395  1.00  0.00     0.000 C 
BRANCH   2   3
ATOM      3  C   UNL     1     172.071 176.876 194.155  1.00  0.00     0.000 C 
BRANCH   3   4
ATOM      4  C   UNL     1     172.654 177.488 192.871  1.00  0.00     0.000 C 
BRANCH   4   5
ATOM      5  C   UNL     1     171.611 178.282 192.065  1.00  0.00     0.000 C 
BRANCH   5   6
ATOM      6  C   UNL     1     172.055 179.727 191.772  1.00  0.00     0.000 C 
BRANCH   6   7
ATOM      7  C   UNL     1     171.365 180.808 192.622  1.00  0.00     0.000 C 
BRANCH   7   8
ATOM      8  C   UNL     1     172.337 181.555 193.550  1.00  0.00     0.000 C 
BRANCH   8   9
ATOM      9  C   UNL     1     173.813 181.293 193.177  1.00  0.00     0.000 C 
BRANCH   9  10
ATOM     10  C   UNL     1     174.759 182.447 193.562  1.00  0.00     0.006 C 
BRANCH  10  11
ATOM     11  C   UNL     1     174.146 183.464 194.538  1.00  0.00     0.053 C 
BRANCH  11  12
ATOM     12  C   UNL     1     174.056 184.839 193.946  1.00  0.00     0.041 C 
ATOM     13  O   UNL     1     174.544 185.076 192.809  1.00  0.00    -0.550 OA
ATOM     14  O   UNL     1     173.410 185.855 194.640  1.00  0.00    -0.550 OA
ENDBRANCH  11  12
ENDBRANCH  10  11
ENDBRANCH   9  10
ENDBRANCH   8   9
ENDBRANCH   7   8
ENDBRANCH   6   7
ENDBRANCH   5   6
ENDBRANCH   4   5
ENDBRANCH   3   4
ENDBRANCH   2   3
ENDBRANCH   1   2
BRANCH   1  15
ATOM     15  C   UNL     1     174.431 179.185 195.861  1.00  0.00     0.000 C 
BRANCH  15  16
ATOM     16  C   UNL     1     173.145 179.637 196.576  1.00  0.00     0.000 C 
BRANCH  16  17
ATOM     17  C   UNL     1     173.240 181.051 197.186  1.00  0.00     0.000 C 
BRANCH  17  18
ATOM     18  C   UNL     1     173.404 181.012 198.716  1.00  0.00    -0.000 C 
BRANCH  18  19
ATOM     19  C   UNL     1     172.058 180.929 199.454  1.00  0.00    -0.000 C 
BRANCH  19  20
ATOM     20  C   UNL     1     172.107 179.986 200.668  1.00  0.00    -0.000 C 
BRANCH  20  21
ATOM     21  C   UNL     1     171.312 178.688 200.445  1.00  0.00    -0.000 C 
BRANCH  21  22
ATOM     22  C   UNL     1     172.025 177.627 199.582  1.00  0.00    -0.000 C 
BRANCH  22  23
ATOM     23  C   UNL     1     173.461 177.286 200.021  1.00  0.00    -0.000 C 
BRANCH  23  24
ATOM     24  C   UNL     1     174.363 176.880 198.848  1.00  0.00    -0.000 C 
BRANCH  24  25
ATOM     25  C   UNL     1     175.701 177.627 198.901  1.00  0.00    -0.003 C 
ATOM     26  C   UNL     1     175.701 178.680 200.005  1.00  0.00     0.004 C 
ENDBRANCH  24  25
ENDBRANCH  23  24
ENDBRANCH  22  23
ENDBRANCH  21  22
ENDBRANCH  20  21
ENDBRANCH  19  20
ENDBRANCH  18  19
ENDBRANCH  17  18
ENDBRANCH  16  17
ENDBRANCH  15  16
ENDBRANCH   1  15
TORSDOF 22
ENDMDL
MODEL 2
REMARK VINA RESULT:    -1.474      3.139      6.943
REMARK INTER + INTRA:          -7.532
REMARK INTER:                  -2.349
REMARK INTRA:                  -5.183
REMARK UNBOUND:                -4.163
REMARK SMILES CCCCCCCCCCCCCCCCCCCCCCCC(=O)[O-]
REMARK SMILES IDX 13 1 14 2 15 3 16 4 17 5 18 6 19 7 20 8 21 9 22 10 23 11
REMARK SMILES IDX 24 12 25 13 26 14 12 15 11 16 10 17 9 18 8 19 7 20 6 21 5 22
REMARK SMILES IDX 4 23 3 24 2 25 1 26
REMARK H PARENT
REMARK Flexibility Score: inf
ROOT
ATOM      1  C   UNL     1     176.889 181.600 194.774  1.00  0.00     0.000 C 
ENDROOT
BRANCH   1   2
ATOM      2  C   UNL     1     176.219 181.668 196.155  1.00  0.00     0.000 C 
BRANCH   2   3
ATOM      3  C   UNL     1     175.621 183.054 196.455  1.00  0.00     0.000 C 
BRANCH   3   4
ATOM      4  C   UNL     1     174.397 182.985 197.381  1.00  0.00     0.000 C 
BRANCH   4   5
ATOM      5  C   UNL     1     174.161 181.575 197.949  1.00  0.00     0.000 C 
BRANCH   5   6
ATOM      6  C   UNL     1     172.681 181.300 198.273  1.00  0.00     0.000 C 
BRANCH   6   7
ATOM      7  C   UNL     1     172.375 179.879 198.780  1.00  0.00     0.000 C 
BRANCH   7   8
ATOM      8  C   UNL     1     173.626 178.991 198.868  1.00  0.00     0.000 C 
BRANCH   8   9
ATOM      9  C   UNL     1     173.388 177.589 198.266  1.00  0.00     0.000 C 
BRANCH   9  10
ATOM     10  C   UNL     1     174.525 177.115 197.340  1.00  0.00     0.006 C 
BRANCH  10  11
ATOM     11  C   UNL     1     175.572 178.194 197.026  1.00  0.00     0.053 C 
BRANCH  11  12
ATOM     12  C   UNL     1     176.946 177.807 197.486  1.00  0.00     0.041 C 
ATOM     13  O   UNL     1     177.093 177.049 198.481  1.00  0.00    -0.550 OA
ATOM     14  O   UNL     1     178.065 178.263 196.799  1.00  0.00    -0.550 OA
ENDBRANCH  11  12
ENDBRANCH  10  11
ENDBRANCH   9  10
ENDBRANCH   8   9
ENDBRANCH   7   8
ENDBRANCH   6   7
ENDBRANCH   5   6
ENDBRANCH   4   5
ENDBRANCH   3   4
ENDBRANCH   2   3
ENDBRANCH   1   2
BRANCH   1  15
ATOM     15  C   UNL     1     176.624 180.270 194.050  1.00  0.00     0.000 C 
BRANCH  15  16
ATOM     16  C   UNL     1     175.946 180.458 192.682  1.00  0.00     0.000 C 
BRANCH  16  17
ATOM     17  C   UNL     1     175.450 181.898 192.430  1.00  0.00     0.000 C 
BRANCH  17  18
ATOM     18  C   UNL     1     173.913 181.985 192.402  1.00  0.00    -0.000 C 
BRANCH  18  19
ATOM     19  C   UNL     1     173.305 182.180 193.799  1.00  0.00    -0.000 C 
BRANCH  19  20
ATOM     20  C   UNL     1     172.358 181.035 194.197  1.00  0.00    -0.000 C 
BRANCH  20  21
ATOM     21  C   UNL     1     173.077 179.903 194.953  1.00  0.00    -0.000 C 
BRANCH  21  22
ATOM     22  C   UNL     1     173.098 178.545 194.224  1.00  0.00    -0.000 C 
BRANCH  22  23
ATOM     23  C   UNL     1     172.259 178.482 192.935  1.00  0.00    -0.000 C 
BRANCH  23  24
ATOM     24  C   UNL     1     173.118 178.357 191.669  1.00  0.00    -0.000 C 
BRANCH  24  25
ATOM     25  C   UNL     1     172.505 179.152 190.510  1.00  0.00    -0.003 C 
ATOM     26  C   UNL     1     171.144 179.726 190.895  1.00  0.00     0.004 C 
ENDBRANCH  24  25
ENDBRANCH  23  24
ENDBRANCH  22  23
ENDBRANCH  21  22
ENDBRANCH  20  21
ENDBRANCH  19  20
ENDBRANCH  18  19
ENDBRANCH  17  18
ENDBRANCH  16  17
ENDBRANCH  15  16
ENDBRANCH   1  15
TORSDOF 22
ENDMDL
MODEL 3
REMARK VINA RESULT:    -1.462      1.762      1.998
REMARK INTER + INTRA:          -7.506
REMARK INTER:                  -3.142
REMARK INTRA:                  -4.364
REMARK UNBOUND:                -4.163
REMARK SMILES CCCCCCCCCCCCCCCCCCCCCCCC(=O)[O-]
REMARK SMILES IDX 13 1 14 2 15 3 16 4 17 5 18 6 19 7 20 8 21 9 22 10 23 11
REMARK SMILES IDX 24 12 25 13 26 14 12 15 11 16 10 17 9 18 8 19 7 20 6 21 5 22
REMARK SMILES IDX 4 23 3 24 2 25 1 26
REMARK H PARENT
REMARK Flexibility Score: inf
ROOT
ATOM      1  C   UNL     1     174.379 178.024 194.983  1.00  0.00     0.000 C 
ENDROOT
BRANCH   1   2
ATOM      2  C   UNL     1     173.152 177.163 195.320  1.00  0.00     0.000 C 
BRANCH   2   3
ATOM      3  C   UNL     1     172.275 176.875 194.089  1.00  0.00     0.000 C 
BRANCH   3   4
ATOM      4  C   UNL     1     172.707 177.679 192.852  1.00  0.00     0.000 C 
BRANCH   4   5
ATOM      5  C   UNL     1     171.534 178.422 192.189  1.00  0.00     0.000 C 
BRANCH   5   6
ATOM      6  C   UNL     1     171.850 179.902 191.899  1.00  0.00     0.000 C 
BRANCH   6   7
ATOM      7  C   UNL     1     172.060 180.781 193.145  1.00  0.00     0.000 C 
BRANCH   7   8
ATOM      8  C   UNL     1     173.460 181.413 193.206  1.00  0.00     0.000 C 
BRANCH   8   9
ATOM      9  C   UNL     1     174.287 181.117 191.936  1.00  0.00     0.000 C 
BRANCH   9  10
ATOM     10  C   UNL     1     175.566 180.302 192.209  1.00  0.00     0.006 C 
BRANCH  10  11
ATOM     11  C   UNL     1     176.496 180.923 193.264  1.00  0.00     0.053 C 
BRANCH  11  12
ATOM     12  C   UNL     1     177.481 181.879 192.662  1.00  0.00     0.041 C 
ATOM     13  O   UNL     1     177.481 182.097 191.421  1.00  0.00    -0.550 OA
ATOM     14  O   UNL     1     178.387 182.550 193.475  1.00  0.00    -0.550 OA
ENDBRANCH  11  12
ENDBRANCH  10  11
ENDBRANCH   9  10
ENDBRANCH   8   9
ENDBRANCH   7   8
ENDBRANCH   6   7
ENDBRANCH   5   6
ENDBRANCH   4   5
ENDBRANCH   3   4
ENDBRANCH   2   3
ENDBRANCH   1   2
BRANCH   1  15
ATOM     15  C   UNL     1     174.467 179.294 195.845  1.00  0.00     0.000 C 
BRANCH  15  16
ATOM     16  C   UNL     1     173.158 179.602 196.593  1.00  0.00     0.000 C 
BRANCH  16  17
ATOM     17  C   UNL     1     173.115 181.017 197.208  1.00  0.00     0.000 C 
BRANCH  17  18
ATOM     18  C   UNL     1     173.421 181.003 198.717  1.00  0.00    -0.000 C 
BRANCH  18  19
ATOM     19  C   UNL     1     172.151 180.953 199.578  1.00  0.00    -0.000 C 
BRANCH  19  20
ATOM     20  C   UNL     1     172.236 179.901 200.697  1.00  0.00    -0.000 C 
BRANCH  20  21
ATOM     21  C   UNL     1     171.401 178.644 200.398  1.00  0.00    -0.000 C 
BRANCH  21  22
ATOM     22  C   UNL     1     172.108 177.582 199.532  1.00  0.00    -0.000 C 
BRANCH  22  23
ATOM     23  C   UNL     1     173.528 177.206 199.993  1.00  0.00    -0.000 C 
BRANCH  23  24
ATOM     24  C   UNL     1     174.473 176.896 198.823  1.00  0.00    -0.000 C 
BRANCH  24  25
ATOM     25  C   UNL     1     175.706 177.806 198.860  1.00  0.00    -0.003 C 
ATOM     26  C   UNL     1     175.769 178.599 200.162  1.00  0.00     0.004 C 
ENDBRANCH  24  25
ENDBRANCH  23  24
ENDBRANCH  22  23
ENDBRANCH  21  22
ENDBRANCH  20  21
ENDBRANCH  19  20
ENDBRANCH  18  19
ENDBRANCH  17  18
ENDBRANCH  16  17
ENDBRANCH  15  16
ENDBRANCH   1  15
TORSDOF 22
ENDMDL
MODEL 4
REMARK VINA RESULT:    -1.433      2.030      3.317
REMARK INTER + INTRA:          -7.439
REMARK INTER:                  -2.466
REMARK INTRA:                  -4.973
REMARK UNBOUND:                -4.163
REMARK SMILES CCCCCCCCCCCCCCCCCCCCCCCC(=O)[O-]
REMARK SMILES IDX 13 1 14 2 15 3 16 4 17 5 18 6 19 7 20 8 21 9 22 10 23 11
REMARK SMILES IDX 24 12 25 13 26 14 12 15 11 16 10 17 9 18 8 19 7 20 6 21 5 22
REMARK SMILES IDX 4 23 3 24 2 25 1 26
REMARK H PARENT
REMARK Flexibility Score: inf
ROOT
ATOM      1  C   UNL     1     174.316 177.539 196.800  1.00  0.00     0.000 C 
ENDROOT
BRANCH   1   2
ATOM      2  C   UNL     1     173.144 178.379 196.271  1.00  0.00     0.000 C 
BRANCH   2   3
ATOM      3  C   UNL     1     173.123 178.464 194.734  1.00  0.00     0.000 C 
BRANCH   3   4
ATOM      4  C   UNL     1     174.233 177.627 194.078  1.00  0.00     0.000 C 
BRANCH   4   5
ATOM      5  C   UNL     1     175.114 178.453 193.125  1.00  0.00     0.000 C 
BRANCH   5   6
ATOM      6  C   UNL     1     176.086 179.388 193.868  1.00  0.00     0.000 C 
BRANCH   6   7
ATOM      7  C   UNL     1     176.018 180.868 193.450  1.00  0.00     0.000 C 
BRANCH   7   8
ATOM      8  C   UNL     1     176.070 181.833 194.645  1.00  0.00     0.000 C 
BRANCH   8   9
ATOM      9  C   UNL     1     175.011 181.490 195.716  1.00  0.00     0.000 C 
BRANCH   9  10
ATOM     10  C   UNL     1     173.936 182.581 195.891  1.00  0.00     0.006 C 
BRANCH  10  11
ATOM     11  C   UNL     1     172.525 182.149 195.462  1.00  0.00     0.053 C 
BRANCH  11  12
ATOM     12  C   UNL     1     172.344 182.196 193.974  1.00  0.00     0.041 C 
ATOM     13  O   UNL     1     172.930 183.075 193.288  1.00  0.00    -0.550 OA
ATOM     14  O   UNL     1     171.545 181.252 193.340  1.00  0.00    -0.550 OA
ENDBRANCH  11  12
ENDBRANCH  10  11
ENDBRANCH   9  10
ENDBRANCH   8   9
ENDBRANCH   7   8
ENDBRANCH   6   7
ENDBRANCH   5   6
ENDBRANCH   4   5
ENDBRANCH   3   4
ENDBRANCH   2   3
ENDBRANCH   1   2
BRANCH   1  15
ATOM     15  C   UNL     1     174.054 176.973 198.205  1.00  0.00     0.000 C 
BRANCH  15  16
ATOM     16  C   UNL     1     172.684 177.389 198.771  1.00  0.00     0.000 C 
BRANCH  16  17
ATOM     17  C   UNL     1     172.722 177.761 200.269  1.00  0.00     0.000 C 
BRANCH  17  18
ATOM     18  C   UNL     1     172.178 179.178 200.528  1.00  0.00    -0.000 C 
BRANCH  18  19
ATOM     19  C   UNL     1     172.007 179.992 199.236  1.00  0.00    -0.000 C 
BRANCH  19  20
ATOM     20  C   UNL     1     172.854 181.276 199.230  1.00  0.00    -0.000 C 
BRANCH  20  21
ATOM     21  C   UNL     1     174.212 181.097 199.931  1.00  0.00    -0.000 C 
BRANCH  21  22
ATOM     22  C   UNL     1     175.306 180.431 199.072  1.00  0.00    -0.000 C 
BRANCH  22  23
ATOM     23  C   UNL     1     176.255 179.492 199.837  1.00  0.00    -0.000 C 
BRANCH  23  24
ATOM     24  C   UNL     1     177.222 178.738 198.914  1.00  0.00    -0.000 C 
BRANCH  24  25
ATOM     25  C   UNL     1     177.319 179.424 197.546  1.00  0.00    -0.003 C 
ATOM     26  C   UNL     1     178.485 178.869 196.732  1.00  0.00     0.004 C 
ENDBRANCH  24  25
ENDBRANCH  23  24
ENDBRANCH  22  23
ENDBRANCH  21  22
ENDBRANCH  20  21
ENDBRANCH  19  20
ENDBRANCH  18  19
ENDBRANCH  17  18
ENDBRANCH  16  17
ENDBRANCH  15  16
ENDBRANCH   1  15
TORSDOF 22
ENDMDL
MODEL 5
REMARK VINA RESULT:    -1.421      3.294      6.984
REMARK INTER + INTRA:          -7.412
REMARK INTER:                  -2.525
REMARK INTRA:                  -4.887
REMARK UNBOUND:                -4.163
REMARK SMILES CCCCCCCCCCCCCCCCCCCCCCCC(=O)[O-]
REMARK SMILES IDX 13 1 14 2 15 3 16 4 17 5 18 6 19 7 20 8 21 9 22 10 23 11
REMARK SMILES IDX 24 12 25 13 26 14 12 15 11 16 10 17 9 18 8 19 7 20 6 21 5 22
REMARK SMILES IDX 4 23 3 24 2 25 1 26
REMARK H PARENT
REMARK Flexibility Score: inf
ROOT
ATOM      1  C   UNL     1     175.977 179.082 193.828  1.00  0.00     0.000 C 
ENDROOT
BRANCH   1   2
ATOM      2  C   UNL     1     175.317 177.882 194.526  1.00  0.00     0.000 C 
BRANCH   2   3
ATOM      3  C   UNL     1     173.919 177.568 193.964  1.00  0.00     0.000 C 
BRANCH   3   4
ATOM      4  C   UNL     1     172.814 177.678 195.028  1.00  0.00     0.000 C 
BRANCH   4   5
ATOM      5  C   UNL     1     173.186 176.977 196.345  1.00  0.00     0.000 C 
BRANCH   5   6
ATOM      6  C   UNL     1     173.124 177.918 197.562  1.00  0.00     0.000 C 
BRANCH   6   7
ATOM      7  C   UNL     1     173.085 179.419 197.226  1.00  0.00     0.000 C 
BRANCH   7   8
ATOM      8  C   UNL     1     174.272 180.198 197.816  1.00  0.00     0.000 C 
BRANCH   8   9
ATOM      9  C   UNL     1     175.257 179.276 198.568  1.00  0.00     0.000 C 
BRANCH   9  10
ATOM     10  C   UNL     1     176.622 179.132 197.867  1.00  0.00     0.006 C 
BRANCH  10  11
ATOM     11  C   UNL     1     177.089 177.678 197.692  1.00  0.00     0.053 C 
BRANCH  11  12
ATOM     12  C   UNL     1     178.460 177.588 197.091  1.00  0.00     0.041 C 
ATOM     13  O   UNL     1     179.414 177.097 197.752  1.00  0.00    -0.550 OA
ATOM     14  O   UNL     1     178.681 178.026 195.791  1.00  0.00    -0.550 OA
ENDBRANCH  11  12
ENDBRANCH  10  11
ENDBRANCH   9  10
ENDBRANCH   8   9
ENDBRANCH   7   8
ENDBRANCH   6   7
ENDBRANCH   5   6
ENDBRANCH   4   5
ENDBRANCH   3   4
ENDBRANCH   2   3
ENDBRANCH   1   2
BRANCH   1  15
ATOM     15  C   UNL     1     175.619 180.423 194.489  1.00  0.00     0.000 C 
BRANCH  15  16
ATOM     16  C   UNL     1     174.668 181.277 193.632  1.00  0.00     0.000 C 
BRANCH  16  17
ATOM     17  C   UNL     1     173.436 181.794 194.405  1.00  0.00     0.000 C 
BRANCH  17  18
ATOM     18  C   UNL     1     172.130 181.135 193.922  1.00  0.00    -0.000 C 
BRANCH  18  19
ATOM     19  C   UNL     1     172.107 180.912 192.402  1.00  0.00    -0.000 C 
BRANCH  19  20
ATOM     20  C   UNL     1     171.425 179.590 192.010  1.00  0.00    -0.000 C 
BRANCH  20  21
ATOM     21  C   UNL     1     171.249 179.439 190.489  1.00  0.00    -0.000 C 
BRANCH  21  22
ATOM     22  C   UNL     1     171.718 178.089 189.910  1.00  0.00    -0.000 C 
BRANCH  22  23
ATOM     23  C   UNL     1     173.098 177.614 190.398  1.00  0.00    -0.000 C 
BRANCH  23  24
ATOM     24  C   UNL     1     174.256 178.204 189.581  1.00  0.00    -0.000 C 
BRANCH  24  25
ATOM     25  C   UNL     1     175.057 179.210 190.416  1.00  0.00    -0.003 C 
ATOM     26  C   UNL     1     174.840 180.637 189.918  1.00  0.00     0.004 C 
ENDBRANCH  24  25
ENDBRANCH  23  24
ENDBRANCH  22  23
ENDBRANCH  21  22
ENDBRANCH  20  21
ENDBRANCH  19  20
ENDBRANCH  18  19
ENDBRANCH  17  18
ENDBRANCH  16  17
ENDBRANCH  15  16
ENDBRANCH   1  15
TORSDOF 22
ENDMDL
MODEL 6
REMARK VINA RESULT:    -1.413      3.043      5.285
REMARK INTER + INTRA:          -7.393
REMARK INTER:                  -2.707
REMARK INTRA:                  -4.686
REMARK UNBOUND:                -4.163
REMARK SMILES CCCCCCCCCCCCCCCCCCCCCCCC(=O)[O-]
REMARK SMILES IDX 13 1 14 2 15 3 16 4 17 5 18 6 19 7 20 8 21 9 22 10 23 11
REMARK SMILES IDX 24 12 25 13 26 14 12 15 11 16 10 17 9 18 8 19 7 20 6 21 5 22
REMARK SMILES IDX 4 23 3 24 2 25 1 26
REMARK H PARENT
REMARK Flexibility Score: inf
ROOT
ATOM      1  C   UNL     1     173.266 179.566 193.812  1.00  0.00     0.000 C 
ENDROOT
BRANCH   1   2
ATOM      2  C   UNL     1     172.777 180.538 194.897  1.00  0.00     0.000 C 
BRANCH   2   3
ATOM      3  C   UNL     1     172.122 181.801 194.308  1.00  0.00     0.000 C 
BRANCH   3   4
ATOM      4  C   UNL     1     172.305 183.037 195.203  1.00  0.00     0.000 C 
BRANCH   4   5
ATOM      5  C   UNL     1     173.713 183.646 195.092  1.00  0.00     0.000 C 
BRANCH   5   6
ATOM      6  C   UNL     1     174.409 183.796 196.458  1.00  0.00     0.000 C 
BRANCH   6   7
ATOM      7  C   UNL     1     175.734 183.026 196.604  1.00  0.00     0.000 C 
BRANCH   7   8
ATOM      8  C   UNL     1     176.056 182.147 195.385  1.00  0.00     0.000 C 
BRANCH   8   9
ATOM      9  C   UNL     1     176.516 180.731 195.794  1.00  0.00     0.000 C 
BRANCH   9  10
ATOM     10  C   UNL     1     175.691 180.124 196.945  1.00  0.00     0.006 C 
BRANCH  10  11
ATOM     11  C   UNL     1     176.535 179.445 198.035  1.00  0.00     0.053 C 
BRANCH  11  12
ATOM     12  C   UNL     1     177.303 178.269 197.512  1.00  0.00     0.041 C 
ATOM     13  O   UNL     1     176.702 177.316 196.947  1.00  0.00    -0.550 OA
ATOM     14  O   UNL     1     178.687 178.234 197.626  1.00  0.00    -0.550 OA
ENDBRANCH  11  12
ENDBRANCH  10  11
ENDBRANCH   9  10
ENDBRANCH   8   9
ENDBRANCH   7   8
ENDBRANCH   6   7
ENDBRANCH   5   6
ENDBRANCH   4   5
ENDBRANCH   3   4
ENDBRANCH   2   3
ENDBRANCH   1   2
BRANCH   1  15
ATOM     15  C   UNL     1     172.824 178.117 194.073  1.00  0.00     0.000 C 
BRANCH  15  16
ATOM     16  C   UNL     1     173.722 177.391 195.090  1.00  0.00     0.000 C 
BRANCH  16  17
ATOM     17  C   UNL     1     172.960 176.875 196.330  1.00  0.00     0.000 C 
BRANCH  17  18
ATOM     18  C   UNL     1     173.080 177.837 197.526  1.00  0.00    -0.000 C 
BRANCH  18  19
ATOM     19  C   UNL     1     173.662 177.158 198.775  1.00  0.00    -0.000 C 
BRANCH  19  20
ATOM     20  C   UNL     1     172.899 177.531 200.058  1.00  0.00    -0.000 C 
BRANCH  20  21
ATOM     21  C   UNL     1     172.303 178.949 200.007  1.00  0.00    -0.000 C 
BRANCH  21  22
ATOM     22  C   UNL     1     173.183 180.049 200.633  1.00  0.00    -0.000 C 
BRANCH  22  23
ATOM     23  C   UNL     1     173.541 181.212 199.692  1.00  0.00    -0.000 C 
BRANCH  23  24
ATOM     24  C   UNL     1     172.542 181.376 198.538  1.00  0.00    -0.000 C 
BRANCH  24  25
ATOM     25  C   UNL     1     171.604 182.562 198.789  1.00  0.00    -0.003 C 
ATOM     26  C   UNL     1     172.312 183.672 199.560  1.00  0.00     0.004 C 
ENDBRANCH  24  25
ENDBRANCH  23  24
ENDBRANCH  22  23
ENDBRANCH  21  22
ENDBRANCH  20  21
ENDBRANCH  19  20
ENDBRANCH  18  19
ENDBRANCH  17  18
ENDBRANCH  16  17
ENDBRANCH  15  16
ENDBRANCH   1  15
TORSDOF 22
ENDMDL
MODEL 7
REMARK VINA RESULT:    -1.372      2.048      4.110
REMARK INTER + INTRA:          -7.299
REMARK INTER:                  -2.933
REMARK INTRA:                  -4.366
REMARK UNBOUND:                -4.163
REMARK SMILES CCCCCCCCCCCCCCCCCCCCCCCC(=O)[O-]
REMARK SMILES IDX 13 1 14 2 15 3 16 4 17 5 18 6 19 7 20 8 21 9 22 10 23 11
REMARK SMILES IDX 24 12 25 13 26 14 12 15 11 16 10 17 9 18 8 19 7 20 6 21 5 22
REMARK SMILES IDX 4 23 3 24 2 25 1 26
REMARK H PARENT
REMARK Flexibility Score: inf
ROOT
ATOM      1  C   UNL     1     176.247 180.682 197.220  1.00  0.00     0.000 C 
ENDROOT
BRANCH   1   2
ATOM      2  C   UNL     1     176.851 180.247 195.875  1.00  0.00     0.000 C 
BRANCH   2   3
ATOM      3  C   UNL     1     177.189 178.746 195.837  1.00  0.00     0.000 C 
BRANCH   3   4
ATOM      4  C   UNL     1     176.781 178.079 194.514  1.00  0.00     0.000 C 
BRANCH   4   5
ATOM      5  C   UNL     1     176.854 179.042 193.317  1.00  0.00     0.000 C 
BRANCH   5   6
ATOM      6  C   UNL     1     175.495 179.233 192.618  1.00  0.00     0.000 C 
BRANCH   6   7
ATOM      7  C   UNL     1     174.795 177.933 192.183  1.00  0.00     0.000 C 
BRANCH   7   8
ATOM      8  C   UNL     1     173.515 178.183 191.371  1.00  0.00     0.000 C 
BRANCH   8   9
ATOM      9  C   UNL     1     172.270 178.321 192.274  1.00  0.00     0.000 C 
BRANCH   9  10
ATOM     10  C   UNL     1     171.209 179.291 191.718  1.00  0.00     0.006 C 
BRANCH  10  11
ATOM     11  C   UNL     1     171.759 180.676 191.340  1.00  0.00     0.053 C 
BRANCH  11  12
ATOM     12  C   UNL     1     172.139 181.485 192.544  1.00  0.00     0.041 C 
ATOM     13  O   UNL     1     173.280 182.014 192.621  1.00  0.00    -0.550 OA
ATOM     14  O   UNL     1     171.224 181.677 193.572  1.00  0.00    -0.550 OA
ENDBRANCH  11  12
ENDBRANCH  10  11
ENDBRANCH   9  10
ENDBRANCH   8   9
ENDBRANCH   7   8
ENDBRANCH   6   7
ENDBRANCH   5   6
ENDBRANCH   4   5
ENDBRANCH   3   4
ENDBRANCH   2   3
ENDBRANCH   1   2
BRANCH   1  15
ATOM     15  C   UNL     1     174.749 181.014 197.117  1.00  0.00     0.000 C 
BRANCH  15  16
ATOM     16  C   UNL     1     174.151 180.660 195.744  1.00  0.00     0.000 C 
BRANCH  16  17
ATOM     17  C   UNL     1     173.002 179.632 195.817  1.00  0.00     0.000 C 
BRANCH  17  18
ATOM     18  C   UNL     1     173.503 178.188 195.624  1.00  0.00    -0.000 C 
BRANCH  18  19
ATOM     19  C   UNL     1     173.038 177.246 196.745  1.00  0.00    -0.000 C 
BRANCH  19  20
ATOM     20  C   UNL     1     174.162 176.912 197.740  1.00  0.00    -0.000 C 
BRANCH  20  21
ATOM     21  C   UNL     1     174.248 177.917 198.901  1.00  0.00    -0.000 C 
BRANCH  21  22
ATOM     22  C   UNL     1     173.343 177.598 200.108  1.00  0.00    -0.000 C 
BRANCH  22  23
ATOM     23  C   UNL     1     171.993 178.338 200.124  1.00  0.00    -0.000 C 
BRANCH  23  24
ATOM     24  C   UNL     1     172.027 179.659 199.344  1.00  0.00    -0.000 C 
BRANCH  24  25
ATOM     25  C   UNL     1     172.324 180.839 200.277  1.00  0.00    -0.003 C 
ATOM     26  C   UNL     1     172.220 182.169 199.537  1.00  0.00     0.004 C 
ENDBRANCH  24  25
ENDBRANCH  23  24
ENDBRANCH  22  23
ENDBRANCH  21  22
ENDBRANCH  20  21
ENDBRANCH  19  20
ENDBRANCH  18  19
ENDBRANCH  17  18
ENDBRANCH  16  17
ENDBRANCH  15  16
ENDBRANCH   1  15
TORSDOF 22
ENDMDL
MODEL 8
REMARK VINA RESULT:    -1.355      2.470      6.343
REMARK INTER + INTRA:          -7.261
REMARK INTER:                  -2.905
REMARK INTRA:                  -4.356
REMARK UNBOUND:                -4.163
REMARK SMILES CCCCCCCCCCCCCCCCCCCCCCCC(=O)[O-]
REMARK SMILES IDX 13 1 14 2 15 3 16 4 17 5 18 6 19 7 20 8 21 9 22 10 23 11
REMARK SMILES IDX 24 12 25 13 26 14 12 15 11 16 10 17 9 18 8 19 7 20 6 21 5 22
REMARK SMILES IDX 4 23 3 24 2 25 1 26
REMARK H PARENT
REMARK Flexibility Score: inf
ROOT
ATOM      1  C   UNL     1     172.817 182.171 196.039  1.00  0.00     0.000 C 
ENDROOT
BRANCH   1   2
ATOM      2  C   UNL     1     172.878 182.679 197.488  1.00  0.00     0.000 C 
BRANCH   2   3
ATOM      3  C   UNL     1     173.396 181.611 198.467  1.00  0.00     0.000 C 
BRANCH   3   4
ATOM      4  C   UNL     1     172.262 180.877 199.201  1.00  0.00     0.000 C 
BRANCH   4   5
ATOM      5  C   UNL     1     172.349 179.349 199.051  1.00  0.00     0.000 C 
BRANCH   5   6
ATOM      6  C   UNL     1     173.091 178.915 197.773  1.00  0.00     0.000 C 
BRANCH   6   7
ATOM      7  C   UNL     1     173.742 177.522 197.836  1.00  0.00     0.000 C 
BRANCH   7   8
ATOM      8  C   UNL     1     175.247 177.547 197.524  1.00  0.00     0.000 C 
BRANCH   8   9
ATOM      9  C   UNL     1     175.901 178.888 197.923  1.00  0.00     0.000 C 
BRANCH   9  10
ATOM     10  C   UNL     1     176.734 179.527 196.794  1.00  0.00     0.006 C 
BRANCH  10  11
ATOM     11  C   UNL     1     176.518 181.040 196.632  1.00  0.00     0.053 C 
BRANCH  11  12
ATOM     12  C   UNL     1     177.243 181.834 197.677  1.00  0.00     0.041 C 
ATOM     13  O   UNL     1     176.699 182.840 198.204  1.00  0.00    -0.550 OA
ATOM     14  O   UNL     1     178.513 181.448 198.088  1.00  0.00    -0.550 OA
ENDBRANCH  11  12
ENDBRANCH  10  11
ENDBRANCH   9  10
ENDBRANCH   8   9
ENDBRANCH   7   8
ENDBRANCH   6   7
ENDBRANCH   5   6
ENDBRANCH   4   5
ENDBRANCH   3   4
ENDBRANCH   2   3
ENDBRANCH   1   2
BRANCH   1  15
ATOM     15  C   UNL     1     171.966 183.072 195.130  1.00  0.00     0.000 C 
BRANCH  15  16
ATOM     16  C   UNL     1     171.273 182.296 193.996  1.00  0.00     0.000 C 
BRANCH  16  17
ATOM     17  C   UNL     1     172.100 181.106 193.466  1.00  0.00     0.000 C 
BRANCH  17  18
ATOM     18  C   UNL     1     173.181 181.553 192.464  1.00  0.00    -0.000 C 
BRANCH  18  19
ATOM     19  C   UNL     1     174.448 180.687 192.534  1.00  0.00    -0.000 C 
BRANCH  19  20
ATOM     20  C   UNL     1     174.520 179.849 193.822  1.00  0.00    -0.000 C 
BRANCH  20  21
ATOM     21  C   UNL     1     175.045 178.423 193.576  1.00  0.00    -0.000 C 
BRANCH  21  22
ATOM     22  C   UNL     1     174.132 177.294 194.093  1.00  0.00    -0.000 C 
BRANCH  22  23
ATOM     23  C   UNL     1     172.649 177.674 194.250  1.00  0.00    -0.000 C 
BRANCH  23  24
ATOM     24  C   UNL     1     171.726 176.877 193.317  1.00  0.00    -0.000 C 
BRANCH  24  25
ATOM     25  C   UNL     1     172.206 176.968 191.863  1.00  0.00    -0.003 C 
ATOM     26  C   UNL     1     171.765 178.279 191.218  1.00  0.00     0.004 C 
ENDBRANCH  24  25
ENDBRANCH  23  24
ENDBRANCH  22  23
ENDBRANCH  21  22
ENDBRANCH  20  21
ENDBRANCH  19  20
ENDBRANCH  18  19
ENDBRANCH  17  18
ENDBRANCH  16  17
ENDBRANCH  15  16
ENDBRANCH   1  15
TORSDOF 22
ENDMDL
MODEL 9
REMARK VINA RESULT:    -1.288      2.378      2.769
REMARK INTER + INTRA:          -7.106
REMARK INTER:                  -2.873
REMARK INTRA:                  -4.233
REMARK UNBOUND:                -4.163
REMARK SMILES CCCCCCCCCCCCCCCCCCCCCCCC(=O)[O-]
REMARK SMILES IDX 13 1 14 2 15 3 16 4 17 5 18 6 19 7 20 8 21 9 22 10 23 11
REMARK SMILES IDX 24 12 25 13 26 14 12 15 11 16 10 17 9 18 8 19 7 20 6 21 5 22
REMARK SMILES IDX 4 23 3 24 2 25 1 26
REMARK H PARENT
REMARK Flexibility Score: inf
ROOT
ATOM      1  C   UNL     1     174.285 178.471 194.836  1.00  0.00     0.000 C 
ENDROOT
BRANCH   1   2
ATOM      2  C   UNL     1     173.123 177.657 195.426  1.00  0.00     0.000 C 
BRANCH   2   3
ATOM      3  C   UNL     1     172.335 176.887 194.350  1.00  0.00     0.000 C 
BRANCH   3   4
ATOM      4  C   UNL     1     172.945 177.037 192.947  1.00  0.00     0.000 C 
BRANCH   4   5
ATOM      5  C   UNL     1     171.925 177.534 191.908  1.00  0.00     0.000 C 
BRANCH   5   6
ATOM      6  C   UNL     1     172.168 178.994 191.482  1.00  0.00     0.000 C 
BRANCH   6   7
ATOM      7  C   UNL     1     171.722 180.056 192.503  1.00  0.00     0.000 C 
BRANCH   7   8
ATOM      8  C   UNL     1     172.642 181.287 192.532  1.00  0.00     0.000 C 
BRANCH   8   9
ATOM      9  C   UNL     1     174.058 180.967 192.003  1.00  0.00     0.000 C 
BRANCH   9  10
ATOM     10  C   UNL     1     174.475 181.834 190.799  1.00  0.00     0.006 C 
BRANCH  10  11
ATOM     11  C   UNL     1     173.304 182.531 190.089  1.00  0.00     0.053 C 
BRANCH  11  12
ATOM     12  C   UNL     1     172.772 181.725 188.943  1.00  0.00     0.041 C 
ATOM     13  O   UNL     1     173.414 180.731 188.511  1.00  0.00    -0.550 OA
ATOM     14  O   UNL     1     171.553 182.057 188.365  1.00  0.00    -0.550 OA
ENDBRANCH  11  12
ENDBRANCH  10  11
ENDBRANCH   9  10
ENDBRANCH   8   9
ENDBRANCH   7   8
ENDBRANCH   6   7
ENDBRANCH   5   6
ENDBRANCH   4   5
ENDBRANCH   3   4
ENDBRANCH   2   3
ENDBRANCH   1   2
BRANCH   1  15
ATOM     15  C   UNL     1     174.426 179.858 195.485  1.00  0.00     0.000 C 
BRANCH  15  16
ATOM     16  C   UNL     1     173.137 180.326 196.184  1.00  0.00     0.000 C 
BRANCH  16  17
ATOM     17  C   UNL     1     172.975 181.860 196.222  1.00  0.00     0.000 C 
BRANCH  17  18
ATOM     18  C   UNL     1     173.360 182.450 197.591  1.00  0.00    -0.000 C 
BRANCH  18  19
ATOM     19  C   UNL     1     172.144 182.677 198.501  1.00  0.00    -0.000 C 
BRANCH  19  20
ATOM     20  C   UNL     1     172.308 182.019 199.882  1.00  0.00    -0.000 C 
BRANCH  20  21
ATOM     21  C   UNL     1     171.253 180.932 200.153  1.00  0.00    -0.000 C 
BRANCH  21  22
ATOM     22  C   UNL     1     171.615 179.527 199.630  1.00  0.00    -0.000 C 
BRANCH  22  23
ATOM     23  C   UNL     1     172.992 179.002 200.072  1.00  0.00    -0.000 C 
BRANCH  23  24
ATOM     24  C   UNL     1     173.573 177.962 199.104  1.00  0.00    -0.000 C 
BRANCH  24  25
ATOM     25  C   UNL     1     175.025 178.299 198.745  1.00  0.00    -0.003 C 
ATOM     26  C   UNL     1     175.383 179.721 199.168  1.00  0.00     0.004 C 
ENDBRANCH  24  25
ENDBRANCH  23  24
ENDBRANCH  22  23
ENDBRANCH  21  22
ENDBRANCH  20  21
ENDBRANCH  19  20
ENDBRANCH  18  19
ENDBRANCH  17  18
ENDBRANCH  16  17
ENDBRANCH  15  16
ENDBRANCH   1  15
TORSDOF 22
ENDMDL
