MODEL 1
REMARK VINA RESULT:    -4.118      0.000      0.000
REMARK INTER + INTRA:          -8.122
REMARK INTER:                  -7.008
REMARK INTRA:                  -1.114
REMARK UNBOUND:                -1.114
REMARK SMILES CCCCCCCCCCCCCC(=O)[O-]
REMARK SMILES IDX 8 1 9 2 10 3 11 4 12 5 13 6 14 7 15 8 16 9 7 10 6 11 5 12
REMARK SMILES IDX 4 13 3 14 2 15 1 16
REMARK H PARENT
REMARK Flexibility Score: inf
ROOT
ATOM      1  C   UNL     1      12.822  25.285  33.419  1.00  0.00     0.000 C 
ENDROOT
BRANCH   1   2
ATOM      2  C   UNL     1      14.236  25.086  32.835  1.00  0.00     0.000 C 
BRANCH   2   3
ATOM      3  C   UNL     1      14.976  23.832  33.336  1.00  0.00     0.000 C 
BRANCH   3   4
ATOM      4  C   UNL     1      16.441  24.067  33.750  1.00  0.00     0.000 C 
BRANCH   4   5
ATOM      5  C   UNL     1      17.119  22.825  34.367  1.00  0.00     0.006 C 
BRANCH   5   6
ATOM      6  C   UNL     1      16.858  21.549  33.557  1.00  0.00     0.053 C 
BRANCH   6   7
ATOM      7  C   UNL     1      16.364  20.454  34.449  1.00  0.00     0.041 C 
ATOM      8  O   UNL     1      16.944  20.217  35.542  1.00  0.00    -0.550 OA
ATOM      9  O   UNL     1      15.295  19.662  34.050  1.00  0.00    -0.550 OA
ENDBRANCH   6   7
ENDBRANCH   5   6
ENDBRANCH   4   5
ENDBRANCH   3   4
ENDBRANCH   2   3
ENDBRANCH   1   2
BRANCH   1  10
ATOM     10  C   UNL     1      12.630  26.575  34.240  1.00  0.00     0.000 C 
BRANCH  10  11
ATOM     11  C   UNL     1      13.762  26.883  35.241  1.00  0.00    -0.000 C 
BRANCH  11  12
ATOM     12  C   UNL     1      14.583  28.150  34.928  1.00  0.00    -0.000 C 
BRANCH  12  13
ATOM     13  C   UNL     1      16.011  27.890  34.417  1.00  0.00    -0.000 C 
BRANCH  13  14
ATOM     14  C   UNL     1      16.378  28.754  33.202  1.00  0.00    -0.000 C 
BRANCH  14  15
ATOM     15  C   UNL     1      17.053  27.913  32.113  1.00  0.00    -0.003 C 
ATOM     16  C   UNL     1      17.124  28.674  30.792  1.00  0.00     0.004 C 
ENDBRANCH  14  15
ENDBRANCH  13  14
ENDBRANCH  12  13
ENDBRANCH  11  12
ENDBRANCH  10  11
ENDBRANCH   1  10
TORSDOF 12
ENDMDL
MODEL 2
REMARK VINA RESULT:    -4.029      1.959      2.798
REMARK INTER + INTRA:          -7.969
REMARK INTER:                  -6.474
REMARK INTRA:                  -1.496
REMARK UNBOUND:                -1.114
REMARK SMILES CCCCCCCCCCCCCC(=O)[O-]
REMARK SMILES IDX 8 1 9 2 10 3 11 4 12 5 13 6 14 7 15 8 16 9 7 10 6 11 5 12
REMARK SMILES IDX 4 13 3 14 2 15 1 16
REMARK H PARENT
REMARK Flexibility Score: inf
ROOT
ATOM      1  C   UNL     1      12.627  26.083  34.684  1.00  0.00     0.000 C 
ENDROOT
BRANCH   1   2
ATOM      2  C   UNL     1      12.940  25.281  33.405  1.00  0.00     0.000 C 
BRANCH   2   3
ATOM      3  C   UNL     1      14.417  25.299  32.970  1.00  0.00     0.000 C 
BRANCH   3   4
ATOM      4  C   UNL     1      15.112  23.924  32.976  1.00  0.00     0.000 C 
BRANCH   4   5
ATOM      5  C   UNL     1      16.217  23.792  34.045  1.00  0.00     0.006 C 
BRANCH   5   6
ATOM      6  C   UNL     1      16.165  22.447  34.781  1.00  0.00     0.053 C 
BRANCH   6   7
ATOM      7  C   UNL     1      15.277  22.541  35.981  1.00  0.00     0.041 C 
ATOM      8  O   UNL     1      14.875  21.494  36.556  1.00  0.00    -0.550 OA
ATOM      9  O   UNL     1      14.851  23.783  36.435  1.00  0.00    -0.550 OA
ENDBRANCH   6   7
ENDBRANCH   5   6
ENDBRANCH   4   5
ENDBRANCH   3   4
ENDBRANCH   2   3
ENDBRANCH   1   2
BRANCH   1  10
ATOM     10  C   UNL     1      11.843  27.391  34.460  1.00  0.00     0.000 C 
BRANCH  10  11
ATOM     11  C   UNL     1      11.476  28.158  35.746  1.00  0.00    -0.000 C 
BRANCH  11  12
ATOM     12  C   UNL     1      12.353  29.392  36.042  1.00  0.00    -0.000 C 
BRANCH  12  13
ATOM     13  C   UNL     1      13.806  29.076  36.440  1.00  0.00    -0.000 C 
BRANCH  13  14
ATOM     14  C   UNL     1      14.827  29.538  35.392  1.00  0.00    -0.000 C 
BRANCH  14  15
ATOM     15  C   UNL     1      15.611  28.348  34.827  1.00  0.00    -0.003 C 
ATOM     16  C   UNL     1      15.819  27.270  35.888  1.00  0.00     0.004 C 
ENDBRANCH  14  15
ENDBRANCH  13  14
ENDBRANCH  12  13
ENDBRANCH  11  12
ENDBRANCH  10  11
ENDBRANCH   1  10
TORSDOF 12
ENDMDL
MODEL 3
REMARK VINA RESULT:    -4.006      3.786      6.941
REMARK INTER + INTRA:          -7.931
REMARK INTER:                  -6.822
REMARK INTRA:                  -1.109
REMARK UNBOUND:                -1.114
REMARK SMILES CCCCCCCCCCCCCC(=O)[O-]
REMARK SMILES IDX 8 1 9 2 10 3 11 4 12 5 13 6 14 7 15 8 16 9 7 10 6 11 5 12
REMARK SMILES IDX 4 13 3 14 2 15 1 16
REMARK H PARENT
REMARK Flexibility Score: inf
ROOT
ATOM      1  C   UNL     1      15.677  23.545  33.336  1.00  0.00     0.000 C 
ENDROOT
BRANCH   1   2
ATOM      2  C   UNL     1      14.524  24.519  33.016  1.00  0.00     0.000 C 
BRANCH   2   3
ATOM      3  C   UNL     1      14.884  26.012  33.123  1.00  0.00     0.000 C 
BRANCH   3   4
ATOM      4  C   UNL     1      13.920  26.851  33.983  1.00  0.00     0.000 C 
BRANCH   4   5
ATOM      5  C   UNL     1      12.463  26.341  33.960  1.00  0.00     0.006 C 
BRANCH   5   6
ATOM      6  C   UNL     1      11.442  27.470  34.159  1.00  0.00     0.053 C 
BRANCH   6   7
ATOM      7  C   UNL     1      11.532  28.018  35.547  1.00  0.00     0.041 C 
ATOM      8  O   UNL     1      11.582  27.237  36.535  1.00  0.00    -0.550 OA
ATOM      9  O   UNL     1      11.508  29.391  35.755  1.00  0.00    -0.550 OA
ENDBRANCH   6   7
ENDBRANCH   5   6
ENDBRANCH   4   5
ENDBRANCH   3   4
ENDBRANCH   2   3
ENDBRANCH   1   2
BRANCH   1  10
ATOM     10  C   UNL     1      16.304  23.712  34.734  1.00  0.00     0.000 C 
BRANCH  10  11
ATOM     11  C   UNL     1      15.291  23.868  35.886  1.00  0.00    -0.000 C 
BRANCH  11  12
ATOM     12  C   UNL     1      15.031  22.587  36.705  1.00  0.00    -0.000 C 
BRANCH  12  13
ATOM     13  C   UNL     1      15.940  21.396  36.354  1.00  0.00    -0.000 C 
BRANCH  13  14
ATOM     14  C   UNL     1      15.169  20.075  36.222  1.00  0.00    -0.000 C 
BRANCH  14  15
ATOM     15  C   UNL     1      15.530  19.356  34.917  1.00  0.00    -0.003 C 
ATOM     16  C   UNL     1      16.637  20.094  34.168  1.00  0.00     0.004 C 
ENDBRANCH  14  15
ENDBRANCH  13  14
ENDBRANCH  12  13
ENDBRANCH  11  12
ENDBRANCH  10  11
ENDBRANCH   1  10
TORSDOF 12
ENDMDL
MODEL 4
REMARK VINA RESULT:    -3.949      4.284      7.636
REMARK INTER + INTRA:          -7.833
REMARK INTER:                  -7.184
REMARK INTRA:                  -0.648
REMARK UNBOUND:                -1.114
REMARK SMILES CCCCCCCCCCCCCC(=O)[O-]
REMARK SMILES IDX 8 1 9 2 10 3 11 4 12 5 13 6 14 7 15 8 16 9 7 10 6 11 5 12
REMARK SMILES IDX 4 13 3 14 2 15 1 16
REMARK H PARENT
REMARK Flexibility Score: inf
ROOT
ATOM      1  C   UNL     1      14.494  25.208  33.003  1.00  0.00     0.000 C 
ENDROOT
BRANCH   1   2
ATOM      2  C   UNL     1      12.988  25.221  33.338  1.00  0.00     0.000 C 
BRANCH   2   3
ATOM      3  C   UNL     1      12.511  26.440  34.148  1.00  0.00     0.000 C 
BRANCH   3   4
ATOM      4  C   UNL     1      12.700  26.319  35.672  1.00  0.00     0.000 C 
BRANCH   4   5
ATOM      5  C   UNL     1      11.833  27.304  36.486  1.00  0.00     0.006 C 
BRANCH   5   6
ATOM      6  C   UNL     1      11.387  28.517  35.658  1.00  0.00     0.053 C 
BRANCH   6   7
ATOM      7  C   UNL     1      12.101  29.751  36.112  1.00  0.00     0.041 C 
ATOM      8  O   UNL     1      11.511  30.863  36.105  1.00  0.00    -0.550 OA
ATOM      9  O   UNL     1      13.435  29.681  36.494  1.00  0.00    -0.550 OA
ENDBRANCH   6   7
ENDBRANCH   5   6
ENDBRANCH   4   5
ENDBRANCH   3   4
ENDBRANCH   2   3
ENDBRANCH   1   2
BRANCH   1  10
ATOM     10  C   UNL     1      15.154  23.816  33.014  1.00  0.00     0.000 C 
BRANCH  10  11
ATOM     11  C   UNL     1      16.087  23.547  34.213  1.00  0.00    -0.000 C 
BRANCH  11  12
ATOM     12  C   UNL     1      15.459  22.726  35.357  1.00  0.00    -0.000 C 
BRANCH  12  13
ATOM     13  C   UNL     1      15.969  21.279  35.474  1.00  0.00    -0.000 C 
BRANCH  13  14
ATOM     14  C   UNL     1      15.755  20.464  34.190  1.00  0.00    -0.000 C 
BRANCH  14  15
ATOM     15  C   UNL     1      15.105  19.111  34.501  1.00  0.00    -0.003 C 
ATOM     16  C   UNL     1      16.107  18.151  35.139  1.00  0.00     0.004 C 
ENDBRANCH  14  15
ENDBRANCH  13  14
ENDBRANCH  12  13
ENDBRANCH  11  12
ENDBRANCH  10  11
ENDBRANCH   1  10
TORSDOF 12
ENDMDL
MODEL 5
REMARK VINA RESULT:    -3.940      3.210      6.082
REMARK INTER + INTRA:          -7.818
REMARK INTER:                  -6.426
REMARK INTRA:                  -1.392
REMARK UNBOUND:                -1.114
REMARK SMILES CCCCCCCCCCCCCC(=O)[O-]
REMARK SMILES IDX 8 1 9 2 10 3 11 4 12 5 13 6 14 7 15 8 16 9 7 10 6 11 5 12
REMARK SMILES IDX 4 13 3 14 2 15 1 16
REMARK H PARENT
REMARK Flexibility Score: inf
ROOT
ATOM      1  C   UNL     1      11.696  27.105  33.999  1.00  0.00     0.000 C 
ENDROOT
BRANCH   1   2
ATOM      2  C   UNL     1      11.585  27.592  35.458  1.00  0.00     0.000 C 
BRANCH   2   3
ATOM      3  C   UNL     1      11.578  29.121  35.636  1.00  0.00     0.000 C 
BRANCH   3   4
ATOM      4  C   UNL     1      12.747  29.682  36.469  1.00  0.00     0.000 C 
BRANCH   4   5
ATOM      5  C   UNL     1      14.037  28.839  36.375  1.00  0.00     0.006 C 
BRANCH   5   6
ATOM      6  C   UNL     1      15.006  29.366  35.308  1.00  0.00     0.053 C 
BRANCH   6   7
ATOM      7  C   UNL     1      15.764  28.236  34.686  1.00  0.00     0.041 C 
ATOM      8  O   UNL     1      16.661  27.639  35.338  1.00  0.00    -0.550 OA
ATOM      9  O   UNL     1      15.514  27.874  33.368  1.00  0.00    -0.550 OA
ENDBRANCH   6   7
ENDBRANCH   5   6
ENDBRANCH   4   5
ENDBRANCH   3   4
ENDBRANCH   2   3
ENDBRANCH   1   2
BRANCH   1  10
ATOM     10  C   UNL     1      12.622  25.892  33.783  1.00  0.00     0.000 C 
BRANCH  10  11
ATOM     11  C   UNL     1      13.368  25.411  35.044  1.00  0.00    -0.000 C 
BRANCH  11  12
ATOM     12  C   UNL     1      14.699  24.680  34.776  1.00  0.00    -0.000 C 
BRANCH  12  13
ATOM     13  C   UNL     1      14.954  24.314  33.304  1.00  0.00    -0.000 C 
BRANCH  13  14
ATOM     14  C   UNL     1      15.950  23.158  33.139  1.00  0.00    -0.000 C 
BRANCH  14  15
ATOM     15  C   UNL     1      15.691  22.058  34.175  1.00  0.00    -0.003 C 
ATOM     16  C   UNL     1      16.966  21.707  34.939  1.00  0.00     0.004 C 
ENDBRANCH  14  15
ENDBRANCH  13  14
ENDBRANCH  12  13
ENDBRANCH  11  12
ENDBRANCH  10  11
ENDBRANCH   1  10
TORSDOF 12
ENDMDL
MODEL 6
REMARK VINA RESULT:    -3.934      4.275      5.991
REMARK INTER + INTRA:          -7.808
REMARK INTER:                  -6.892
REMARK INTRA:                  -0.916
REMARK UNBOUND:                -1.114
REMARK SMILES CCCCCCCCCCCCCC(=O)[O-]
REMARK SMILES IDX 8 1 9 2 10 3 11 4 12 5 13 6 14 7 15 8 16 9 7 10 6 11 5 12
REMARK SMILES IDX 4 13 3 14 2 15 1 16
REMARK H PARENT
REMARK Flexibility Score: inf
ROOT
ATOM      1  C   UNL     1      14.794  23.860  33.295  1.00  0.00     0.000 C 
ENDROOT
BRANCH   1   2
ATOM      2  C   UNL     1      13.794  25.002  33.019  1.00  0.00     0.000 C 
BRANCH   2   3
ATOM      3  C   UNL     1      13.045  25.527  34.258  1.00  0.00     0.000 C 
BRANCH   3   4
ATOM      4  C   UNL     1      12.259  26.833  34.035  1.00  0.00     0.000 C 
BRANCH   4   5
ATOM      5  C   UNL     1      11.930  27.590  35.339  1.00  0.00     0.006 C 
BRANCH   5   6
ATOM      6  C   UNL     1      13.117  28.414  35.856  1.00  0.00     0.053 C 
BRANCH   6   7
ATOM      7  C   UNL     1      12.671  29.790  36.239  1.00  0.00     0.041 C 
ATOM      8  O   UNL     1      11.530  30.203  35.902  1.00  0.00    -0.550 OA
ATOM      9  O   UNL     1      13.536  30.635  36.923  1.00  0.00    -0.550 OA
ENDBRANCH   6   7
ENDBRANCH   5   6
ENDBRANCH   4   5
ENDBRANCH   3   4
ENDBRANCH   2   3
ENDBRANCH   1   2
BRANCH   1  10
ATOM     10  C   UNL     1      16.266  24.297  33.422  1.00  0.00     0.000 C 
BRANCH  10  11
ATOM     11  C   UNL     1      16.487  25.629  34.167  1.00  0.00    -0.000 C 
BRANCH  11  12
ATOM     12  C   UNL     1      16.914  26.813  33.275  1.00  0.00    -0.000 C 
BRANCH  12  13
ATOM     13  C   UNL     1      15.932  27.997  33.252  1.00  0.00    -0.000 C 
BRANCH  13  14
ATOM     14  C   UNL     1      16.639  29.359  33.189  1.00  0.00    -0.000 C 
BRANCH  14  15
ATOM     15  C   UNL     1      16.733  29.862  31.744  1.00  0.00    -0.003 C 
ATOM     16  C   UNL     1      16.432  31.356  31.659  1.00  0.00     0.004 C 
ENDBRANCH  14  15
ENDBRANCH  13  14
ENDBRANCH  12  13
ENDBRANCH  11  12
ENDBRANCH  10  11
ENDBRANCH   1  10
TORSDOF 12
ENDMDL
MODEL 7
REMARK VINA RESULT:    -3.929      3.562      7.007
REMARK INTER + INTRA:          -7.800
REMARK INTER:                  -6.992
REMARK INTRA:                  -0.808
REMARK UNBOUND:                -1.114
REMARK SMILES CCCCCCCCCCCCCC(=O)[O-]
REMARK SMILES IDX 8 1 9 2 10 3 11 4 12 5 13 6 14 7 15 8 16 9 7 10 6 11 5 12
REMARK SMILES IDX 4 13 3 14 2 15 1 16
REMARK H PARENT
REMARK Flexibility Score: inf
ROOT
ATOM      1  C   UNL     1      13.345  25.670  33.673  1.00  0.00     0.000 C 
ENDROOT
BRANCH   1   2
ATOM      2  C   UNL     1      12.505  26.390  34.748  1.00  0.00     0.000 C 
BRANCH   2   3
ATOM      3  C   UNL     1      11.551  27.473  34.212  1.00  0.00     0.000 C 
BRANCH   3   4
ATOM      4  C   UNL     1      11.185  28.573  35.225  1.00  0.00     0.000 C 
BRANCH   4   5
ATOM      5  C   UNL     1      12.164  28.674  36.414  1.00  0.00     0.006 C 
BRANCH   5   6
ATOM      6  C   UNL     1      13.182  29.810  36.242  1.00  0.00     0.053 C 
BRANCH   6   7
ATOM      7  C   UNL     1      14.525  29.260  35.882  1.00  0.00     0.041 C 
ATOM      8  O   UNL     1      14.964  28.231  36.460  1.00  0.00    -0.550 OA
ATOM      9  O   UNL     1      15.315  29.912  34.943  1.00  0.00    -0.550 OA
ENDBRANCH   6   7
ENDBRANCH   5   6
ENDBRANCH   4   5
ENDBRANCH   3   4
ENDBRANCH   2   3
ENDBRANCH   1   2
BRANCH   1  10
ATOM     10  C   UNL     1      14.778  26.209  33.495  1.00  0.00     0.000 C 
BRANCH  10  11
ATOM     11  C   UNL     1      15.860  25.127  33.302  1.00  0.00    -0.000 C 
BRANCH  11  12
ATOM     12  C   UNL     1      15.323  23.710  33.014  1.00  0.00    -0.000 C 
BRANCH  12  13
ATOM     13  C   UNL     1      15.612  22.671  34.111  1.00  0.00    -0.000 C 
BRANCH  13  14
ATOM     14  C   UNL     1      16.322  21.419  33.576  1.00  0.00    -0.000 C 
BRANCH  14  15
ATOM     15  C   UNL     1      16.401  20.330  34.652  1.00  0.00    -0.003 C 
ATOM     16  C   UNL     1      15.281  19.307  34.486  1.00  0.00     0.004 C 
ENDBRANCH  14  15
ENDBRANCH  13  14
ENDBRANCH  12  13
ENDBRANCH  11  12
ENDBRANCH  10  11
ENDBRANCH   1  10
TORSDOF 12
ENDMDL
MODEL 8
REMARK VINA RESULT:    -3.900      3.797      6.686
REMARK INTER + INTRA:          -7.749
REMARK INTER:                  -6.317
REMARK INTRA:                  -1.432
REMARK UNBOUND:                -1.114
REMARK SMILES CCCCCCCCCCCCCC(=O)[O-]
REMARK SMILES IDX 8 1 9 2 10 3 11 4 12 5 13 6 14 7 15 8 16 9 7 10 6 11 5 12
REMARK SMILES IDX 4 13 3 14 2 15 1 16
REMARK H PARENT
REMARK Flexibility Score: inf
ROOT
ATOM      1  C   UNL     1      14.799  26.288  33.388  1.00  0.00     0.000 C 
ENDROOT
BRANCH   1   2
ATOM      2  C   UNL     1      15.342  27.647  33.876  1.00  0.00     0.000 C 
BRANCH   2   3
ATOM      3  C   UNL     1      15.156  27.920  35.380  1.00  0.00     0.000 C 
BRANCH   3   4
ATOM      4  C   UNL     1      14.180  29.064  35.715  1.00  0.00     0.000 C 
BRANCH   4   5
ATOM      5  C   UNL     1      13.036  28.646  36.664  1.00  0.00     0.006 C 
BRANCH   5   6
ATOM      6  C   UNL     1      12.210  27.478  36.110  1.00  0.00     0.053 C 
BRANCH   6   7
ATOM      7  C   UNL     1      11.428  27.913  34.911  1.00  0.00     0.041 C 
ATOM      8  O   UNL     1      11.457  27.229  33.854  1.00  0.00    -0.550 OA
ATOM      9  O   UNL     1      10.708  29.100  34.944  1.00  0.00    -0.550 OA
ENDBRANCH   6   7
ENDBRANCH   5   6
ENDBRANCH   4   5
ENDBRANCH   3   4
ENDBRANCH   2   3
ENDBRANCH   1   2
BRANCH   1  10
ATOM     10  C   UNL     1      15.849  25.165  33.284  1.00  0.00     0.000 C 
BRANCH  10  11
ATOM     11  C   UNL     1      15.281  23.773  32.941  1.00  0.00    -0.000 C 
BRANCH  11  12
ATOM     12  C   UNL     1      16.100  22.582  33.478  1.00  0.00    -0.000 C 
BRANCH  12  13
ATOM     13  C   UNL     1      16.452  22.658  34.975  1.00  0.00    -0.000 C 
BRANCH  13  14
ATOM     14  C   UNL     1      15.295  22.221  35.884  1.00  0.00    -0.000 C 
BRANCH  14  15
ATOM     15  C   UNL     1      15.065  23.239  37.006  1.00  0.00    -0.003 C 
ATOM     16  C   UNL     1      14.212  24.410  36.524  1.00  0.00     0.004 C 
ENDBRANCH  14  15
ENDBRANCH  13  14
ENDBRANCH  12  13
ENDBRANCH  11  12
ENDBRANCH  10  11
ENDBRANCH   1  10
TORSDOF 12
ENDMDL
