MODEL 1
REMARK VINA RESULT:    -6.584      0.000      0.000
REMARK INTER + INTRA:          -8.259
REMARK INTER:                  -7.932
REMARK INTRA:                  -0.327
REMARK UNBOUND:                -0.327
REMARK SMILES O=c1c(O)c(-c2ccc(O)c(O)c2)oc2cc(O)cc(O)c12
REMARK SMILES IDX 5 1 3 2 2 3 1 4 22 5 20 6 19 7 17 8 16 9 15 10 14 11 6 12
REMARK SMILES IDX 7 13 8 14 9 15 13 16 11 17 10 18 12 20 4 22 21 24 18 26
REMARK H PARENT 10 19 12 21 4 23 21 25 18 27
REMARK Flexibility Score: inf
ROOT
ATOM      1  C   UNL     1       9.243  15.602  51.075  1.00  0.00     0.180 A 
ATOM      2  C   UNL     1      10.259  16.573  51.118  1.00  0.00     0.208 A 
ATOM      3  C   UNL     1      10.764  17.083  49.911  1.00  0.00     0.238 A 
ATOM      4  O   UNL     1      11.634  17.991  49.956  1.00  0.00    -0.285 OA
ATOM      5  C   UNL     1      10.259  16.604  48.678  1.00  0.00     0.111 A 
ATOM      6  C   UNL     1      10.727  17.021  47.395  1.00  0.00     0.134 A 
ATOM      7  C   UNL     1      10.066  16.577  46.243  1.00  0.00     0.093 A 
ATOM      8  C   UNL     1       8.997  15.682  46.324  1.00  0.00     0.123 A 
ATOM      9  C   UNL     1       8.573  15.224  47.568  1.00  0.00     0.094 A 
ATOM     10  C   UNL     1       9.188  15.675  48.739  1.00  0.00     0.146 A 
ATOM     11  O   UNL     1       8.745  15.221  49.905  1.00  0.00    -0.452 OA
ENDROOT
BRANCH   1  12
ATOM     12  C   UNL     1       8.678  14.999  52.305  1.00  0.00     0.025 A 
ATOM     13  C   UNL     1       9.198  13.809  52.843  1.00  0.00     0.016 A 
ATOM     14  C   UNL     1       8.632  13.246  53.990  1.00  0.00     0.051 A 
ATOM     15  C   UNL     1       7.532  13.855  54.607  1.00  0.00     0.157 A 
ATOM     16  C   UNL     1       7.561  15.594  52.915  1.00  0.00     0.062 A 
ATOM     17  C   UNL     1       6.993  15.033  54.065  1.00  0.00     0.158 A 
BRANCH  15  18
ATOM     18  O   UNL     1       6.971  13.292  55.752  1.00  0.00    -0.504 OA
ATOM     19  H   UNL     1       6.962  13.786  56.637  1.00  0.00     0.293 HD
ENDBRANCH  15  18
BRANCH  17  20
ATOM     20  O   UNL     1       5.893  15.659  54.651  1.00  0.00    -0.504 OA
ATOM     21  H   UNL     1       5.847  15.846  55.646  1.00  0.00     0.293 HD
ENDBRANCH  17  20
ENDBRANCH   1  12
BRANCH   2  22
ATOM     22  O   UNL     1      10.726  17.047  52.347  1.00  0.00    -0.502 OA
ATOM     23  H   UNL     1      11.602  17.547  52.438  1.00  0.00     0.293 HD
ENDBRANCH   2  22
BRANCH   6  24
ATOM     24  O   UNL     1      11.843  17.839  47.199  1.00  0.00    -0.507 OA
ATOM     25  H   UNL     1      12.765  17.506  46.962  1.00  0.00     0.293 HD
ENDBRANCH   6  24
BRANCH   8  26
ATOM     26  O   UNL     1       8.355  15.234  45.172  1.00  0.00    -0.508 OA
ATOM     27  H   UNL     1       7.900  14.329  45.137  1.00  0.00     0.293 HD
ENDBRANCH   8  26
TORSDOF 6
ENDMDL
MODEL 2
REMARK VINA RESULT:    -6.537      2.254      7.343
REMARK INTER + INTRA:          -8.202
REMARK INTER:                  -7.932
REMARK INTRA:                  -0.271
REMARK UNBOUND:                -0.327
REMARK SMILES O=c1c(O)c(-c2ccc(O)c(O)c2)oc2cc(O)cc(O)c12
REMARK SMILES IDX 5 1 3 2 2 3 1 4 22 5 20 6 19 7 17 8 16 9 15 10 14 11 6 12
REMARK SMILES IDX 7 13 8 14 9 15 13 16 11 17 10 18 12 20 4 22 21 24 18 26
REMARK H PARENT 10 19 12 21 4 23 21 25 18 27
REMARK Flexibility Score: inf
ROOT
ATOM      1  C   UNL     1       9.792  14.310  51.694  1.00  0.00     0.180 A 
ATOM      2  C   UNL     1       8.752  15.165  52.099  1.00  0.00     0.208 A 
ATOM      3  C   UNL     1       7.966  14.804  53.204  1.00  0.00     0.238 A 
ATOM      4  O   UNL     1       7.072  15.598  53.595  1.00  0.00    -0.285 OA
ATOM      5  C   UNL     1       8.217  13.585  53.880  1.00  0.00     0.111 A 
ATOM      6  C   UNL     1       7.456  13.101  54.987  1.00  0.00     0.134 A 
ATOM      7  C   UNL     1       7.876  11.947  55.660  1.00  0.00     0.093 A 
ATOM      8  C   UNL     1       8.991  11.224  55.227  1.00  0.00     0.123 A 
ATOM      9  C   UNL     1       9.703  11.657  54.112  1.00  0.00     0.094 A 
ATOM     10  C   UNL     1       9.331  12.824  53.440  1.00  0.00     0.146 A 
ATOM     11  O   UNL     1      10.046  13.207  52.389  1.00  0.00    -0.452 OA
ENDROOT
BRANCH   1  12
ATOM     12  C   UNL     1      10.649  14.610  50.523  1.00  0.00     0.025 A 
ATOM     13  C   UNL     1      10.165  14.481  49.210  1.00  0.00     0.016 A 
ATOM     14  C   UNL     1      10.999  14.747  48.121  1.00  0.00     0.051 A 
ATOM     15  C   UNL     1      12.330  15.131  48.327  1.00  0.00     0.157 A 
ATOM     16  C   UNL     1      11.990  14.976  50.724  1.00  0.00     0.062 A 
ATOM     17  C   UNL     1      12.828  15.243  49.635  1.00  0.00     0.158 A 
BRANCH  15  18
ATOM     18  O   UNL     1      13.159  15.398  47.238  1.00  0.00    -0.504 OA
ATOM     19  H   UNL     1      13.032  16.224  46.664  1.00  0.00     0.293 HD
ENDBRANCH  15  18
BRANCH  17  20
ATOM     20  O   UNL     1      14.150  15.617  49.874  1.00  0.00    -0.504 OA
ATOM     21  H   UNL     1      14.626  16.307  49.305  1.00  0.00     0.293 HD
ENDBRANCH  17  20
ENDBRANCH   1  12
BRANCH   2  22
ATOM     22  O   UNL     1       8.536  16.373  51.430  1.00  0.00    -0.502 OA
ATOM     23  H   UNL     1       7.726  16.955  51.608  1.00  0.00     0.293 HD
ENDBRANCH   2  22
BRANCH   6  24
ATOM     24  O   UNL     1       6.276  13.695  55.442  1.00  0.00    -0.507 OA
ATOM     25  H   UNL     1       5.592  13.240  56.028  1.00  0.00     0.293 HD
ENDBRANCH   6  24
BRANCH   8  26
ATOM     26  O   UNL     1       9.392  10.069  55.893  1.00  0.00    -0.508 OA
ATOM     27  H   UNL     1       9.492   9.185  55.407  1.00  0.00     0.293 HD
ENDBRANCH   8  26
TORSDOF 6
ENDMDL
MODEL 3
REMARK VINA RESULT:    -6.522      2.103      2.488
REMARK INTER + INTRA:          -8.184
REMARK INTER:                  -7.920
REMARK INTRA:                  -0.264
REMARK UNBOUND:                -0.327
REMARK SMILES O=c1c(O)c(-c2ccc(O)c(O)c2)oc2cc(O)cc(O)c12
REMARK SMILES IDX 5 1 3 2 2 3 1 4 22 5 20 6 19 7 17 8 16 9 15 10 14 11 6 12
REMARK SMILES IDX 7 13 8 14 9 15 13 16 11 17 10 18 12 20 4 22 21 24 18 26
REMARK H PARENT 10 19 12 21 4 23 21 25 18 27
REMARK Flexibility Score: inf
ROOT
ATOM      1  C   UNL     1       9.819  15.035  51.206  1.00  0.00     0.180 A 
ATOM      2  C   UNL     1      10.159  16.386  51.013  1.00  0.00     0.208 A 
ATOM      3  C   UNL     1      11.046  16.723  49.979  1.00  0.00     0.238 A 
ATOM      4  O   UNL     1      11.304  17.938  49.777  1.00  0.00    -0.285 OA
ATOM      5  C   UNL     1      11.595  15.706  49.161  1.00  0.00     0.111 A 
ATOM      6  C   UNL     1      12.535  15.931  48.110  1.00  0.00     0.134 A 
ATOM      7  C   UNL     1      12.911  14.866  47.282  1.00  0.00     0.093 A 
ATOM      8  C   UNL     1      12.430  13.573  47.506  1.00  0.00     0.123 A 
ATOM      9  C   UNL     1      11.560  13.334  48.566  1.00  0.00     0.094 A 
ATOM     10  C   UNL     1      11.138  14.382  49.389  1.00  0.00     0.146 A 
ATOM     11  O   UNL     1      10.298  14.112  50.381  1.00  0.00    -0.452 OA
ENDROOT
BRANCH   1  12
ATOM     12  C   UNL     1       8.910  14.599  52.291  1.00  0.00     0.025 A 
ATOM     13  C   UNL     1       7.521  14.800  52.207  1.00  0.00     0.016 A 
ATOM     14  C   UNL     1       6.686  14.402  53.254  1.00  0.00     0.051 A 
ATOM     15  C   UNL     1       7.225  13.811  54.403  1.00  0.00     0.157 A 
ATOM     16  C   UNL     1       9.448  14.024  53.454  1.00  0.00     0.062 A 
ATOM     17  C   UNL     1       8.613  13.624  54.504  1.00  0.00     0.158 A 
BRANCH  15  18
ATOM     18  O   UNL     1       6.388  13.413  55.445  1.00  0.00    -0.504 OA
ATOM     19  H   UNL     1       6.724  13.345  56.399  1.00  0.00     0.293 HD
ENDBRANCH  15  18
BRANCH  17  20
ATOM     20  O   UNL     1       9.183  13.044  55.638  1.00  0.00    -0.504 OA
ATOM     21  H   UNL     1       8.626  12.556  56.330  1.00  0.00     0.293 HD
ENDBRANCH  17  20
ENDBRANCH   1  12
BRANCH   2  22
ATOM     22  O   UNL     1       9.589  17.375  51.818  1.00  0.00    -0.502 OA
ATOM     23  H   UNL     1       9.494  18.337  51.513  1.00  0.00     0.293 HD
ENDBRANCH   2  22
BRANCH   6  24
ATOM     24  O   UNL     1      13.145  17.162  47.859  1.00  0.00    -0.507 OA
ATOM     25  H   UNL     1      13.157  17.626  46.963  1.00  0.00     0.293 HD
ENDBRANCH   6  24
BRANCH   8  26
ATOM     26  O   UNL     1      12.821  12.517  46.687  1.00  0.00    -0.508 OA
ATOM     27  H   UNL     1      13.491  12.648  45.937  1.00  0.00     0.293 HD
ENDBRANCH   8  26
TORSDOF 6
ENDMDL
MODEL 4
REMARK VINA RESULT:    -6.518      2.055      7.022
REMARK INTER + INTRA:          -8.179
REMARK INTER:                  -7.868
REMARK INTRA:                  -0.311
REMARK UNBOUND:                -0.327
REMARK SMILES O=c1c(O)c(-c2ccc(O)c(O)c2)oc2cc(O)cc(O)c12
REMARK SMILES IDX 5 1 3 2 2 3 1 4 22 5 20 6 19 7 17 8 16 9 15 10 14 11 6 12
REMARK SMILES IDX 7 13 8 14 9 15 13 16 11 17 10 18 12 20 4 22 21 24 18 26
REMARK H PARENT 10 19 12 21 4 23 21 25 18 27
REMARK Flexibility Score: inf
ROOT
ATOM      1  C   UNL     1      10.098  14.849  51.313  1.00  0.00     0.180 A 
ATOM      2  C   UNL     1       9.463  16.018  51.766  1.00  0.00     0.208 A 
ATOM      3  C   UNL     1       8.688  15.963  52.935  1.00  0.00     0.238 A 
ATOM      4  O   UNL     1       8.167  17.024  53.366  1.00  0.00    -0.285 OA
ATOM      5  C   UNL     1       8.543  14.735  53.627  1.00  0.00     0.111 A 
ATOM      6  C   UNL     1       7.748  14.556  54.799  1.00  0.00     0.134 A 
ATOM      7  C   UNL     1       7.782  13.329  55.474  1.00  0.00     0.093 A 
ATOM      8  C   UNL     1       8.532  12.257  54.983  1.00  0.00     0.123 A 
ATOM      9  C   UNL     1       9.262  12.405  53.807  1.00  0.00     0.094 A 
ATOM     10  C   UNL     1       9.277  13.628  53.130  1.00  0.00     0.146 A 
ATOM     11  O   UNL     1       9.997  13.730  52.019  1.00  0.00    -0.452 OA
ENDROOT
BRANCH   1  12
ATOM     12  C   UNL     1      10.911  14.823  50.075  1.00  0.00     0.025 A 
ATOM     13  C   UNL     1      12.260  15.220  50.078  1.00  0.00     0.016 A 
ATOM     14  C   UNL     1      13.000  15.211  48.893  1.00  0.00     0.051 A 
ATOM     15  C   UNL     1      12.403  14.819  47.688  1.00  0.00     0.157 A 
ATOM     16  C   UNL     1      10.311  14.451  48.861  1.00  0.00     0.062 A 
ATOM     17  C   UNL     1      11.051  14.440  47.673  1.00  0.00     0.158 A 
BRANCH  15  18
ATOM     18  O   UNL     1      13.146  14.809  46.508  1.00  0.00    -0.504 OA
ATOM     19  H   UNL     1      13.026  15.523  45.799  1.00  0.00     0.293 HD
ENDBRANCH  15  18
BRANCH  17  20
ATOM     20  O   UNL     1      10.424  14.051  46.489  1.00  0.00    -0.504 OA
ATOM     21  H   UNL     1       9.943  14.715  45.892  1.00  0.00     0.293 HD
ENDBRANCH  17  20
ENDBRANCH   1  12
BRANCH   2  22
ATOM     22  O   UNL     1       9.637  17.223  51.080  1.00  0.00    -0.502 OA
ATOM     23  H   UNL     1      10.299  17.929  51.380  1.00  0.00     0.293 HD
ENDBRANCH   2  22
BRANCH   6  24
ATOM     24  O   UNL     1       6.894  15.531  55.320  1.00  0.00    -0.507 OA
ATOM     25  H   UNL     1       7.112  16.514  55.380  1.00  0.00     0.293 HD
ENDBRANCH   6  24
BRANCH   8  26
ATOM     26  O   UNL     1       8.548  11.035  55.652  1.00  0.00    -0.508 OA
ATOM     27  H   UNL     1       9.037  10.920  56.533  1.00  0.00     0.293 HD
ENDBRANCH   8  26
TORSDOF 6
ENDMDL
MODEL 5
REMARK VINA RESULT:    -6.240      2.487      7.597
REMARK INTER + INTRA:          -7.844
REMARK INTER:                  -7.521
REMARK INTRA:                  -0.323
REMARK UNBOUND:                -0.327
REMARK SMILES O=c1c(O)c(-c2ccc(O)c(O)c2)oc2cc(O)cc(O)c12
REMARK SMILES IDX 5 1 3 2 2 3 1 4 22 5 20 6 19 7 17 8 16 9 15 10 14 11 6 12
REMARK SMILES IDX 7 13 8 14 9 15 13 16 11 17 10 18 12 20 4 22 21 24 18 26
REMARK H PARENT 10 19 12 21 4 23 21 25 18 27
REMARK Flexibility Score: inf
ROOT
ATOM      1  C   UNL     1       9.001  13.771  53.157  1.00  0.00     0.180 A 
ATOM      2  C   UNL     1       7.814  13.982  53.881  1.00  0.00     0.208 A 
ATOM      3  C   UNL     1       7.299  12.937  54.663  1.00  0.00     0.238 A 
ATOM      4  O   UNL     1       6.267  13.149  55.350  1.00  0.00    -0.285 OA
ATOM      5  C   UNL     1       7.966  11.688  54.699  1.00  0.00     0.111 A 
ATOM      6  C   UNL     1       7.511  10.547  55.425  1.00  0.00     0.134 A 
ATOM      7  C   UNL     1       8.319   9.406  55.495  1.00  0.00     0.093 A 
ATOM      8  C   UNL     1       9.535   9.341  54.811  1.00  0.00     0.123 A 
ATOM      9  C   UNL     1       9.959  10.428  54.050  1.00  0.00     0.094 A 
ATOM     10  C   UNL     1       9.192  11.594  53.991  1.00  0.00     0.146 A 
ATOM     11  O   UNL     1       9.639  12.611  53.264  1.00  0.00    -0.452 OA
ENDROOT
BRANCH   1  12
ATOM     12  C   UNL     1       9.593  14.817  52.291  1.00  0.00     0.025 A 
ATOM     13  C   UNL     1      10.495  15.766  52.802  1.00  0.00     0.016 A 
ATOM     14  C   UNL     1      11.021  16.759  51.970  1.00  0.00     0.051 A 
ATOM     15  C   UNL     1      10.644  16.826  50.624  1.00  0.00     0.157 A 
ATOM     16  C   UNL     1       9.201  14.902  50.944  1.00  0.00     0.062 A 
ATOM     17  C   UNL     1       9.727  15.894  50.110  1.00  0.00     0.158 A 
BRANCH  15  18
ATOM     18  O   UNL     1      11.173  17.816  49.797  1.00  0.00    -0.504 OA
ATOM     19  H   UNL     1      11.269  18.775  50.112  1.00  0.00     0.293 HD
ENDBRANCH  15  18
BRANCH  17  20
ATOM     20  O   UNL     1       9.325  15.939  48.774  1.00  0.00    -0.504 OA
ATOM     21  H   UNL     1       9.784  16.534  48.094  1.00  0.00     0.293 HD
ENDBRANCH  17  20
ENDBRANCH   1  12
BRANCH   2  22
ATOM     22  O   UNL     1       7.184  15.229  53.847  1.00  0.00    -0.502 OA
ATOM     23  H   UNL     1       6.194  15.333  53.658  1.00  0.00     0.293 HD
ENDBRANCH   2  22
BRANCH   6  24
ATOM     24  O   UNL     1       6.271  10.474  56.067  1.00  0.00    -0.507 OA
ATOM     25  H   UNL     1       5.514   9.868  55.788  1.00  0.00     0.293 HD
ENDBRANCH   6  24
BRANCH   8  26
ATOM     26  O   UNL     1      10.326   8.196  54.872  1.00  0.00    -0.508 OA
ATOM     27  H   UNL     1      10.192   7.497  55.595  1.00  0.00     0.293 HD
ENDBRANCH   8  26
TORSDOF 6
ENDMDL
MODEL 6
REMARK VINA RESULT:    -6.008      1.752      7.036
REMARK INTER + INTRA:          -7.565
REMARK INTER:                  -7.315
REMARK INTRA:                  -0.250
REMARK UNBOUND:                -0.327
REMARK SMILES O=c1c(O)c(-c2ccc(O)c(O)c2)oc2cc(O)cc(O)c12
REMARK SMILES IDX 5 1 3 2 2 3 1 4 22 5 20 6 19 7 17 8 16 9 15 10 14 11 6 12
REMARK SMILES IDX 7 13 8 14 9 15 13 16 11 17 10 18 12 20 4 22 21 24 18 26
REMARK H PARENT 10 19 12 21 4 23 21 25 18 27
REMARK Flexibility Score: inf
ROOT
ATOM      1  C   UNL     1       9.959  15.545  49.834  1.00  0.00     0.180 A 
ATOM      2  C   UNL     1      10.669  14.352  50.056  1.00  0.00     0.208 A 
ATOM      3  C   UNL     1      10.442  13.635  51.242  1.00  0.00     0.238 A 
ATOM      4  O   UNL     1      11.041  12.541  51.410  1.00  0.00    -0.285 OA
ATOM      5  C   UNL     1       9.521  14.128  52.198  1.00  0.00     0.111 A 
ATOM      6  C   UNL     1       9.244  13.505  53.451  1.00  0.00     0.134 A 
ATOM      7  C   UNL     1       8.220  14.009  54.261  1.00  0.00     0.093 A 
ATOM      8  C   UNL     1       7.506  15.152  53.893  1.00  0.00     0.123 A 
ATOM      9  C   UNL     1       7.811  15.802  52.700  1.00  0.00     0.094 A 
ATOM     10  C   UNL     1       8.803  15.302  51.853  1.00  0.00     0.146 A 
ATOM     11  O   UNL     1       9.054  15.946  50.719  1.00  0.00    -0.452 OA
ENDROOT
BRANCH   1  12
ATOM     12  C   UNL     1      10.162  16.368  48.619  1.00  0.00     0.025 A 
ATOM     13  C   UNL     1       9.221  16.376  47.575  1.00  0.00     0.016 A 
ATOM     14  C   UNL     1       9.446  17.142  46.428  1.00  0.00     0.051 A 
ATOM     15  C   UNL     1      10.617  17.899  46.302  1.00  0.00     0.157 A 
ATOM     16  C   UNL     1      11.344  17.113  48.479  1.00  0.00     0.062 A 
ATOM     17  C   UNL     1      11.572  17.882  47.332  1.00  0.00     0.158 A 
BRANCH  15  18
ATOM     18  O   UNL     1      10.837  18.664  45.157  1.00  0.00    -0.504 OA
ATOM     19  H   UNL     1      10.078  18.922  44.537  1.00  0.00     0.293 HD
ENDBRANCH  15  18
BRANCH  17  20
ATOM     20  O   UNL     1      12.752  18.619  47.234  1.00  0.00    -0.504 OA
ATOM     21  H   UNL     1      13.100  18.962  46.346  1.00  0.00     0.293 HD
ENDBRANCH  17  20
ENDBRANCH   1  12
BRANCH   2  22
ATOM     22  O   UNL     1      11.557  13.873  49.089  1.00  0.00    -0.502 OA
ATOM     23  H   UNL     1      11.592  12.897  48.819  1.00  0.00     0.293 HD
ENDBRANCH   2  22
BRANCH   6  24
ATOM     24  O   UNL     1       9.959  12.415  53.956  1.00  0.00    -0.507 OA
ATOM     25  H   UNL     1      10.926  12.443  54.241  1.00  0.00     0.293 HD
ENDBRANCH   6  24
BRANCH   8  26
ATOM     26  O   UNL     1       6.499  15.657  54.712  1.00  0.00    -0.508 OA
ATOM     27  H   UNL     1       6.266  16.644  54.719  1.00  0.00     0.293 HD
ENDBRANCH   8  26
TORSDOF 6
ENDMDL
MODEL 7
REMARK VINA RESULT:    -5.945      4.173      7.708
REMARK INTER + INTRA:          -7.489
REMARK INTER:                  -7.189
REMARK INTRA:                  -0.300
REMARK UNBOUND:                -0.327
REMARK SMILES O=c1c(O)c(-c2ccc(O)c(O)c2)oc2cc(O)cc(O)c12
REMARK SMILES IDX 5 1 3 2 2 3 1 4 22 5 20 6 19 7 17 8 16 9 15 10 14 11 6 12
REMARK SMILES IDX 7 13 8 14 9 15 13 16 11 17 10 18 12 20 4 22 21 24 18 26
REMARK H PARENT 10 19 12 21 4 23 21 25 18 27
REMARK Flexibility Score: inf
ROOT
ATOM      1  C   UNL     1       9.260  18.629  45.612  1.00  0.00     0.180 A 
ATOM      2  C   UNL     1      10.569  19.086  45.382  1.00  0.00     0.208 A 
ATOM      3  C   UNL     1      11.637  18.457  46.042  1.00  0.00     0.238 A 
ATOM      4  O   UNL     1      12.810  18.835  45.790  1.00  0.00    -0.285 OA
ATOM      5  C   UNL     1      11.381  17.390  46.937  1.00  0.00     0.111 A 
ATOM      6  C   UNL     1      12.383  16.707  47.690  1.00  0.00     0.134 A 
ATOM      7  C   UNL     1      12.031  15.581  48.445  1.00  0.00     0.093 A 
ATOM      8  C   UNL     1      10.703  15.153  48.525  1.00  0.00     0.123 A 
ATOM      9  C   UNL     1       9.711  15.850  47.841  1.00  0.00     0.094 A 
ATOM     10  C   UNL     1      10.035  16.955  47.050  1.00  0.00     0.146 A 
ATOM     11  O   UNL     1       9.059  17.584  46.406  1.00  0.00    -0.452 OA
ENDROOT
BRANCH   1  12
ATOM     12  C   UNL     1       8.082  19.257  44.972  1.00  0.00     0.025 A 
ATOM     13  C   UNL     1       7.707  18.938  43.656  1.00  0.00     0.016 A 
ATOM     14  C   UNL     1       6.605  19.563  43.064  1.00  0.00     0.051 A 
ATOM     15  C   UNL     1       5.872  20.523  43.773  1.00  0.00     0.157 A 
ATOM     16  C   UNL     1       7.356  20.236  45.671  1.00  0.00     0.062 A 
ATOM     17  C   UNL     1       6.252  20.863  45.081  1.00  0.00     0.158 A 
BRANCH  15  18
ATOM     18  O   UNL     1       4.773  21.142  43.180  1.00  0.00    -0.504 OA
ATOM     19  H   UNL     1       4.827  22.087  42.818  1.00  0.00     0.293 HD
ENDBRANCH  15  18
BRANCH  17  20
ATOM     20  O   UNL     1       5.547  21.820  45.811  1.00  0.00    -0.504 OA
ATOM     21  H   UNL     1       6.017  22.525  46.368  1.00  0.00     0.293 HD
ENDBRANCH  17  20
ENDBRANCH   1  12
BRANCH   2  22
ATOM     22  O   UNL     1      10.801  20.127  44.478  1.00  0.00    -0.502 OA
ATOM     23  H   UNL     1      10.110  20.843  44.285  1.00  0.00     0.293 HD
ENDBRANCH   2  22
BRANCH   6  24
ATOM     24  O   UNL     1      13.720  17.107  47.753  1.00  0.00    -0.507 OA
ATOM     25  H   UNL     1      14.164  17.505  48.567  1.00  0.00     0.293 HD
ENDBRANCH   6  24
BRANCH   8  26
ATOM     26  O   UNL     1      10.359  14.041  49.290  1.00  0.00    -0.508 OA
ATOM     27  H   UNL     1       9.449  13.603  49.208  1.00  0.00     0.293 HD
ENDBRANCH   8  26
TORSDOF 6
ENDMDL
MODEL 8
REMARK VINA RESULT:    -5.942      3.063      4.478
REMARK INTER + INTRA:          -7.485
REMARK INTER:                  -7.170
REMARK INTRA:                  -0.315
REMARK UNBOUND:                -0.327
REMARK SMILES O=c1c(O)c(-c2ccc(O)c(O)c2)oc2cc(O)cc(O)c12
REMARK SMILES IDX 5 1 3 2 2 3 1 4 22 5 20 6 19 7 17 8 16 9 15 10 14 11 6 12
REMARK SMILES IDX 7 13 8 14 9 15 13 16 11 17 10 18 12 20 4 22 21 24 18 26
REMARK H PARENT 10 19 12 21 4 23 21 25 18 27
REMARK Flexibility Score: inf
ROOT
ATOM      1  C   UNL     1      11.466  15.195  48.981  1.00  0.00     0.180 A 
ATOM      2  C   UNL     1      11.817  13.882  48.620  1.00  0.00     0.208 A 
ATOM      3  C   UNL     1      12.577  13.675  47.458  1.00  0.00     0.238 A 
ATOM      4  O   UNL     1      12.933  12.503  47.170  1.00  0.00    -0.285 OA
ATOM      5  C   UNL     1      12.963  14.781  46.662  1.00  0.00     0.111 A 
ATOM      6  C   UNL     1      13.699  14.683  45.444  1.00  0.00     0.134 A 
ATOM      7  C   UNL     1      14.139  15.851  44.808  1.00  0.00     0.093 A 
ATOM      8  C   UNL     1      13.814  17.113  45.312  1.00  0.00     0.123 A 
ATOM      9  C   UNL     1      13.044  17.217  46.468  1.00  0.00     0.094 A 
ATOM     10  C   UNL     1      12.621  16.070  47.145  1.00  0.00     0.146 A 
ATOM     11  O   UNL     1      11.900  16.215  48.250  1.00  0.00    -0.452 OA
ENDROOT
BRANCH   1  12
ATOM     12  C   UNL     1      10.646  15.491  50.178  1.00  0.00     0.025 A 
ATOM     13  C   UNL     1       9.246  15.365  50.155  1.00  0.00     0.016 A 
ATOM     14  C   UNL     1       8.492  15.674  51.290  1.00  0.00     0.051 A 
ATOM     15  C   UNL     1       9.121  16.124  52.457  1.00  0.00     0.157 A 
ATOM     16  C   UNL     1      11.271  15.963  51.344  1.00  0.00     0.062 A 
ATOM     17  C   UNL     1      10.517  16.272  52.483  1.00  0.00     0.158 A 
BRANCH  15  18
ATOM     18  O   UNL     1       8.365  16.429  53.588  1.00  0.00    -0.504 OA
ATOM     19  H   UNL     1       7.531  15.904  53.827  1.00  0.00     0.293 HD
ENDBRANCH  15  18
BRANCH  17  20
ATOM     20  O   UNL     1      11.175  16.725  53.627  1.00  0.00    -0.504 OA
ATOM     21  H   UNL     1      11.769  17.546  53.616  1.00  0.00     0.293 HD
ENDBRANCH  17  20
ENDBRANCH   1  12
BRANCH   2  22
ATOM     22  O   UNL     1      11.443  12.807  49.432  1.00  0.00    -0.502 OA
ATOM     23  H   UNL     1      10.720  12.885  50.138  1.00  0.00     0.293 HD
ENDBRANCH   2  22
BRANCH   6  24
ATOM     24  O   UNL     1      13.998  13.476  44.806  1.00  0.00    -0.507 OA
ATOM     25  H   UNL     1      13.863  12.562  45.212  1.00  0.00     0.293 HD
ENDBRANCH   6  24
BRANCH   8  26
ATOM     26  O   UNL     1      14.241  18.270  44.665  1.00  0.00    -0.508 OA
ATOM     27  H   UNL     1      13.717  19.135  44.725  1.00  0.00     0.293 HD
ENDBRANCH   8  26
TORSDOF 6
ENDMDL
