MODEL 1
REMARK VINA RESULT:    -1.307      0.000      0.000
REMARK INTER + INTRA:          -3.464
REMARK INTER:                  -2.834
REMARK INTRA:                  -0.629
REMARK UNBOUND:                -0.629
REMARK SMILES CCCCCCCCCCCCCCCCCCCCCC(=O)[O-]
REMARK SMILES IDX 12 1 11 2 10 3 9 4 8 5 7 6 6 7 5 8 4 9 3 10 2 11 1 12 13 13
REMARK SMILES IDX 14 14 15 15 16 16 17 17 18 18 19 19 20 20 21 21 22 22 23 23
REMARK SMILES IDX 24 24
REMARK H PARENT
REMARK Flexibility Score: inf
ROOT
ATOM      1  C   UNL     1       0.837   5.063 -15.106  1.00  0.00     0.000 C 
ENDROOT
BRANCH   1   2
ATOM      2  C   UNL     1       0.434   3.705 -14.504  1.00  0.00     0.000 C 
BRANCH   2   3
ATOM      3  C   UNL     1       1.656   2.806 -14.219  1.00  0.00     0.000 C 
BRANCH   3   4
ATOM      4  C   UNL     1       1.462   1.339 -14.651  1.00  0.00    -0.000 C 
BRANCH   4   5
ATOM      5  C   UNL     1       2.753   0.602 -15.045  1.00  0.00    -0.000 C 
BRANCH   5   6
ATOM      6  C   UNL     1       3.033  -0.623 -14.156  1.00  0.00    -0.000 C 
BRANCH   6   7
ATOM      7  C   UNL     1       4.401  -1.263 -14.444  1.00  0.00    -0.000 C 
BRANCH   7   8
ATOM      8  C   UNL     1       4.443  -2.758 -14.090  1.00  0.00    -0.000 C 
BRANCH   8   9
ATOM      9  C   UNL     1       5.176  -2.987 -12.763  1.00  0.00    -0.000 C 
BRANCH   9  10
ATOM     10  C   UNL     1       6.550  -3.623 -12.998  1.00  0.00    -0.000 C 
BRANCH  10  11
ATOM     11  C   UNL     1       7.511  -3.295 -11.849  1.00  0.00    -0.003 C 
ATOM     12  C   UNL     1       7.809  -4.534 -11.010  1.00  0.00     0.004 C 
ENDBRANCH  10  11
ENDBRANCH   9  10
ENDBRANCH   8   9
ENDBRANCH   7   8
ENDBRANCH   6   7
ENDBRANCH   5   6
ENDBRANCH   4   5
ENDBRANCH   3   4
ENDBRANCH   2   3
ENDBRANCH   1   2
BRANCH   1  13
ATOM     13  C   UNL     1      -0.144   6.187 -14.733  1.00  0.00     0.000 C 
BRANCH  13  14
ATOM     14  C   UNL     1      -1.595   5.854 -15.125  1.00  0.00     0.000 C 
BRANCH  14  15
ATOM     15  C   UNL     1      -2.510   7.089 -15.117  1.00  0.00     0.000 C 
BRANCH  15  16
ATOM     16  C   UNL     1      -3.686   6.952 -14.135  1.00  0.00     0.000 C 
BRANCH  16  17
ATOM     17  C   UNL     1      -5.007   7.465 -14.733  1.00  0.00     0.000 C 
BRANCH  17  18
ATOM     18  C   UNL     1      -5.126   8.995 -14.677  1.00  0.00     0.000 C 
BRANCH  18  19
ATOM     19  C   UNL     1      -6.587   9.435 -14.816  1.00  0.00     0.000 C 
BRANCH  19  20
ATOM     20  C   UNL     1      -7.538   8.401 -14.201  1.00  0.00     0.006 C 
BRANCH  20  21
ATOM     21  C   UNL     1      -8.400   9.035 -13.104  1.00  0.00     0.053 C 
BRANCH  21  22
ATOM     22  C   UNL     1      -9.855   8.967 -13.456  1.00  0.00     0.041 C 
ATOM     23  O   UNL     1     -10.466  10.006 -13.821  1.00  0.00    -0.550 OA
ATOM     24  O   UNL     1     -10.551   7.771 -13.333  1.00  0.00    -0.550 OA
ENDBRANCH  21  22
ENDBRANCH  20  21
ENDBRANCH  19  20
ENDBRANCH  18  19
ENDBRANCH  17  18
ENDBRANCH  16  17
ENDBRANCH  15  16
ENDBRANCH  14  15
ENDBRANCH  13  14
ENDBRANCH   1  13
TORSDOF 20
ENDMDL
MODEL 2
REMARK VINA RESULT:    -1.269      2.330      4.360
REMARK INTER + INTRA:          -3.381
REMARK INTER:                  -2.829
REMARK INTRA:                  -0.552
REMARK UNBOUND:                -0.629
REMARK SMILES CCCCCCCCCCCCCCCCCCCCCC(=O)[O-]
REMARK SMILES IDX 12 1 11 2 10 3 9 4 8 5 7 6 6 7 5 8 4 9 3 10 2 11 1 12 13 13
REMARK SMILES IDX 14 14 15 15 16 16 17 17 18 18 19 19 20 20 21 21 22 22 23 23
REMARK SMILES IDX 24 24
REMARK H PARENT
REMARK Flexibility Score: inf
ROOT
ATOM      1  C   UNL     1       2.320   1.291 -14.762  1.00  0.00     0.000 C 
ENDROOT
BRANCH   1   2
ATOM      2  C   UNL     1       3.513   0.354 -15.026  1.00  0.00     0.000 C 
BRANCH   2   3
ATOM      3  C   UNL     1       3.623  -0.764 -13.968  1.00  0.00     0.000 C 
BRANCH   3   4
ATOM      4  C   UNL     1       3.983  -2.143 -14.556  1.00  0.00    -0.000 C 
BRANCH   4   5
ATOM      5  C   UNL     1       5.430  -2.599 -14.302  1.00  0.00    -0.000 C 
BRANCH   5   6
ATOM      6  C   UNL     1       5.667  -3.039 -12.846  1.00  0.00    -0.000 C 
BRANCH   6   7
ATOM      7  C   UNL     1       7.037  -2.590 -12.309  1.00  0.00    -0.000 C 
BRANCH   7   8
ATOM      8  C   UNL     1       8.019  -3.759 -12.137  1.00  0.00    -0.000 C 
BRANCH   8   9
ATOM      9  C   UNL     1       8.472  -3.885 -10.678  1.00  0.00    -0.000 C 
BRANCH   9  10
ATOM     10  C   UNL     1       8.840  -5.334 -10.340  1.00  0.00    -0.000 C 
BRANCH  10  11
ATOM     11  C   UNL     1       8.359  -5.710  -8.934  1.00  0.00    -0.003 C 
ATOM     12  C   UNL     1       8.487  -4.530  -7.975  1.00  0.00     0.004 C 
ENDBRANCH  10  11
ENDBRANCH   9  10
ENDBRANCH   8   9
ENDBRANCH   7   8
ENDBRANCH   6   7
ENDBRANCH   5   6
ENDBRANCH   4   5
ENDBRANCH   3   4
ENDBRANCH   2   3
ENDBRANCH   1   2
BRANCH   1  13
ATOM     13  C   UNL     1       2.713   2.776 -14.825  1.00  0.00     0.000 C 
BRANCH  13  14
ATOM     14  C   UNL     1       1.508   3.692 -15.107  1.00  0.00     0.000 C 
BRANCH  14  15
ATOM     15  C   UNL     1       0.694   4.008 -13.842  1.00  0.00     0.000 C 
BRANCH  15  16
ATOM     16  C   UNL     1       0.146   5.445 -13.830  1.00  0.00     0.000 C 
BRANCH  16  17
ATOM     17  C   UNL     1      -0.605   5.794 -15.125  1.00  0.00     0.000 C 
BRANCH  17  18
ATOM     18  C   UNL     1      -1.669   6.882 -14.915  1.00  0.00     0.000 C 
BRANCH  18  19
ATOM     19  C   UNL     1      -3.077   6.277 -14.919  1.00  0.00     0.000 C 
BRANCH  19  20
ATOM     20  C   UNL     1      -4.150   7.372 -14.936  1.00  0.00     0.006 C 
BRANCH  20  21
ATOM     21  C   UNL     1      -5.553   6.763 -15.041  1.00  0.00     0.053 C 
BRANCH  21  22
ATOM     22  C   UNL     1      -5.806   5.800 -13.922  1.00  0.00     0.041 C 
ATOM     23  O   UNL     1      -5.606   4.568 -14.089  1.00  0.00    -0.550 OA
ATOM     24  O   UNL     1      -6.314   6.253 -12.709  1.00  0.00    -0.550 OA
ENDBRANCH  21  22
ENDBRANCH  20  21
ENDBRANCH  19  20
ENDBRANCH  18  19
ENDBRANCH  17  18
ENDBRANCH  16  17
ENDBRANCH  15  16
ENDBRANCH  14  15
ENDBRANCH  13  14
ENDBRANCH   1  13
TORSDOF 20
ENDMDL
MODEL 3
REMARK VINA RESULT:    -1.133     12.651     14.339
REMARK INTER + INTRA:          -3.086
REMARK INTER:                  -1.939
REMARK INTRA:                  -1.148
REMARK UNBOUND:                -0.629
REMARK SMILES CCCCCCCCCCCCCCCCCCCCCC(=O)[O-]
REMARK SMILES IDX 12 1 11 2 10 3 9 4 8 5 7 6 6 7 5 8 4 9 3 10 2 11 1 12 13 13
REMARK SMILES IDX 14 14 15 15 16 16 17 17 18 18 19 19 20 20 21 21 22 22 23 23
REMARK SMILES IDX 24 24
REMARK H PARENT
REMARK Flexibility Score: inf
ROOT
ATOM      1  C   UNL     1     -10.208  -6.512 -10.125  1.00  0.00     0.000 C 
ENDROOT
BRANCH   1   2
ATOM      2  C   UNL     1      -9.490  -7.871 -10.033  1.00  0.00     0.000 C 
BRANCH   2   3
ATOM      3  C   UNL     1      -8.384  -7.876  -8.956  1.00  0.00     0.000 C 
BRANCH   3   4
ATOM      4  C   UNL     1      -7.090  -7.160  -9.392  1.00  0.00    -0.000 C 
BRANCH   4   5
ATOM      5  C   UNL     1      -7.299  -5.929 -10.289  1.00  0.00    -0.000 C 
BRANCH   5   6
ATOM      6  C   UNL     1      -7.988  -4.767  -9.552  1.00  0.00    -0.000 C 
BRANCH   6   7
ATOM      7  C   UNL     1      -7.046  -3.573  -9.320  1.00  0.00    -0.000 C 
BRANCH   7   8
ATOM      8  C   UNL     1      -5.605  -4.005  -9.010  1.00  0.00    -0.000 C 
BRANCH   8   9
ATOM      9  C   UNL     1      -5.210  -3.609  -7.582  1.00  0.00    -0.000 C 
BRANCH   9  10
ATOM     10  C   UNL     1      -4.292  -4.663  -6.954  1.00  0.00    -0.000 C 
BRANCH  10  11
ATOM     11  C   UNL     1      -4.579  -6.055  -7.530  1.00  0.00    -0.003 C 
ATOM     12  C   UNL     1      -4.543  -7.121  -6.439  1.00  0.00     0.004 C 
ENDBRANCH  10  11
ENDBRANCH   9  10
ENDBRANCH   8   9
ENDBRANCH   7   8
ENDBRANCH   6   7
ENDBRANCH   5   6
ENDBRANCH   4   5
ENDBRANCH   3   4
ENDBRANCH   2   3
ENDBRANCH   1   2
BRANCH   1  13
ATOM     13  C   UNL     1     -10.950  -6.327 -11.459  1.00  0.00     0.000 C 
BRANCH  13  14
ATOM     14  C   UNL     1     -10.947  -7.607 -12.316  1.00  0.00     0.000 C 
BRANCH  14  15
ATOM     15  C   UNL     1     -10.495  -7.352 -13.762  1.00  0.00     0.000 C 
BRANCH  15  16
ATOM     16  C   UNL     1      -9.217  -8.123 -14.132  1.00  0.00     0.000 C 
BRANCH  16  17
ATOM     17  C   UNL     1      -8.182  -8.116 -12.994  1.00  0.00     0.000 C 
BRANCH  17  18
ATOM     18  C   UNL     1      -7.050  -7.107 -13.233  1.00  0.00     0.000 C 
BRANCH  18  19
ATOM     19  C   UNL     1      -7.128  -6.523 -14.648  1.00  0.00     0.000 C 
BRANCH  19  20
ATOM     20  C   UNL     1      -7.578  -5.057 -14.618  1.00  0.00     0.006 C 
BRANCH  20  21
ATOM     21  C   UNL     1      -7.670  -4.542 -13.178  1.00  0.00     0.053 C 
BRANCH  21  22
ATOM     22  C   UNL     1      -6.649  -3.477 -12.920  1.00  0.00     0.041 C 
ATOM     23  O   UNL     1      -7.004  -2.352 -12.480  1.00  0.00    -0.550 OA
ATOM     24  O   UNL     1      -5.309  -3.705 -13.214  1.00  0.00    -0.550 OA
ENDBRANCH  21  22
ENDBRANCH  20  21
ENDBRANCH  19  20
ENDBRANCH  18  19
ENDBRANCH  17  18
ENDBRANCH  16  17
ENDBRANCH  15  16
ENDBRANCH  14  15
ENDBRANCH  13  14
ENDBRANCH   1  13
TORSDOF 20
ENDMDL
MODEL 4
REMARK VINA RESULT:    -1.130      1.720      3.195
REMARK INTER + INTRA:          -3.080
REMARK INTER:                  -2.152
REMARK INTRA:                  -0.927
REMARK UNBOUND:                -0.629
REMARK SMILES CCCCCCCCCCCCCCCCCCCCCC(=O)[O-]
REMARK SMILES IDX 12 1 11 2 10 3 9 4 8 5 7 6 6 7 5 8 4 9 3 10 2 11 1 12 13 13
REMARK SMILES IDX 14 14 15 15 16 16 17 17 18 18 19 19 20 20 21 21 22 22 23 23
REMARK SMILES IDX 24 24
REMARK H PARENT
REMARK Flexibility Score: inf
ROOT
ATOM      1  C   UNL     1      -2.303   6.225 -14.602  1.00  0.00     0.000 C 
ENDROOT
BRANCH   1   2
ATOM      2  C   UNL     1      -0.825   6.312 -15.026  1.00  0.00     0.000 C 
BRANCH   2   3
ATOM      3  C   UNL     1      -0.163   4.922 -15.125  1.00  0.00     0.000 C 
BRANCH   3   4
ATOM      4  C   UNL     1       0.838   4.629 -13.989  1.00  0.00    -0.000 C 
BRANCH   4   5
ATOM      5  C   UNL     1       1.796   3.456 -14.255  1.00  0.00    -0.000 C 
BRANCH   5   6
ATOM      6  C   UNL     1       1.057   2.157 -14.622  1.00  0.00    -0.000 C 
BRANCH   6   7
ATOM      7  C   UNL     1       2.009   1.056 -15.122  1.00  0.00    -0.000 C 
BRANCH   7   8
ATOM      8  C   UNL     1       2.994   0.587 -14.040  1.00  0.00    -0.000 C 
BRANCH   8   9
ATOM      9  C   UNL     1       4.352   0.228 -14.654  1.00  0.00    -0.000 C 
BRANCH   9  10
ATOM     10  C   UNL     1       5.234  -0.510 -13.641  1.00  0.00    -0.000 C 
BRANCH  10  11
ATOM     11  C   UNL     1       5.420  -1.978 -14.041  1.00  0.00    -0.003 C 
ATOM     12  C   UNL     1       4.560  -2.897 -13.178  1.00  0.00     0.004 C 
ENDBRANCH  10  11
ENDBRANCH   9  10
ENDBRANCH   8   9
ENDBRANCH   7   8
ENDBRANCH   6   7
ENDBRANCH   5   6
ENDBRANCH   4   5
ENDBRANCH   3   4
ENDBRANCH   2   3
ENDBRANCH   1   2
BRANCH   1  13
ATOM     13  C   UNL     1      -2.830   7.551 -14.027  1.00  0.00     0.000 C 
BRANCH  13  14
ATOM     14  C   UNL     1      -3.315   8.515 -15.124  1.00  0.00     0.000 C 
BRANCH  14  15
ATOM     15  C   UNL     1      -4.840   8.707 -15.115  1.00  0.00     0.000 C 
BRANCH  15  16
ATOM     16  C   UNL     1      -5.311   9.678 -14.020  1.00  0.00     0.000 C 
BRANCH  16  17
ATOM     17  C   UNL     1      -6.434  10.608 -14.508  1.00  0.00     0.000 C 
BRANCH  17  18
ATOM     18  C   UNL     1      -7.204  11.261 -13.351  1.00  0.00     0.000 C 
BRANCH  18  19
ATOM     19  C   UNL     1      -8.709  11.281 -13.640  1.00  0.00     0.000 C 
BRANCH  19  20
ATOM     20  C   UNL     1      -9.260   9.860 -13.805  1.00  0.00     0.006 C 
BRANCH  20  21
ATOM     21  C   UNL     1      -8.716   8.932 -12.712  1.00  0.00     0.053 C 
BRANCH  21  22
ATOM     22  C   UNL     1      -8.152   7.677 -13.304  1.00  0.00     0.041 C 
ATOM     23  O   UNL     1      -8.234   7.469 -14.543  1.00  0.00    -0.550 OA
ATOM     24  O   UNL     1      -7.580   6.710 -12.484  1.00  0.00    -0.550 OA
ENDBRANCH  21  22
ENDBRANCH  20  21
ENDBRANCH  19  20
ENDBRANCH  18  19
ENDBRANCH  17  18
ENDBRANCH  16  17
ENDBRANCH  15  16
ENDBRANCH  14  15
ENDBRANCH  13  14
ENDBRANCH   1  13
TORSDOF 20
ENDMDL
MODEL 5
REMARK VINA RESULT:    -0.854      1.821      2.222
REMARK INTER + INTRA:          -2.482
REMARK INTER:                  -2.207
REMARK INTRA:                  -0.275
REMARK UNBOUND:                -0.629
REMARK SMILES CCCCCCCCCCCCCCCCCCCCCC(=O)[O-]
REMARK SMILES IDX 12 1 11 2 10 3 9 4 8 5 7 6 6 7 5 8 4 9 3 10 2 11 1 12 13 13
REMARK SMILES IDX 14 14 15 15 16 16 17 17 18 18 19 19 20 20 21 21 22 22 23 23
REMARK SMILES IDX 24 24
REMARK H PARENT
REMARK Flexibility Score: inf
ROOT
ATOM      1  C   UNL     1      -0.290   4.793 -15.063  1.00  0.00     0.000 C 
ENDROOT
BRANCH   1   2
ATOM      2  C   UNL     1       0.629   3.953 -14.158  1.00  0.00     0.000 C 
BRANCH   2   3
ATOM      3  C   UNL     1       1.822   3.355 -14.932  1.00  0.00     0.000 C 
BRANCH   3   4
ATOM      4  C   UNL     1       1.812   1.815 -14.995  1.00  0.00    -0.000 C 
BRANCH   4   5
ATOM      5  C   UNL     1       3.201   1.158 -15.067  1.00  0.00    -0.000 C 
BRANCH   5   6
ATOM      6  C   UNL     1       3.268  -0.173 -14.298  1.00  0.00    -0.000 C 
BRANCH   6   7
ATOM      7  C   UNL     1       4.630  -0.873 -14.446  1.00  0.00    -0.000 C 
BRANCH   7   8
ATOM      8  C   UNL     1       4.499  -2.341 -14.882  1.00  0.00    -0.000 C 
BRANCH   8   9
ATOM      9  C   UNL     1       4.975  -3.287 -13.774  1.00  0.00    -0.000 C 
BRANCH   9  10
ATOM     10  C   UNL     1       5.745  -2.522 -12.692  1.00  0.00    -0.000 C 
BRANCH  10  11
ATOM     11  C   UNL     1       7.201  -2.995 -12.617  1.00  0.00    -0.003 C 
ATOM     12  C   UNL     1       7.430  -3.882 -11.396  1.00  0.00     0.004 C 
ENDBRANCH  10  11
ENDBRANCH   9  10
ENDBRANCH   8   9
ENDBRANCH   7   8
ENDBRANCH   6   7
ENDBRANCH   5   6
ENDBRANCH   4   5
ENDBRANCH   3   4
ENDBRANCH   2   3
ENDBRANCH   1   2
BRANCH   1  13
ATOM     13  C   UNL     1      -0.727   6.110 -14.399  1.00  0.00     0.000 C 
BRANCH  13  14
ATOM     14  C   UNL     1      -1.913   6.770 -15.125  1.00  0.00     0.000 C 
BRANCH  14  15
ATOM     15  C   UNL     1      -3.199   6.769 -14.283  1.00  0.00     0.000 C 
BRANCH  15  16
ATOM     16  C   UNL     1      -4.462   7.018 -15.125  1.00  0.00     0.000 C 
BRANCH  16  17
ATOM     17  C   UNL     1      -5.075   8.404 -14.861  1.00  0.00     0.000 C 
BRANCH  17  18
ATOM     18  C   UNL     1      -6.610   8.386 -14.900  1.00  0.00     0.000 C 
BRANCH  18  19
ATOM     19  C   UNL     1      -7.194   9.286 -13.805  1.00  0.00     0.000 C 
BRANCH  19  20
ATOM     20  C   UNL     1      -8.281  10.210 -14.368  1.00  0.00     0.006 C 
BRANCH  20  21
ATOM     21  C   UNL     1      -7.690  11.565 -14.775  1.00  0.00     0.053 C 
BRANCH  21  22
ATOM     22  C   UNL     1      -6.370  11.799 -14.106  1.00  0.00     0.041 C 
ATOM     23  O   UNL     1      -5.332  11.969 -14.798  1.00  0.00    -0.550 OA
ATOM     24  O   UNL     1      -6.274  11.780 -12.719  1.00  0.00    -0.550 OA
ENDBRANCH  21  22
ENDBRANCH  20  21
ENDBRANCH  19  20
ENDBRANCH  18  19
ENDBRANCH  17  18
ENDBRANCH  16  17
ENDBRANCH  15  16
ENDBRANCH  14  15
ENDBRANCH  13  14
ENDBRANCH   1  13
TORSDOF 20
ENDMDL
MODEL 6
REMARK VINA RESULT:     0.284     13.142     15.182
REMARK INTER + INTRA:          -0.014
REMARK INTER:                   0.824
REMARK INTRA:                  -0.837
REMARK UNBOUND:                -0.629
REMARK SMILES CCCCCCCCCCCCCCCCCCCCCC(=O)[O-]
REMARK SMILES IDX 12 1 11 2 10 3 9 4 8 5 7 6 6 7 5 8 4 9 3 10 2 11 1 12 13 13
REMARK SMILES IDX 14 14 15 15 16 16 17 17 18 18 19 19 20 20 21 21 22 22 23 23
REMARK SMILES IDX 24 24
REMARK H PARENT
REMARK Flexibility Score: inf
ROOT
ATOM      1  C   UNL     1     -10.280  -6.247 -11.448  1.00  0.00     0.000 C 
ENDROOT
BRANCH   1   2
ATOM      2  C   UNL     1     -11.108  -6.509 -12.719  1.00  0.00     0.000 C 
BRANCH   2   3
ATOM      3  C   UNL     1     -10.732  -7.844 -13.396  1.00  0.00     0.000 C 
BRANCH   3   4
ATOM      4  C   UNL     1      -9.216  -8.124 -13.417  1.00  0.00    -0.000 C 
BRANCH   4   5
ATOM      5  C   UNL     1      -8.563  -8.062 -14.808  1.00  0.00    -0.000 C 
BRANCH   5   6
ATOM      6  C   UNL     1      -7.830  -6.733 -15.061  1.00  0.00    -0.000 C 
BRANCH   6   7
ATOM      7  C   UNL     1      -7.413  -6.030 -13.758  1.00  0.00    -0.000 C 
BRANCH   7   8
ATOM      8  C   UNL     1      -5.950  -5.562 -13.778  1.00  0.00    -0.000 C 
BRANCH   8   9
ATOM      9  C   UNL     1      -5.803  -4.192 -13.105  1.00  0.00    -0.000 C 
BRANCH   9  10
ATOM     10  C   UNL     1      -7.168  -3.521 -12.921  1.00  0.00    -0.000 C 
BRANCH  10  11
ATOM     11  C   UNL     1      -7.009  -2.029 -12.610  1.00  0.00    -0.003 C 
ATOM     12  C   UNL     1      -7.055  -1.771 -11.106  1.00  0.00     0.004 C 
ENDBRANCH  10  11
ENDBRANCH   9  10
ENDBRANCH   8   9
ENDBRANCH   7   8
ENDBRANCH   6   7
ENDBRANCH   5   6
ENDBRANCH   4   5
ENDBRANCH   3   4
ENDBRANCH   2   3
ENDBRANCH   1   2
BRANCH   1  13
ATOM     13  C   UNL     1     -11.091  -6.468 -10.160  1.00  0.00     0.000 C 
BRANCH  13  14
ATOM     14  C   UNL     1     -11.046  -7.931  -9.681  1.00  0.00     0.000 C 
BRANCH  14  15
ATOM     15  C   UNL     1     -10.279  -8.100  -8.360  1.00  0.00     0.000 C 
BRANCH  15  16
ATOM     16  C   UNL     1      -8.781  -7.783  -8.497  1.00  0.00     0.000 C 
BRANCH  16  17
ATOM     17  C   UNL     1      -8.237  -8.125  -9.894  1.00  0.00     0.000 C 
BRANCH  17  18
ATOM     18  C   UNL     1      -7.681  -6.896 -10.628  1.00  0.00     0.000 C 
BRANCH  18  19
ATOM     19  C   UNL     1      -7.715  -5.659  -9.723  1.00  0.00     0.000 C 
BRANCH  19  20
ATOM     20  C   UNL     1      -6.442  -4.820  -9.885  1.00  0.00     0.006 C 
BRANCH  20  21
ATOM     21  C   UNL     1      -6.210  -3.933  -8.656  1.00  0.00     0.053 C 
BRANCH  21  22
ATOM     22  C   UNL     1      -4.993  -4.369  -7.899  1.00  0.00     0.041 C 
ATOM     23  O   UNL     1      -4.677  -5.587  -7.855  1.00  0.00    -0.550 OA
ATOM     24  O   UNL     1      -4.233  -3.438  -7.199  1.00  0.00    -0.550 OA
ENDBRANCH  21  22
ENDBRANCH  20  21
ENDBRANCH  19  20
ENDBRANCH  18  19
ENDBRANCH  17  18
ENDBRANCH  16  17
ENDBRANCH  15  16
ENDBRANCH  14  15
ENDBRANCH  13  14
ENDBRANCH   1  13
TORSDOF 20
ENDMDL
MODEL 7
REMARK VINA RESULT:     0.466      6.181      8.987
REMARK INTER + INTRA:           0.382
REMARK INTER:                   1.592
REMARK INTRA:                  -1.210
REMARK UNBOUND:                -0.629
REMARK SMILES CCCCCCCCCCCCCCCCCCCCCC(=O)[O-]
REMARK SMILES IDX 12 1 11 2 10 3 9 4 8 5 7 6 6 7 5 8 4 9 3 10 2 11 1 12 13 13
REMARK SMILES IDX 14 14 15 15 16 16 17 17 18 18 19 19 20 20 21 21 22 22 23 23
REMARK SMILES IDX 24 24
REMARK H PARENT
REMARK Flexibility Score: inf
ROOT
ATOM      1  C   UNL     1       5.723  -1.261 -13.276  1.00  0.00     0.000 C 
ENDROOT
BRANCH   1   2
ATOM      2  C   UNL     1       5.745  -2.754 -13.651  1.00  0.00     0.000 C 
BRANCH   2   3
ATOM      3  C   UNL     1       6.023  -3.658 -12.432  1.00  0.00     0.000 C 
BRANCH   3   4
ATOM      4  C   UNL     1       7.492  -3.635 -11.964  1.00  0.00    -0.000 C 
BRANCH   4   5
ATOM      5  C   UNL     1       7.727  -2.975 -10.595  1.00  0.00    -0.000 C 
BRANCH   5   6
ATOM      6  C   UNL     1       8.754  -3.736  -9.737  1.00  0.00    -0.000 C 
BRANCH   6   7
ATOM      7  C   UNL     1       8.266  -3.968  -8.297  1.00  0.00    -0.000 C 
BRANCH   7   8
ATOM      8  C   UNL     1       9.094  -5.026  -7.553  1.00  0.00    -0.000 C 
BRANCH   8   9
ATOM      9  C   UNL     1       8.974  -6.395  -8.233  1.00  0.00    -0.000 C 
BRANCH   9  10
ATOM     10  C   UNL     1       7.517  -6.703  -8.593  1.00  0.00    -0.000 C 
BRANCH  10  11
ATOM     11  C   UNL     1       7.437  -7.666  -9.783  1.00  0.00    -0.003 C 
ATOM     12  C   UNL     1       8.830  -8.060 -10.268  1.00  0.00     0.004 C 
ENDBRANCH  10  11
ENDBRANCH   9  10
ENDBRANCH   8   9
ENDBRANCH   7   8
ENDBRANCH   6   7
ENDBRANCH   5   6
ENDBRANCH   4   5
ENDBRANCH   3   4
ENDBRANCH   2   3
ENDBRANCH   1   2
BRANCH   1  13
ATOM     13  C   UNL     1       4.762  -0.446 -14.159  1.00  0.00     0.000 C 
BRANCH  13  14
ATOM     14  C   UNL     1       3.340  -1.033 -14.177  1.00  0.00     0.000 C 
BRANCH  14  15
ATOM     15  C   UNL     1       2.257   0.024 -13.910  1.00  0.00     0.000 C 
BRANCH  15  16
ATOM     16  C   UNL     1       2.043   0.972 -15.102  1.00  0.00     0.000 C 
BRANCH  16  17
ATOM     17  C   UNL     1       2.172   2.451 -14.703  1.00  0.00     0.000 C 
BRANCH  17  18
ATOM     18  C   UNL     1       0.957   2.956 -13.911  1.00  0.00     0.000 C 
BRANCH  18  19
ATOM     19  C   UNL     1       0.278   4.123 -14.637  1.00  0.00     0.000 C 
BRANCH  19  20
ATOM     20  C   UNL     1       1.300   5.194 -15.038  1.00  0.00     0.006 C 
BRANCH  20  21
ATOM     21  C   UNL     1       1.850   5.916 -13.803  1.00  0.00     0.053 C 
BRANCH  21  22
ATOM     22  C   UNL     1       3.137   6.615 -14.116  1.00  0.00     0.041 C 
ATOM     23  O   UNL     1       3.195   7.872 -14.100  1.00  0.00    -0.550 OA
ATOM     24  O   UNL     1       4.263   5.882 -14.476  1.00  0.00    -0.550 OA
ENDBRANCH  21  22
ENDBRANCH  20  21
ENDBRANCH  19  20
ENDBRANCH  18  19
ENDBRANCH  17  18
ENDBRANCH  16  17
ENDBRANCH  15  16
ENDBRANCH  14  15
ENDBRANCH  13  14
ENDBRANCH   1  13
TORSDOF 20
ENDMDL
