MODEL 1
REMARK VINA RESULT:    -4.640      0.000      0.000
REMARK INTER + INTRA:         -16.419
REMARK INTER:                 -11.694
REMARK INTRA:                  -4.726
REMARK UNBOUND:                -4.726
REMARK SMILES CCCCCCCCCCCCCCCCCCCCCCCCCCCC(=O)[O-]
REMARK SMILES IDX 15 1 16 2 17 3 18 4 19 5 20 6 21 7 22 8 23 9 24 10 25 11
REMARK SMILES IDX 26 12 27 13 28 14 29 15 30 16 14 17 13 18 12 19 11 20 10 21
REMARK SMILES IDX 9 22 8 23 7 24 6 25 5 26 4 27 3 28 2 29 1 30
REMARK H PARENT
REMARK Flexibility Score: inf
ROOT
ATOM      1  C   UNL     1      43.300  63.127   6.639  1.00  0.00     0.000 C 
ENDROOT
BRANCH   1   2
ATOM      2  C   UNL     1      43.108  62.543   8.055  1.00  0.00     0.000 C 
BRANCH   2   3
ATOM      3  C   UNL     1      43.426  61.042   8.157  1.00  0.00     0.000 C 
BRANCH   3   4
ATOM      4  C   UNL     1      44.823  60.763   8.734  1.00  0.00     0.000 C 
BRANCH   4   5
ATOM      5  C   UNL     1      44.765  60.159  10.146  1.00  0.00     0.000 C 
BRANCH   5   6
ATOM      6  C   UNL     1      45.380  61.084  11.210  1.00  0.00     0.000 C 
BRANCH   6   7
ATOM      7  C   UNL     1      44.622  61.027  12.546  1.00  0.00     0.000 C 
BRANCH   7   8
ATOM      8  C   UNL     1      44.362  62.426  13.133  1.00  0.00     0.000 C 
BRANCH   8   9
ATOM      9  C   UNL     1      44.271  63.514  12.051  1.00  0.00     0.000 C 
BRANCH   9  10
ATOM     10  C   UNL     1      42.838  63.717  11.538  1.00  0.00     0.000 C 
BRANCH  10  11
ATOM     11  C   UNL     1      41.813  63.444  12.647  1.00  0.00     0.000 C 
BRANCH  11  12
ATOM     12  C   UNL     1      40.763  62.389  12.254  1.00  0.00     0.006 C 
BRANCH  12  13
ATOM     13  C   UNL     1      41.209  61.461  11.108  1.00  0.00     0.053 C 
BRANCH  13  14
ATOM     14  C   UNL     1      40.821  60.031  11.338  1.00  0.00     0.041 C 
ATOM     15  O   UNL     1      39.625  59.665  11.191  1.00  0.00    -0.550 OA
ATOM     16  O   UNL     1      41.790  59.093  11.672  1.00  0.00    -0.550 OA
ENDBRANCH  13  14
ENDBRANCH  12  13
ENDBRANCH  11  12
ENDBRANCH  10  11
ENDBRANCH   9  10
ENDBRANCH   8   9
ENDBRANCH   7   8
ENDBRANCH   6   7
ENDBRANCH   5   6
ENDBRANCH   4   5
ENDBRANCH   3   4
ENDBRANCH   2   3
ENDBRANCH   1   2
BRANCH   1  17
ATOM     17  C   UNL     1      42.057  62.935   5.753  1.00  0.00     0.000 C 
BRANCH  17  18
ATOM     18  C   UNL     1      42.013  63.925   4.577  1.00  0.00     0.000 C 
BRANCH  18  19
ATOM     19  C   UNL     1      43.210  64.889   4.575  1.00  0.00     0.000 C 
BRANCH  19  20
ATOM     20  C   UNL     1      43.113  65.885   3.410  1.00  0.00     0.000 C 
BRANCH  20  21
ATOM     21  C   UNL     1      43.460  67.322   3.834  1.00  0.00     0.000 C 
BRANCH  21  22
ATOM     22  C   UNL     1      42.387  68.337   3.403  1.00  0.00    -0.000 C 
BRANCH  22  23
ATOM     23  C   UNL     1      41.648  68.956   4.599  1.00  0.00    -0.000 C 
BRANCH  23  24
ATOM     24  C   UNL     1      40.993  67.896   5.501  1.00  0.00    -0.000 C 
BRANCH  24  25
ATOM     25  C   UNL     1      41.419  68.019   6.975  1.00  0.00    -0.000 C 
BRANCH  25  26
ATOM     26  C   UNL     1      42.604  67.124   7.384  1.00  0.00    -0.000 C 
BRANCH  26  27
ATOM     27  C   UNL     1      42.218  66.061   8.424  1.00  0.00    -0.000 C 
BRANCH  27  28
ATOM     28  C   UNL     1      40.693  65.897   8.500  1.00  0.00    -0.000 C 
BRANCH  28  29
ATOM     29  C   UNL     1      40.271  64.447   8.778  1.00  0.00    -0.003 C 
ATOM     30  C   UNL     1      38.963  64.351   9.563  1.00  0.00     0.004 C 
ENDBRANCH  28  29
ENDBRANCH  27  28
ENDBRANCH  26  27
ENDBRANCH  25  26
ENDBRANCH  24  25
ENDBRANCH  23  24
ENDBRANCH  22  23
ENDBRANCH  21  22
ENDBRANCH  20  21
ENDBRANCH  19  20
ENDBRANCH  18  19
ENDBRANCH  17  18
ENDBRANCH   1  17
TORSDOF 26
ENDMDL
MODEL 2
REMARK VINA RESULT:    -4.611      3.213      8.291
REMARK INTER + INTRA:         -16.344
REMARK INTER:                 -11.086
REMARK INTRA:                  -5.258
REMARK UNBOUND:                -4.726
REMARK SMILES CCCCCCCCCCCCCCCCCCCCCCCCCCCC(=O)[O-]
REMARK SMILES IDX 15 1 16 2 17 3 18 4 19 5 20 6 21 7 22 8 23 9 24 10 25 11
REMARK SMILES IDX 26 12 27 13 28 14 29 15 30 16 14 17 13 18 12 19 11 20 10 21
REMARK SMILES IDX 9 22 8 23 7 24 6 25 5 26 4 27 3 28 2 29 1 30
REMARK H PARENT
REMARK Flexibility Score: inf
ROOT
ATOM      1  C   UNL     1      41.551  63.473  12.730  1.00  0.00     0.000 C 
ENDROOT
BRANCH   1   2
ATOM      2  C   UNL     1      42.090  63.313  11.292  1.00  0.00     0.000 C 
BRANCH   2   3
ATOM      3  C   UNL     1      42.753  64.584  10.732  1.00  0.00     0.000 C 
BRANCH   3   4
ATOM      4  C   UNL     1      42.482  64.790   9.233  1.00  0.00     0.000 C 
BRANCH   4   5
ATOM      5  C   UNL     1      40.991  64.999   8.929  1.00  0.00     0.000 C 
BRANCH   5   6
ATOM      6  C   UNL     1      40.478  64.066   7.819  1.00  0.00     0.000 C 
BRANCH   6   7
ATOM      7  C   UNL     1      41.557  63.085   7.332  1.00  0.00     0.000 C 
BRANCH   7   8
ATOM      8  C   UNL     1      42.036  63.401   5.904  1.00  0.00     0.000 C 
BRANCH   8   9
ATOM      9  C   UNL     1      43.328  64.231   5.883  1.00  0.00     0.000 C 
BRANCH   9  10
ATOM     10  C   UNL     1      43.389  65.198   4.690  1.00  0.00     0.000 C 
BRANCH  10  11
ATOM     11  C   UNL     1      43.241  66.653   5.154  1.00  0.00     0.000 C 
BRANCH  11  12
ATOM     12  C   UNL     1      41.890  66.937   5.834  1.00  0.00     0.006 C 
BRANCH  12  13
ATOM     13  C   UNL     1      41.967  67.983   6.962  1.00  0.00     0.053 C 
BRANCH  13  14
ATOM     14  C   UNL     1      41.285  69.271   6.604  1.00  0.00     0.041 C 
ATOM     15  O   UNL     1      41.797  70.374   6.932  1.00  0.00    -0.550 OA
ATOM     16  O   UNL     1      40.107  69.252   5.869  1.00  0.00    -0.550 OA
ENDBRANCH  13  14
ENDBRANCH  12  13
ENDBRANCH  11  12
ENDBRANCH  10  11
ENDBRANCH   9  10
ENDBRANCH   8   9
ENDBRANCH   7   8
ENDBRANCH   6   7
ENDBRANCH   5   6
ENDBRANCH   4   5
ENDBRANCH   3   4
ENDBRANCH   2   3
ENDBRANCH   1   2
BRANCH   1  17
ATOM     17  C   UNL     1      40.128  62.911  12.887  1.00  0.00     0.000 C 
BRANCH  17  18
ATOM     18  C   UNL     1      39.338  62.927  11.568  1.00  0.00     0.000 C 
BRANCH  18  19
ATOM     19  C   UNL     1      38.814  61.536  11.180  1.00  0.00     0.000 C 
BRANCH  19  20
ATOM     20  C   UNL     1      39.405  61.080   9.837  1.00  0.00     0.000 C 
BRANCH  20  21
ATOM     21  C   UNL     1      40.740  60.335  10.005  1.00  0.00     0.000 C 
BRANCH  21  22
ATOM     22  C   UNL     1      40.720  59.354  11.190  1.00  0.00    -0.000 C 
BRANCH  22  23
ATOM     23  C   UNL     1      42.126  59.056  11.732  1.00  0.00    -0.000 C 
BRANCH  23  24
ATOM     24  C   UNL     1      42.556  60.042  12.832  1.00  0.00    -0.000 C 
BRANCH  24  25
ATOM     25  C   UNL     1      44.071  60.016  13.100  1.00  0.00    -0.000 C 
BRANCH  25  26
ATOM     26  C   UNL     1      44.801  61.344  12.825  1.00  0.00    -0.000 C 
BRANCH  26  27
ATOM     27  C   UNL     1      45.038  61.596  11.328  1.00  0.00    -0.000 C 
BRANCH  27  28
ATOM     28  C   UNL     1      45.568  60.331  10.636  1.00  0.00    -0.000 C 
BRANCH  28  29
ATOM     29  C   UNL     1      44.769  59.974   9.374  1.00  0.00    -0.003 C 
ATOM     30  C   UNL     1      44.115  61.192   8.724  1.00  0.00     0.004 C 
ENDBRANCH  28  29
ENDBRANCH  27  28
ENDBRANCH  26  27
ENDBRANCH  25  26
ENDBRANCH  24  25
ENDBRANCH  23  24
ENDBRANCH  22  23
ENDBRANCH  21  22
ENDBRANCH  20  21
ENDBRANCH  19  20
ENDBRANCH  18  19
ENDBRANCH  17  18
ENDBRANCH   1  17
TORSDOF 26
ENDMDL
MODEL 3
REMARK VINA RESULT:    -4.565      3.696      8.258
REMARK INTER + INTRA:         -16.230
REMARK INTER:                 -11.275
REMARK INTRA:                  -4.956
REMARK UNBOUND:                -4.726
REMARK SMILES CCCCCCCCCCCCCCCCCCCCCCCCCCCC(=O)[O-]
REMARK SMILES IDX 15 1 16 2 17 3 18 4 19 5 20 6 21 7 22 8 23 9 24 10 25 11
REMARK SMILES IDX 26 12 27 13 28 14 29 15 30 16 14 17 13 18 12 19 11 20 10 21
REMARK SMILES IDX 9 22 8 23 7 24 6 25 5 26 4 27 3 28 2 29 1 30
REMARK H PARENT
REMARK Flexibility Score: inf
ROOT
ATOM      1  C   UNL     1      42.746  65.618   8.715  1.00  0.00     0.000 C 
ENDROOT
BRANCH   1   2
ATOM      2  C   UNL     1      42.751  66.587   7.514  1.00  0.00     0.000 C 
BRANCH   2   3
ATOM      3  C   UNL     1      43.589  66.094   6.322  1.00  0.00     0.000 C 
BRANCH   3   4
ATOM      4  C   UNL     1      43.209  66.779   4.998  1.00  0.00     0.000 C 
BRANCH   4   5
ATOM      5  C   UNL     1      43.195  65.801   3.814  1.00  0.00     0.000 C 
BRANCH   5   6
ATOM      6  C   UNL     1      42.621  64.425   4.192  1.00  0.00     0.000 C 
BRANCH   6   7
ATOM      7  C   UNL     1      41.107  64.332   3.940  1.00  0.00     0.000 C 
BRANCH   7   8
ATOM      8  C   UNL     1      40.343  63.779   5.157  1.00  0.00     0.000 C 
BRANCH   8   9
ATOM      9  C   UNL     1      39.522  64.858   5.880  1.00  0.00     0.000 C 
BRANCH   9  10
ATOM     10  C   UNL     1      39.526  66.201   5.133  1.00  0.00     0.000 C 
BRANCH  10  11
ATOM     11  C   UNL     1      39.637  67.375   6.115  1.00  0.00     0.000 C 
BRANCH  11  12
ATOM     12  C   UNL     1      40.097  68.682   5.445  1.00  0.00     0.006 C 
BRANCH  12  13
ATOM     13  C   UNL     1      41.007  69.552   6.333  1.00  0.00     0.053 C 
BRANCH  13  14
ATOM     14  C   UNL     1      41.463  70.804   5.644  1.00  0.00     0.041 C 
ATOM     15  O   UNL     1      42.222  71.616   6.236  1.00  0.00    -0.550 OA
ATOM     16  O   UNL     1      41.085  71.051   4.330  1.00  0.00    -0.550 OA
ENDBRANCH  13  14
ENDBRANCH  12  13
ENDBRANCH  11  12
ENDBRANCH  10  11
ENDBRANCH   9  10
ENDBRANCH   8   9
ENDBRANCH   7   8
ENDBRANCH   6   7
ENDBRANCH   5   6
ENDBRANCH   4   5
ENDBRANCH   3   4
ENDBRANCH   2   3
ENDBRANCH   1   2
BRANCH   1  17
ATOM     17  C   UNL     1      41.406  64.878   8.866  1.00  0.00     0.000 C 
BRANCH  17  18
ATOM     18  C   UNL     1      41.543  63.361   8.653  1.00  0.00     0.000 C 
BRANCH  18  19
ATOM     19  C   UNL     1      42.761  62.996   7.791  1.00  0.00     0.000 C 
BRANCH  19  20
ATOM     20  C   UNL     1      43.242  61.569   8.093  1.00  0.00     0.000 C 
BRANCH  20  21
ATOM     21  C   UNL     1      42.389  60.877   9.169  1.00  0.00     0.000 C 
BRANCH  21  22
ATOM     22  C   UNL     1      43.236  60.028  10.134  1.00  0.00    -0.000 C 
BRANCH  22  23
ATOM     23  C   UNL     1      44.745  60.189   9.889  1.00  0.00    -0.000 C 
BRANCH  23  24
ATOM     24  C   UNL     1      45.474  60.820  11.088  1.00  0.00    -0.000 C 
BRANCH  24  25
ATOM     25  C   UNL     1      44.706  60.653  12.411  1.00  0.00    -0.000 C 
BRANCH  25  26
ATOM     26  C   UNL     1      44.392  61.969  13.149  1.00  0.00    -0.000 C 
BRANCH  26  27
ATOM     27  C   UNL     1      44.304  63.177  12.204  1.00  0.00    -0.000 C 
BRANCH  27  28
ATOM     28  C   UNL     1      42.857  63.682  12.094  1.00  0.00    -0.000 C 
BRANCH  28  29
ATOM     29  C   UNL     1      41.829  62.606  12.477  1.00  0.00    -0.003 C 
ATOM     30  C   UNL     1      40.935  63.031  13.641  1.00  0.00     0.004 C 
ENDBRANCH  28  29
ENDBRANCH  27  28
ENDBRANCH  26  27
ENDBRANCH  25  26
ENDBRANCH  24  25
ENDBRANCH  23  24
ENDBRANCH  22  23
ENDBRANCH  21  22
ENDBRANCH  20  21
ENDBRANCH  19  20
ENDBRANCH  18  19
ENDBRANCH  17  18
ENDBRANCH   1  17
TORSDOF 26
ENDMDL
MODEL 4
REMARK VINA RESULT:    -4.537      3.679      8.219
REMARK INTER + INTRA:         -16.159
REMARK INTER:                 -10.763
REMARK INTRA:                  -5.396
REMARK UNBOUND:                -4.726
REMARK SMILES CCCCCCCCCCCCCCCCCCCCCCCCCCCC(=O)[O-]
REMARK SMILES IDX 15 1 16 2 17 3 18 4 19 5 20 6 21 7 22 8 23 9 24 10 25 11
REMARK SMILES IDX 26 12 27 13 28 14 29 15 30 16 14 17 13 18 12 19 11 20 10 21
REMARK SMILES IDX 9 22 8 23 7 24 6 25 5 26 4 27 3 28 2 29 1 30
REMARK H PARENT
REMARK Flexibility Score: inf
ROOT
ATOM      1  C   UNL     1      40.924  66.336   8.124  1.00  0.00     0.000 C 
ENDROOT
BRANCH   1   2
ATOM      2  C   UNL     1      39.745  66.346   7.128  1.00  0.00     0.000 C 
BRANCH   2   3
ATOM      3  C   UNL     1      39.340  64.948   6.631  1.00  0.00     0.000 C 
BRANCH   3   4
ATOM      4  C   UNL     1      40.091  64.524   5.358  1.00  0.00     0.000 C 
BRANCH   4   5
ATOM      5  C   UNL     1      40.843  63.196   5.536  1.00  0.00     0.000 C 
BRANCH   5   6
ATOM      6  C   UNL     1      42.309  63.282   5.075  1.00  0.00     0.000 C 
BRANCH   6   7
ATOM      7  C   UNL     1      43.194  64.045   6.074  1.00  0.00     0.000 C 
BRANCH   7   8
ATOM      8  C   UNL     1      43.568  65.451   5.571  1.00  0.00     0.000 C 
BRANCH   8   9
ATOM      9  C   UNL     1      43.478  65.575   4.042  1.00  0.00     0.000 C 
BRANCH   9  10
ATOM     10  C   UNL     1      42.685  66.814   3.597  1.00  0.00     0.000 C 
BRANCH  10  11
ATOM     11  C   UNL     1      42.246  67.649   4.807  1.00  0.00     0.000 C 
BRANCH  11  12
ATOM     12  C   UNL     1      41.642  69.009   4.416  1.00  0.00     0.006 C 
BRANCH  12  13
ATOM     13  C   UNL     1      40.656  69.576   5.455  1.00  0.00     0.053 C 
BRANCH  13  14
ATOM     14  C   UNL     1      40.902  71.026   5.755  1.00  0.00     0.041 C 
ATOM     15  O   UNL     1      39.986  71.874   5.586  1.00  0.00    -0.550 OA
ATOM     16  O   UNL     1      42.129  71.432   6.264  1.00  0.00    -0.550 OA
ENDBRANCH  13  14
ENDBRANCH  12  13
ENDBRANCH  11  12
ENDBRANCH  10  11
ENDBRANCH   9  10
ENDBRANCH   8   9
ENDBRANCH   7   8
ENDBRANCH   6   7
ENDBRANCH   5   6
ENDBRANCH   4   5
ENDBRANCH   3   4
ENDBRANCH   2   3
ENDBRANCH   1   2
BRANCH   1  17
ATOM     17  C   UNL     1      41.014  65.018   8.912  1.00  0.00     0.000 C 
BRANCH  17  18
ATOM     18  C   UNL     1      42.380  64.830   9.592  1.00  0.00     0.000 C 
BRANCH  18  19
ATOM     19  C   UNL     1      42.772  63.350   9.723  1.00  0.00     0.000 C 
BRANCH  19  20
ATOM     20  C   UNL     1      41.738  62.443   9.039  1.00  0.00     0.000 C 
BRANCH  20  21
ATOM     21  C   UNL     1      42.377  61.194   8.408  1.00  0.00     0.000 C 
BRANCH  21  22
ATOM     22  C   UNL     1      43.914  61.265   8.396  1.00  0.00    -0.000 C 
BRANCH  22  23
ATOM     23  C   UNL     1      44.558  60.226   9.327  1.00  0.00    -0.000 C 
BRANCH  23  24
ATOM     24  C   UNL     1      45.273  60.871  10.527  1.00  0.00    -0.000 C 
BRANCH  24  25
ATOM     25  C   UNL     1      44.597  60.546  11.871  1.00  0.00    -0.000 C 
BRANCH  25  26
ATOM     26  C   UNL     1      43.254  59.801  11.758  1.00  0.00    -0.000 C 
BRANCH  26  27
ATOM     27  C   UNL     1      42.060  60.648  12.227  1.00  0.00    -0.000 C 
BRANCH  27  28
ATOM     28  C   UNL     1      42.494  61.662  13.296  1.00  0.00    -0.000 C 
BRANCH  28  29
ATOM     29  C   UNL     1      41.897  63.057  13.059  1.00  0.00    -0.003 C 
ATOM     30  C   UNL     1      40.369  63.049  13.034  1.00  0.00     0.004 C 
ENDBRANCH  28  29
ENDBRANCH  27  28
ENDBRANCH  26  27
ENDBRANCH  25  26
ENDBRANCH  24  25
ENDBRANCH  23  24
ENDBRANCH  22  23
ENDBRANCH  21  22
ENDBRANCH  20  21
ENDBRANCH  19  20
ENDBRANCH  18  19
ENDBRANCH  17  18
ENDBRANCH   1  17
TORSDOF 26
ENDMDL
MODEL 5
REMARK VINA RESULT:    -4.530      3.235      7.209
REMARK INTER + INTRA:         -16.142
REMARK INTER:                 -10.861
REMARK INTRA:                  -5.281
REMARK UNBOUND:                -4.726
REMARK SMILES CCCCCCCCCCCCCCCCCCCCCCCCCCCC(=O)[O-]
REMARK SMILES IDX 15 1 16 2 17 3 18 4 19 5 20 6 21 7 22 8 23 9 24 10 25 11
REMARK SMILES IDX 26 12 27 13 28 14 29 15 30 16 14 17 13 18 12 19 11 20 10 21
REMARK SMILES IDX 9 22 8 23 7 24 6 25 5 26 4 27 3 28 2 29 1 30
REMARK H PARENT
REMARK Flexibility Score: inf
ROOT
ATOM      1  C   UNL     1      44.840  62.293  12.072  1.00  0.00     0.000 C 
ENDROOT
BRANCH   1   2
ATOM      2  C   UNL     1      44.674  61.440  13.348  1.00  0.00     0.000 C 
BRANCH   2   3
ATOM      3  C   UNL     1      44.197  60.003  13.076  1.00  0.00     0.000 C 
BRANCH   3   4
ATOM      4  C   UNL     1      42.703  59.925  12.719  1.00  0.00     0.000 C 
BRANCH   4   5
ATOM      5  C   UNL     1      42.460  59.248  11.361  1.00  0.00     0.000 C 
BRANCH   5   6
ATOM      6  C   UNL     1      42.371  60.258  10.205  1.00  0.00     0.000 C 
BRANCH   6   7
ATOM      7  C   UNL     1      43.551  60.136   9.227  1.00  0.00     0.000 C 
BRANCH   7   8
ATOM      8  C   UNL     1      43.873  61.468   8.527  1.00  0.00     0.000 C 
BRANCH   8   9
ATOM      9  C   UNL     1      42.848  61.828   7.440  1.00  0.00     0.000 C 
BRANCH   9  10
ATOM     10  C   UNL     1      43.238  63.091   6.657  1.00  0.00     0.000 C 
BRANCH  10  11
ATOM     11  C   UNL     1      42.175  63.437   5.606  1.00  0.00     0.000 C 
BRANCH  11  12
ATOM     12  C   UNL     1      42.750  64.169   4.381  1.00  0.00     0.006 C 
BRANCH  12  13
ATOM     13  C   UNL     1      43.381  65.535   4.710  1.00  0.00     0.053 C 
BRANCH  13  14
ATOM     14  C   UNL     1      42.944  66.616   3.767  1.00  0.00     0.041 C 
ATOM     15  O   UNL     1      41.841  66.528   3.165  1.00  0.00    -0.550 OA
ATOM     16  O   UNL     1      43.736  67.743   3.586  1.00  0.00    -0.550 OA
ENDBRANCH  13  14
ENDBRANCH  12  13
ENDBRANCH  11  12
ENDBRANCH  10  11
ENDBRANCH   9  10
ENDBRANCH   8   9
ENDBRANCH   7   8
ENDBRANCH   6   7
ENDBRANCH   5   6
ENDBRANCH   4   5
ENDBRANCH   3   4
ENDBRANCH   2   3
ENDBRANCH   1   2
BRANCH   1  17
ATOM     17  C   UNL     1      44.183  63.678  12.204  1.00  0.00     0.000 C 
BRANCH  17  18
ATOM     18  C   UNL     1      42.739  63.698  11.676  1.00  0.00     0.000 C 
BRANCH  18  19
ATOM     19  C   UNL     1      41.699  63.643  12.807  1.00  0.00     0.000 C 
BRANCH  19  20
ATOM     20  C   UNL     1      40.615  62.597  12.508  1.00  0.00     0.000 C 
BRANCH  20  21
ATOM     21  C   UNL     1      39.211  63.216  12.411  1.00  0.00     0.000 C 
BRANCH  21  22
ATOM     22  C   UNL     1      38.140  62.183  12.019  1.00  0.00    -0.000 C 
BRANCH  22  23
ATOM     23  C   UNL     1      38.714  61.028  11.185  1.00  0.00    -0.000 C 
BRANCH  23  24
ATOM     24  C   UNL     1      38.335  61.128   9.697  1.00  0.00    -0.000 C 
BRANCH  24  25
ATOM     25  C   UNL     1      39.411  61.833   8.852  1.00  0.00    -0.000 C 
BRANCH  25  26
ATOM     26  C   UNL     1      39.194  63.345   8.657  1.00  0.00    -0.000 C 
BRANCH  26  27
ATOM     27  C   UNL     1      40.471  64.167   8.892  1.00  0.00    -0.000 C 
BRANCH  27  28
ATOM     28  C   UNL     1      40.246  65.644   8.536  1.00  0.00    -0.000 C 
BRANCH  28  29
ATOM     29  C   UNL     1      41.491  66.295   7.915  1.00  0.00    -0.003 C 
ATOM     30  C   UNL     1      42.773  65.966   8.680  1.00  0.00     0.004 C 
ENDBRANCH  28  29
ENDBRANCH  27  28
ENDBRANCH  26  27
ENDBRANCH  25  26
ENDBRANCH  24  25
ENDBRANCH  23  24
ENDBRANCH  22  23
ENDBRANCH  21  22
ENDBRANCH  20  21
ENDBRANCH  19  20
ENDBRANCH  18  19
ENDBRANCH  17  18
ENDBRANCH   1  17
TORSDOF 26
ENDMDL
MODEL 6
REMARK VINA RESULT:    -4.521      3.120      7.802
REMARK INTER + INTRA:         -16.118
REMARK INTER:                 -10.815
REMARK INTRA:                  -5.303
REMARK UNBOUND:                -4.726
REMARK SMILES CCCCCCCCCCCCCCCCCCCCCCCCCCCC(=O)[O-]
REMARK SMILES IDX 15 1 16 2 17 3 18 4 19 5 20 6 21 7 22 8 23 9 24 10 25 11
REMARK SMILES IDX 26 12 27 13 28 14 29 15 30 16 14 17 13 18 12 19 11 20 10 21
REMARK SMILES IDX 9 22 8 23 7 24 6 25 5 26 4 27 3 28 2 29 1 30
REMARK H PARENT
REMARK Flexibility Score: inf
ROOT
ATOM      1  C   UNL     1      42.996  63.566  10.688  1.00  0.00     0.000 C 
ENDROOT
BRANCH   1   2
ATOM      2  C   UNL     1      42.734  64.903   9.962  1.00  0.00     0.000 C 
BRANCH   2   3
ATOM      3  C   UNL     1      41.342  64.996   9.314  1.00  0.00     0.000 C 
BRANCH   3   4
ATOM      4  C   UNL     1      40.887  63.671   8.680  1.00  0.00     0.000 C 
BRANCH   4   5
ATOM      5  C   UNL     1      40.590  63.811   7.180  1.00  0.00     0.000 C 
BRANCH   5   6
ATOM      6  C   UNL     1      41.404  62.827   6.322  1.00  0.00     0.000 C 
BRANCH   6   7
ATOM      7  C   UNL     1      42.876  62.750   6.757  1.00  0.00     0.000 C 
BRANCH   7   8
ATOM      8  C   UNL     1      43.648  64.046   6.450  1.00  0.00     0.000 C 
BRANCH   8   9
ATOM      9  C   UNL     1      43.226  64.683   5.117  1.00  0.00     0.000 C 
BRANCH   9  10
ATOM     10  C   UNL     1      43.196  66.218   5.180  1.00  0.00     0.000 C 
BRANCH  10  11
ATOM     11  C   UNL     1      43.162  66.707   6.634  1.00  0.00     0.000 C 
BRANCH  11  12
ATOM     12  C   UNL     1      41.992  67.664   6.923  1.00  0.00     0.006 C 
BRANCH  12  13
ATOM     13  C   UNL     1      40.747  67.407   6.053  1.00  0.00     0.053 C 
BRANCH  13  14
ATOM     14  C   UNL     1      39.878  68.622   5.914  1.00  0.00     0.041 C 
ATOM     15  O   UNL     1      40.394  69.770   5.854  1.00  0.00    -0.550 OA
ATOM     16  O   UNL     1      38.500  68.482   5.806  1.00  0.00    -0.550 OA
ENDBRANCH  13  14
ENDBRANCH  12  13
ENDBRANCH  11  12
ENDBRANCH  10  11
ENDBRANCH   9  10
ENDBRANCH   8   9
ENDBRANCH   7   8
ENDBRANCH   6   7
ENDBRANCH   5   6
ENDBRANCH   4   5
ENDBRANCH   3   4
ENDBRANCH   2   3
ENDBRANCH   1   2
BRANCH   1  17
ATOM     17  C   UNL     1      43.416  63.767  12.154  1.00  0.00     0.000 C 
BRANCH  17  18
ATOM     18  C   UNL     1      44.679  62.970  12.520  1.00  0.00     0.000 C 
BRANCH  18  19
ATOM     19  C   UNL     1      44.352  61.609  13.153  1.00  0.00     0.000 C 
BRANCH  19  20
ATOM     20  C   UNL     1      44.469  60.478  12.119  1.00  0.00     0.000 C 
BRANCH  20  21
ATOM     21  C   UNL     1      45.477  60.803  11.004  1.00  0.00     0.000 C 
BRANCH  21  22
ATOM     22  C   UNL     1      44.842  60.744   9.604  1.00  0.00    -0.000 C 
BRANCH  22  23
ATOM     23  C   UNL     1      44.549  59.305   9.151  1.00  0.00    -0.000 C 
BRANCH  23  24
ATOM     24  C   UNL     1      43.044  58.988   9.126  1.00  0.00    -0.000 C 
BRANCH  24  25
ATOM     25  C   UNL     1      42.166  60.252   9.150  1.00  0.00    -0.000 C 
BRANCH  25  26
ATOM     26  C   UNL     1      40.838  60.103   9.917  1.00  0.00    -0.000 C 
BRANCH  26  27
ATOM     27  C   UNL     1      40.842  60.839  11.266  1.00  0.00    -0.000 C 
BRANCH  27  28
ATOM     28  C   UNL     1      39.488  61.519  11.522  1.00  0.00    -0.000 C 
BRANCH  28  29
ATOM     29  C   UNL     1      39.641  62.910  12.156  1.00  0.00    -0.003 C 
ATOM     30  C   UNL     1      40.421  62.878  13.470  1.00  0.00     0.004 C 
ENDBRANCH  28  29
ENDBRANCH  27  28
ENDBRANCH  26  27
ENDBRANCH  25  26
ENDBRANCH  24  25
ENDBRANCH  23  24
ENDBRANCH  22  23
ENDBRANCH  21  22
ENDBRANCH  20  21
ENDBRANCH  19  20
ENDBRANCH  18  19
ENDBRANCH  17  18
ENDBRANCH   1  17
TORSDOF 26
ENDMDL
MODEL 7
REMARK VINA RESULT:    -4.500      3.744      7.844
REMARK INTER + INTRA:         -16.065
REMARK INTER:                 -10.542
REMARK INTRA:                  -5.523
REMARK UNBOUND:                -4.726
REMARK SMILES CCCCCCCCCCCCCCCCCCCCCCCCCCCC(=O)[O-]
REMARK SMILES IDX 15 1 16 2 17 3 18 4 19 5 20 6 21 7 22 8 23 9 24 10 25 11
REMARK SMILES IDX 26 12 27 13 28 14 29 15 30 16 14 17 13 18 12 19 11 20 10 21
REMARK SMILES IDX 9 22 8 23 7 24 6 25 5 26 4 27 3 28 2 29 1 30
REMARK H PARENT
REMARK Flexibility Score: inf
ROOT
ATOM      1  C   UNL     1      42.722  66.749   5.610  1.00  0.00     0.000 C 
ENDROOT
BRANCH   1   2
ATOM      2  C   UNL     1      42.647  67.237   7.072  1.00  0.00     0.000 C 
BRANCH   2   3
ATOM      3  C   UNL     1      43.450  66.371   8.058  1.00  0.00     0.000 C 
BRANCH   3   4
ATOM      4  C   UNL     1      42.557  65.618   9.059  1.00  0.00     0.000 C 
BRANCH   4   5
ATOM      5  C   UNL     1      41.061  65.802   8.763  1.00  0.00     0.000 C 
BRANCH   5   6
ATOM      6  C   UNL     1      40.291  64.470   8.761  1.00  0.00     0.000 C 
BRANCH   6   7
ATOM      7  C   UNL     1      39.576  64.208   7.427  1.00  0.00     0.000 C 
BRANCH   7   8
ATOM      8  C   UNL     1      39.307  65.504   6.641  1.00  0.00     0.000 C 
BRANCH   8   9
ATOM      9  C   UNL     1      39.271  65.278   5.121  1.00  0.00     0.000 C 
BRANCH   9  10
ATOM     10  C   UNL     1      39.268  66.594   4.329  1.00  0.00     0.000 C 
BRANCH  10  11
ATOM     11  C   UNL     1      39.180  67.802   5.271  1.00  0.00     0.000 C 
BRANCH  11  12
ATOM     12  C   UNL     1      40.095  68.966   4.849  1.00  0.00     0.006 C 
BRANCH  12  13
ATOM     13  C   UNL     1      40.410  69.956   5.986  1.00  0.00     0.053 C 
BRANCH  13  14
ATOM     14  C   UNL     1      41.231  71.124   5.525  1.00  0.00     0.041 C 
ATOM     15  O   UNL     1      42.165  71.568   6.245  1.00  0.00    -0.550 OA
ATOM     16  O   UNL     1      40.993  71.693   4.281  1.00  0.00    -0.550 OA
ENDBRANCH  13  14
ENDBRANCH  12  13
ENDBRANCH  11  12
ENDBRANCH  10  11
ENDBRANCH   9  10
ENDBRANCH   8   9
ENDBRANCH   7   8
ENDBRANCH   6   7
ENDBRANCH   5   6
ENDBRANCH   4   5
ENDBRANCH   3   4
ENDBRANCH   2   3
ENDBRANCH   1   2
BRANCH   1  17
ATOM     17  C   UNL     1      43.574  65.477   5.459  1.00  0.00     0.000 C 
BRANCH  17  18
ATOM     18  C   UNL     1      42.937  64.449   4.509  1.00  0.00     0.000 C 
BRANCH  18  19
ATOM     19  C   UNL     1      42.371  63.231   5.256  1.00  0.00     0.000 C 
BRANCH  19  20
ATOM     20  C   UNL     1      43.079  63.033   6.605  1.00  0.00     0.000 C 
BRANCH  20  21
ATOM     21  C   UNL     1      42.526  61.831   7.388  1.00  0.00     0.000 C 
BRANCH  21  22
ATOM     22  C   UNL     1      42.912  61.874   8.877  1.00  0.00    -0.000 C 
BRANCH  22  23
ATOM     23  C   UNL     1      44.239  61.154   9.162  1.00  0.00    -0.000 C 
BRANCH  23  24
ATOM     24  C   UNL     1      44.261  60.483  10.546  1.00  0.00    -0.000 C 
BRANCH  24  25
ATOM     25  C   UNL     1      45.185  61.201  11.545  1.00  0.00    -0.000 C 
BRANCH  25  26
ATOM     26  C   UNL     1      44.457  62.007  12.637  1.00  0.00    -0.000 C 
BRANCH  26  27
ATOM     27  C   UNL     1      44.148  63.450  12.209  1.00  0.00    -0.000 C 
BRANCH  27  28
ATOM     28  C   UNL     1      42.633  63.703  12.189  1.00  0.00    -0.000 C 
BRANCH  28  29
ATOM     29  C   UNL     1      41.837  62.555  12.828  1.00  0.00    -0.003 C 
ATOM     30  C   UNL     1      40.823  61.933  11.869  1.00  0.00     0.004 C 
ENDBRANCH  28  29
ENDBRANCH  27  28
ENDBRANCH  26  27
ENDBRANCH  25  26
ENDBRANCH  24  25
ENDBRANCH  23  24
ENDBRANCH  22  23
ENDBRANCH  21  22
ENDBRANCH  20  21
ENDBRANCH  19  20
ENDBRANCH  18  19
ENDBRANCH  17  18
ENDBRANCH   1  17
TORSDOF 26
ENDMDL
MODEL 8
REMARK VINA RESULT:    -4.492      3.507      8.030
REMARK INTER + INTRA:         -16.047
REMARK INTER:                 -10.534
REMARK INTRA:                  -5.512
REMARK UNBOUND:                -4.726
REMARK SMILES CCCCCCCCCCCCCCCCCCCCCCCCCCCC(=O)[O-]
REMARK SMILES IDX 15 1 16 2 17 3 18 4 19 5 20 6 21 7 22 8 23 9 24 10 25 11
REMARK SMILES IDX 26 12 27 13 28 14 29 15 30 16 14 17 13 18 12 19 11 20 10 21
REMARK SMILES IDX 9 22 8 23 7 24 6 25 5 26 4 27 3 28 2 29 1 30
REMARK H PARENT
REMARK Flexibility Score: inf
ROOT
ATOM      1  C   UNL     1      41.060  64.738   9.133  1.00  0.00     0.000 C 
ENDROOT
BRANCH   1   2
ATOM      2  C   UNL     1      40.848  66.139   8.519  1.00  0.00     0.000 C 
BRANCH   2   3
ATOM      3  C   UNL     1      39.587  66.250   7.646  1.00  0.00     0.000 C 
BRANCH   3   4
ATOM      4  C   UNL     1      39.270  64.953   6.883  1.00  0.00     0.000 C 
BRANCH   4   5
ATOM      5  C   UNL     1      39.630  65.047   5.393  1.00  0.00     0.000 C 
BRANCH   5   6
ATOM      6  C   UNL     1      40.063  63.693   4.804  1.00  0.00     0.000 C 
BRANCH   6   7
ATOM      7  C   UNL     1      41.540  63.375   5.088  1.00  0.00     0.000 C 
BRANCH   7   8
ATOM      8  C   UNL     1      42.495  64.387   4.429  1.00  0.00     0.000 C 
BRANCH   8   9
ATOM      9  C   UNL     1      43.505  64.980   5.423  1.00  0.00     0.000 C 
BRANCH   9  10
ATOM     10  C   UNL     1      43.119  66.394   5.884  1.00  0.00     0.000 C 
BRANCH  10  11
ATOM     11  C   UNL     1      42.703  67.266   4.692  1.00  0.00     0.000 C 
BRANCH  11  12
ATOM     12  C   UNL     1      41.497  68.173   4.998  1.00  0.00     0.006 C 
BRANCH  12  13
ATOM     13  C   UNL     1      41.659  69.016   6.277  1.00  0.00     0.053 C 
BRANCH  13  14
ATOM     14  C   UNL     1      41.239  70.444   6.086  1.00  0.00     0.041 C 
ATOM     15  O   UNL     1      42.011  71.383   6.415  1.00  0.00    -0.550 OA
ATOM     16  O   UNL     1      40.013  70.735   5.502  1.00  0.00    -0.550 OA
ENDBRANCH  13  14
ENDBRANCH  12  13
ENDBRANCH  11  12
ENDBRANCH  10  11
ENDBRANCH   9  10
ENDBRANCH   8   9
ENDBRANCH   7   8
ENDBRANCH   6   7
ENDBRANCH   5   6
ENDBRANCH   4   5
ENDBRANCH   3   4
ENDBRANCH   2   3
ENDBRANCH   1   2
BRANCH   1  17
ATOM     17  C   UNL     1      42.382  64.095   8.682  1.00  0.00     0.000 C 
BRANCH  17  18
ATOM     18  C   UNL     1      42.286  62.564   8.572  1.00  0.00     0.000 C 
BRANCH  18  19
ATOM     19  C   UNL     1      43.476  61.953   7.817  1.00  0.00     0.000 C 
BRANCH  19  20
ATOM     20  C   UNL     1      44.327  61.075   8.747  1.00  0.00     0.000 C 
BRANCH  20  21
ATOM     21  C   UNL     1      43.470  60.247   9.720  1.00  0.00     0.000 C 
BRANCH  21  22
ATOM     22  C   UNL     1      44.059  60.217  11.141  1.00  0.00    -0.000 C 
BRANCH  22  23
ATOM     23  C   UNL     1      45.124  61.302  11.360  1.00  0.00    -0.000 C 
BRANCH  23  24
ATOM     24  C   UNL     1      44.700  62.343  12.410  1.00  0.00    -0.000 C 
BRANCH  24  25
ATOM     25  C   UNL     1      43.913  63.519  11.803  1.00  0.00    -0.000 C 
BRANCH  25  26
ATOM     26  C   UNL     1      42.541  63.784  12.452  1.00  0.00    -0.000 C 
BRANCH  26  27
ATOM     27  C   UNL     1      41.717  62.503  12.652  1.00  0.00    -0.000 C 
BRANCH  27  28
ATOM     28  C   UNL     1      40.225  62.766  12.398  1.00  0.00    -0.000 C 
BRANCH  28  29
ATOM     29  C   UNL     1      39.698  62.013  11.167  1.00  0.00    -0.003 C 
ATOM     30  C   UNL     1      40.146  60.552  11.131  1.00  0.00     0.004 C 
ENDBRANCH  28  29
ENDBRANCH  27  28
ENDBRANCH  26  27
ENDBRANCH  25  26
ENDBRANCH  24  25
ENDBRANCH  23  24
ENDBRANCH  22  23
ENDBRANCH  21  22
ENDBRANCH  20  21
ENDBRANCH  19  20
ENDBRANCH  18  19
ENDBRANCH  17  18
ENDBRANCH   1  17
TORSDOF 26
ENDMDL
MODEL 9
REMARK VINA RESULT:    -4.471      3.334      8.005
REMARK INTER + INTRA:         -15.993
REMARK INTER:                 -10.491
REMARK INTRA:                  -5.502
REMARK UNBOUND:                -4.726
REMARK SMILES CCCCCCCCCCCCCCCCCCCCCCCCCCCC(=O)[O-]
REMARK SMILES IDX 15 1 16 2 17 3 18 4 19 5 20 6 21 7 22 8 23 9 24 10 25 11
REMARK SMILES IDX 26 12 27 13 28 14 29 15 30 16 14 17 13 18 12 19 11 20 10 21
REMARK SMILES IDX 9 22 8 23 7 24 6 25 5 26 4 27 3 28 2 29 1 30
REMARK H PARENT
REMARK Flexibility Score: inf
ROOT
ATOM      1  C   UNL     1      42.635  65.973   8.577  1.00  0.00     0.000 C 
ENDROOT
BRANCH   1   2
ATOM      2  C   UNL     1      43.473  66.485   7.386  1.00  0.00     0.000 C 
BRANCH   2   3
ATOM      3  C   UNL     1      43.370  65.604   6.130  1.00  0.00     0.000 C 
BRANCH   3   4
ATOM      4  C   UNL     1      43.482  66.408   4.823  1.00  0.00     0.000 C 
BRANCH   4   5
ATOM      5  C   UNL     1      42.987  65.616   3.603  1.00  0.00     0.000 C 
BRANCH   5   6
ATOM      6  C   UNL     1      42.721  64.136   3.928  1.00  0.00     0.000 C 
BRANCH   6   7
ATOM      7  C   UNL     1      41.227  63.779   3.856  1.00  0.00     0.000 C 
BRANCH   7   8
ATOM      8  C   UNL     1      40.701  63.189   5.177  1.00  0.00     0.000 C 
BRANCH   8   9
ATOM      9  C   UNL     1      39.523  63.990   5.754  1.00  0.00     0.000 C 
BRANCH   9  10
ATOM     10  C   UNL     1      39.678  65.503   5.540  1.00  0.00     0.000 C 
BRANCH  10  11
ATOM     11  C   UNL     1      39.207  66.284   6.774  1.00  0.00     0.000 C 
BRANCH  11  12
ATOM     12  C   UNL     1      39.891  67.655   6.920  1.00  0.00     0.006 C 
BRANCH  12  13
ATOM     13  C   UNL     1      40.528  68.176   5.618  1.00  0.00     0.053 C 
BRANCH  13  14
ATOM     14  C   UNL     1      41.243  69.482   5.805  1.00  0.00     0.041 C 
ATOM     15  O   UNL     1      41.642  69.829   6.948  1.00  0.00    -0.550 OA
ATOM     16  O   UNL     1      41.507  70.293   4.709  1.00  0.00    -0.550 OA
ENDBRANCH  13  14
ENDBRANCH  12  13
ENDBRANCH  11  12
ENDBRANCH  10  11
ENDBRANCH   9  10
ENDBRANCH   8   9
ENDBRANCH   7   8
ENDBRANCH   6   7
ENDBRANCH   5   6
ENDBRANCH   4   5
ENDBRANCH   3   4
ENDBRANCH   2   3
ENDBRANCH   1   2
BRANCH   1  17
ATOM     17  C   UNL     1      42.136  64.533   8.366  1.00  0.00     0.000 C 
BRANCH  17  18
ATOM     18  C   UNL     1      40.970  64.170   9.300  1.00  0.00     0.000 C 
BRANCH  18  19
ATOM     19  C   UNL     1      40.472  62.732   9.087  1.00  0.00     0.000 C 
BRANCH  19  20
ATOM     20  C   UNL     1      40.729  61.870  10.333  1.00  0.00     0.000 C 
BRANCH  20  21
ATOM     21  C   UNL     1      40.383  62.605  11.638  1.00  0.00     0.000 C 
BRANCH  21  22
ATOM     22  C   UNL     1      41.524  62.537  12.669  1.00  0.00    -0.000 C 
BRANCH  22  23
ATOM     23  C   UNL     1      42.457  63.755  12.595  1.00  0.00    -0.000 C 
BRANCH  23  24
ATOM     24  C   UNL     1      43.690  63.501  11.712  1.00  0.00    -0.000 C 
BRANCH  24  25
ATOM     25  C   UNL     1      44.711  62.552  12.366  1.00  0.00    -0.000 C 
BRANCH  25  26
ATOM     26  C   UNL     1      45.141  61.360  11.491  1.00  0.00    -0.000 C 
BRANCH  26  27
ATOM     27  C   UNL     1      44.032  60.310  11.324  1.00  0.00    -0.000 C 
BRANCH  27  28
ATOM     28  C   UNL     1      43.890  59.893   9.852  1.00  0.00    -0.000 C 
BRANCH  28  29
ATOM     29  C   UNL     1      44.651  60.829   8.901  1.00  0.00    -0.003 C 
ATOM     30  C   UNL     1      43.740  61.485   7.863  1.00  0.00     0.004 C 
ENDBRANCH  28  29
ENDBRANCH  27  28
ENDBRANCH  26  27
ENDBRANCH  25  26
ENDBRANCH  24  25
ENDBRANCH  23  24
ENDBRANCH  22  23
ENDBRANCH  21  22
ENDBRANCH  20  21
ENDBRANCH  19  20
ENDBRANCH  18  19
ENDBRANCH  17  18
ENDBRANCH   1  17
TORSDOF 26
ENDMDL
