MODEL 1
REMARK VINA RESULT:    -8.425      0.000      0.000
REMARK INTER + INTRA:          -9.265
REMARK INTER:                  -9.164
REMARK INTRA:                  -0.101
REMARK UNBOUND:                -0.101
REMARK SMILES C[C@H]1[C@@H](C)CC[C@@]2(C(=O)[O-])CC[C@@]3(C)C(=CC[C@H]4[C@]5(C)CC[C@H](O)C(C)(C)[C@H]5CC[C@@]43C)[C@@H]12
REMARK SMILES IDX 7 1 6 2 11 3 33 4 5 5 12 6 15 7 2 8 3 9 13 10 16 11 1 12
REMARK SMILES IDX 4 13 14 14 31 15 17 16 18 17 30 18 32 19 19 20 29 21 28 22
REMARK SMILES IDX 21 23 20 24 25 25 22 26 23 27 26 28 27 29 8 30 9 31 10 32
REMARK SMILES IDX 24 33
REMARK H PARENT 24 34
REMARK Flexibility Score: inf
ROOT
ATOM      1  C   UNL     1      27.912   4.525 -10.661  1.00  0.00     0.017 C 
ATOM      2  C   UNL     1      27.849   4.335  -9.117  1.00  0.00     0.014 C 
ATOM      3  C   UNL     1      26.614   4.003 -11.319  1.00  0.00     0.014 C 
ATOM      4  C   UNL     1      28.131   6.032 -11.069  1.00  0.00     0.030 C 
ATOM      5  C   UNL     1      26.984   5.366  -8.399  1.00  0.00     0.004 C 
ATOM      6  C   UNL     1      26.723   3.986 -12.851  1.00  0.00     0.013 C 
ATOM      7  C   UNL     1      27.937   6.279 -12.576  1.00  0.00    -0.063 C 
ATOM      8  C   UNL     1      27.424   7.123 -10.174  1.00  0.00    -0.003 C 
ATOM      9  C   UNL     1      27.530   6.772  -8.666  1.00  0.00    -0.011 C 
ATOM     10  C   UNL     1      27.077   5.376 -13.495  1.00  0.00    -0.006 C 
ATOM     11  C   UNL     1      28.563   7.359 -13.108  1.00  0.00    -0.027 C 
ATOM     12  C   UNL     1      25.997   7.519 -10.603  1.00  0.00     0.008 C 
ATOM     13  C   UNL     1      26.868   7.802  -7.738  1.00  0.00     0.008 C 
ATOM     14  C   UNL     1      25.703   6.110 -13.668  1.00  0.00     0.017 C 
ATOM     15  C   UNL     1      27.872   5.201 -14.886  1.00  0.00    -0.020 C 
ATOM     16  C   UNL     1      28.644   7.680 -14.586  1.00  0.00     0.032 C 
ATOM     17  C   UNL     1      28.005   6.629 -15.546  1.00  0.00     0.006 C 
ATOM     18  C   UNL     1      27.116   4.239 -15.864  1.00  0.00     0.008 C 
ATOM     19  C   UNL     1      29.288   4.589 -14.615  1.00  0.00     0.012 C 
ATOM     20  C   UNL     1      28.549   6.673 -17.039  1.00  0.00    -0.025 C 
ATOM     21  C   UNL     1      27.628   4.271 -17.316  1.00  0.00     0.005 C 
ATOM     22  C   UNL     1      27.626   5.714 -17.887  1.00  0.00     0.003 C 
ATOM     23  C   UNL     1      28.368   8.127 -17.585  1.00  0.00     0.010 C 
ATOM     24  C   UNL     1      30.068   6.298 -17.120  1.00  0.00     0.012 C 
ATOM     25  C   UNL     1      27.779   5.818 -19.458  1.00  0.00    -0.006 C 
ATOM     26  C   UNL     1      28.566   8.252 -19.104  1.00  0.00     0.033 C 
ATOM     27  C   UNL     1      27.634   7.315 -19.890  1.00  0.00     0.120 C 
ATOM     28  C   UNL     1      29.117   5.240 -19.986  1.00  0.00     0.014 C 
ATOM     29  C   UNL     1      26.645   5.017 -20.159  1.00  0.00     0.014 C 
ENDROOT
BRANCH   1  30
ATOM     30  C   UNL     1      29.091   3.659 -11.122  1.00  0.00     0.048 C 
ATOM     31  O   UNL     1      28.956   2.409 -11.221  1.00  0.00    -0.550 OA
ATOM     32  O   UNL     1      30.348   4.210 -11.357  1.00  0.00    -0.550 OA
ENDBRANCH   1  30
BRANCH  27  33
ATOM     33  O   UNL     1      26.304   7.745 -19.721  1.00  0.00    -0.393 OA
ATOM     34  H   UNL     1      26.336   8.610 -19.232  1.00  0.00     0.210 HD
ENDBRANCH  27  33
TORSDOF 2
ENDMDL
MODEL 2
REMARK VINA RESULT:    -8.096      1.738      8.152
REMARK INTER + INTRA:          -8.906
REMARK INTER:                  -8.807
REMARK INTRA:                  -0.099
REMARK UNBOUND:                -0.101
REMARK SMILES C[C@H]1[C@@H](C)CC[C@@]2(C(=O)[O-])CC[C@@]3(C)C(=CC[C@H]4[C@]5(C)CC[C@H](O)C(C)(C)[C@H]5CC[C@@]43C)[C@@H]12
REMARK SMILES IDX 7 1 6 2 11 3 33 4 5 5 12 6 15 7 2 8 3 9 13 10 16 11 1 12
REMARK SMILES IDX 4 13 14 14 31 15 17 16 18 17 30 18 32 19 19 20 29 21 28 22
REMARK SMILES IDX 21 23 20 24 25 25 22 26 23 27 26 28 27 29 8 30 9 31 10 32
REMARK SMILES IDX 24 33
REMARK H PARENT 24 34
REMARK Flexibility Score: inf
ROOT
ATOM      1  C   UNL     1      26.952   8.128 -18.113  1.00  0.00     0.017 C 
ATOM      2  C   UNL     1      26.878   8.433 -19.637  1.00  0.00     0.014 C 
ATOM      3  C   UNL     1      25.529   8.006 -17.519  1.00  0.00     0.014 C 
ATOM      4  C   UNL     1      27.756   6.806 -17.807  1.00  0.00     0.030 C 
ATOM      5  C   UNL     1      26.543   7.220 -20.499  1.00  0.00     0.004 C 
ATOM      6  C   UNL     1      25.561   7.908 -15.988  1.00  0.00     0.013 C 
ATOM      7  C   UNL     1      27.622   6.348 -16.343  1.00  0.00    -0.063 C 
ATOM      8  C   UNL     1      27.598   5.620 -18.837  1.00  0.00    -0.003 C 
ATOM      9  C   UNL     1      27.609   6.137 -20.299  1.00  0.00    -0.011 C 
ATOM     10  C   UNL     1      26.431   6.724 -15.427  1.00  0.00    -0.006 C 
ATOM     11  C   UNL     1      28.615   5.568 -15.849  1.00  0.00    -0.027 C 
ATOM     12  C   UNL     1      26.445   4.637 -18.552  1.00  0.00     0.008 C 
ATOM     13  C   UNL     1      27.468   5.028 -21.354  1.00  0.00     0.008 C 
ATOM     14  C   UNL     1      25.476   5.481 -15.420  1.00  0.00     0.017 C 
ATOM     15  C   UNL     1      27.027   7.063 -13.969  1.00  0.00    -0.020 C 
ATOM     16  C   UNL     1      28.763   5.157 -14.398  1.00  0.00     0.032 C 
ATOM     17  C   UNL     1      27.710   5.753 -13.413  1.00  0.00     0.006 C 
ATOM     18  C   UNL     1      25.904   7.529 -12.982  1.00  0.00     0.008 C 
ATOM     19  C   UNL     1      28.074   8.222 -14.080  1.00  0.00     0.012 C 
ATOM     20  C   UNL     1      28.165   5.780 -11.890  1.00  0.00    -0.025 C 
ATOM     21  C   UNL     1      26.326   7.558 -11.501  1.00  0.00     0.005 C 
ATOM     22  C   UNL     1      26.896   6.189 -11.045  1.00  0.00     0.003 C 
ATOM     23  C   UNL     1      28.577   4.331 -11.474  1.00  0.00     0.010 C 
ATOM     24  C   UNL     1      29.390   6.730 -11.662  1.00  0.00     0.012 C 
ATOM     25  C   UNL     1      27.016   5.995  -9.480  1.00  0.00    -0.006 C 
ATOM     26  C   UNL     1      28.749   4.141  -9.959  1.00  0.00     0.033 C 
ATOM     27  C   UNL     1      27.484   4.533  -9.177  1.00  0.00     0.120 C 
ATOM     28  C   UNL     1      27.975   7.010  -8.805  1.00  0.00     0.014 C 
ATOM     29  C   UNL     1      25.626   6.189  -8.810  1.00  0.00     0.014 C 
ENDROOT
BRANCH   1  30
ATOM     30  C   UNL     1      27.650   9.346 -17.495  1.00  0.00     0.048 C 
ATOM     31  O   UNL     1      27.011  10.420 -17.323  1.00  0.00    -0.550 OA
ATOM     32  O   UNL     1      29.009   9.327 -17.191  1.00  0.00    -0.550 OA
ENDBRANCH   1  30
BRANCH  27  33
ATOM     33  O   UNL     1      26.457   3.619  -9.484  1.00  0.00    -0.393 OA
ATOM     34  H   UNL     1      26.831   2.706  -9.363  1.00  0.00     0.210 HD
ENDBRANCH  27  33
TORSDOF 2
ENDMDL
MODEL 3
REMARK VINA RESULT:    -8.067      2.059      7.908
REMARK INTER + INTRA:          -8.875
REMARK INTER:                  -8.856
REMARK INTRA:                  -0.019
REMARK UNBOUND:                -0.101
REMARK SMILES C[C@H]1[C@@H](C)CC[C@@]2(C(=O)[O-])CC[C@@]3(C)C(=CC[C@H]4[C@]5(C)CC[C@H](O)C(C)(C)[C@H]5CC[C@@]43C)[C@@H]12
REMARK SMILES IDX 7 1 6 2 11 3 33 4 5 5 12 6 15 7 2 8 3 9 13 10 16 11 1 12
REMARK SMILES IDX 4 13 14 14 31 15 17 16 18 17 30 18 32 19 19 20 29 21 28 22
REMARK SMILES IDX 21 23 20 24 25 25 22 26 23 27 26 28 27 29 8 30 9 31 10 32
REMARK SMILES IDX 24 33
REMARK H PARENT 24 34
REMARK Flexibility Score: inf
ROOT
ATOM      1  C   UNL     1      24.559   5.618 -18.194  1.00  0.00     0.017 C 
ATOM      2  C   UNL     1      23.911   5.747 -19.604  1.00  0.00     0.014 C 
ATOM      3  C   UNL     1      25.021   4.162 -17.947  1.00  0.00     0.014 C 
ATOM      4  C   UNL     1      25.786   6.590 -18.009  1.00  0.00     0.030 C 
ATOM      5  C   UNL     1      24.918   5.795 -20.748  1.00  0.00     0.004 C 
ATOM      6  C   UNL     1      25.477   3.952 -16.496  1.00  0.00     0.013 C 
ATOM      7  C   UNL     1      26.595   6.297 -16.732  1.00  0.00    -0.063 C 
ATOM      8  C   UNL     1      26.701   6.832 -19.272  1.00  0.00    -0.003 C 
ATOM      9  C   UNL     1      25.853   6.994 -20.561  1.00  0.00    -0.011 C 
ATOM     10  C   UNL     1      26.624   4.919 -16.026  1.00  0.00    -0.006 C 
ATOM     11  C   UNL     1      27.320   7.320 -16.216  1.00  0.00    -0.027 C 
ATOM     12  C   UNL     1      27.878   5.852 -19.443  1.00  0.00     0.008 C 
ATOM     13  C   UNL     1      26.686   7.243 -21.828  1.00  0.00     0.008 C 
ATOM     14  C   UNL     1      27.956   4.225 -16.474  1.00  0.00     0.017 C 
ATOM     15  C   UNL     1      26.562   5.186 -14.437  1.00  0.00    -0.020 C 
ATOM     16  C   UNL     1      28.041   7.294 -14.884  1.00  0.00     0.032 C 
ATOM     17  C   UNL     1      27.855   5.998 -14.036  1.00  0.00     0.006 C 
ATOM     18  C   UNL     1      26.512   3.845 -13.630  1.00  0.00     0.008 C 
ATOM     19  C   UNL     1      25.272   6.003 -14.087  1.00  0.00     0.012 C 
ATOM     20  C   UNL     1      28.129   6.174 -12.480  1.00  0.00    -0.025 C 
ATOM     21  C   UNL     1      26.777   3.997 -12.121  1.00  0.00     0.005 C 
ATOM     22  C   UNL     1      28.120   4.727 -11.851  1.00  0.00     0.003 C 
ATOM     23  C   UNL     1      29.561   6.773 -12.297  1.00  0.00     0.010 C 
ATOM     24  C   UNL     1      27.096   7.144 -11.811  1.00  0.00     0.012 C 
ATOM     25  C   UNL     1      28.664   4.614 -10.370  1.00  0.00    -0.006 C 
ATOM     26  C   UNL     1      30.081   6.718 -10.852  1.00  0.00     0.033 C 
ATOM     27  C   UNL     1      30.073   5.288 -10.287  1.00  0.00     0.120 C 
ATOM     28  C   UNL     1      27.713   5.239  -9.315  1.00  0.00     0.014 C 
ATOM     29  C   UNL     1      28.836   3.119  -9.976  1.00  0.00     0.014 C 
ENDROOT
BRANCH   1  30
ATOM     30  C   UNL     1      23.437   5.961 -17.207  1.00  0.00     0.048 C 
ATOM     31  O   UNL     1      23.280   7.151 -16.817  1.00  0.00    -0.550 OA
ATOM     32  O   UNL     1      22.627   4.971 -16.656  1.00  0.00    -0.550 OA
ENDBRANCH   1  30
BRANCH  27  33
ATOM     33  O   UNL     1      31.024   4.517 -10.982  1.00  0.00    -0.393 OA
ATOM     34  H   UNL     1      30.667   4.366 -11.897  1.00  0.00     0.210 HD
ENDBRANCH  27  33
TORSDOF 2
ENDMDL
MODEL 4
REMARK VINA RESULT:    -8.051      2.164      8.265
REMARK INTER + INTRA:          -8.858
REMARK INTER:                  -8.759
REMARK INTRA:                  -0.099
REMARK UNBOUND:                -0.101
REMARK SMILES C[C@H]1[C@@H](C)CC[C@@]2(C(=O)[O-])CC[C@@]3(C)C(=CC[C@H]4[C@]5(C)CC[C@H](O)C(C)(C)[C@H]5CC[C@@]43C)[C@@H]12
REMARK SMILES IDX 7 1 6 2 11 3 33 4 5 5 12 6 15 7 2 8 3 9 13 10 16 11 1 12
REMARK SMILES IDX 4 13 14 14 31 15 17 16 18 17 30 18 32 19 19 20 29 21 28 22
REMARK SMILES IDX 21 23 20 24 25 25 22 26 23 27 26 28 27 29 8 30 9 31 10 32
REMARK SMILES IDX 24 33
REMARK H PARENT 24 34
REMARK Flexibility Score: inf
ROOT
ATOM      1  C   UNL     1      28.616   7.779 -19.296  1.00  0.00     0.017 C 
ATOM      2  C   UNL     1      29.047   7.884 -20.787  1.00  0.00     0.014 C 
ATOM      3  C   UNL     1      27.253   8.481 -19.081  1.00  0.00     0.014 C 
ATOM      4  C   UNL     1      28.511   6.284 -18.808  1.00  0.00     0.030 C 
ATOM      5  C   UNL     1      28.321   6.917 -21.715  1.00  0.00     0.004 C 
ATOM      6  C   UNL     1      26.894   8.574 -17.591  1.00  0.00     0.013 C 
ATOM      7  C   UNL     1      27.840   6.148 -17.429  1.00  0.00    -0.063 C 
ATOM      8  C   UNL     1      27.979   5.228 -19.854  1.00  0.00    -0.003 C 
ATOM      9  C   UNL     1      28.580   5.476 -21.263  1.00  0.00    -0.011 C 
ATOM     10  C   UNL     1      26.861   7.193 -16.839  1.00  0.00    -0.006 C 
ATOM     11  C   UNL     1      28.136   5.039 -16.707  1.00  0.00    -0.027 C 
ATOM     12  C   UNL     1      26.452   5.020 -19.877  1.00  0.00     0.008 C 
ATOM     13  C   UNL     1      28.109   4.474 -22.328  1.00  0.00     0.008 C 
ATOM     14  C   UNL     1      25.419   6.629 -17.083  1.00  0.00     0.017 C 
ATOM     15  C   UNL     1      27.212   7.360 -15.275  1.00  0.00    -0.020 C 
ATOM     16  C   UNL     1      27.724   4.797 -15.270  1.00  0.00     0.032 C 
ATOM     17  C   UNL     1      26.960   5.967 -14.576  1.00  0.00     0.006 C 
ATOM     18  C   UNL     1      26.320   8.455 -14.599  1.00  0.00     0.008 C 
ATOM     19  C   UNL     1      28.708   7.793 -15.110  1.00  0.00     0.012 C 
ATOM     20  C   UNL     1      27.015   5.949 -12.987  1.00  0.00    -0.025 C 
ATOM     21  C   UNL     1      26.360   8.451 -13.059  1.00  0.00     0.005 C 
ATOM     22  C   UNL     1      26.005   7.053 -12.486  1.00  0.00     0.003 C 
ATOM     23  C   UNL     1      26.498   4.559 -12.493  1.00  0.00     0.010 C 
ATOM     24  C   UNL     1      28.473   6.156 -12.450  1.00  0.00     0.012 C 
ATOM     25  C   UNL     1      25.660   7.024 -10.943  1.00  0.00    -0.006 C 
ATOM     26  C   UNL     1      26.209   4.501 -10.985  1.00  0.00     0.033 C 
ATOM     27  C   UNL     1      25.207   5.581 -10.544  1.00  0.00     0.120 C 
ATOM     28  C   UNL     1      26.836   7.480 -10.040  1.00  0.00     0.014 C 
ATOM     29  C   UNL     1      24.476   7.987 -10.642  1.00  0.00     0.014 C 
ENDROOT
BRANCH   1  30
ATOM     30  C   UNL     1      29.697   8.534 -18.513  1.00  0.00     0.048 C 
ATOM     31  O   UNL     1      29.710   9.795 -18.509  1.00  0.00    -0.550 OA
ATOM     32  O   UNL     1      30.727   7.858 -17.864  1.00  0.00    -0.550 OA
ENDBRANCH   1  30
BRANCH  27  33
ATOM     33  O   UNL     1      23.948   5.292 -11.106  1.00  0.00    -0.393 OA
ATOM     34  H   UNL     1      24.031   4.423 -11.580  1.00  0.00     0.210 HD
ENDBRANCH  27  33
TORSDOF 2
ENDMDL
MODEL 5
REMARK VINA RESULT:    -7.934      3.497      6.495
REMARK INTER + INTRA:          -8.730
REMARK INTER:                  -8.633
REMARK INTRA:                  -0.096
REMARK UNBOUND:                -0.101
REMARK SMILES C[C@H]1[C@@H](C)CC[C@@]2(C(=O)[O-])CC[C@@]3(C)C(=CC[C@H]4[C@]5(C)CC[C@H](O)C(C)(C)[C@H]5CC[C@@]43C)[C@@H]12
REMARK SMILES IDX 7 1 6 2 11 3 33 4 5 5 12 6 15 7 2 8 3 9 13 10 16 11 1 12
REMARK SMILES IDX 4 13 14 14 31 15 17 16 18 17 30 18 32 19 19 20 29 21 28 22
REMARK SMILES IDX 21 23 20 24 25 25 22 26 23 27 26 28 27 29 8 30 9 31 10 32
REMARK SMILES IDX 24 33
REMARK H PARENT 24 34
REMARK Flexibility Score: inf
ROOT
ATOM      1  C   UNL     1      26.224   6.393 -16.683  1.00  0.00     0.017 C 
ATOM      2  C   UNL     1      25.938   6.295 -15.157  1.00  0.00     0.014 C 
ATOM      3  C   UNL     1      25.626   7.699 -17.259  1.00  0.00     0.014 C 
ATOM      4  C   UNL     1      27.767   6.343 -17.006  1.00  0.00     0.030 C 
ATOM      5  C   UNL     1      26.840   7.173 -14.297  1.00  0.00     0.004 C 
ATOM      6  C   UNL     1      25.711   7.732 -18.791  1.00  0.00     0.013 C 
ATOM      7  C   UNL     1      28.084   6.698 -18.471  1.00  0.00    -0.063 C 
ATOM      8  C   UNL     1      28.734   7.054 -15.980  1.00  0.00    -0.003 C 
ATOM      9  C   UNL     1      28.304   6.777 -14.515  1.00  0.00    -0.011 C 
ATOM     10  C   UNL     1      27.163   7.560 -19.369  1.00  0.00    -0.006 C 
ATOM     11  C   UNL     1      29.246   6.219 -18.981  1.00  0.00    -0.027 C 
ATOM     12  C   UNL     1      29.022   8.543 -16.255  1.00  0.00     0.008 C 
ATOM     13  C   UNL     1      29.212   7.434 -13.464  1.00  0.00     0.008 C 
ATOM     14  C   UNL     1      27.778   9.002 -19.370  1.00  0.00     0.017 C 
ATOM     15  C   UNL     1      27.144   6.888 -20.833  1.00  0.00    -0.020 C 
ATOM     16  C   UNL     1      29.661   6.305 -20.435  1.00  0.00     0.032 C 
ATOM     17  C   UNL     1      28.616   6.939 -21.404  1.00  0.00     0.006 C 
ATOM     18  C   UNL     1      26.178   7.647 -21.803  1.00  0.00     0.008 C 
ATOM     19  C   UNL     1      26.649   5.405 -20.730  1.00  0.00     0.012 C 
ATOM     20  C   UNL     1      28.799   6.544 -22.933  1.00  0.00    -0.025 C 
ATOM     21  C   UNL     1      26.344   7.278 -23.289  1.00  0.00     0.005 C 
ATOM     22  C   UNL     1      27.811   7.457 -23.759  1.00  0.00     0.003 C 
ATOM     23  C   UNL     1      30.260   6.899 -23.361  1.00  0.00     0.010 C 
ATOM     24  C   UNL     1      28.569   5.012 -23.172  1.00  0.00     0.012 C 
ATOM     25  C   UNL     1      28.023   7.462 -25.326  1.00  0.00    -0.006 C 
ATOM     26  C   UNL     1      30.493   6.856 -24.879  1.00  0.00     0.033 C 
ATOM     27  C   UNL     1      29.524   7.774 -25.642  1.00  0.00     0.120 C 
ATOM     28  C   UNL     1      27.602   6.134 -26.009  1.00  0.00     0.014 C 
ATOM     29  C   UNL     1      27.165   8.583 -25.978  1.00  0.00     0.014 C 
ENDROOT
BRANCH   1  30
ATOM     30  C   UNL     1      25.498   5.193 -17.304  1.00  0.00     0.048 C 
ATOM     31  O   UNL     1      24.248   5.228 -17.471  1.00  0.00    -0.550 OA
ATOM     32  O   UNL     1      26.176   4.017 -17.617  1.00  0.00    -0.550 OA
ENDBRANCH   1  30
BRANCH  27  33
ATOM     33  O   UNL     1      29.820   9.114 -25.327  1.00  0.00    -0.393 OA
ATOM     34  H   UNL     1      28.965   9.619 -25.365  1.00  0.00     0.210 HD
ENDBRANCH  27  33
TORSDOF 2
ENDMDL
MODEL 6
REMARK VINA RESULT:    -7.933      4.213      7.597
REMARK INTER + INTRA:          -8.730
REMARK INTER:                  -8.633
REMARK INTRA:                  -0.096
REMARK UNBOUND:                -0.101
REMARK SMILES C[C@H]1[C@@H](C)CC[C@@]2(C(=O)[O-])CC[C@@]3(C)C(=CC[C@H]4[C@]5(C)CC[C@H](O)C(C)(C)[C@H]5CC[C@@]43C)[C@@H]12
REMARK SMILES IDX 7 1 6 2 11 3 33 4 5 5 12 6 15 7 2 8 3 9 13 10 16 11 1 12
REMARK SMILES IDX 4 13 14 14 31 15 17 16 18 17 30 18 32 19 19 20 29 21 28 22
REMARK SMILES IDX 21 23 20 24 25 25 22 26 23 27 26 28 27 29 8 30 9 31 10 32
REMARK SMILES IDX 24 33
REMARK H PARENT 24 34
REMARK Flexibility Score: inf
ROOT
ATOM      1  C   UNL     1      33.114   2.689 -12.462  1.00  0.00     0.017 C 
ATOM      2  C   UNL     1      34.398   1.902 -12.853  1.00  0.00     0.014 C 
ATOM      3  C   UNL     1      32.441   3.277 -13.725  1.00  0.00     0.014 C 
ATOM      4  C   UNL     1      32.074   1.790 -11.691  1.00  0.00     0.030 C 
ATOM      5  C   UNL     1      34.127   0.521 -13.440  1.00  0.00     0.004 C 
ATOM      6  C   UNL     1      31.290   4.227 -13.362  1.00  0.00     0.013 C 
ATOM      7  C   UNL     1      30.701   2.469 -11.526  1.00  0.00    -0.063 C 
ATOM      8  C   UNL     1      31.961   0.282 -12.142  1.00  0.00    -0.003 C 
ATOM      9  C   UNL     1      33.359  -0.329 -12.423  1.00  0.00    -0.011 C 
ATOM     10  C   UNL     1      30.172   3.584 -12.462  1.00  0.00    -0.006 C 
ATOM     11  C   UNL     1      29.926   2.047 -10.496  1.00  0.00    -0.027 C 
ATOM     12  C   UNL     1      30.940  -0.007 -13.260  1.00  0.00     0.008 C 
ATOM     13  C   UNL     1      33.319  -1.803 -12.858  1.00  0.00     0.008 C 
ATOM     14  C   UNL     1      29.190   2.885 -13.464  1.00  0.00     0.017 C 
ATOM     15  C   UNL     1      29.444   4.688 -11.540  1.00  0.00    -0.020 C 
ATOM     16  C   UNL     1      28.629   2.695 -10.058  1.00  0.00     0.032 C 
ATOM     17  C   UNL     1      28.220   3.988 -10.830  1.00  0.00     0.006 C 
ATOM     18  C   UNL     1      28.935   5.901 -12.389  1.00  0.00     0.008 C 
ATOM     19  C   UNL     1      30.453   5.239 -10.476  1.00  0.00     0.012 C 
ATOM     20  C   UNL     1      27.212   4.938 -10.051  1.00  0.00    -0.025 C 
ATOM     21  C   UNL     1      27.955   6.832 -11.650  1.00  0.00     0.005 C 
ATOM     22  C   UNL     1      26.748   6.044 -11.076  1.00  0.00     0.003 C 
ATOM     23  C   UNL     1      25.959   4.098  -9.643  1.00  0.00     0.010 C 
ATOM     24  C   UNL     1      27.856   5.533  -8.751  1.00  0.00     0.012 C 
ATOM     25  C   UNL     1      25.517   6.930 -10.626  1.00  0.00    -0.006 C 
ATOM     26  C   UNL     1      24.773   4.944  -9.153  1.00  0.00     0.033 C 
ATOM     27  C   UNL     1      24.341   5.994 -10.190  1.00  0.00     0.120 C 
ATOM     28  C   UNL     1      25.857   7.922  -9.483  1.00  0.00     0.014 C 
ATOM     29  C   UNL     1      25.013   7.790 -11.820  1.00  0.00     0.014 C 
ENDROOT
BRANCH   1  30
ATOM     30  C   UNL     1      33.605   3.839 -11.575  1.00  0.00     0.048 C 
ATOM     31  O   UNL     1      34.122   4.865 -12.098  1.00  0.00    -0.550 OA
ATOM     32  O   UNL     1      33.573   3.749 -10.185  1.00  0.00    -0.550 OA
ENDBRANCH   1  30
BRANCH  27  33
ATOM     33  O   UNL     1      23.802   5.334 -11.311  1.00  0.00    -0.393 OA
ATOM     34  H   UNL     1      24.003   4.367 -11.207  1.00  0.00     0.210 HD
ENDBRANCH  27  33
TORSDOF 2
ENDMDL
MODEL 7
REMARK VINA RESULT:    -7.933      3.634     10.260
REMARK INTER + INTRA:          -8.730
REMARK INTER:                  -8.632
REMARK INTRA:                  -0.097
REMARK UNBOUND:                -0.101
REMARK SMILES C[C@H]1[C@@H](C)CC[C@@]2(C(=O)[O-])CC[C@@]3(C)C(=CC[C@H]4[C@]5(C)CC[C@H](O)C(C)(C)[C@H]5CC[C@@]43C)[C@@H]12
REMARK SMILES IDX 7 1 6 2 11 3 33 4 5 5 12 6 15 7 2 8 3 9 13 10 16 11 1 12
REMARK SMILES IDX 4 13 14 14 31 15 17 16 18 17 30 18 32 19 19 20 29 21 28 22
REMARK SMILES IDX 21 23 20 24 25 25 22 26 23 27 26 28 27 29 8 30 9 31 10 32
REMARK SMILES IDX 24 33
REMARK H PARENT 24 34
REMARK Flexibility Score: inf
ROOT
ATOM      1  C   UNL     1      29.705   7.080 -24.091  1.00  0.00     0.017 C 
ATOM      2  C   UNL     1      29.899   7.249 -25.626  1.00  0.00     0.014 C 
ATOM      3  C   UNL     1      29.637   8.465 -23.404  1.00  0.00     0.014 C 
ATOM      4  C   UNL     1      28.403   6.263 -23.741  1.00  0.00     0.030 C 
ATOM      5  C   UNL     1      28.630   7.640 -26.375  1.00  0.00     0.004 C 
ATOM      6  C   UNL     1      29.650   8.337 -21.874  1.00  0.00     0.013 C 
ATOM      7  C   UNL     1      28.053   6.308 -22.242  1.00  0.00    -0.063 C 
ATOM      8  C   UNL     1      27.146   6.489 -24.670  1.00  0.00    -0.003 C 
ATOM      9  C   UNL     1      27.556   6.567 -26.164  1.00  0.00    -0.011 C 
ATOM     10  C   UNL     1      28.503   7.438 -21.284  1.00  0.00    -0.006 C 
ATOM     11  C   UNL     1      27.303   5.288 -21.755  1.00  0.00    -0.027 C 
ATOM     12  C   UNL     1      26.196   7.625 -24.243  1.00  0.00     0.008 C 
ATOM     13  C   UNL     1      26.375   6.777 -27.124  1.00  0.00     0.008 C 
ATOM     14  C   UNL     1      27.272   8.395 -21.127  1.00  0.00     0.017 C 
ATOM     15  C   UNL     1      28.943   6.752 -19.893  1.00  0.00    -0.020 C 
ATOM     16  C   UNL     1      26.997   5.052 -20.290  1.00  0.00     0.032 C 
ATOM     17  C   UNL     1      27.670   6.039 -19.287  1.00  0.00     0.006 C 
ATOM     18  C   UNL     1      29.487   7.809 -18.875  1.00  0.00     0.008 C 
ATOM     19  C   UNL     1      30.082   5.709 -20.154  1.00  0.00     0.012 C 
ATOM     20  C   UNL     1      27.804   5.490 -17.801  1.00  0.00    -0.025 C 
ATOM     21  C   UNL     1      29.620   7.295 -17.429  1.00  0.00     0.005 C 
ATOM     22  C   UNL     1      28.283   6.703 -16.912  1.00  0.00     0.003 C 
ATOM     23  C   UNL     1      26.386   5.057 -17.307  1.00  0.00     0.010 C 
ATOM     24  C   UNL     1      28.759   4.250 -17.719  1.00  0.00     0.012 C 
ATOM     25  C   UNL     1      28.202   6.486 -15.347  1.00  0.00    -0.006 C 
ATOM     26  C   UNL     1      26.305   4.792 -15.796  1.00  0.00     0.033 C 
ATOM     27  C   UNL     1      26.762   6.005 -14.968  1.00  0.00     0.120 C 
ATOM     28  C   UNL     1      29.255   5.484 -14.808  1.00  0.00     0.014 C 
ATOM     29  C   UNL     1      28.455   7.831 -14.608  1.00  0.00     0.014 C 
ENDROOT
BRANCH   1  30
ATOM     30  C   UNL     1      30.959   6.341 -23.609  1.00  0.00     0.048 C 
ATOM     31  O   UNL     1      32.047   6.965 -23.473  1.00  0.00    -0.550 OA
ATOM     32  O   UNL     1      30.952   4.966 -23.392  1.00  0.00    -0.550 OA
ENDBRANCH   1  30
BRANCH  27  33
ATOM     33  O   UNL     1      25.836   7.052 -15.143  1.00  0.00    -0.393 OA
ATOM     34  H   UNL     1      25.507   7.305 -14.241  1.00  0.00     0.210 HD
ENDBRANCH  27  33
TORSDOF 2
ENDMDL
MODEL 8
REMARK VINA RESULT:    -7.901      2.237      7.922
REMARK INTER + INTRA:          -8.694
REMARK INTER:                  -8.596
REMARK INTRA:                  -0.098
REMARK UNBOUND:                -0.101
REMARK SMILES C[C@H]1[C@@H](C)CC[C@@]2(C(=O)[O-])CC[C@@]3(C)C(=CC[C@H]4[C@]5(C)CC[C@H](O)C(C)(C)[C@H]5CC[C@@]43C)[C@@H]12
REMARK SMILES IDX 7 1 6 2 11 3 33 4 5 5 12 6 15 7 2 8 3 9 13 10 16 11 1 12
REMARK SMILES IDX 4 13 14 14 31 15 17 16 18 17 30 18 32 19 19 20 29 21 28 22
REMARK SMILES IDX 21 23 20 24 25 25 22 26 23 27 26 28 27 29 8 30 9 31 10 32
REMARK SMILES IDX 24 33
REMARK H PARENT 24 34
REMARK Flexibility Score: inf
ROOT
ATOM      1  C   UNL     1      28.948   6.264 -18.350  1.00  0.00     0.017 C 
ATOM      2  C   UNL     1      29.257   6.336 -19.873  1.00  0.00     0.014 C 
ATOM      3  C   UNL     1      29.534   7.498 -17.624  1.00  0.00     0.014 C 
ATOM      4  C   UNL     1      27.401   6.176 -18.058  1.00  0.00     0.030 C 
ATOM      5  C   UNL     1      28.365   7.304 -20.644  1.00  0.00     0.004 C 
ATOM      6  C   UNL     1      29.427   7.361 -16.099  1.00  0.00     0.013 C 
ATOM      7  C   UNL     1      27.061   6.366 -16.568  1.00  0.00    -0.063 C 
ATOM      8  C   UNL     1      26.448   6.995 -19.012  1.00  0.00    -0.003 C 
ATOM      9  C   UNL     1      26.899   6.884 -20.492  1.00  0.00    -0.011 C 
ATOM     10  C   UNL     1      27.967   7.124 -15.566  1.00  0.00    -0.006 C 
ATOM     11  C   UNL     1      25.894   5.832 -16.131  1.00  0.00    -0.027 C 
ATOM     12  C   UNL     1      26.151   8.444 -18.578  1.00  0.00     0.008 C 
ATOM     13  C   UNL     1      26.004   7.652 -21.477  1.00  0.00     0.008 C 
ATOM     14  C   UNL     1      27.348   8.556 -15.413  1.00  0.00     0.017 C 
ATOM     15  C   UNL     1      27.966   6.293 -14.185  1.00  0.00    -0.020 C 
ATOM     16  C   UNL     1      25.457   5.755 -14.682  1.00  0.00     0.032 C 
ATOM     17  C   UNL     1      26.486   6.278 -13.633  1.00  0.00     0.006 C 
ATOM     18  C   UNL     1      28.916   6.941 -13.122  1.00  0.00     0.008 C 
ATOM     19  C   UNL     1      28.467   4.832 -14.445  1.00  0.00     0.012 C 
ATOM     20  C   UNL     1      26.283   5.715 -12.161  1.00  0.00    -0.025 C 
ATOM     21  C   UNL     1      28.730   6.408 -11.689  1.00  0.00     0.005 C 
ATOM     22  C   UNL     1      27.255   6.532 -11.224  1.00  0.00     0.003 C 
ATOM     23  C   UNL     1      24.815   6.018 -11.718  1.00  0.00     0.010 C 
ATOM     24  C   UNL     1      26.513   4.167 -12.090  1.00  0.00     0.012 C 
ATOM     25  C   UNL     1      27.020   6.362  -9.669  1.00  0.00    -0.006 C 
ATOM     26  C   UNL     1      24.559   5.806 -10.217  1.00  0.00     0.033 C 
ATOM     27  C   UNL     1      25.515   6.635  -9.343  1.00  0.00     0.120 C 
ATOM     28  C   UNL     1      27.436   4.968  -9.132  1.00  0.00     0.014 C 
ATOM     29  C   UNL     1      27.866   7.406  -8.884  1.00  0.00     0.014 C 
ENDROOT
BRANCH   1  30
ATOM     30  C   UNL     1      29.669   5.003 -17.856  1.00  0.00     0.048 C 
ATOM     31  O   UNL     1      30.918   5.018 -17.679  1.00  0.00    -0.550 OA
ATOM     32  O   UNL     1      28.987   3.803 -17.673  1.00  0.00    -0.550 OA
ENDBRANCH   1  30
BRANCH  27  33
ATOM     33  O   UNL     1      25.219   8.001  -9.512  1.00  0.00    -0.393 OA
ATOM     34  H   UNL     1      25.258   8.191 -10.486  1.00  0.00     0.210 HD
ENDBRANCH  27  33
TORSDOF 2
ENDMDL
MODEL 9
REMARK VINA RESULT:    -7.871      1.785      7.920
REMARK INTER + INTRA:          -8.662
REMARK INTER:                  -8.562
REMARK INTRA:                  -0.100
REMARK UNBOUND:                -0.101
REMARK SMILES C[C@H]1[C@@H](C)CC[C@@]2(C(=O)[O-])CC[C@@]3(C)C(=CC[C@H]4[C@]5(C)CC[C@H](O)C(C)(C)[C@H]5CC[C@@]43C)[C@@H]12
REMARK SMILES IDX 7 1 6 2 11 3 33 4 5 5 12 6 15 7 2 8 3 9 13 10 16 11 1 12
REMARK SMILES IDX 4 13 14 14 31 15 17 16 18 17 30 18 32 19 19 20 29 21 28 22
REMARK SMILES IDX 21 23 20 24 25 25 22 26 23 27 26 28 27 29 8 30 9 31 10 32
REMARK SMILES IDX 24 33
REMARK H PARENT 24 34
REMARK Flexibility Score: inf
ROOT
ATOM      1  C   UNL     1      27.096   5.979 -18.105  1.00  0.00     0.017 C 
ATOM      2  C   UNL     1      27.367   6.134 -19.630  1.00  0.00     0.014 C 
ATOM      3  C   UNL     1      28.071   4.948 -17.489  1.00  0.00     0.014 C 
ATOM      4  C   UNL     1      27.232   7.347 -17.332  1.00  0.00     0.030 C 
ATOM      5  C   UNL     1      28.589   6.983 -19.961  1.00  0.00     0.004 C 
ATOM      6  C   UNL     1      27.702   4.619 -16.035  1.00  0.00     0.013 C 
ATOM      7  C   UNL     1      27.227   7.174 -15.802  1.00  0.00    -0.063 C 
ATOM      8  C   UNL     1      28.352   8.340 -17.832  1.00  0.00    -0.003 C 
ATOM      9  C   UNL     1      28.412   8.390 -19.382  1.00  0.00    -0.011 C 
ATOM     10  C   UNL     1      27.637   5.867 -15.080  1.00  0.00    -0.006 C 
ATOM     11  C   UNL     1      26.839   8.244 -15.064  1.00  0.00    -0.027 C 
ATOM     12  C   UNL     1      29.738   8.169 -17.179  1.00  0.00     0.008 C 
ATOM     13  C   UNL     1      29.479   9.348 -19.935  1.00  0.00     0.008 C 
ATOM     14  C   UNL     1      29.110   6.083 -14.587  1.00  0.00     0.017 C 
ATOM     15  C   UNL     1      26.601   5.634 -13.868  1.00  0.00    -0.020 C 
ATOM     16  C   UNL     1      26.599   8.231 -13.568  1.00  0.00     0.032 C 
ATOM     17  C   UNL     1      26.753   6.846 -12.867  1.00  0.00     0.006 C 
ATOM     18  C   UNL     1      26.887   4.292 -13.115  1.00  0.00     0.008 C 
ATOM     19  C   UNL     1      25.139   5.566 -14.427  1.00  0.00     0.012 C 
ATOM     20  C   UNL     1      25.996   6.716 -11.475  1.00  0.00    -0.025 C 
ATOM     21  C   UNL     1      26.163   4.150 -11.763  1.00  0.00     0.005 C 
ATOM     22  C   UNL     1      26.463   5.354 -10.830  1.00  0.00     0.003 C 
ATOM     23  C   UNL     1      26.472   7.880 -10.547  1.00  0.00     0.010 C 
ATOM     24  C   UNL     1      24.441   6.819 -11.643  1.00  0.00     0.012 C 
ATOM     25  C   UNL     1      26.080   5.141  -9.311  1.00  0.00    -0.006 C 
ATOM     26  C   UNL     1      26.061   7.713  -9.075  1.00  0.00     0.033 C 
ATOM     27  C   UNL     1      26.553   6.382  -8.482  1.00  0.00     0.120 C 
ATOM     28  C   UNL     1      24.565   4.899  -9.085  1.00  0.00     0.014 C 
ATOM     29  C   UNL     1      26.814   3.893  -8.743  1.00  0.00     0.014 C 
ENDROOT
BRANCH   1  30
ATOM     30  C   UNL     1      25.665   5.437 -18.006  1.00  0.00     0.048 C 
ATOM     31  O   UNL     1      25.432   4.221 -18.248  1.00  0.00    -0.550 OA
ATOM     32  O   UNL     1      24.588   6.277 -17.735  1.00  0.00    -0.550 OA
ENDBRANCH   1  30
BRANCH  27  33
ATOM     33  O   UNL     1      27.959   6.409  -8.404  1.00  0.00    -0.393 OA
ATOM     34  H   UNL     1      28.279   7.045  -9.097  1.00  0.00     0.210 HD
ENDBRANCH  27  33
TORSDOF 2
ENDMDL
