MODEL 1
REMARK VINA RESULT:    -3.172      0.000      0.000
REMARK INTER + INTRA:         -10.440
REMARK INTER:                  -7.251
REMARK INTRA:                  -3.189
REMARK UNBOUND:                -3.189
REMARK SMILES CCCCCCCCCCCCCCCCCCCCCCCC(=O)[O-]
REMARK SMILES IDX 13 1 14 2 15 3 16 4 17 5 18 6 19 7 20 8 21 9 22 10 23 11
REMARK SMILES IDX 24 12 25 13 26 14 12 15 11 16 10 17 9 18 8 19 7 20 6 21 5 22
REMARK SMILES IDX 4 23 3 24 2 25 1 26
REMARK H PARENT
REMARK Flexibility Score: inf
ROOT
ATOM      1  C   UNL     1      41.628  10.983  12.616  1.00  0.00     0.000 C 
ENDROOT
BRANCH   1   2
ATOM      2  C   UNL     1      40.826  10.407  11.437  1.00  0.00     0.000 C 
BRANCH   2   3
ATOM      3  C   UNL     1      40.451   8.929  11.646  1.00  0.00     0.000 C 
BRANCH   3   4
ATOM      4  C   UNL     1      38.949   8.732  11.912  1.00  0.00     0.000 C 
BRANCH   4   5
ATOM      5  C   UNL     1      38.671   8.097  13.287  1.00  0.00     0.000 C 
BRANCH   5   6
ATOM      6  C   UNL     1      38.092   9.107  14.295  1.00  0.00     0.000 C 
BRANCH   6   7
ATOM      7  C   UNL     1      39.033   9.426  15.474  1.00  0.00     0.000 C 
BRANCH   7   8
ATOM      8  C   UNL     1      38.315   9.365  16.834  1.00  0.00     0.000 C 
BRANCH   8   9
ATOM      9  C   UNL     1      39.277   9.518  18.026  1.00  0.00     0.000 C 
BRANCH   9  10
ATOM     10  C   UNL     1      40.573   8.687  17.933  1.00  0.00     0.006 C 
BRANCH  10  11
ATOM     11  C   UNL     1      41.820   9.381  18.504  1.00  0.00     0.053 C 
BRANCH  11  12
ATOM     12  C   UNL     1      41.874  10.830  18.128  1.00  0.00     0.041 C 
ATOM     13  O   UNL     1      41.753  11.718  19.013  1.00  0.00    -0.550 OA
ATOM     14  O   UNL     1      42.013  11.201  16.798  1.00  0.00    -0.550 OA
ENDBRANCH  11  12
ENDBRANCH  10  11
ENDBRANCH   9  10
ENDBRANCH   8   9
ENDBRANCH   7   8
ENDBRANCH   6   7
ENDBRANCH   5   6
ENDBRANCH   4   5
ENDBRANCH   3   4
ENDBRANCH   2   3
ENDBRANCH   1   2
BRANCH   1  15
ATOM     15  C   UNL     1      40.830  12.015  13.429  1.00  0.00     0.000 C 
BRANCH  15  16
ATOM     16  C   UNL     1      39.494  12.394  12.753  1.00  0.00     0.000 C 
BRANCH  16  17
ATOM     17  C   UNL     1      38.585  13.284  13.621  1.00  0.00     0.000 C 
BRANCH  17  18
ATOM     18  C   UNL     1      37.875  12.563  14.782  1.00  0.00    -0.000 C 
BRANCH  18  19
ATOM     19  C   UNL     1      38.027  13.235  16.160  1.00  0.00    -0.000 C 
BRANCH  19  20
ATOM     20  C   UNL     1      39.492  13.446  16.570  1.00  0.00    -0.000 C 
BRANCH  20  21
ATOM     21  C   UNL     1      39.589  13.982  18.003  1.00  0.00    -0.000 C 
BRANCH  21  22
ATOM     22  C   UNL     1      38.611  15.142  18.227  1.00  0.00    -0.000 C 
BRANCH  22  23
ATOM     23  C   UNL     1      39.250  16.243  19.085  1.00  0.00    -0.000 C 
BRANCH  23  24
ATOM     24  C   UNL     1      40.768  16.356  18.870  1.00  0.00    -0.000 C 
BRANCH  24  25
ATOM     25  C   UNL     1      41.149  17.524  17.948  1.00  0.00    -0.003 C 
ATOM     26  C   UNL     1      40.727  17.246  16.508  1.00  0.00     0.004 C 
ENDBRANCH  24  25
ENDBRANCH  23  24
ENDBRANCH  22  23
ENDBRANCH  21  22
ENDBRANCH  20  21
ENDBRANCH  19  20
ENDBRANCH  18  19
ENDBRANCH  17  18
ENDBRANCH  16  17
ENDBRANCH  15  16
ENDBRANCH   1  15
TORSDOF 22
ENDMDL
MODEL 2
REMARK VINA RESULT:    -2.984      1.985      5.252
REMARK INTER + INTRA:         -10.011
REMARK INTER:                  -6.618
REMARK INTRA:                  -3.392
REMARK UNBOUND:                -3.189
REMARK SMILES CCCCCCCCCCCCCCCCCCCCCCCC(=O)[O-]
REMARK SMILES IDX 13 1 14 2 15 3 16 4 17 5 18 6 19 7 20 8 21 9 22 10 23 11
REMARK SMILES IDX 24 12 25 13 26 14 12 15 11 16 10 17 9 18 8 19 7 20 6 21 5 22
REMARK SMILES IDX 4 23 3 24 2 25 1 26
REMARK H PARENT
REMARK Flexibility Score: inf
ROOT
ATOM      1  C   UNL     1      41.008  10.991  11.830  1.00  0.00     0.000 C 
ENDROOT
BRANCH   1   2
ATOM      2  C   UNL     1      40.947  10.974  13.367  1.00  0.00     0.000 C 
BRANCH   2   3
ATOM      3  C   UNL     1      41.148  12.372  13.979  1.00  0.00     0.000 C 
BRANCH   3   4
ATOM      4  C   UNL     1      39.985  13.328  13.663  1.00  0.00     0.000 C 
BRANCH   4   5
ATOM      5  C   UNL     1      38.660  12.878  14.304  1.00  0.00     0.000 C 
BRANCH   5   6
ATOM      6  C   UNL     1      37.927  14.031  15.015  1.00  0.00     0.000 C 
BRANCH   6   7
ATOM      7  C   UNL     1      37.937  13.927  16.552  1.00  0.00     0.000 C 
BRANCH   7   8
ATOM      8  C   UNL     1      39.352  13.714  17.120  1.00  0.00     0.000 C 
BRANCH   8   9
ATOM      9  C   UNL     1      39.543  14.357  18.506  1.00  0.00     0.000 C 
BRANCH   9  10
ATOM     10  C   UNL     1      39.080  15.824  18.618  1.00  0.00     0.006 C 
BRANCH  10  11
ATOM     11  C   UNL     1      40.216  16.858  18.567  1.00  0.00     0.053 C 
BRANCH  11  12
ATOM     12  C   UNL     1      40.509  17.297  17.164  1.00  0.00     0.041 C 
ATOM     13  O   UNL     1      39.681  17.069  16.243  1.00  0.00    -0.550 OA
ATOM     14  O   UNL     1      41.716  17.915  16.866  1.00  0.00    -0.550 OA
ENDBRANCH  11  12
ENDBRANCH  10  11
ENDBRANCH   9  10
ENDBRANCH   8   9
ENDBRANCH   7   8
ENDBRANCH   6   7
ENDBRANCH   5   6
ENDBRANCH   4   5
ENDBRANCH   3   4
ENDBRANCH   2   3
ENDBRANCH   1   2
BRANCH   1  15
ATOM     15  C   UNL     1      39.787  10.319  11.181  1.00  0.00     0.000 C 
BRANCH  15  16
ATOM     16  C   UNL     1      39.634   8.841  11.598  1.00  0.00     0.000 C 
BRANCH  16  17
ATOM     17  C   UNL     1      38.314   8.530  12.328  1.00  0.00     0.000 C 
BRANCH  17  18
ATOM     18  C   UNL     1      38.448   8.248  13.836  1.00  0.00    -0.000 C 
BRANCH  18  19
ATOM     19  C   UNL     1      37.964   9.382  14.760  1.00  0.00    -0.000 C 
BRANCH  19  20
ATOM     20  C   UNL     1      38.036   9.018  16.250  1.00  0.00    -0.000 C 
BRANCH  20  21
ATOM     21  C   UNL     1      38.259  10.268  17.110  1.00  0.00    -0.000 C 
BRANCH  21  22
ATOM     22  C   UNL     1      39.000   9.921  18.407  1.00  0.00    -0.000 C 
BRANCH  22  23
ATOM     23  C   UNL     1      40.345   9.242  18.108  1.00  0.00    -0.000 C 
BRANCH  23  24
ATOM     24  C   UNL     1      41.547  10.143  18.430  1.00  0.00    -0.000 C 
BRANCH  24  25
ATOM     25  C   UNL     1      41.860  11.137  17.302  1.00  0.00    -0.003 C 
ATOM     26  C   UNL     1      42.662  12.326  17.825  1.00  0.00     0.004 C 
ENDBRANCH  24  25
ENDBRANCH  23  24
ENDBRANCH  22  23
ENDBRANCH  21  22
ENDBRANCH  20  21
ENDBRANCH  19  20
ENDBRANCH  18  19
ENDBRANCH  17  18
ENDBRANCH  16  17
ENDBRANCH  15  16
ENDBRANCH   1  15
TORSDOF 22
ENDMDL
MODEL 3
REMARK VINA RESULT:    -2.716      2.135      5.087
REMARK INTER + INTRA:          -9.397
REMARK INTER:                  -6.327
REMARK INTRA:                  -3.070
REMARK UNBOUND:                -3.189
REMARK SMILES CCCCCCCCCCCCCCCCCCCCCCCC(=O)[O-]
REMARK SMILES IDX 13 1 14 2 15 3 16 4 17 5 18 6 19 7 20 8 21 9 22 10 23 11
REMARK SMILES IDX 24 12 25 13 26 14 12 15 11 16 10 17 9 18 8 19 7 20 6 21 5 22
REMARK SMILES IDX 4 23 3 24 2 25 1 26
REMARK H PARENT
REMARK Flexibility Score: inf
ROOT
ATOM      1  C   UNL     1      40.326   9.870  11.291  1.00  0.00     0.000 C 
ENDROOT
BRANCH   1   2
ATOM      2  C   UNL     1      41.303  10.637  12.199  1.00  0.00     0.000 C 
BRANCH   2   3
ATOM      3  C   UNL     1      40.663  11.889  12.825  1.00  0.00     0.000 C 
BRANCH   3   4
ATOM      4  C   UNL     1      41.133  12.134  14.269  1.00  0.00     0.000 C 
BRANCH   4   5
ATOM      5  C   UNL     1      40.728  13.522  14.795  1.00  0.00     0.000 C 
BRANCH   5   6
ATOM      6  C   UNL     1      39.292  13.908  14.393  1.00  0.00     0.000 C 
BRANCH   6   7
ATOM      7  C   UNL     1      38.308  13.986  15.576  1.00  0.00     0.000 C 
BRANCH   7   8
ATOM      8  C   UNL     1      38.700  13.047  16.731  1.00  0.00     0.000 C 
BRANCH   8   9
ATOM      9  C   UNL     1      39.300  13.798  17.935  1.00  0.00     0.000 C 
BRANCH   9  10
ATOM     10  C   UNL     1      39.399  15.328  17.769  1.00  0.00     0.006 C 
BRANCH  10  11
ATOM     11  C   UNL     1      40.747  15.931  18.196  1.00  0.00     0.053 C 
BRANCH  11  12
ATOM     12  C   UNL     1      40.773  17.419  18.027  1.00  0.00     0.041 C 
ATOM     13  O   UNL     1      41.869  18.018  17.865  1.00  0.00    -0.550 OA
ATOM     14  O   UNL     1      39.594  18.149  18.095  1.00  0.00    -0.550 OA
ENDBRANCH  11  12
ENDBRANCH  10  11
ENDBRANCH   9  10
ENDBRANCH   8   9
ENDBRANCH   7   8
ENDBRANCH   6   7
ENDBRANCH   5   6
ENDBRANCH   4   5
ENDBRANCH   3   4
ENDBRANCH   2   3
ENDBRANCH   1   2
BRANCH   1  15
ATOM     15  C   UNL     1      39.689   8.660  11.993  1.00  0.00     0.000 C 
BRANCH  15  16
ATOM     16  C   UNL     1      38.667   9.073  13.073  1.00  0.00     0.000 C 
BRANCH  16  17
ATOM     17  C   UNL     1      39.260   9.171  14.491  1.00  0.00     0.000 C 
BRANCH  17  18
ATOM     18  C   UNL     1      38.368   9.878  15.528  1.00  0.00    -0.000 C 
BRANCH  18  19
ATOM     19  C   UNL     1      37.875   8.987  16.684  1.00  0.00    -0.000 C 
BRANCH  19  20
ATOM     20  C   UNL     1      39.020   8.383  17.510  1.00  0.00    -0.000 C 
BRANCH  20  21
ATOM     21  C   UNL     1      39.013   8.933  18.942  1.00  0.00    -0.000 C 
BRANCH  21  22
ATOM     22  C   UNL     1      40.085  10.014  19.125  1.00  0.00    -0.000 C 
BRANCH  22  23
ATOM     23  C   UNL     1      41.206   9.858  18.086  1.00  0.00    -0.000 C 
BRANCH  23  24
ATOM     24  C   UNL     1      41.876  11.195  17.733  1.00  0.00    -0.000 C 
BRANCH  24  25
ATOM     25  C   UNL     1      42.182  12.048  18.973  1.00  0.00    -0.003 C 
ATOM     26  C   UNL     1      43.348  12.998  18.711  1.00  0.00     0.004 C 
ENDBRANCH  24  25
ENDBRANCH  23  24
ENDBRANCH  22  23
ENDBRANCH  21  22
ENDBRANCH  20  21
ENDBRANCH  19  20
ENDBRANCH  18  19
ENDBRANCH  17  18
ENDBRANCH  16  17
ENDBRANCH  15  16
ENDBRANCH   1  15
TORSDOF 22
ENDMDL
MODEL 4
REMARK VINA RESULT:    -2.654      2.181      5.647
REMARK INTER + INTRA:          -9.257
REMARK INTER:                  -6.576
REMARK INTRA:                  -2.682
REMARK UNBOUND:                -3.189
REMARK SMILES CCCCCCCCCCCCCCCCCCCCCCCC(=O)[O-]
REMARK SMILES IDX 13 1 14 2 15 3 16 4 17 5 18 6 19 7 20 8 21 9 22 10 23 11
REMARK SMILES IDX 24 12 25 13 26 14 12 15 11 16 10 17 9 18 8 19 7 20 6 21 5 22
REMARK SMILES IDX 4 23 3 24 2 25 1 26
REMARK H PARENT
REMARK Flexibility Score: inf
ROOT
ATOM      1  C   UNL     1      40.654  14.473  13.932  1.00  0.00     0.000 C 
ENDROOT
BRANCH   1   2
ATOM      2  C   UNL     1      40.617  12.948  14.133  1.00  0.00     0.000 C 
BRANCH   2   3
ATOM      3  C   UNL     1      39.282  12.328  13.683  1.00  0.00     0.000 C 
BRANCH   3   4
ATOM      4  C   UNL     1      38.389  11.924  14.868  1.00  0.00     0.000 C 
BRANCH   4   5
ATOM      5  C   UNL     1      39.095  10.961  15.839  1.00  0.00     0.000 C 
BRANCH   5   6
ATOM      6  C   UNL     1      38.784   9.484  15.534  1.00  0.00     0.000 C 
BRANCH   6   7
ATOM      7  C   UNL     1      38.095   9.255  14.175  1.00  0.00     0.000 C 
BRANCH   7   8
ATOM      8  C   UNL     1      38.542   7.946  13.501  1.00  0.00     0.000 C 
BRANCH   8   9
ATOM      9  C   UNL     1      39.369   8.182  12.223  1.00  0.00     0.000 C 
BRANCH   9  10
ATOM     10  C   UNL     1      38.769   9.202  11.234  1.00  0.00     0.006 C 
BRANCH  10  11
ATOM     11  C   UNL     1      39.407  10.599  11.290  1.00  0.00     0.053 C 
BRANCH  11  12
ATOM     12  C   UNL     1      40.816  10.591  10.779  1.00  0.00     0.041 C 
ATOM     13  O   UNL     1      41.051  10.858   9.570  1.00  0.00    -0.550 OA
ATOM     14  O   UNL     1      41.862  10.246  11.623  1.00  0.00    -0.550 OA
ENDBRANCH  11  12
ENDBRANCH  10  11
ENDBRANCH   9  10
ENDBRANCH   8   9
ENDBRANCH   7   8
ENDBRANCH   6   7
ENDBRANCH   5   6
ENDBRANCH   4   5
ENDBRANCH   3   4
ENDBRANCH   2   3
ENDBRANCH   1   2
BRANCH   1  15
ATOM     15  C   UNL     1      39.710  15.221  14.888  1.00  0.00     0.000 C 
BRANCH  15  16
ATOM     16  C   UNL     1      40.469  16.142  15.867  1.00  0.00     0.000 C 
BRANCH  16  17
ATOM     17  C   UNL     1      40.340  15.725  17.345  1.00  0.00     0.000 C 
BRANCH  17  18
ATOM     18  C   UNL     1      40.061  14.229  17.583  1.00  0.00    -0.000 C 
BRANCH  18  19
ATOM     19  C   UNL     1      40.273  13.746  19.030  1.00  0.00    -0.000 C 
BRANCH  19  20
ATOM     20  C   UNL     1      41.122  12.469  19.121  1.00  0.00    -0.000 C 
BRANCH  20  21
ATOM     21  C   UNL     1      41.957  12.274  17.850  1.00  0.00    -0.000 C 
BRANCH  21  22
ATOM     22  C   UNL     1      42.052  10.791  17.473  1.00  0.00    -0.000 C 
BRANCH  22  23
ATOM     23  C   UNL     1      41.686   9.896  18.666  1.00  0.00    -0.000 C 
BRANCH  23  24
ATOM     24  C   UNL     1      41.295   8.472  18.240  1.00  0.00    -0.000 C 
BRANCH  24  25
ATOM     25  C   UNL     1      39.925   8.046  18.789  1.00  0.00    -0.003 C 
ATOM     26  C   UNL     1      39.064   9.263  19.118  1.00  0.00     0.004 C 
ENDBRANCH  24  25
ENDBRANCH  23  24
ENDBRANCH  22  23
ENDBRANCH  21  22
ENDBRANCH  20  21
ENDBRANCH  19  20
ENDBRANCH  18  19
ENDBRANCH  17  18
ENDBRANCH  16  17
ENDBRANCH  15  16
ENDBRANCH   1  15
TORSDOF 22
ENDMDL
MODEL 5
REMARK VINA RESULT:    -2.517      2.383      6.008
REMARK INTER + INTRA:          -8.943
REMARK INTER:                  -6.015
REMARK INTRA:                  -2.928
REMARK UNBOUND:                -3.189
REMARK SMILES CCCCCCCCCCCCCCCCCCCCCCCC(=O)[O-]
REMARK SMILES IDX 13 1 14 2 15 3 16 4 17 5 18 6 19 7 20 8 21 9 22 10 23 11
REMARK SMILES IDX 24 12 25 13 26 14 12 15 11 16 10 17 9 18 8 19 7 20 6 21 5 22
REMARK SMILES IDX 4 23 3 24 2 25 1 26
REMARK H PARENT
REMARK Flexibility Score: inf
ROOT
ATOM      1  C   UNL     1      41.981  11.766  13.478  1.00  0.00     0.000 C 
ENDROOT
BRANCH   1   2
ATOM      2  C   UNL     1      41.462  11.747  14.926  1.00  0.00     0.000 C 
BRANCH   2   3
ATOM      3  C   UNL     1      42.209  12.743  15.832  1.00  0.00     0.000 C 
BRANCH   3   4
ATOM      4  C   UNL     1      42.179  12.333  17.313  1.00  0.00     0.000 C 
BRANCH   4   5
ATOM      5  C   UNL     1      40.815  11.760  17.740  1.00  0.00     0.000 C 
BRANCH   5   6
ATOM      6  C   UNL     1      40.328  12.336  19.083  1.00  0.00     0.000 C 
BRANCH   6   7
ATOM      7  C   UNL     1      38.829  12.691  19.107  1.00  0.00     0.000 C 
BRANCH   7   8
ATOM      8  C   UNL     1      38.553  14.116  18.596  1.00  0.00     0.000 C 
BRANCH   8   9
ATOM      9  C   UNL     1      39.754  14.730  17.854  1.00  0.00     0.000 C 
BRANCH   9  10
ATOM     10  C   UNL     1      39.414  15.431  16.523  1.00  0.00     0.006 C 
BRANCH  10  11
ATOM     11  C   UNL     1      40.498  16.392  16.011  1.00  0.00     0.053 C 
BRANCH  11  12
ATOM     12  C   UNL     1      40.693  17.557  16.933  1.00  0.00     0.041 C 
ATOM     13  O   UNL     1      41.850  18.003  17.154  1.00  0.00    -0.550 OA
ATOM     14  O   UNL     1      39.603  18.121  17.584  1.00  0.00    -0.550 OA
ENDBRANCH  11  12
ENDBRANCH  10  11
ENDBRANCH   9  10
ENDBRANCH   8   9
ENDBRANCH   7   8
ENDBRANCH   6   7
ENDBRANCH   5   6
ENDBRANCH   4   5
ENDBRANCH   3   4
ENDBRANCH   2   3
ENDBRANCH   1   2
BRANCH   1  15
ATOM     15  C   UNL     1      41.437  10.599  12.638  1.00  0.00     0.000 C 
BRANCH  15  16
ATOM     16  C   UNL     1      40.671  11.078  11.386  1.00  0.00     0.000 C 
BRANCH  16  17
ATOM     17  C   UNL     1      39.225  11.525  11.671  1.00  0.00     0.000 C 
BRANCH  17  18
ATOM     18  C   UNL     1      38.218  10.383  11.901  1.00  0.00    -0.000 C 
BRANCH  18  19
ATOM     19  C   UNL     1      37.875  10.099  13.376  1.00  0.00    -0.000 C 
BRANCH  19  20
ATOM     20  C   UNL     1      38.324   8.706  13.841  1.00  0.00    -0.000 C 
BRANCH  20  21
ATOM     21  C   UNL     1      38.767   8.734  15.309  1.00  0.00    -0.000 C 
BRANCH  21  22
ATOM     22  C   UNL     1      38.140   9.919  16.053  1.00  0.00    -0.000 C 
BRANCH  22  23
ATOM     23  C   UNL     1      37.900   9.577  17.531  1.00  0.00    -0.000 C 
BRANCH  23  24
ATOM     24  C   UNL     1      38.551   8.248  17.944  1.00  0.00    -0.000 C 
BRANCH  24  25
ATOM     25  C   UNL     1      39.646   8.431  19.005  1.00  0.00    -0.003 C 
ATOM     26  C   UNL     1      41.022   8.560  18.358  1.00  0.00     0.004 C 
ENDBRANCH  24  25
ENDBRANCH  23  24
ENDBRANCH  22  23
ENDBRANCH  21  22
ENDBRANCH  20  21
ENDBRANCH  19  20
ENDBRANCH  18  19
ENDBRANCH  17  18
ENDBRANCH  16  17
ENDBRANCH  15  16
ENDBRANCH   1  15
TORSDOF 22
ENDMDL
MODEL 6
REMARK VINA RESULT:    -2.471      1.886      5.100
REMARK INTER + INTRA:          -8.838
REMARK INTER:                  -5.412
REMARK INTRA:                  -3.426
REMARK UNBOUND:                -3.189
REMARK SMILES CCCCCCCCCCCCCCCCCCCCCCCC(=O)[O-]
REMARK SMILES IDX 13 1 14 2 15 3 16 4 17 5 18 6 19 7 20 8 21 9 22 10 23 11
REMARK SMILES IDX 24 12 25 13 26 14 12 15 11 16 10 17 9 18 8 19 7 20 6 21 5 22
REMARK SMILES IDX 4 23 3 24 2 25 1 26
REMARK H PARENT
REMARK Flexibility Score: inf
ROOT
ATOM      1  C   UNL     1      41.298  11.884  16.935  1.00  0.00     0.000 C 
ENDROOT
BRANCH   1   2
ATOM      2  C   UNL     1      41.994  10.658  17.552  1.00  0.00     0.000 C 
BRANCH   2   3
ATOM      3  C   UNL     1      40.993   9.585  18.016  1.00  0.00     0.000 C 
BRANCH   3   4
ATOM      4  C   UNL     1      39.955  10.134  19.009  1.00  0.00     0.000 C 
BRANCH   4   5
ATOM      5  C   UNL     1      38.530  10.145  18.427  1.00  0.00     0.000 C 
BRANCH   5   6
ATOM      6  C   UNL     1      38.028   8.733  18.071  1.00  0.00     0.000 C 
BRANCH   6   7
ATOM      7  C   UNL     1      38.051   8.420  16.563  1.00  0.00     0.000 C 
BRANCH   7   8
ATOM      8  C   UNL     1      37.913   9.685  15.697  1.00  0.00     0.000 C 
BRANCH   8   9
ATOM      9  C   UNL     1      38.718   9.604  14.386  1.00  0.00     0.000 C 
BRANCH   9  10
ATOM     10  C   UNL     1      38.375  10.684  13.340  1.00  0.00     0.006 C 
BRANCH  10  11
ATOM     11  C   UNL     1      39.106  10.526  11.997  1.00  0.00     0.053 C 
BRANCH  11  12
ATOM     12  C   UNL     1      40.592  10.635  12.153  1.00  0.00     0.041 C 
ATOM     13  O   UNL     1      41.356  10.226  11.239  1.00  0.00    -0.550 OA
ATOM     14  O   UNL     1      41.135  11.147  13.324  1.00  0.00    -0.550 OA
ENDBRANCH  11  12
ENDBRANCH  10  11
ENDBRANCH   9  10
ENDBRANCH   8   9
ENDBRANCH   7   8
ENDBRANCH   6   7
ENDBRANCH   5   6
ENDBRANCH   4   5
ENDBRANCH   3   4
ENDBRANCH   2   3
ENDBRANCH   1   2
BRANCH   1  15
ATOM     15  C   UNL     1      41.824  13.212  17.501  1.00  0.00     0.000 C 
BRANCH  15  16
ATOM     16  C   UNL     1      41.294  13.501  18.922  1.00  0.00     0.000 C 
BRANCH  16  17
ATOM     17  C   UNL     1      39.768  13.699  18.992  1.00  0.00     0.000 C 
BRANCH  17  18
ATOM     18  C   UNL     1      39.298  15.164  19.043  1.00  0.00    -0.000 C 
BRANCH  18  19
ATOM     19  C   UNL     1      40.423  16.215  18.983  1.00  0.00    -0.000 C 
BRANCH  19  20
ATOM     20  C   UNL     1      40.286  17.178  17.794  1.00  0.00    -0.000 C 
BRANCH  20  21
ATOM     21  C   UNL     1      41.018  16.633  16.561  1.00  0.00    -0.000 C 
BRANCH  21  22
ATOM     22  C   UNL     1      40.082  16.564  15.348  1.00  0.00    -0.000 C 
BRANCH  22  23
ATOM     23  C   UNL     1      38.612  16.515  15.790  1.00  0.00    -0.000 C 
BRANCH  23  24
ATOM     24  C   UNL     1      37.878  15.270  15.269  1.00  0.00    -0.000 C 
BRANCH  24  25
ATOM     25  C   UNL     1      38.695  13.982  15.455  1.00  0.00    -0.003 C 
ATOM     26  C   UNL     1      37.932  12.967  16.303  1.00  0.00     0.004 C 
ENDBRANCH  24  25
ENDBRANCH  23  24
ENDBRANCH  22  23
ENDBRANCH  21  22
ENDBRANCH  20  21
ENDBRANCH  19  20
ENDBRANCH  18  19
ENDBRANCH  17  18
ENDBRANCH  16  17
ENDBRANCH  15  16
ENDBRANCH   1  15
TORSDOF 22
ENDMDL
MODEL 7
REMARK VINA RESULT:    -2.467      1.461      5.748
REMARK INTER + INTRA:          -8.828
REMARK INTER:                  -5.560
REMARK INTRA:                  -3.268
REMARK UNBOUND:                -3.189
REMARK SMILES CCCCCCCCCCCCCCCCCCCCCCCC(=O)[O-]
REMARK SMILES IDX 13 1 14 2 15 3 16 4 17 5 18 6 19 7 20 8 21 9 22 10 23 11
REMARK SMILES IDX 24 12 25 13 26 14 12 15 11 16 10 17 9 18 8 19 7 20 6 21 5 22
REMARK SMILES IDX 4 23 3 24 2 25 1 26
REMARK H PARENT
REMARK Flexibility Score: inf
ROOT
ATOM      1  C   UNL     1      41.640  11.737  13.444  1.00  0.00     0.000 C 
ENDROOT
BRANCH   1   2
ATOM      2  C   UNL     1      41.443  11.207  14.875  1.00  0.00     0.000 C 
BRANCH   2   3
ATOM      3  C   UNL     1      40.824  12.260  15.811  1.00  0.00     0.000 C 
BRANCH   3   4
ATOM      4  C   UNL     1      40.190  13.433  15.045  1.00  0.00     0.000 C 
BRANCH   4   5
ATOM      5  C   UNL     1      40.858  14.781  15.371  1.00  0.00     0.000 C 
BRANCH   5   6
ATOM      6  C   UNL     1      39.862  15.955  15.337  1.00  0.00     0.000 C 
BRANCH   6   7
ATOM      7  C   UNL     1      40.394  17.248  15.985  1.00  0.00     0.000 C 
BRANCH   7   8
ATOM      8  C   UNL     1      39.797  17.495  17.382  1.00  0.00     0.000 C 
BRANCH   8   9
ATOM      9  C   UNL     1      38.711  16.470  17.759  1.00  0.00     0.000 C 
BRANCH   9  10
ATOM     10  C   UNL     1      39.009  15.634  19.021  1.00  0.00     0.006 C 
BRANCH  10  11
ATOM     11  C   UNL     1      40.456  15.128  19.125  1.00  0.00     0.053 C 
BRANCH  11  12
ATOM     12  C   UNL     1      40.542  13.641  18.957  1.00  0.00     0.041 C 
ATOM     13  O   UNL     1      41.640  13.101  18.658  1.00  0.00    -0.550 OA
ATOM     14  O   UNL     1      39.403  12.858  19.087  1.00  0.00    -0.550 OA
ENDBRANCH  11  12
ENDBRANCH  10  11
ENDBRANCH   9  10
ENDBRANCH   8   9
ENDBRANCH   7   8
ENDBRANCH   6   7
ENDBRANCH   5   6
ENDBRANCH   4   5
ENDBRANCH   3   4
ENDBRANCH   2   3
ENDBRANCH   1   2
BRANCH   1  15
ATOM     15  C   UNL     1      41.524  10.632  12.381  1.00  0.00     0.000 C 
BRANCH  15  16
ATOM     16  C   UNL     1      40.359  10.877  11.399  1.00  0.00     0.000 C 
BRANCH  16  17
ATOM     17  C   UNL     1      39.254  11.793  11.956  1.00  0.00     0.000 C 
BRANCH  17  18
ATOM     18  C   UNL     1      37.982  11.070  12.437  1.00  0.00    -0.000 C 
BRANCH  18  19
ATOM     19  C   UNL     1      37.984  10.661  13.923  1.00  0.00    -0.000 C 
BRANCH  19  20
ATOM     20  C   UNL     1      38.509   9.237  14.155  1.00  0.00    -0.000 C 
BRANCH  20  21
ATOM     21  C   UNL     1      37.894   8.625  15.420  1.00  0.00    -0.000 C 
BRANCH  21  22
ATOM     22  C   UNL     1      38.262   9.441  16.665  1.00  0.00    -0.000 C 
BRANCH  22  23
ATOM     23  C   UNL     1      38.255   8.561  17.922  1.00  0.00    -0.000 C 
BRANCH  23  24
ATOM     24  C   UNL     1      39.623   8.515  18.621  1.00  0.00    -0.000 C 
BRANCH  24  25
ATOM     25  C   UNL     1      40.502   9.727  18.278  1.00  0.00    -0.003 C 
ATOM     26  C   UNL     1      41.959   9.471  18.652  1.00  0.00     0.004 C 
ENDBRANCH  24  25
ENDBRANCH  23  24
ENDBRANCH  22  23
ENDBRANCH  21  22
ENDBRANCH  20  21
ENDBRANCH  19  20
ENDBRANCH  18  19
ENDBRANCH  17  18
ENDBRANCH  16  17
ENDBRANCH  15  16
ENDBRANCH   1  15
TORSDOF 22
ENDMDL
MODEL 8
REMARK VINA RESULT:    -2.435      1.614      6.374
REMARK INTER + INTRA:          -8.755
REMARK INTER:                  -5.783
REMARK INTRA:                  -2.972
REMARK UNBOUND:                -3.189
REMARK SMILES CCCCCCCCCCCCCCCCCCCCCCCC(=O)[O-]
REMARK SMILES IDX 13 1 14 2 15 3 16 4 17 5 18 6 19 7 20 8 21 9 22 10 23 11
REMARK SMILES IDX 24 12 25 13 26 14 12 15 11 16 10 17 9 18 8 19 7 20 6 21 5 22
REMARK SMILES IDX 4 23 3 24 2 25 1 26
REMARK H PARENT
REMARK Flexibility Score: inf
ROOT
ATOM      1  C   UNL     1      41.060  14.675  14.213  1.00  0.00     0.000 C 
ENDROOT
BRANCH   1   2
ATOM      2  C   UNL     1      40.858  15.221  15.637  1.00  0.00     0.000 C 
BRANCH   2   3
ATOM      3  C   UNL     1      40.172  16.598  15.647  1.00  0.00     0.000 C 
BRANCH   3   4
ATOM      4  C   UNL     1      38.642  16.497  15.523  1.00  0.00     0.000 C 
BRANCH   4   5
ATOM      5  C   UNL     1      37.925  16.721  16.866  1.00  0.00     0.000 C 
BRANCH   5   6
ATOM      6  C   UNL     1      38.887  16.651  18.066  1.00  0.00     0.000 C 
BRANCH   6   7
ATOM      7  C   UNL     1      38.650  15.441  18.990  1.00  0.00     0.000 C 
BRANCH   7   8
ATOM      8  C   UNL     1      38.485  14.126  18.208  1.00  0.00     0.000 C 
BRANCH   8   9
ATOM      9  C   UNL     1      38.417  12.889  19.123  1.00  0.00     0.000 C 
BRANCH   9  10
ATOM     10  C   UNL     1      39.629  11.941  19.034  1.00  0.00     0.006 C 
BRANCH  10  11
ATOM     11  C   UNL     1      40.654  12.313  17.951  1.00  0.00     0.053 C 
BRANCH  11  12
ATOM     12  C   UNL     1      41.978  11.650  18.182  1.00  0.00     0.041 C 
ATOM     13  O   UNL     1      42.973  12.332  18.543  1.00  0.00    -0.550 OA
ATOM     14  O   UNL     1      42.124  10.289  17.953  1.00  0.00    -0.550 OA
ENDBRANCH  11  12
ENDBRANCH  10  11
ENDBRANCH   9  10
ENDBRANCH   8   9
ENDBRANCH   7   8
ENDBRANCH   6   7
ENDBRANCH   5   6
ENDBRANCH   4   5
ENDBRANCH   3   4
ENDBRANCH   2   3
ENDBRANCH   1   2
BRANCH   1  15
ATOM     15  C   UNL     1      39.969  13.672  13.802  1.00  0.00     0.000 C 
BRANCH  15  16
ATOM     16  C   UNL     1      39.510  12.784  14.979  1.00  0.00     0.000 C 
BRANCH  16  17
ATOM     17  C   UNL     1      38.173  12.060  14.730  1.00  0.00     0.000 C 
BRANCH  17  18
ATOM     18  C   UNL     1      37.902  10.851  15.645  1.00  0.00    -0.000 C 
BRANCH  18  19
ATOM     19  C   UNL     1      38.730   9.591  15.328  1.00  0.00    -0.000 C 
BRANCH  19  20
ATOM     20  C   UNL     1      37.875   8.423  14.813  1.00  0.00    -0.000 C 
BRANCH  20  21
ATOM     21  C   UNL     1      38.159   8.148  13.331  1.00  0.00    -0.000 C 
BRANCH  21  22
ATOM     22  C   UNL     1      39.666   8.066  13.062  1.00  0.00    -0.000 C 
BRANCH  22  23
ATOM     23  C   UNL     1      39.974   8.308  11.578  1.00  0.00    -0.000 C 
BRANCH  23  24
ATOM     24  C   UNL     1      40.805   9.580  11.346  1.00  0.00    -0.000 C 
BRANCH  24  25
ATOM     25  C   UNL     1      40.049  10.859  11.734  1.00  0.00    -0.003 C 
ATOM     26  C   UNL     1      38.600  10.805  11.258  1.00  0.00     0.004 C 
ENDBRANCH  24  25
ENDBRANCH  23  24
ENDBRANCH  22  23
ENDBRANCH  21  22
ENDBRANCH  20  21
ENDBRANCH  19  20
ENDBRANCH  18  19
ENDBRANCH  17  18
ENDBRANCH  16  17
ENDBRANCH  15  16
ENDBRANCH   1  15
TORSDOF 22
ENDMDL
MODEL 9
REMARK VINA RESULT:    -0.575      1.715      3.769
REMARK INTER + INTRA:          -4.504
REMARK INTER:                  -1.587
REMARK INTRA:                  -2.917
REMARK UNBOUND:                -3.189
REMARK SMILES CCCCCCCCCCCCCCCCCCCCCCCC(=O)[O-]
REMARK SMILES IDX 13 1 14 2 15 3 16 4 17 5 18 6 19 7 20 8 21 9 22 10 23 11
REMARK SMILES IDX 24 12 25 13 26 14 12 15 11 16 10 17 9 18 8 19 7 20 6 21 5 22
REMARK SMILES IDX 4 23 3 24 2 25 1 26
REMARK H PARENT
REMARK Flexibility Score: inf
ROOT
ATOM      1  C   UNL     1      41.184  13.967  14.523  1.00  0.00     0.000 C 
ENDROOT
BRANCH   1   2
ATOM      2  C   UNL     1      40.633  12.531  14.561  1.00  0.00     0.000 C 
BRANCH   2   3
ATOM      3  C   UNL     1      40.806  11.799  13.217  1.00  0.00     0.000 C 
BRANCH   3   4
ATOM      4  C   UNL     1      39.652  12.079  12.240  1.00  0.00     0.000 C 
BRANCH   4   5
ATOM      5  C   UNL     1      38.520  11.041  12.350  1.00  0.00     0.000 C 
BRANCH   5   6
ATOM      6  C   UNL     1      38.669   9.896  11.331  1.00  0.00     0.000 C 
BRANCH   6   7
ATOM      7  C   UNL     1      39.717   8.837  11.725  1.00  0.00     0.000 C 
BRANCH   7   8
ATOM      8  C   UNL     1      39.387   8.151  13.062  1.00  0.00     0.000 C 
BRANCH   8   9
ATOM      9  C   UNL     1      37.968   8.473  13.566  1.00  0.00     0.000 C 
BRANCH   9  10
ATOM     10  C   UNL     1      37.875   8.869  15.053  1.00  0.00     0.006 C 
BRANCH  10  11
ATOM     11  C   UNL     1      39.145   9.522  15.621  1.00  0.00     0.053 C 
BRANCH  11  12
ATOM     12  C   UNL     1      39.110   9.604  17.117  1.00  0.00     0.041 C 
ATOM     13  O   UNL     1      38.369  10.448  17.688  1.00  0.00    -0.550 OA
ATOM     14  O   UNL     1      39.929   8.782  17.879  1.00  0.00    -0.550 OA
ENDBRANCH  11  12
ENDBRANCH  10  11
ENDBRANCH   9  10
ENDBRANCH   8   9
ENDBRANCH   7   8
ENDBRANCH   6   7
ENDBRANCH   5   6
ENDBRANCH   4   5
ENDBRANCH   3   4
ENDBRANCH   2   3
ENDBRANCH   1   2
BRANCH   1  15
ATOM     15  C   UNL     1      40.171  15.004  15.033  1.00  0.00     0.000 C 
BRANCH  15  16
ATOM     16  C   UNL     1      38.838  14.362  15.472  1.00  0.00     0.000 C 
BRANCH  16  17
ATOM     17  C   UNL     1      37.911  15.314  16.252  1.00  0.00     0.000 C 
BRANCH  17  18
ATOM     18  C   UNL     1      38.449  16.744  16.441  1.00  0.00    -0.000 C 
BRANCH  18  19
ATOM     19  C   UNL     1      38.107  17.400  17.792  1.00  0.00    -0.000 C 
BRANCH  19  20
ATOM     20  C   UNL     1      39.314  17.502  18.736  1.00  0.00    -0.000 C 
BRANCH  20  21
ATOM     21  C   UNL     1      40.560  16.871  18.102  1.00  0.00    -0.000 C 
BRANCH  21  22
ATOM     22  C   UNL     1      41.063  15.685  18.934  1.00  0.00    -0.000 C 
BRANCH  22  23
ATOM     23  C   UNL     1      39.975  14.609  19.071  1.00  0.00    -0.000 C 
BRANCH  23  24
ATOM     24  C   UNL     1      40.433  13.236  18.556  1.00  0.00    -0.000 C 
BRANCH  24  25
ATOM     25  C   UNL     1      41.962  13.120  18.461  1.00  0.00    -0.003 C 
ATOM     26  C   UNL     1      42.368  11.941  17.580  1.00  0.00     0.004 C 
ENDBRANCH  24  25
ENDBRANCH  23  24
ENDBRANCH  22  23
ENDBRANCH  21  22
ENDBRANCH  20  21
ENDBRANCH  19  20
ENDBRANCH  18  19
ENDBRANCH  17  18
ENDBRANCH  16  17
ENDBRANCH  15  16
ENDBRANCH   1  15
TORSDOF 22
ENDMDL
