MODEL 1
REMARK VINA RESULT:    -4.346      0.000      0.000
REMARK INTER + INTRA:          -8.313
REMARK INTER:                  -7.395
REMARK INTRA:                  -0.918
REMARK UNBOUND:                -0.918
REMARK SMILES CCCCCCCCCCCCCC(=O)[O-]
REMARK SMILES IDX 8 1 9 2 10 3 11 4 12 5 13 6 14 7 15 8 16 9 7 10 6 11 5 12
REMARK SMILES IDX 4 13 3 14 2 15 1 16
REMARK H PARENT
REMARK Flexibility Score: inf
ROOT
ATOM      1  C   UNL     1      15.298  49.169  93.710  1.00  0.00     0.000 C 
ENDROOT
BRANCH   1   2
ATOM      2  C   UNL     1      16.309  48.012  93.630  1.00  0.00     0.000 C 
BRANCH   2   3
ATOM      3  C   UNL     1      17.050  47.704  94.945  1.00  0.00     0.000 C 
BRANCH   3   4
ATOM      4  C   UNL     1      17.832  46.383  94.897  1.00  0.00     0.000 C 
BRANCH   4   5
ATOM      5  C   UNL     1      17.908  45.842  93.463  1.00  0.00     0.006 C 
BRANCH   5   6
ATOM      6  C   UNL     1      19.320  46.001  92.890  1.00  0.00     0.053 C 
BRANCH   6   7
ATOM      7  C   UNL     1      19.283  46.786  91.618  1.00  0.00     0.041 C 
ATOM      8  O   UNL     1      18.296  46.690  90.843  1.00  0.00    -0.550 OA
ATOM      9  O   UNL     1      20.361  47.587  91.264  1.00  0.00    -0.550 OA
ENDBRANCH   6   7
ENDBRANCH   5   6
ENDBRANCH   4   5
ENDBRANCH   3   4
ENDBRANCH   2   3
ENDBRANCH   1   2
BRANCH   1  10
ATOM     10  C   UNL     1      15.613  50.165  94.837  1.00  0.00     0.000 C 
BRANCH  10  11
ATOM     11  C   UNL     1      14.331  50.817  95.369  1.00  0.00    -0.000 C 
BRANCH  11  12
ATOM     12  C   UNL     1      14.283  50.769  96.901  1.00  0.00    -0.000 C 
BRANCH  12  13
ATOM     13  C   UNL     1      13.377  49.629  97.387  1.00  0.00    -0.000 C 
BRANCH  13  14
ATOM     14  C   UNL     1      12.459  49.088  96.279  1.00  0.00    -0.000 C 
BRANCH  14  15
ATOM     15  C   UNL     1      11.063  48.714  96.799  1.00  0.00    -0.003 C 
ATOM     16  C   UNL     1      10.803  49.336  98.169  1.00  0.00     0.004 C 
ENDBRANCH  14  15
ENDBRANCH  13  14
ENDBRANCH  12  13
ENDBRANCH  11  12
ENDBRANCH  10  11
ENDBRANCH   1  10
TORSDOF 12
ENDMDL
MODEL 2
REMARK VINA RESULT:    -4.166      4.529      8.137
REMARK INTER + INTRA:          -8.007
REMARK INTER:                  -6.923
REMARK INTRA:                  -1.084
REMARK UNBOUND:                -0.918
REMARK SMILES CCCCCCCCCCCCCC(=O)[O-]
REMARK SMILES IDX 8 1 9 2 10 3 11 4 12 5 13 6 14 7 15 8 16 9 7 10 6 11 5 12
REMARK SMILES IDX 4 13 3 14 2 15 1 16
REMARK H PARENT
REMARK Flexibility Score: inf
ROOT
ATOM      1  C   UNL     1      10.622  49.525  98.358  1.00  0.00     0.000 C 
ENDROOT
BRANCH   1   2
ATOM      2  C   UNL     1       9.169  50.004  98.187  1.00  0.00     0.000 C 
BRANCH   2   3
ATOM      3  C   UNL     1       8.205  48.957  97.597  1.00  0.00     0.000 C 
BRANCH   3   4
ATOM      4  C   UNL     1       7.630  49.372  96.235  1.00  0.00     0.000 C 
BRANCH   4   5
ATOM      5  C   UNL     1       7.727  48.222  95.225  1.00  0.00     0.006 C 
BRANCH   5   6
ATOM      6  C   UNL     1       7.781  46.867  95.938  1.00  0.00     0.053 C 
BRANCH   6   7
ATOM      7  C   UNL     1       8.806  45.982  95.303  1.00  0.00     0.041 C 
ATOM      8  O   UNL     1       8.850  45.859  94.051  1.00  0.00    -0.550 OA
ATOM      9  O   UNL     1       9.682  45.254  96.097  1.00  0.00    -0.550 OA
ENDBRANCH   6   7
ENDBRANCH   5   6
ENDBRANCH   4   5
ENDBRANCH   3   4
ENDBRANCH   2   3
ENDBRANCH   1   2
BRANCH   1  10
ATOM     10  C   UNL     1      11.085  48.596  97.226  1.00  0.00     0.000 C 
BRANCH  10  11
ATOM     11  C   UNL     1      12.412  49.079  96.627  1.00  0.00    -0.000 C 
BRANCH  11  12
ATOM     12  C   UNL     1      13.159  49.992  97.608  1.00  0.00    -0.000 C 
BRANCH  12  13
ATOM     13  C   UNL     1      14.296  50.744  96.902  1.00  0.00    -0.000 C 
BRANCH  13  14
ATOM     14  C   UNL     1      14.177  50.695  95.370  1.00  0.00    -0.000 C 
BRANCH  14  15
ATOM     15  C   UNL     1      15.533  50.490  94.680  1.00  0.00    -0.003 C 
ATOM     16  C   UNL     1      15.652  49.078  94.111  1.00  0.00     0.004 C 
ENDBRANCH  14  15
ENDBRANCH  13  14
ENDBRANCH  12  13
ENDBRANCH  11  12
ENDBRANCH  10  11
ENDBRANCH   1  10
TORSDOF 12
ENDMDL
MODEL 3
REMARK VINA RESULT:    -4.146      4.588      7.706
REMARK INTER + INTRA:          -7.972
REMARK INTER:                  -7.361
REMARK INTRA:                  -0.611
REMARK UNBOUND:                -0.918
REMARK SMILES CCCCCCCCCCCCCC(=O)[O-]
REMARK SMILES IDX 8 1 9 2 10 3 11 4 12 5 13 6 14 7 15 8 16 9 7 10 6 11 5 12
REMARK SMILES IDX 4 13 3 14 2 15 1 16
REMARK H PARENT
REMARK Flexibility Score: inf
ROOT
ATOM      1  C   UNL     1       9.423  46.358  96.619  1.00  0.00     0.000 C 
ENDROOT
BRANCH   1   2
ATOM      2  C   UNL     1       9.157  47.855  96.379  1.00  0.00     0.000 C 
BRANCH   2   3
ATOM      3  C   UNL     1       9.291  48.747  97.628  1.00  0.00     0.000 C 
BRANCH   3   4
ATOM      4  C   UNL     1      10.751  48.981  98.043  1.00  0.00     0.000 C 
BRANCH   4   5
ATOM      5  C   UNL     1      11.677  48.980  96.820  1.00  0.00     0.006 C 
BRANCH   5   6
ATOM      6  C   UNL     1      13.098  49.401  97.206  1.00  0.00     0.053 C 
BRANCH   6   7
ATOM      7  C   UNL     1      13.899  49.724  95.985  1.00  0.00     0.041 C 
ATOM      8  O   UNL     1      13.484  49.382  94.847  1.00  0.00    -0.550 OA
ATOM      9  O   UNL     1      15.127  50.360  96.108  1.00  0.00    -0.550 OA
ENDBRANCH   6   7
ENDBRANCH   5   6
ENDBRANCH   4   5
ENDBRANCH   3   4
ENDBRANCH   2   3
ENDBRANCH   1   2
BRANCH   1  10
ATOM     10  C   UNL     1       9.599  45.563  95.316  1.00  0.00     0.000 C 
BRANCH  10  11
ATOM     11  C   UNL     1      10.118  44.148  95.601  1.00  0.00    -0.000 C 
BRANCH  11  12
ATOM     12  C   UNL     1      11.142  43.715  94.545  1.00  0.00    -0.000 C 
BRANCH  12  13
ATOM     13  C   UNL     1      11.783  42.371  94.921  1.00  0.00    -0.000 C 
BRANCH  13  14
ATOM     14  C   UNL     1      12.172  42.294  96.406  1.00  0.00    -0.000 C 
BRANCH  14  15
ATOM     15  C   UNL     1      13.688  42.166  96.614  1.00  0.00    -0.003 C 
ATOM     16  C   UNL     1      14.430  42.208  95.280  1.00  0.00     0.004 C 
ENDBRANCH  14  15
ENDBRANCH  13  14
ENDBRANCH  12  13
ENDBRANCH  11  12
ENDBRANCH  10  11
ENDBRANCH   1  10
TORSDOF 12
ENDMDL
MODEL 4
REMARK VINA RESULT:    -4.013      4.534      7.331
REMARK INTER + INTRA:          -7.746
REMARK INTER:                  -6.574
REMARK INTRA:                  -1.172
REMARK UNBOUND:                -0.918
REMARK SMILES CCCCCCCCCCCCCC(=O)[O-]
REMARK SMILES IDX 8 1 9 2 10 3 11 4 12 5 13 6 14 7 15 8 16 9 7 10 6 11 5 12
REMARK SMILES IDX 4 13 3 14 2 15 1 16
REMARK H PARENT
REMARK Flexibility Score: inf
ROOT
ATOM      1  C   UNL     1       8.874  49.933  97.998  1.00  0.00     0.000 C 
ENDROOT
BRANCH   1   2
ATOM      2  C   UNL     1       8.082  50.025  96.682  1.00  0.00     0.000 C 
BRANCH   2   3
ATOM      3  C   UNL     1       8.381  48.909  95.663  1.00  0.00     0.000 C 
BRANCH   3   4
ATOM      4  C   UNL     1       9.201  49.399  94.461  1.00  0.00     0.000 C 
BRANCH   4   5
ATOM      5  C   UNL     1       9.841  48.220  93.716  1.00  0.00     0.006 C 
BRANCH   5   6
ATOM      6  C   UNL     1      10.215  47.095  94.686  1.00  0.00     0.053 C 
BRANCH   6   7
ATOM      7  C   UNL     1      10.338  45.794  93.956  1.00  0.00     0.041 C 
ATOM      8  O   UNL     1      10.788  44.778  94.546  1.00  0.00    -0.550 OA
ATOM      9  O   UNL     1      10.002  45.719  92.611  1.00  0.00    -0.550 OA
ENDBRANCH   6   7
ENDBRANCH   5   6
ENDBRANCH   4   5
ENDBRANCH   3   4
ENDBRANCH   2   3
ENDBRANCH   1   2
BRANCH   1  10
ATOM     10  C   UNL     1       9.987  48.875  97.956  1.00  0.00     0.000 C 
BRANCH  10  11
ATOM     11  C   UNL     1      11.371  49.530  98.041  1.00  0.00    -0.000 C 
BRANCH  11  12
ATOM     12  C   UNL     1      12.273  49.062  96.892  1.00  0.00    -0.000 C 
BRANCH  12  13
ATOM     13  C   UNL     1      13.749  49.365  97.193  1.00  0.00    -0.000 C 
BRANCH  13  14
ATOM     14  C   UNL     1      14.132  50.818  96.872  1.00  0.00    -0.000 C 
BRANCH  14  15
ATOM     15  C   UNL     1      14.307  51.063  95.366  1.00  0.00    -0.003 C 
ATOM     16  C   UNL     1      15.565  50.378  94.840  1.00  0.00     0.004 C 
ENDBRANCH  14  15
ENDBRANCH  13  14
ENDBRANCH  12  13
ENDBRANCH  11  12
ENDBRANCH  10  11
ENDBRANCH   1  10
TORSDOF 12
ENDMDL
MODEL 5
REMARK VINA RESULT:    -3.880      1.932      4.294
REMARK INTER + INTRA:          -7.520
REMARK INTER:                  -6.588
REMARK INTRA:                  -0.931
REMARK UNBOUND:                -0.918
REMARK SMILES CCCCCCCCCCCCCC(=O)[O-]
REMARK SMILES IDX 8 1 9 2 10 3 11 4 12 5 13 6 14 7 15 8 16 9 7 10 6 11 5 12
REMARK SMILES IDX 4 13 3 14 2 15 1 16
REMARK H PARENT
REMARK Flexibility Score: inf
ROOT
ATOM      1  C   UNL     1      12.841  49.591  97.487  1.00  0.00     0.000 C 
ENDROOT
BRANCH   1   2
ATOM      2  C   UNL     1      13.424  50.030  96.131  1.00  0.00     0.000 C 
BRANCH   2   3
ATOM      3  C   UNL     1      14.836  50.640  96.197  1.00  0.00     0.000 C 
BRANCH   3   4
ATOM      4  C   UNL     1      15.627  50.463  94.892  1.00  0.00     0.000 C 
BRANCH   4   5
ATOM      5  C   UNL     1      15.964  48.987  94.649  1.00  0.00     0.006 C 
BRANCH   5   6
ATOM      6  C   UNL     1      15.652  48.583  93.205  1.00  0.00     0.053 C 
BRANCH   6   7
ATOM      7  C   UNL     1      16.522  47.442  92.781  1.00  0.00     0.041 C 
ATOM      8  O   UNL     1      17.348  46.942  93.588  1.00  0.00    -0.550 OA
ATOM      9  O   UNL     1      16.454  46.964  91.479  1.00  0.00    -0.550 OA
ENDBRANCH   6   7
ENDBRANCH   5   6
ENDBRANCH   4   5
ENDBRANCH   3   4
ENDBRANCH   2   3
ENDBRANCH   1   2
BRANCH   1  10
ATOM     10  C   UNL     1      11.538  48.789  97.349  1.00  0.00     0.000 C 
BRANCH  10  11
ATOM     11  C   UNL     1      10.374  49.508  98.042  1.00  0.00    -0.000 C 
BRANCH  11  12
ATOM     12  C   UNL     1       9.030  48.881  97.653  1.00  0.00    -0.000 C 
BRANCH  12  13
ATOM     13  C   UNL     1       9.074  48.332  96.220  1.00  0.00    -0.000 C 
BRANCH  13  14
ATOM     14  C   UNL     1       8.761  49.405  95.164  1.00  0.00    -0.000 C 
BRANCH  14  15
ATOM     15  C   UNL     1       9.281  49.030  93.769  1.00  0.00    -0.003 C 
ATOM     16  C   UNL     1      10.790  49.237  93.672  1.00  0.00     0.004 C 
ENDBRANCH  14  15
ENDBRANCH  13  14
ENDBRANCH  12  13
ENDBRANCH  11  12
ENDBRANCH  10  11
ENDBRANCH   1  10
TORSDOF 12
ENDMDL
MODEL 6
REMARK VINA RESULT:    -3.879      3.730      7.743
REMARK INTER + INTRA:          -7.518
REMARK INTER:                  -6.485
REMARK INTRA:                  -1.033
REMARK UNBOUND:                -0.918
REMARK SMILES CCCCCCCCCCCCCC(=O)[O-]
REMARK SMILES IDX 8 1 9 2 10 3 11 4 12 5 13 6 14 7 15 8 16 9 7 10 6 11 5 12
REMARK SMILES IDX 4 13 3 14 2 15 1 16
REMARK H PARENT
REMARK Flexibility Score: inf
ROOT
ATOM      1  C   UNL     1      10.176  49.720  98.368  1.00  0.00     0.000 C 
ENDROOT
BRANCH   1   2
ATOM      2  C   UNL     1       8.708  50.015  98.010  1.00  0.00     0.000 C 
BRANCH   2   3
ATOM      3  C   UNL     1       8.228  49.406  96.679  1.00  0.00     0.000 C 
BRANCH   3   4
ATOM      4  C   UNL     1       7.517  50.424  95.776  1.00  0.00     0.000 C 
BRANCH   4   5
ATOM      5  C   UNL     1       8.205  50.521  94.409  1.00  0.00     0.006 C 
BRANCH   5   6
ATOM      6  C   UNL     1       9.114  49.312  94.165  1.00  0.00     0.053 C 
BRANCH   6   7
ATOM      7  C   UNL     1      10.174  49.647  93.164  1.00  0.00     0.041 C 
ATOM      8  O   UNL     1       9.858  49.954  91.985  1.00  0.00    -0.550 OA
ATOM      9  O   UNL     1      11.514  49.574  93.521  1.00  0.00    -0.550 OA
ENDBRANCH   6   7
ENDBRANCH   5   6
ENDBRANCH   4   5
ENDBRANCH   3   4
ENDBRANCH   2   3
ENDBRANCH   1   2
BRANCH   1  10
ATOM     10  C   UNL     1      10.744  48.507  97.616  1.00  0.00     0.000 C 
BRANCH  10  11
ATOM     11  C   UNL     1      12.029  48.879  96.866  1.00  0.00    -0.000 C 
BRANCH  11  12
ATOM     12  C   UNL     1      12.856  49.898  97.660  1.00  0.00    -0.000 C 
BRANCH  12  13
ATOM     13  C   UNL     1      14.096  50.337  96.868  1.00  0.00    -0.000 C 
BRANCH  13  14
ATOM     14  C   UNL     1      14.245  49.584  95.536  1.00  0.00    -0.000 C 
BRANCH  14  15
ATOM     15  C   UNL     1      15.569  49.900  94.825  1.00  0.00    -0.003 C 
ATOM     16  C   UNL     1      16.052  48.704  94.007  1.00  0.00     0.004 C 
ENDBRANCH  14  15
ENDBRANCH  13  14
ENDBRANCH  12  13
ENDBRANCH  11  12
ENDBRANCH  10  11
ENDBRANCH   1  10
TORSDOF 12
ENDMDL
MODEL 7
REMARK VINA RESULT:    -3.864      4.823      6.953
REMARK INTER + INTRA:          -7.492
REMARK INTER:                  -6.773
REMARK INTRA:                  -0.719
REMARK UNBOUND:                -0.918
REMARK SMILES CCCCCCCCCCCCCC(=O)[O-]
REMARK SMILES IDX 8 1 9 2 10 3 11 4 12 5 13 6 14 7 15 8 16 9 7 10 6 11 5 12
REMARK SMILES IDX 4 13 3 14 2 15 1 16
REMARK H PARENT
REMARK Flexibility Score: inf
ROOT
ATOM      1  C   UNL     1       8.867  47.950  94.233  1.00  0.00     0.000 C 
ENDROOT
BRANCH   1   2
ATOM      2  C   UNL     1       9.361  46.616  93.645  1.00  0.00     0.000 C 
BRANCH   2   3
ATOM      3  C   UNL     1       9.409  45.444  94.644  1.00  0.00     0.000 C 
BRANCH   3   4
ATOM      4  C   UNL     1      10.727  44.659  94.584  1.00  0.00     0.000 C 
BRANCH   4   5
ATOM      5  C   UNL     1      10.672  43.422  95.489  1.00  0.00     0.006 C 
BRANCH   5   6
ATOM      6  C   UNL     1      11.845  42.479  95.204  1.00  0.00     0.053 C 
BRANCH   6   7
ATOM      7  C   UNL     1      12.630  42.228  96.453  1.00  0.00     0.041 C 
ATOM      8  O   UNL     1      12.038  42.073  97.552  1.00  0.00    -0.550 OA
ATOM      9  O   UNL     1      14.018  42.212  96.409  1.00  0.00    -0.550 OA
ENDBRANCH   6   7
ENDBRANCH   5   6
ENDBRANCH   4   5
ENDBRANCH   3   4
ENDBRANCH   2   3
ENDBRANCH   1   2
BRANCH   1  10
ATOM     10  C   UNL     1       8.730  47.918  95.763  1.00  0.00     0.000 C 
BRANCH  10  11
ATOM     11  C   UNL     1       9.648  48.957  96.419  1.00  0.00    -0.000 C 
BRANCH  11  12
ATOM     12  C   UNL     1      11.122  48.566  96.262  1.00  0.00    -0.000 C 
BRANCH  12  13
ATOM     13  C   UNL     1      11.987  49.241  97.338  1.00  0.00    -0.000 C 
BRANCH  13  14
ATOM     14  C   UNL     1      13.484  49.221  96.993  1.00  0.00    -0.000 C 
BRANCH  14  15
ATOM     15  C   UNL     1      14.063  50.629  96.793  1.00  0.00    -0.003 C 
ATOM     16  C   UNL     1      15.039  50.660  95.620  1.00  0.00     0.004 C 
ENDBRANCH  14  15
ENDBRANCH  13  14
ENDBRANCH  12  13
ENDBRANCH  11  12
ENDBRANCH  10  11
ENDBRANCH   1  10
TORSDOF 12
ENDMDL
MODEL 8
REMARK VINA RESULT:    -3.856      4.119      6.601
REMARK INTER + INTRA:          -7.478
REMARK INTER:                  -6.030
REMARK INTRA:                  -1.448
REMARK UNBOUND:                -0.918
REMARK SMILES CCCCCCCCCCCCCC(=O)[O-]
REMARK SMILES IDX 8 1 9 2 10 3 11 4 12 5 13 6 14 7 15 8 16 9 7 10 6 11 5 12
REMARK SMILES IDX 4 13 3 14 2 15 1 16
REMARK H PARENT
REMARK Flexibility Score: inf
ROOT
ATOM      1  C   UNL     1       8.660  48.129  97.103  1.00  0.00     0.000 C 
ENDROOT
BRANCH   1   2
ATOM      2  C   UNL     1       9.631  49.279  97.428  1.00  0.00     0.000 C 
BRANCH   2   3
ATOM      3  C   UNL     1      11.026  48.835  97.908  1.00  0.00     0.000 C 
BRANCH   3   4
ATOM      4  C   UNL     1      12.095  48.923  96.809  1.00  0.00     0.000 C 
BRANCH   4   5
ATOM      5  C   UNL     1      13.173  49.951  97.172  1.00  0.00     0.006 C 
BRANCH   5   6
ATOM      6  C   UNL     1      14.507  49.609  96.500  1.00  0.00     0.053 C 
BRANCH   6   7
ATOM      7  C   UNL     1      14.754  50.516  95.336  1.00  0.00     0.041 C 
ATOM      8  O   UNL     1      15.931  50.779  94.977  1.00  0.00    -0.550 OA
ATOM      9  O   UNL     1      13.684  51.108  94.678  1.00  0.00    -0.550 OA
ENDBRANCH   6   7
ENDBRANCH   5   6
ENDBRANCH   4   5
ENDBRANCH   3   4
ENDBRANCH   2   3
ENDBRANCH   1   2
BRANCH   1  10
ATOM     10  C   UNL     1       9.316  46.743  97.204  1.00  0.00     0.000 C 
BRANCH  10  11
ATOM     11  C   UNL     1       9.027  45.906  95.952  1.00  0.00    -0.000 C 
BRANCH  11  12
ATOM     12  C   UNL     1      10.241  45.878  95.015  1.00  0.00    -0.000 C 
BRANCH  12  13
ATOM     13  C   UNL     1      10.016  46.786  93.797  1.00  0.00    -0.000 C 
BRANCH  13  14
ATOM     14  C   UNL     1      11.012  47.954  93.737  1.00  0.00    -0.000 C 
BRANCH  14  15
ATOM     15  C   UNL     1      10.433  49.189  93.030  1.00  0.00    -0.003 C 
ATOM     16  C   UNL     1       9.237  49.749  93.796  1.00  0.00     0.004 C 
ENDBRANCH  14  15
ENDBRANCH  13  14
ENDBRANCH  12  13
ENDBRANCH  11  12
ENDBRANCH  10  11
ENDBRANCH   1  10
TORSDOF 12
ENDMDL
MODEL 9
REMARK VINA RESULT:    -3.826      3.892      6.775
REMARK INTER + INTRA:          -7.427
REMARK INTER:                  -6.444
REMARK INTRA:                  -0.983
REMARK UNBOUND:                -0.918
REMARK SMILES CCCCCCCCCCCCCC(=O)[O-]
REMARK SMILES IDX 8 1 9 2 10 3 11 4 12 5 13 6 14 7 15 8 16 9 7 10 6 11 5 12
REMARK SMILES IDX 4 13 3 14 2 15 1 16
REMARK H PARENT
REMARK Flexibility Score: inf
ROOT
ATOM      1  C   UNL     1       8.505  48.776  96.947  1.00  0.00     0.000 C 
ENDROOT
BRANCH   1   2
ATOM      2  C   UNL     1       9.695  48.041  97.589  1.00  0.00     0.000 C 
BRANCH   2   3
ATOM      3  C   UNL     1      11.033  48.802  97.542  1.00  0.00     0.000 C 
BRANCH   3   4
ATOM      4  C   UNL     1      11.656  48.834  96.139  1.00  0.00     0.000 C 
BRANCH   4   5
ATOM      5  C   UNL     1      13.141  49.210  96.206  1.00  0.00     0.006 C 
BRANCH   5   6
ATOM      6  C   UNL     1      13.771  49.214  94.810  1.00  0.00     0.053 C 
BRANCH   6   7
ATOM      7  C   UNL     1      15.218  49.587  94.888  1.00  0.00     0.041 C 
ATOM      8  O   UNL     1      16.102  48.775  94.511  1.00  0.00    -0.550 OA
ATOM      9  O   UNL     1      15.590  50.813  95.424  1.00  0.00    -0.550 OA
ENDBRANCH   6   7
ENDBRANCH   5   6
ENDBRANCH   4   5
ENDBRANCH   3   4
ENDBRANCH   2   3
ENDBRANCH   1   2
BRANCH   1  10
ATOM     10  C   UNL     1       7.846  47.976  95.813  1.00  0.00     0.000 C 
BRANCH  10  11
ATOM     11  C   UNL     1       8.256  46.499  95.873  1.00  0.00    -0.000 C 
BRANCH  11  12
ATOM     12  C   UNL     1       8.867  46.042  94.543  1.00  0.00    -0.000 C 
BRANCH  12  13
ATOM     13  C   UNL     1      10.271  45.456  94.756  1.00  0.00    -0.000 C 
BRANCH  13  14
ATOM     14  C   UNL     1      10.258  44.188  95.623  1.00  0.00    -0.000 C 
BRANCH  14  15
ATOM     15  C   UNL     1      11.170  43.084  95.067  1.00  0.00    -0.003 C 
ATOM     16  C   UNL     1      11.588  42.111  96.167  1.00  0.00     0.004 C 
ENDBRANCH  14  15
ENDBRANCH  13  14
ENDBRANCH  12  13
ENDBRANCH  11  12
ENDBRANCH  10  11
ENDBRANCH   1  10
TORSDOF 12
ENDMDL
