MODEL 1
REMARK VINA RESULT:    -6.363      0.000      0.000
REMARK INTER + INTRA:          -9.990
REMARK INTER:                  -9.153
REMARK INTRA:                  -0.837
REMARK UNBOUND:                -0.837
REMARK SMILES O=c1cc(-c2ccc(O)c(O)c2)oc2cc(O[C@H]3O[C@@H](CO)[C@H](O)[C@@H](O)[C@@H]3O)cc(O)c12
REMARK SMILES IDX 17 1 16 2 4 3 3 4 13 5 2 6 14 7 1 8 32 9 15 10 30 11 29 12
REMARK SMILES IDX 5 13 6 14 7 15 8 16 12 17 10 18 9 19 11 21 31 23 18 25 27 26
REMARK SMILES IDX 19 27 25 28 20 29 23 30 28 31 26 33 21 35 22 36 24 38
REMARK H PARENT 9 20 11 22 31 24 28 32 26 34 22 37 24 39
REMARK Flexibility Score: inf
ROOT
ATOM      1  O   UNL     1      -8.331 -23.973 -22.348  1.00  0.00    -0.462 OA
ENDROOT
BRANCH   1   2
ATOM      2  C   UNL     1      -7.736 -23.624 -21.128  1.00  0.00     0.130 A 
ATOM      3  C   UNL     1      -7.744 -20.689 -17.370  1.00  0.00     0.138 A 
ATOM      4  C   UNL     1      -6.700 -21.392 -16.741  1.00  0.00     0.100 A 
ATOM      5  O   UNL     1      -8.186 -21.096 -18.560  1.00  0.00    -0.456 OA
ATOM      6  C   UNL     1      -6.138 -22.499 -17.376  1.00  0.00     0.197 A 
ATOM      7  C   UNL     1      -7.693 -22.154 -19.197  1.00  0.00     0.146 A 
ATOM      8  O   UNL     1      -5.197 -23.117 -16.808  1.00  0.00    -0.289 OA
ATOM      9  C   UNL     1      -6.630 -22.903 -18.635  1.00  0.00     0.107 A 
ATOM     10  C   UNL     1      -8.241 -22.525 -20.428  1.00  0.00     0.094 A 
ATOM     11  C   UNL     1      -6.113 -24.010 -19.346  1.00  0.00     0.134 A 
ATOM     12  C   UNL     1      -6.673 -24.365 -20.583  1.00  0.00     0.093 A 
BRANCH   3  13
ATOM     13  C   UNL     1      -8.361 -19.492 -16.750  1.00  0.00     0.021 A 
ATOM     14  C   UNL     1      -8.768 -19.538 -15.405  1.00  0.00     0.016 A 
ATOM     15  C   UNL     1      -9.341 -18.418 -14.793  1.00  0.00     0.051 A 
ATOM     16  C   UNL     1      -9.507 -17.232 -15.516  1.00  0.00     0.157 A 
ATOM     17  C   UNL     1      -8.518 -18.292 -17.467  1.00  0.00     0.062 A 
ATOM     18  C   UNL     1      -9.094 -17.168 -16.854  1.00  0.00     0.158 A 
BRANCH  16  19
ATOM     19  O   UNL     1     -10.083 -16.115 -14.910  1.00  0.00    -0.504 OA
ATOM     20  H   UNL     1      -9.745 -15.752 -14.025  1.00  0.00     0.293 HD
ENDBRANCH  16  19
BRANCH  18  21
ATOM     21  O   UNL     1      -9.256 -15.986 -17.571  1.00  0.00    -0.504 OA
ATOM     22  H   UNL     1      -8.468 -15.374 -17.770  1.00  0.00     0.293 HD
ENDBRANCH  18  21
ENDBRANCH   3  13
BRANCH  11  23
ATOM     23  O   UNL     1      -5.048 -24.756 -18.838  1.00  0.00    -0.507 OA
ATOM     24  H   UNL     1      -4.101 -24.626 -19.170  1.00  0.00     0.293 HD
ENDBRANCH  11  23
ENDBRANCH   1   2
BRANCH   1  25
ATOM     25  C   UNL     1      -7.671 -23.928 -23.617  1.00  0.00     0.339 C 
ATOM     26  C   UNL     1      -8.721 -23.621 -24.715  1.00  0.00     0.214 C 
ATOM     27  O   UNL     1      -6.931 -25.138 -23.773  1.00  0.00    -0.332 OA
ATOM     28  C   UNL     1      -9.654 -24.833 -24.941  1.00  0.00     0.180 C 
ATOM     29  C   UNL     1      -7.348 -25.965 -24.845  1.00  0.00     0.179 C 
ATOM     30  C   UNL     1      -8.886 -26.178 -24.835  1.00  0.00     0.177 C 
BRANCH  26  31
ATOM     31  O   UNL     1      -8.063 -23.279 -25.910  1.00  0.00    -0.384 OA
ATOM     32  H   UNL     1      -8.703 -22.744 -26.449  1.00  0.00     0.211 HD
ENDBRANCH  26  31
BRANCH  28  33
ATOM     33  O   UNL     1     -10.682 -24.825 -23.982  1.00  0.00    -0.387 OA
ATOM     34  H   UNL     1     -10.864 -23.877 -23.747  1.00  0.00     0.211 HD
ENDBRANCH  28  33
BRANCH  29  35
ATOM     35  C   UNL     1      -6.598 -27.303 -24.750  1.00  0.00     0.191 C 
BRANCH  35  36
ATOM     36  O   UNL     1      -6.549 -27.947 -26.000  1.00  0.00    -0.394 OA
ATOM     37  H   UNL     1      -5.758 -28.555 -25.986  1.00  0.00     0.210 HD
ENDBRANCH  35  36
ENDBRANCH  29  35
BRANCH  30  38
ATOM     38  O   UNL     1      -9.291 -27.058 -25.857  1.00  0.00    -0.387 OA
ATOM     39  H   UNL     1      -9.969 -27.670 -25.464  1.00  0.00     0.211 HD
ENDBRANCH  30  38
ENDBRANCH   1  25
TORSDOF 11
ENDMDL
MODEL 2
REMARK VINA RESULT:    -6.354      1.443      2.091
REMARK INTER + INTRA:          -9.976
REMARK INTER:                  -9.012
REMARK INTRA:                  -0.965
REMARK UNBOUND:                -0.837
REMARK SMILES O=c1cc(-c2ccc(O)c(O)c2)oc2cc(O[C@H]3O[C@@H](CO)[C@H](O)[C@@H](O)[C@@H]3O)cc(O)c12
REMARK SMILES IDX 17 1 16 2 4 3 3 4 13 5 2 6 14 7 1 8 32 9 15 10 30 11 29 12
REMARK SMILES IDX 5 13 6 14 7 15 8 16 12 17 10 18 9 19 11 21 31 23 18 25 27 26
REMARK SMILES IDX 19 27 25 28 20 29 23 30 28 31 26 33 21 35 22 36 24 38
REMARK H PARENT 9 20 11 22 31 24 28 32 26 34 22 37 24 39
REMARK Flexibility Score: inf
ROOT
ATOM      1  O   UNL     1      -8.264 -23.997 -22.454  1.00  0.00    -0.462 OA
ENDROOT
BRANCH   1   2
ATOM      2  C   UNL     1      -7.683 -23.664 -21.223  1.00  0.00     0.130 A 
ATOM      3  C   UNL     1      -7.706 -20.747 -17.450  1.00  0.00     0.138 A 
ATOM      4  C   UNL     1      -6.685 -21.470 -16.807  1.00  0.00     0.100 A 
ATOM      5  O   UNL     1      -8.135 -21.141 -18.650  1.00  0.00    -0.456 OA
ATOM      6  C   UNL     1      -6.131 -22.584 -17.438  1.00  0.00     0.197 A 
ATOM      7  C   UNL     1      -7.649 -22.204 -19.284  1.00  0.00     0.146 A 
ATOM      8  O   UNL     1      -5.210 -23.220 -16.857  1.00  0.00    -0.289 OA
ATOM      9  C   UNL     1      -6.608 -22.973 -18.708  1.00  0.00     0.107 A 
ATOM     10  C   UNL     1      -8.182 -22.560 -20.525  1.00  0.00     0.094 A 
ATOM     11  C   UNL     1      -6.097 -24.085 -19.415  1.00  0.00     0.134 A 
ATOM     12  C   UNL     1      -6.642 -24.425 -20.663  1.00  0.00     0.093 A 
BRANCH   3  13
ATOM     13  C   UNL     1      -8.314 -19.543 -16.834  1.00  0.00     0.021 A 
ATOM     14  C   UNL     1      -8.717 -19.579 -15.488  1.00  0.00     0.016 A 
ATOM     15  C   UNL     1      -9.281 -18.452 -14.880  1.00  0.00     0.051 A 
ATOM     16  C   UNL     1      -9.442 -17.269 -15.609  1.00  0.00     0.157 A 
ATOM     17  C   UNL     1      -8.466 -18.346 -17.557  1.00  0.00     0.062 A 
ATOM     18  C   UNL     1      -9.034 -17.215 -16.949  1.00  0.00     0.158 A 
BRANCH  16  19
ATOM     19  O   UNL     1     -10.010 -16.146 -15.007  1.00  0.00    -0.504 OA
ATOM     20  H   UNL     1      -9.786 -15.204 -15.314  1.00  0.00     0.293 HD
ENDBRANCH  16  19
BRANCH  18  21
ATOM     21  O   UNL     1      -9.191 -16.036 -17.671  1.00  0.00    -0.504 OA
ATOM     22  H   UNL     1      -8.456 -15.333 -17.705  1.00  0.00     0.293 HD
ENDBRANCH  18  21
ENDBRANCH   3  13
BRANCH  11  23
ATOM     23  O   UNL     1      -5.054 -24.851 -18.894  1.00  0.00    -0.507 OA
ATOM     24  H   UNL     1      -5.183 -25.450 -18.088  1.00  0.00     0.293 HD
ENDBRANCH  11  23
ENDBRANCH   1   2
BRANCH   1  25
ATOM     25  C   UNL     1      -9.526 -23.507 -22.916  1.00  0.00     0.339 C 
ATOM     26  C   UNL     1     -10.612 -24.574 -22.625  1.00  0.00     0.214 C 
ATOM     27  O   UNL     1      -9.377 -23.117 -24.281  1.00  0.00    -0.332 OA
ATOM     28  C   UNL     1     -10.444 -25.801 -23.552  1.00  0.00     0.180 C 
ATOM     29  C   UNL     1     -10.153 -23.855 -25.208  1.00  0.00     0.179 C 
ATOM     30  C   UNL     1     -10.007 -25.385 -24.982  1.00  0.00     0.177 C 
BRANCH  26  31
ATOM     31  O   UNL     1     -11.887 -24.004 -22.792  1.00  0.00    -0.384 OA
ATOM     32  H   UNL     1     -11.790 -23.273 -23.457  1.00  0.00     0.211 HD
ENDBRANCH  26  31
BRANCH  28  33
ATOM     33  O   UNL     1      -9.474 -26.668 -23.020  1.00  0.00    -0.387 OA
ATOM     34  H   UNL     1      -9.670 -27.581 -23.358  1.00  0.00     0.211 HD
ENDBRANCH  28  33
BRANCH  29  35
ATOM     35  C   UNL     1      -9.728 -23.456 -26.629  1.00  0.00     0.191 C 
BRANCH  35  36
ATOM     36  O   UNL     1     -10.709 -23.814 -27.572  1.00  0.00    -0.394 OA
ATOM     37  H   UNL     1     -10.486 -23.341 -28.422  1.00  0.00     0.210 HD
ENDBRANCH  35  36
ENDBRANCH  29  35
BRANCH  30  38
ATOM     38  O   UNL     1     -10.721 -26.119 -25.949  1.00  0.00    -0.387 OA
ATOM     39  H   UNL     1     -11.139 -25.461 -26.565  1.00  0.00     0.211 HD
ENDBRANCH  30  38
ENDBRANCH   1  25
TORSDOF 11
ENDMDL
MODEL 3
REMARK VINA RESULT:    -6.301      2.157      3.354
REMARK INTER + INTRA:          -9.901
REMARK INTER:                  -8.976
REMARK INTRA:                  -0.924
REMARK UNBOUND:                -0.837
REMARK SMILES O=c1cc(-c2ccc(O)c(O)c2)oc2cc(O[C@H]3O[C@@H](CO)[C@H](O)[C@@H](O)[C@@H]3O)cc(O)c12
REMARK SMILES IDX 17 1 16 2 4 3 3 4 13 5 2 6 14 7 1 8 32 9 15 10 30 11 29 12
REMARK SMILES IDX 5 13 6 14 7 15 8 16 12 17 10 18 9 19 11 21 31 23 18 25 27 26
REMARK SMILES IDX 19 27 25 28 20 29 23 30 28 31 26 33 21 35 22 36 24 38
REMARK H PARENT 9 20 11 22 31 24 28 32 26 34 22 37 24 39
REMARK Flexibility Score: inf
ROOT
ATOM      1  O   UNL     1      -8.212 -22.812 -24.097  1.00  0.00    -0.462 OA
ENDROOT
BRANCH   1   2
ATOM      2  C   UNL     1      -7.777 -22.919 -22.769  1.00  0.00     0.130 A 
ATOM      3  C   UNL     1      -7.740 -20.998 -18.405  1.00  0.00     0.138 A 
ATOM      4  C   UNL     1      -7.028 -22.084 -17.865  1.00  0.00     0.100 A 
ATOM      5  O   UNL     1      -8.049 -20.993 -19.702  1.00  0.00    -0.456 OA
ATOM      6  C   UNL     1      -6.648 -23.137 -18.697  1.00  0.00     0.197 A 
ATOM      7  C   UNL     1      -7.722 -21.981 -20.531  1.00  0.00     0.146 A 
ATOM      8  O   UNL     1      -6.001 -24.101 -18.206  1.00  0.00    -0.289 OA
ATOM      9  C   UNL     1      -6.991 -23.101 -20.066  1.00  0.00     0.107 A 
ATOM     10  C   UNL     1      -8.116 -21.905 -21.870  1.00  0.00     0.094 A 
ATOM     11  C   UNL     1      -6.640 -24.124 -20.975  1.00  0.00     0.134 A 
ATOM     12  C   UNL     1      -7.040 -24.029 -22.317  1.00  0.00     0.093 A 
BRANCH   3  13
ATOM     13  C   UNL     1      -8.148 -19.842 -17.570  1.00  0.00     0.021 A 
ATOM     14  C   UNL     1      -8.136 -18.548 -18.121  1.00  0.00     0.016 A 
ATOM     15  C   UNL     1      -8.529 -17.444 -17.358  1.00  0.00     0.051 A 
ATOM     16  C   UNL     1      -8.948 -17.618 -16.035  1.00  0.00     0.157 A 
ATOM     17  C   UNL     1      -8.584 -20.012 -16.244  1.00  0.00     0.062 A 
ATOM     18  C   UNL     1      -8.977 -18.904 -15.477  1.00  0.00     0.158 A 
BRANCH  16  19
ATOM     19  O   UNL     1      -9.334 -16.517 -15.270  1.00  0.00    -0.504 OA
ATOM     20  H   UNL     1     -10.215 -16.038 -15.428  1.00  0.00     0.293 HD
ENDBRANCH  16  19
BRANCH  18  21
ATOM     21  O   UNL     1      -9.398 -19.076 -14.161  1.00  0.00    -0.504 OA
ATOM     22  H   UNL     1     -10.100 -19.770 -13.916  1.00  0.00     0.293 HD
ENDBRANCH  18  21
ENDBRANCH   3  13
BRANCH  11  23
ATOM     23  O   UNL     1      -5.896 -25.230 -20.561  1.00  0.00    -0.507 OA
ATOM     24  H   UNL     1      -6.253 -25.886 -19.878  1.00  0.00     0.293 HD
ENDBRANCH  11  23
ENDBRANCH   1   2
BRANCH   1  25
ATOM     25  C   UNL     1      -8.696 -21.607 -24.698  1.00  0.00     0.339 C 
ATOM     26  C   UNL     1      -9.930 -21.946 -25.572  1.00  0.00     0.214 C 
ATOM     27  O   UNL     1      -7.603 -20.978 -25.367  1.00  0.00    -0.332 OA
ATOM     28  C   UNL     1      -9.511 -22.730 -26.839  1.00  0.00     0.180 C 
ATOM     29  C   UNL     1      -7.742 -20.866 -26.773  1.00  0.00     0.179 C 
ATOM     30  C   UNL     1      -8.164 -22.216 -27.413  1.00  0.00     0.177 C 
BRANCH  26  31
ATOM     31  O   UNL     1     -10.594 -20.758 -25.927  1.00  0.00    -0.384 OA
ATOM     32  H   UNL     1     -10.414 -20.101 -25.205  1.00  0.00     0.211 HD
ENDBRANCH  26  31
BRANCH  28  33
ATOM     33  O   UNL     1      -9.378 -24.094 -26.529  1.00  0.00    -0.387 OA
ATOM     34  H   UNL     1      -8.725 -24.169 -25.783  1.00  0.00     0.211 HD
ENDBRANCH  28  33
BRANCH  29  35
ATOM     35  C   UNL     1      -6.412 -20.362 -27.356  1.00  0.00     0.191 C 
BRANCH  35  36
ATOM     36  O   UNL     1      -6.564 -19.966 -28.697  1.00  0.00    -0.394 OA
ATOM     37  H   UNL     1      -5.726 -20.223 -29.176  1.00  0.00     0.210 HD
ENDBRANCH  35  36
ENDBRANCH  29  35
BRANCH  30  38
ATOM     38  O   UNL     1      -8.230 -22.123 -28.816  1.00  0.00    -0.387 OA
ATOM     39  H   UNL     1      -7.580 -21.424 -29.094  1.00  0.00     0.211 HD
ENDBRANCH  30  38
ENDBRANCH   1  25
TORSDOF 11
ENDMDL
MODEL 4
REMARK VINA RESULT:    -6.212      2.406      3.741
REMARK INTER + INTRA:          -9.773
REMARK INTER:                  -8.899
REMARK INTRA:                  -0.874
REMARK UNBOUND:                -0.837
REMARK SMILES O=c1cc(-c2ccc(O)c(O)c2)oc2cc(O[C@H]3O[C@@H](CO)[C@H](O)[C@@H](O)[C@@H]3O)cc(O)c12
REMARK SMILES IDX 17 1 16 2 4 3 3 4 13 5 2 6 14 7 1 8 32 9 15 10 30 11 29 12
REMARK SMILES IDX 5 13 6 14 7 15 8 16 12 17 10 18 9 19 11 21 31 23 18 25 27 26
REMARK SMILES IDX 19 27 25 28 20 29 23 30 28 31 26 33 21 35 22 36 24 38
REMARK H PARENT 9 20 11 22 31 24 28 32 26 34 22 37 24 39
REMARK Flexibility Score: inf
ROOT
ATOM      1  O   UNL     1      -7.859 -21.437 -25.041  1.00  0.00    -0.462 OA
ENDROOT
BRANCH   1   2
ATOM      2  C   UNL     1      -7.571 -21.873 -23.740  1.00  0.00     0.130 A 
ATOM      3  C   UNL     1      -7.781 -20.935 -19.069  1.00  0.00     0.138 A 
ATOM      4  C   UNL     1      -7.236 -22.187 -18.730  1.00  0.00     0.100 A 
ATOM      5  O   UNL     1      -7.957 -20.621 -20.353  1.00  0.00    -0.456 OA
ATOM      6  C   UNL     1      -6.880 -23.077 -19.743  1.00  0.00     0.197 A 
ATOM      7  C   UNL     1      -7.648 -21.442 -21.353  1.00  0.00     0.146 A 
ATOM      8  O   UNL     1      -6.383 -24.193 -19.430  1.00  0.00    -0.289 OA
ATOM      9  C   UNL     1      -7.079 -22.713 -21.092  1.00  0.00     0.107 A 
ATOM     10  C   UNL     1      -7.897 -21.039 -22.667  1.00  0.00     0.094 A 
ATOM     11  C   UNL     1      -6.742 -23.555 -22.176  1.00  0.00     0.134 A 
ATOM     12  C   UNL     1      -6.995 -23.131 -23.490  1.00  0.00     0.093 A 
BRANCH   3  13
ATOM     13  C   UNL     1      -8.155 -19.943 -18.033  1.00  0.00     0.021 A 
ATOM     14  C   UNL     1      -8.209 -18.578 -18.366  1.00  0.00     0.016 A 
ATOM     15  C   UNL     1      -8.573 -17.623 -17.410  1.00  0.00     0.051 A 
ATOM     16  C   UNL     1      -8.894 -18.021 -16.108  1.00  0.00     0.157 A 
ATOM     17  C   UNL     1      -8.494 -20.338 -16.726  1.00  0.00     0.062 A 
ATOM     18  C   UNL     1      -8.856 -19.380 -15.765  1.00  0.00     0.158 A 
BRANCH  16  19
ATOM     19  O   UNL     1      -9.251 -17.071 -15.151  1.00  0.00    -0.504 OA
ATOM     20  H   UNL     1     -10.085 -16.500 -15.248  1.00  0.00     0.293 HD
ENDBRANCH  16  19
BRANCH  18  21
ATOM     21  O   UNL     1      -9.181 -19.775 -14.471  1.00  0.00    -0.504 OA
ATOM     22  H   UNL     1      -8.544 -19.619 -13.693  1.00  0.00     0.293 HD
ENDBRANCH  18  21
ENDBRANCH   3  13
BRANCH  11  23
ATOM     23  O   UNL     1      -6.155 -24.802 -21.961  1.00  0.00    -0.507 OA
ATOM     24  H   UNL     1      -5.656 -25.290 -22.694  1.00  0.00     0.293 HD
ENDBRANCH  11  23
ENDBRANCH   1   2
BRANCH   1  25
ATOM     25  C   UNL     1      -7.891 -22.284 -26.193  1.00  0.00     0.339 C 
ATOM     26  C   UNL     1      -7.811 -21.400 -27.464  1.00  0.00     0.214 C 
ATOM     27  O   UNL     1      -9.033 -23.132 -26.086  1.00  0.00    -0.332 OA
ATOM     28  C   UNL     1      -9.126 -20.613 -27.672  1.00  0.00     0.180 C 
ATOM     29  C   UNL     1     -10.011 -22.957 -27.096  1.00  0.00     0.179 C 
ATOM     30  C   UNL     1     -10.370 -21.458 -27.288  1.00  0.00     0.177 C 
BRANCH  26  31
ATOM     31  O   UNL     1      -7.542 -22.210 -28.582  1.00  0.00    -0.384 OA
ATOM     32  H   UNL     1      -7.609 -23.153 -28.278  1.00  0.00     0.211 HD
ENDBRANCH  26  31
BRANCH  28  33
ATOM     33  O   UNL     1      -9.112 -19.449 -26.884  1.00  0.00    -0.387 OA
ATOM     34  H   UNL     1     -10.012 -19.354 -26.474  1.00  0.00     0.211 HD
ENDBRANCH  28  33
BRANCH  29  35
ATOM     35  C   UNL     1     -11.251 -23.786 -26.726  1.00  0.00     0.191 C 
BRANCH  35  36
ATOM     36  O   UNL     1     -11.970 -24.164 -27.874  1.00  0.00    -0.394 OA
ATOM     37  H   UNL     1     -12.559 -24.927 -27.614  1.00  0.00     0.210 HD
ENDBRANCH  35  36
ENDBRANCH  29  35
BRANCH  30  38
ATOM     38  O   UNL     1     -11.393 -21.291 -28.239  1.00  0.00    -0.387 OA
ATOM     39  H   UNL     1     -12.174 -20.899 -27.764  1.00  0.00     0.211 HD
ENDBRANCH  30  38
ENDBRANCH   1  25
TORSDOF 11
ENDMDL
MODEL 5
REMARK VINA RESULT:    -6.194      1.058      2.014
REMARK INTER + INTRA:          -9.746
REMARK INTER:                  -8.824
REMARK INTRA:                  -0.923
REMARK UNBOUND:                -0.837
REMARK SMILES O=c1cc(-c2ccc(O)c(O)c2)oc2cc(O[C@H]3O[C@@H](CO)[C@H](O)[C@@H](O)[C@@H]3O)cc(O)c12
REMARK SMILES IDX 17 1 16 2 4 3 3 4 13 5 2 6 14 7 1 8 32 9 15 10 30 11 29 12
REMARK SMILES IDX 5 13 6 14 7 15 8 16 12 17 10 18 9 19 11 21 31 23 18 25 27 26
REMARK SMILES IDX 19 27 25 28 20 29 23 30 28 31 26 33 21 35 22 36 24 38
REMARK H PARENT 9 20 11 22 31 24 28 32 26 34 22 37 24 39
REMARK Flexibility Score: inf
ROOT
ATOM      1  O   UNL     1      -7.853 -23.310 -22.752  1.00  0.00    -0.462 OA
ENDROOT
BRANCH   1   2
ATOM      2  C   UNL     1      -7.413 -23.125 -21.434  1.00  0.00     0.130 A 
ATOM      3  C   UNL     1      -7.777 -20.584 -17.415  1.00  0.00     0.138 A 
ATOM      4  C   UNL     1      -6.869 -21.415 -16.734  1.00  0.00     0.100 A 
ATOM      5  O   UNL     1      -8.073 -20.840 -18.690  1.00  0.00    -0.456 OA
ATOM      6  C   UNL     1      -6.286 -22.490 -17.405  1.00  0.00     0.197 A 
ATOM      7  C   UNL     1      -7.555 -21.861 -19.367  1.00  0.00     0.146 A 
ATOM      8  O   UNL     1      -5.466 -23.224 -16.789  1.00  0.00    -0.289 OA
ATOM      9  C   UNL     1      -6.621 -22.732 -18.754  1.00  0.00     0.107 A 
ATOM     10  C   UNL     1      -7.949 -22.070 -20.691  1.00  0.00     0.094 A 
ATOM     11  C   UNL     1      -6.072 -23.796 -19.506  1.00  0.00     0.134 A 
ATOM     12  C   UNL     1      -6.476 -23.988 -20.837  1.00  0.00     0.093 A 
BRANCH   3  13
ATOM     13  C   UNL     1      -8.408 -19.415 -16.756  1.00  0.00     0.021 A 
ATOM     14  C   UNL     1      -8.817 -19.511 -15.414  1.00  0.00     0.016 A 
ATOM     15  C   UNL     1      -9.402 -18.419 -14.766  1.00  0.00     0.051 A 
ATOM     16  C   UNL     1      -9.579 -17.211 -15.448  1.00  0.00     0.157 A 
ATOM     17  C   UNL     1      -8.576 -18.194 -17.432  1.00  0.00     0.062 A 
ATOM     18  C   UNL     1      -9.165 -17.097 -16.783  1.00  0.00     0.158 A 
BRANCH  16  19
ATOM     19  O   UNL     1     -10.168 -16.121 -14.806  1.00  0.00    -0.504 OA
ATOM     20  H   UNL     1     -10.985 -15.653 -15.186  1.00  0.00     0.293 HD
ENDBRANCH  16  19
BRANCH  18  21
ATOM     21  O   UNL     1      -9.339 -15.893 -17.459  1.00  0.00    -0.504 OA
ATOM     22  H   UNL     1      -9.094 -15.797 -18.442  1.00  0.00     0.293 HD
ENDBRANCH  18  21
ENDBRANCH   3  13
BRANCH  11  23
ATOM     23  O   UNL     1      -5.130 -24.659 -18.947  1.00  0.00    -0.507 OA
ATOM     24  H   UNL     1      -4.318 -24.971 -19.466  1.00  0.00     0.293 HD
ENDBRANCH  11  23
ENDBRANCH   1   2
BRANCH   1  25
ATOM     25  C   UNL     1      -7.933 -24.577 -23.411  1.00  0.00     0.339 C 
ATOM     26  C   UNL     1      -7.073 -24.523 -24.700  1.00  0.00     0.214 C 
ATOM     27  O   UNL     1      -9.312 -24.898 -23.587  1.00  0.00    -0.332 OA
ATOM     28  C   UNL     1      -7.735 -23.622 -25.768  1.00  0.00     0.180 C 
ATOM     29  C   UNL     1      -9.741 -24.996 -24.934  1.00  0.00     0.179 C 
ATOM     30  C   UNL     1      -9.280 -23.771 -25.770  1.00  0.00     0.177 C 
BRANCH  26  31
ATOM     31  O   UNL     1      -6.894 -25.826 -25.199  1.00  0.00    -0.384 OA
ATOM     32  H   UNL     1      -7.071 -26.449 -24.447  1.00  0.00     0.211 HD
ENDBRANCH  26  31
BRANCH  28  33
ATOM     33  O   UNL     1      -7.413 -22.276 -25.518  1.00  0.00    -0.387 OA
ATOM     34  H   UNL     1      -7.565 -22.107 -24.551  1.00  0.00     0.211 HD
ENDBRANCH  28  33
BRANCH  29  35
ATOM     35  C   UNL     1     -11.271 -25.140 -24.950  1.00  0.00     0.191 C 
BRANCH  35  36
ATOM     36  O   UNL     1     -11.710 -25.751 -26.139  1.00  0.00    -0.394 OA
ATOM     37  H   UNL     1     -12.535 -25.270 -26.429  1.00  0.00     0.210 HD
ENDBRANCH  35  36
ENDBRANCH  29  35
BRANCH  30  38
ATOM     38  O   UNL     1      -9.768 -23.834 -27.088  1.00  0.00    -0.387 OA
ATOM     39  H   UNL     1      -9.061 -24.258 -27.642  1.00  0.00     0.211 HD
ENDBRANCH  30  38
ENDBRANCH   1  25
TORSDOF 11
ENDMDL
MODEL 6
REMARK VINA RESULT:    -6.113      2.264      3.828
REMARK INTER + INTRA:          -9.631
REMARK INTER:                  -8.683
REMARK INTRA:                  -0.948
REMARK UNBOUND:                -0.837
REMARK SMILES O=c1cc(-c2ccc(O)c(O)c2)oc2cc(O[C@H]3O[C@@H](CO)[C@H](O)[C@@H](O)[C@@H]3O)cc(O)c12
REMARK SMILES IDX 17 1 16 2 4 3 3 4 13 5 2 6 14 7 1 8 32 9 15 10 30 11 29 12
REMARK SMILES IDX 5 13 6 14 7 15 8 16 12 17 10 18 9 19 11 21 31 23 18 25 27 26
REMARK SMILES IDX 19 27 25 28 20 29 23 30 28 31 26 33 21 35 22 36 24 38
REMARK H PARENT 9 20 11 22 31 24 28 32 26 34 22 37 24 39
REMARK Flexibility Score: inf
ROOT
ATOM      1  O   UNL     1      -7.496 -21.832 -24.108  1.00  0.00    -0.462 OA
ENDROOT
BRANCH   1   2
ATOM      2  C   UNL     1      -7.279 -22.060 -22.742  1.00  0.00     0.130 A 
ATOM      3  C   UNL     1      -7.866 -20.478 -18.282  1.00  0.00     0.138 A 
ATOM      4  C   UNL     1      -7.284 -21.633 -17.729  1.00  0.00     0.100 A 
ATOM      5  O   UNL     1      -7.966 -20.361 -19.606  1.00  0.00    -0.456 OA
ATOM      6  C   UNL     1      -6.814 -22.637 -18.576  1.00  0.00     0.197 A 
ATOM      7  C   UNL     1      -7.546 -21.297 -20.453  1.00  0.00     0.146 A 
ATOM      8  O   UNL     1      -6.286 -23.665 -18.071  1.00  0.00    -0.289 OA
ATOM      9  C   UNL     1      -6.936 -22.482 -19.973  1.00  0.00     0.107 A 
ATOM     10  C   UNL     1      -7.721 -21.102 -21.826  1.00  0.00     0.094 A 
ATOM     11  C   UNL     1      -6.481 -23.448 -20.899  1.00  0.00     0.134 A 
ATOM     12  C   UNL     1      -6.661 -23.233 -22.274  1.00  0.00     0.093 A 
BRANCH   3  13
ATOM     13  C   UNL     1      -8.361 -19.371 -17.428  1.00  0.00     0.021 A 
ATOM     14  C   UNL     1      -8.462 -18.074 -17.961  1.00  0.00     0.016 A 
ATOM     15  C   UNL     1      -8.939 -17.016 -17.181  1.00  0.00     0.051 A 
ATOM     16  C   UNL     1      -9.328 -17.241 -15.856  1.00  0.00     0.157 A 
ATOM     17  C   UNL     1      -8.767 -19.594 -16.100  1.00  0.00     0.062 A 
ATOM     18  C   UNL     1      -9.244 -18.531 -15.315  1.00  0.00     0.158 A 
BRANCH  16  19
ATOM     19  O   UNL     1      -9.798 -16.186 -15.073  1.00  0.00    -0.504 OA
ATOM     20  H   UNL     1      -9.411 -15.251 -15.147  1.00  0.00     0.293 HD
ENDBRANCH  16  19
BRANCH  18  21
ATOM     21  O   UNL     1      -9.636 -18.755 -13.999  1.00  0.00    -0.504 OA
ATOM     22  H   UNL     1      -9.742 -17.987 -13.339  1.00  0.00     0.293 HD
ENDBRANCH  18  21
ENDBRANCH   3  13
BRANCH  11  23
ATOM     23  O   UNL     1      -5.850 -24.615 -20.467  1.00  0.00    -0.507 OA
ATOM     24  H   UNL     1      -4.927 -24.875 -20.793  1.00  0.00     0.293 HD
ENDBRANCH  11  23
ENDBRANCH   1   2
BRANCH   1  25
ATOM     25  C   UNL     1      -8.758 -21.979 -24.765  1.00  0.00     0.339 C 
ATOM     26  C   UNL     1      -8.616 -23.043 -25.885  1.00  0.00     0.214 C 
ATOM     27  O   UNL     1      -9.196 -20.685 -25.177  1.00  0.00    -0.332 OA
ATOM     28  C   UNL     1      -7.764 -22.500 -27.056  1.00  0.00     0.180 C 
ATOM     29  C   UNL     1      -9.316 -20.507 -26.578  1.00  0.00     0.179 C 
ATOM     30  C   UNL     1      -8.047 -20.998 -27.326  1.00  0.00     0.177 C 
BRANCH  26  31
ATOM     31  O   UNL     1      -9.892 -23.418 -26.340  1.00  0.00    -0.384 OA
ATOM     32  H   UNL     1      -9.918 -23.231 -27.314  1.00  0.00     0.211 HD
ENDBRANCH  26  31
BRANCH  28  33
ATOM     33  O   UNL     1      -6.398 -22.655 -26.760  1.00  0.00    -0.387 OA
ATOM     34  H   UNL     1      -5.999 -23.217 -27.475  1.00  0.00     0.211 HD
ENDBRANCH  28  33
BRANCH  29  35
ATOM     35  C   UNL     1      -9.592 -19.022 -26.860  1.00  0.00     0.191 C 
BRANCH  35  36
ATOM     36  O   UNL     1      -8.410 -18.343 -27.204  1.00  0.00    -0.394 OA
ATOM     37  H   UNL     1      -7.663 -18.786 -26.713  1.00  0.00     0.210 HD
ENDBRANCH  35  36
ENDBRANCH  29  35
BRANCH  30  38
ATOM     38  O   UNL     1      -8.137 -20.754 -28.709  1.00  0.00    -0.387 OA
ATOM     39  H   UNL     1      -9.040 -21.051 -29.000  1.00  0.00     0.211 HD
ENDBRANCH  30  38
ENDBRANCH   1  25
TORSDOF 11
ENDMDL
MODEL 7
REMARK VINA RESULT:    -5.942      1.230      1.818
REMARK INTER + INTRA:          -9.384
REMARK INTER:                  -8.436
REMARK INTRA:                  -0.948
REMARK UNBOUND:                -0.837
REMARK SMILES O=c1cc(-c2ccc(O)c(O)c2)oc2cc(O[C@H]3O[C@@H](CO)[C@H](O)[C@@H](O)[C@@H]3O)cc(O)c12
REMARK SMILES IDX 17 1 16 2 4 3 3 4 13 5 2 6 14 7 1 8 32 9 15 10 30 11 29 12
REMARK SMILES IDX 5 13 6 14 7 15 8 16 12 17 10 18 9 19 11 21 31 23 18 25 27 26
REMARK SMILES IDX 19 27 25 28 20 29 23 30 28 31 26 33 21 35 22 36 24 38
REMARK H PARENT 9 20 11 22 31 24 28 32 26 34 22 37 24 39
REMARK Flexibility Score: inf
ROOT
ATOM      1  O   UNL     1      -8.750 -24.925 -22.549  1.00  0.00    -0.462 OA
ENDROOT
BRANCH   1   2
ATOM      2  C   UNL     1      -8.032 -24.545 -21.407  1.00  0.00     0.130 A 
ATOM      3  C   UNL     1      -7.427 -21.307 -17.959  1.00  0.00     0.138 A 
ATOM      4  C   UNL     1      -6.431 -22.074 -17.328  1.00  0.00     0.100 A 
ATOM      5  O   UNL     1      -7.998 -21.761 -19.075  1.00  0.00    -0.456 OA
ATOM      6  C   UNL     1      -6.050 -23.295 -17.884  1.00  0.00     0.197 A 
ATOM      7  C   UNL     1      -7.679 -22.925 -19.635  1.00  0.00     0.146 A 
ATOM      8  O   UNL     1      -5.149 -23.971 -17.316  1.00  0.00    -0.289 OA
ATOM      9  C   UNL     1      -6.674 -23.746 -19.067  1.00  0.00     0.107 A 
ATOM     10  C   UNL     1      -8.353 -23.334 -20.788  1.00  0.00     0.094 A 
ATOM     11  C   UNL     1      -6.342 -24.967 -19.696  1.00  0.00     0.134 A 
ATOM     12  C   UNL     1      -7.027 -25.360 -20.856  1.00  0.00     0.093 A 
BRANCH   3  13
ATOM     13  C   UNL     1      -7.853 -19.992 -17.422  1.00  0.00     0.021 A 
ATOM     14  C   UNL     1      -7.578 -18.822 -18.151  1.00  0.00     0.016 A 
ATOM     15  C   UNL     1      -7.981 -17.571 -17.674  1.00  0.00     0.051 A 
ATOM     16  C   UNL     1      -8.674 -17.472 -16.462  1.00  0.00     0.157 A 
ATOM     17  C   UNL     1      -8.562 -19.888 -16.212  1.00  0.00     0.062 A 
ATOM     18  C   UNL     1      -8.966 -18.632 -15.731  1.00  0.00     0.158 A 
BRANCH  16  19
ATOM     19  O   UNL     1      -9.072 -16.225 -15.980  1.00  0.00    -0.504 OA
ATOM     20  H   UNL     1      -9.519 -15.538 -16.578  1.00  0.00     0.293 HD
ENDBRANCH  16  19
BRANCH  18  21
ATOM     21  O   UNL     1      -9.659 -18.533 -14.528  1.00  0.00    -0.504 OA
ATOM     22  H   UNL     1      -9.335 -19.008 -13.688  1.00  0.00     0.293 HD
ENDBRANCH  18  21
ENDBRANCH   3  13
BRANCH  11  23
ATOM     23  O   UNL     1      -5.340 -25.791 -19.183  1.00  0.00    -0.507 OA
ATOM     24  H   UNL     1      -5.182 -26.725 -19.540  1.00  0.00     0.293 HD
ENDBRANCH  11  23
ENDBRANCH   1   2
BRANCH   1  25
ATOM     25  C   UNL     1      -8.422 -24.528 -23.884  1.00  0.00     0.339 C 
ATOM     26  C   UNL     1      -9.297 -25.339 -24.874  1.00  0.00     0.214 C 
ATOM     27  O   UNL     1      -7.010 -24.649 -24.047  1.00  0.00    -0.332 OA
ATOM     28  C   UNL     1      -8.855 -26.820 -24.918  1.00  0.00     0.180 C 
ATOM     29  C   UNL     1      -6.593 -25.600 -25.011  1.00  0.00     0.179 C 
ATOM     30  C   UNL     1      -7.312 -26.963 -24.815  1.00  0.00     0.177 C 
BRANCH  26  31
ATOM     31  O   UNL     1      -9.211 -24.763 -26.155  1.00  0.00    -0.384 OA
ATOM     32  H   UNL     1      -8.537 -25.288 -26.662  1.00  0.00     0.211 HD
ENDBRANCH  26  31
BRANCH  28  33
ATOM     33  O   UNL     1      -9.443 -27.522 -23.851  1.00  0.00    -0.387 OA
ATOM     34  H   UNL     1      -8.828 -27.455 -23.074  1.00  0.00     0.211 HD
ENDBRANCH  28  33
BRANCH  29  35
ATOM     35  C   UNL     1      -5.067 -25.755 -24.918  1.00  0.00     0.191 C 
BRANCH  35  36
ATOM     36  O   UNL     1      -4.512 -26.078 -26.170  1.00  0.00    -0.394 OA
ATOM     37  H   UNL     1      -4.818 -25.381 -26.815  1.00  0.00     0.210 HD
ENDBRANCH  35  36
ENDBRANCH  29  35
BRANCH  30  38
ATOM     38  O   UNL     1      -6.845 -27.928 -25.727  1.00  0.00    -0.387 OA
ATOM     39  H   UNL     1      -6.103 -27.510 -26.240  1.00  0.00     0.211 HD
ENDBRANCH  30  38
ENDBRANCH   1  25
TORSDOF 11
ENDMDL
MODEL 8
REMARK VINA RESULT:    -5.876      3.387      5.088
REMARK INTER + INTRA:          -9.289
REMARK INTER:                  -8.245
REMARK INTRA:                  -1.043
REMARK UNBOUND:                -0.837
REMARK SMILES O=c1cc(-c2ccc(O)c(O)c2)oc2cc(O[C@H]3O[C@@H](CO)[C@H](O)[C@@H](O)[C@@H]3O)cc(O)c12
REMARK SMILES IDX 17 1 16 2 4 3 3 4 13 5 2 6 14 7 1 8 32 9 15 10 30 11 29 12
REMARK SMILES IDX 5 13 6 14 7 15 8 16 12 17 10 18 9 19 11 21 31 23 18 25 27 26
REMARK SMILES IDX 19 27 25 28 20 29 23 30 28 31 26 33 21 35 22 36 24 38
REMARK H PARENT 9 20 11 22 31 24 28 32 26 34 22 37 24 39
REMARK Flexibility Score: inf
ROOT
ATOM      1  O   UNL     1      -6.290 -20.524 -25.013  1.00  0.00    -0.462 OA
ENDROOT
BRANCH   1   2
ATOM      2  C   UNL     1      -6.570 -21.196 -23.815  1.00  0.00     0.130 A 
ATOM      3  C   UNL     1      -7.877 -20.840 -19.243  1.00  0.00     0.138 A 
ATOM      4  C   UNL     1      -7.899 -22.237 -19.076  1.00  0.00     0.100 A 
ATOM      5  O   UNL     1      -7.542 -20.325 -20.426  1.00  0.00    -0.456 OA
ATOM      6  C   UNL     1      -7.560 -23.061 -20.149  1.00  0.00     0.197 A 
ATOM      7  C   UNL     1      -7.226 -21.070 -21.482  1.00  0.00     0.146 A 
ATOM      8  O   UNL     1      -7.573 -24.312 -19.987  1.00  0.00    -0.289 OA
ATOM      9  C   UNL     1      -7.210 -22.483 -21.388  1.00  0.00     0.107 A 
ATOM     10  C   UNL     1      -6.918 -20.442 -22.691  1.00  0.00     0.094 A 
ATOM     11  C   UNL     1      -6.850 -23.247 -22.521  1.00  0.00     0.134 A 
ATOM     12  C   UNL     1      -6.539 -22.599 -23.726  1.00  0.00     0.093 A 
BRANCH   3  13
ATOM     13  C   UNL     1      -8.206 -19.918 -18.129  1.00  0.00     0.021 A 
ATOM     14  C   UNL     1      -8.262 -18.534 -18.367  1.00  0.00     0.016 A 
ATOM     15  C   UNL     1      -8.583 -17.644 -17.337  1.00  0.00     0.051 A 
ATOM     16  C   UNL     1      -8.860 -18.127 -16.054  1.00  0.00     0.157 A 
ATOM     17  C   UNL     1      -8.500 -20.399 -16.841  1.00  0.00     0.062 A 
ATOM     18  C   UNL     1      -8.820 -19.506 -15.805  1.00  0.00     0.158 A 
BRANCH  16  19
ATOM     19  O   UNL     1      -9.174 -17.242 -15.022  1.00  0.00    -0.504 OA
ATOM     20  H   UNL     1      -9.571 -16.326 -15.206  1.00  0.00     0.293 HD
ENDBRANCH  16  19
BRANCH  18  21
ATOM     21  O   UNL     1      -9.100 -19.986 -14.529  1.00  0.00    -0.504 OA
ATOM     22  H   UNL     1      -8.413 -20.518 -14.000  1.00  0.00     0.293 HD
ENDBRANCH  18  21
ENDBRANCH   3  13
BRANCH  11  23
ATOM     23  O   UNL     1      -6.795 -24.640 -22.460  1.00  0.00    -0.507 OA
ATOM     24  H   UNL     1      -6.368 -25.189 -23.196  1.00  0.00     0.293 HD
ENDBRANCH  11  23
ENDBRANCH   1   2
BRANCH   1  25
ATOM     25  C   UNL     1      -6.958 -20.766 -26.255  1.00  0.00     0.339 C 
ATOM     26  C   UNL     1      -6.335 -19.854 -27.343  1.00  0.00     0.214 C 
ATOM     27  O   UNL     1      -8.361 -20.619 -26.038  1.00  0.00    -0.332 OA
ATOM     28  C   UNL     1      -6.722 -18.375 -27.112  1.00  0.00     0.180 C 
ATOM     29  C   UNL     1      -8.975 -19.562 -26.756  1.00  0.00     0.179 C 
ATOM     30  C   UNL     1      -8.182 -18.235 -26.605  1.00  0.00     0.177 C 
BRANCH  26  31
ATOM     31  O   UNL     1      -6.761 -20.281 -28.613  1.00  0.00    -0.384 OA
ATOM     32  H   UNL     1      -6.441 -19.605 -29.266  1.00  0.00     0.211 HD
ENDBRANCH  26  31
BRANCH  28  33
ATOM     33  O   UNL     1      -5.859 -17.801 -26.161  1.00  0.00    -0.387 OA
ATOM     34  H   UNL     1      -6.411 -17.534 -25.379  1.00  0.00     0.211 HD
ENDBRANCH  28  33
BRANCH  29  35
ATOM     35  C   UNL     1     -10.421 -19.410 -26.261  1.00  0.00     0.191 C 
BRANCH  35  36
ATOM     36  O   UNL     1     -11.248 -18.876 -27.265  1.00  0.00    -0.394 OA
ATOM     37  H   UNL     1     -11.018 -17.908 -27.352  1.00  0.00     0.210 HD
ENDBRANCH  35  36
ENDBRANCH  29  35
BRANCH  30  38
ATOM     38  O   UNL     1      -8.832 -17.170 -27.258  1.00  0.00    -0.387 OA
ATOM     39  H   UNL     1      -9.686 -17.009 -26.776  1.00  0.00     0.211 HD
ENDBRANCH  30  38
ENDBRANCH   1  25
TORSDOF 11
ENDMDL
MODEL 9
REMARK VINA RESULT:    -5.800      1.588      2.563
REMARK INTER + INTRA:          -9.180
REMARK INTER:                  -8.308
REMARK INTRA:                  -0.871
REMARK UNBOUND:                -0.837
REMARK SMILES O=c1cc(-c2ccc(O)c(O)c2)oc2cc(O[C@H]3O[C@@H](CO)[C@H](O)[C@@H](O)[C@@H]3O)cc(O)c12
REMARK SMILES IDX 17 1 16 2 4 3 3 4 13 5 2 6 14 7 1 8 32 9 15 10 30 11 29 12
REMARK SMILES IDX 5 13 6 14 7 15 8 16 12 17 10 18 9 19 11 21 31 23 18 25 27 26
REMARK SMILES IDX 19 27 25 28 20 29 23 30 28 31 26 33 21 35 22 36 24 38
REMARK H PARENT 9 20 11 22 31 24 28 32 26 34 22 37 24 39
REMARK Flexibility Score: inf
ROOT
ATOM      1  O   UNL     1      -7.785 -23.503 -23.588  1.00  0.00    -0.462 OA
ENDROOT
BRANCH   1   2
ATOM      2  C   UNL     1      -7.369 -23.451 -22.251  1.00  0.00     0.130 A 
ATOM      3  C   UNL     1      -7.518 -21.102 -18.104  1.00  0.00     0.138 A 
ATOM      4  C   UNL     1      -6.757 -22.085 -17.448  1.00  0.00     0.100 A 
ATOM      5  O   UNL     1      -7.803 -21.245 -19.398  1.00  0.00    -0.456 OA
ATOM      6  C   UNL     1      -6.304 -23.193 -18.164  1.00  0.00     0.197 A 
ATOM      7  C   UNL     1      -7.407 -22.291 -20.119  1.00  0.00     0.146 A 
ATOM      8  O   UNL     1      -5.613 -24.065 -17.569  1.00  0.00    -0.289 OA
ATOM      9  C   UNL     1      -6.623 -23.315 -19.533  1.00  0.00     0.107 A 
ATOM     10  C   UNL     1      -7.780 -22.373 -21.463  1.00  0.00     0.094 A 
ATOM     11  C   UNL     1      -6.199 -24.403 -20.330  1.00  0.00     0.134 A 
ATOM     12  C   UNL     1      -6.580 -24.466 -21.679  1.00  0.00     0.093 A 
BRANCH   3  13
ATOM     13  C   UNL     1      -8.005 -19.893 -17.396  1.00  0.00     0.021 A 
ATOM     14  C   UNL     1      -7.997 -18.651 -18.055  1.00  0.00     0.016 A 
ATOM     15  C   UNL     1      -8.464 -17.499 -17.413  1.00  0.00     0.051 A 
ATOM     16  C   UNL     1      -8.953 -17.574 -16.105  1.00  0.00     0.157 A 
ATOM     17  C   UNL     1      -8.512 -19.964 -16.086  1.00  0.00     0.062 A 
ATOM     18  C   UNL     1      -8.978 -18.808 -15.440  1.00  0.00     0.158 A 
BRANCH  16  19
ATOM     19  O   UNL     1      -9.413 -16.425 -15.460  1.00  0.00    -0.504 OA
ATOM     20  H   UNL     1      -9.112 -15.497 -15.741  1.00  0.00     0.293 HD
ENDBRANCH  16  19
BRANCH  18  21
ATOM     21  O   UNL     1      -9.469 -18.881 -14.140  1.00  0.00    -0.504 OA
ATOM     22  H   UNL     1     -10.254 -19.483 -13.903  1.00  0.00     0.293 HD
ENDBRANCH  18  21
ENDBRANCH   3  13
BRANCH  11  23
ATOM     23  O   UNL     1      -5.403 -25.417 -19.797  1.00  0.00    -0.507 OA
ATOM     24  H   UNL     1      -5.790 -26.148 -19.213  1.00  0.00     0.293 HD
ENDBRANCH  11  23
ENDBRANCH   1   2
BRANCH   1  25
ATOM     25  C   UNL     1      -8.374 -24.648 -24.211  1.00  0.00     0.339 C 
ATOM     26  C   UNL     1      -9.413 -24.168 -25.257  1.00  0.00     0.214 C 
ATOM     27  O   UNL     1      -8.866 -25.507 -23.184  1.00  0.00    -0.332 OA
ATOM     28  C   UNL     1     -10.659 -23.569 -24.563  1.00  0.00     0.180 C 
ATOM     29  C   UNL     1     -10.270 -25.702 -23.180  1.00  0.00     0.179 C 
ATOM     30  C   UNL     1     -11.031 -24.351 -23.276  1.00  0.00     0.177 C 
BRANCH  26  31
ATOM     31  O   UNL     1      -9.781 -25.246 -26.081  1.00  0.00    -0.384 OA
ATOM     32  H   UNL     1     -10.677 -25.548 -25.777  1.00  0.00     0.211 HD
ENDBRANCH  26  31
BRANCH  28  33
ATOM     33  O   UNL     1     -10.411 -22.229 -24.219  1.00  0.00    -0.387 OA
ATOM     34  H   UNL     1     -10.563 -22.138 -23.241  1.00  0.00     0.211 HD
ENDBRANCH  28  33
BRANCH  29  35
ATOM     35  C   UNL     1     -10.654 -26.472 -21.908  1.00  0.00     0.191 C 
BRANCH  35  36
ATOM     36  O   UNL     1     -11.065 -25.595 -20.888  1.00  0.00    -0.394 OA
ATOM     37  H   UNL     1     -10.483 -25.770 -20.097  1.00  0.00     0.210 HD
ENDBRANCH  35  36
ENDBRANCH  29  35
BRANCH  30  38
ATOM     38  O   UNL     1     -12.424 -24.540 -23.199  1.00  0.00    -0.387 OA
ATOM     39  H   UNL     1     -12.621 -25.432 -23.590  1.00  0.00     0.211 HD
ENDBRANCH  30  38
ENDBRANCH   1  25
TORSDOF 11
ENDMDL
