MODEL 1
REMARK VINA RESULT:    -8.688      0.000      0.000
REMARK INTER + INTRA:         -10.530
REMARK INTER:                 -10.212
REMARK INTRA:                  -0.317
REMARK UNBOUND:                -0.317
REMARK SMILES O=c1cc(-c2ccc(O)c(O)c2)oc2cc(O)cc(O)c12
REMARK SMILES IDX 4 1 3 2 2 3 1 4 21 5 19 6 18 7 16 8 15 9 14 10 13 11 5 12
REMARK SMILES IDX 6 13 7 14 8 15 12 16 10 17 9 18 11 20 20 22 17 24
REMARK H PARENT 9 19 11 21 20 23 17 25
REMARK Flexibility Score: inf
ROOT
ATOM      1  C   UNL     1     -31.483 -31.125  35.820  1.00  0.00     0.138 A 
ATOM      2  C   UNL     1     -31.970 -30.921  34.518  1.00  0.00     0.100 A 
ATOM      3  C   UNL     1     -33.334 -30.700  34.323  1.00  0.00     0.197 A 
ATOM      4  O   UNL     1     -33.763 -30.519  33.151  1.00  0.00    -0.289 OA
ATOM      5  C   UNL     1     -34.203 -30.688  35.432  1.00  0.00     0.107 A 
ATOM      6  C   UNL     1     -35.597 -30.470  35.322  1.00  0.00     0.134 A 
ATOM      7  C   UNL     1     -36.395 -30.479  36.475  1.00  0.00     0.093 A 
ATOM      8  C   UNL     1     -35.828 -30.700  37.733  1.00  0.00     0.123 A 
ATOM      9  C   UNL     1     -34.450 -30.916  37.848  1.00  0.00     0.094 A 
ATOM     10  C   UNL     1     -33.638 -30.911  36.710  1.00  0.00     0.146 A 
ATOM     11  O   UNL     1     -32.332 -31.117  36.845  1.00  0.00    -0.456 OA
ENDROOT
BRANCH   1  12
ATOM     12  C   UNL     1     -30.043 -31.366  36.088  1.00  0.00     0.021 A 
ATOM     13  C   UNL     1     -29.161 -31.552  35.010  1.00  0.00     0.016 A 
ATOM     14  C   UNL     1     -27.802 -31.789  35.235  1.00  0.00     0.051 A 
ATOM     15  C   UNL     1     -27.305 -31.854  36.542  1.00  0.00     0.157 A 
ATOM     16  C   UNL     1     -29.537 -31.447  37.401  1.00  0.00     0.062 A 
ATOM     17  C   UNL     1     -28.174 -31.686  37.627  1.00  0.00     0.158 A 
BRANCH  15  18
ATOM     18  O   UNL     1     -25.950 -32.089  36.771  1.00  0.00    -0.504 OA
ATOM     19  H   UNL     1     -25.637 -32.747  37.476  1.00  0.00     0.293 HD
ENDBRANCH  15  18
BRANCH  17  20
ATOM     20  O   UNL     1     -27.676 -31.762  38.927  1.00  0.00    -0.504 OA
ATOM     21  H   UNL     1     -28.030 -32.442  39.591  1.00  0.00     0.293 HD
ENDBRANCH  17  20
ENDBRANCH   1  12
BRANCH   6  22
ATOM     22  O   UNL     1     -36.193 -30.246  34.080  1.00  0.00    -0.507 OA
ATOM     23  H   UNL     1     -37.092 -29.786  33.995  1.00  0.00     0.293 HD
ENDBRANCH   6  22
BRANCH   8  24
ATOM     24  O   UNL     1     -36.643 -30.705  38.863  1.00  0.00    -0.508 OA
ATOM     25  H   UNL     1     -36.771 -29.873  39.427  1.00  0.00     0.293 HD
ENDBRANCH   8  24
TORSDOF 5
ENDMDL
MODEL 2
REMARK VINA RESULT:    -8.573      2.217      7.343
REMARK INTER + INTRA:         -10.394
REMARK INTER:                 -10.078
REMARK INTRA:                  -0.316
REMARK UNBOUND:                -0.317
REMARK SMILES O=c1cc(-c2ccc(O)c(O)c2)oc2cc(O)cc(O)c12
REMARK SMILES IDX 4 1 3 2 2 3 1 4 21 5 19 6 18 7 16 8 15 9 14 10 13 11 5 12
REMARK SMILES IDX 6 13 7 14 8 15 12 16 10 17 9 18 11 20 20 22 17 24
REMARK H PARENT 9 19 11 21 20 23 17 25
REMARK Flexibility Score: inf
ROOT
ATOM      1  C   UNL     1     -31.536 -31.111  35.101  1.00  0.00     0.138 A 
ATOM      2  C   UNL     1     -31.658 -30.890  36.483  1.00  0.00     0.100 A 
ATOM      3  C   UNL     1     -30.533 -31.010  37.299  1.00  0.00     0.197 A 
ATOM      4  O   UNL     1     -30.651 -30.811  38.539  1.00  0.00    -0.289 OA
ATOM      5  C   UNL     1     -29.292 -31.355  36.727  1.00  0.00     0.107 A 
ATOM      6  C   UNL     1     -28.103 -31.496  37.481  1.00  0.00     0.134 A 
ATOM      7  C   UNL     1     -26.908 -31.848  36.837  1.00  0.00     0.093 A 
ATOM      8  C   UNL     1     -26.879 -32.060  35.455  1.00  0.00     0.123 A 
ATOM      9  C   UNL     1     -28.051 -31.921  34.704  1.00  0.00     0.094 A 
ATOM     10  C   UNL     1     -29.253 -31.571  35.329  1.00  0.00     0.146 A 
ATOM     11  O   UNL     1     -30.352 -31.445  34.594  1.00  0.00    -0.456 OA
ENDROOT
BRANCH   1  12
ATOM     12  C   UNL     1     -32.700 -30.998  34.185  1.00  0.00     0.021 A 
ATOM     13  C   UNL     1     -33.885 -30.399  34.644  1.00  0.00     0.016 A 
ATOM     14  C   UNL     1     -34.997 -30.289  33.804  1.00  0.00     0.051 A 
ATOM     15  C   UNL     1     -34.945 -30.784  32.496  1.00  0.00     0.157 A 
ATOM     16  C   UNL     1     -32.659 -31.506  32.871  1.00  0.00     0.062 A 
ATOM     17  C   UNL     1     -33.775 -31.396  32.030  1.00  0.00     0.158 A 
BRANCH  15  18
ATOM     18  O   UNL     1     -36.051 -30.674  31.655  1.00  0.00    -0.504 OA
ATOM     19  H   UNL     1     -36.073 -30.007  30.892  1.00  0.00     0.293 HD
ENDBRANCH  15  18
BRANCH  17  20
ATOM     20  O   UNL     1     -33.731 -31.897  30.729  1.00  0.00    -0.504 OA
ATOM     21  H   UNL     1     -34.513 -32.404  30.330  1.00  0.00     0.293 HD
ENDBRANCH  17  20
ENDBRANCH   1  12
BRANCH   6  22
ATOM     22  O   UNL     1     -28.100 -31.291  38.862  1.00  0.00    -0.507 OA
ATOM     23  H   UNL     1     -28.770 -30.677  39.311  1.00  0.00     0.293 HD
ENDBRANCH   6  22
BRANCH   8  24
ATOM     24  O   UNL     1     -25.679 -32.408  34.839  1.00  0.00    -0.508 OA
ATOM     25  H   UNL     1     -25.052 -33.091  35.250  1.00  0.00     0.293 HD
ENDBRANCH   8  24
TORSDOF 5
ENDMDL
MODEL 3
REMARK VINA RESULT:    -8.561      1.689      6.679
REMARK INTER + INTRA:         -10.379
REMARK INTER:                 -10.102
REMARK INTRA:                  -0.277
REMARK UNBOUND:                -0.317
REMARK SMILES O=c1cc(-c2ccc(O)c(O)c2)oc2cc(O)cc(O)c12
REMARK SMILES IDX 4 1 3 2 2 3 1 4 21 5 19 6 18 7 16 8 15 9 14 10 13 11 5 12
REMARK SMILES IDX 6 13 7 14 8 15 12 16 10 17 9 18 11 20 20 22 17 24
REMARK H PARENT 9 19 11 21 20 23 17 25
REMARK Flexibility Score: inf
ROOT
ATOM      1  C   UNL     1     -32.323 -30.888  35.433  1.00  0.00     0.138 A 
ATOM      2  C   UNL     1     -32.290 -31.233  34.072  1.00  0.00     0.100 A 
ATOM      3  C   UNL     1     -31.083 -31.628  33.493  1.00  0.00     0.197 A 
ATOM      4  O   UNL     1     -31.063 -31.935  32.270  1.00  0.00    -0.289 OA
ATOM      5  C   UNL     1     -29.915 -31.671  34.280  1.00  0.00     0.107 A 
ATOM      6  C   UNL     1     -28.653 -32.060  33.773  1.00  0.00     0.134 A 
ATOM      7  C   UNL     1     -27.536 -32.071  34.622  1.00  0.00     0.093 A 
ATOM      8  C   UNL     1     -27.657 -31.701  35.964  1.00  0.00     0.123 A 
ATOM      9  C   UNL     1     -28.903 -31.315  36.471  1.00  0.00     0.094 A 
ATOM     10  C   UNL     1     -30.028 -31.298  35.641  1.00  0.00     0.146 A 
ATOM     11  O   UNL     1     -31.200 -30.929  36.146  1.00  0.00    -0.456 OA
ENDROOT
BRANCH   1  12
ATOM     12  C   UNL     1     -33.578 -30.460  36.102  1.00  0.00     0.021 A 
ATOM     13  C   UNL     1     -34.246 -29.310  35.646  1.00  0.00     0.016 A 
ATOM     14  C   UNL     1     -35.424 -28.881  36.263  1.00  0.00     0.051 A 
ATOM     15  C   UNL     1     -35.948 -29.587  37.352  1.00  0.00     0.157 A 
ATOM     16  C   UNL     1     -34.105 -31.158  37.206  1.00  0.00     0.062 A 
ATOM     17  C   UNL     1     -35.286 -30.726  37.826  1.00  0.00     0.158 A 
BRANCH  15  18
ATOM     18  O   UNL     1     -37.124 -29.164  37.969  1.00  0.00    -0.504 OA
ATOM     19  H   UNL     1     -37.465 -28.214  37.866  1.00  0.00     0.293 HD
ENDBRANCH  15  18
BRANCH  17  20
ATOM     20  O   UNL     1     -35.806 -31.421  38.917  1.00  0.00    -0.504 OA
ATOM     21  H   UNL     1     -36.721 -31.854  38.883  1.00  0.00     0.293 HD
ENDBRANCH  17  20
ENDBRANCH   1  12
BRANCH   6  22
ATOM     22  O   UNL     1     -28.500 -32.435  32.437  1.00  0.00    -0.507 OA
ATOM     23  H   UNL     1     -29.164 -32.153  31.725  1.00  0.00     0.293 HD
ENDBRANCH   6  22
BRANCH   8  24
ATOM     24  O   UNL     1     -26.532 -31.719  36.785  1.00  0.00    -0.508 OA
ATOM     25  H   UNL     1     -26.528 -31.260  37.689  1.00  0.00     0.293 HD
ENDBRANCH   8  24
TORSDOF 5
ENDMDL
MODEL 4
REMARK VINA RESULT:    -8.472      1.477      1.933
REMARK INTER + INTRA:         -10.275
REMARK INTER:                  -9.957
REMARK INTRA:                  -0.317
REMARK UNBOUND:                -0.317
REMARK SMILES O=c1cc(-c2ccc(O)c(O)c2)oc2cc(O)cc(O)c12
REMARK SMILES IDX 4 1 3 2 2 3 1 4 21 5 19 6 18 7 16 8 15 9 14 10 13 11 5 12
REMARK SMILES IDX 6 13 7 14 8 15 12 16 10 17 9 18 11 20 20 22 17 24
REMARK H PARENT 9 19 11 21 20 23 17 25
REMARK Flexibility Score: inf
ROOT
ATOM      1  C   UNL     1     -30.726 -31.358  34.534  1.00  0.00     0.138 A 
ATOM      2  C   UNL     1     -30.945 -31.665  33.181  1.00  0.00     0.100 A 
ATOM      3  C   UNL     1     -32.217 -31.487  32.635  1.00  0.00     0.197 A 
ATOM      4  O   UNL     1     -32.405 -31.766  31.419  1.00  0.00    -0.289 OA
ATOM      5  C   UNL     1     -33.263 -31.006  33.447  1.00  0.00     0.107 A 
ATOM      6  C   UNL     1     -34.579 -30.796  32.972  1.00  0.00     0.134 A 
ATOM      7  C   UNL     1     -35.566 -30.320  33.848  1.00  0.00     0.093 A 
ATOM      8  C   UNL     1     -35.263 -30.049  35.185  1.00  0.00     0.123 A 
ATOM      9  C   UNL     1     -33.963 -30.255  35.660  1.00  0.00     0.094 A 
ATOM     10  C   UNL     1     -32.965 -30.729  34.803  1.00  0.00     0.146 A 
ATOM     11  O   UNL     1     -31.738 -30.915  35.277  1.00  0.00    -0.456 OA
ENDROOT
BRANCH   1  12
ATOM     12  C   UNL     1     -29.395 -31.529  35.170  1.00  0.00     0.021 A 
ATOM     13  C   UNL     1     -28.288 -31.871  34.375  1.00  0.00     0.016 A 
ATOM     14  C   UNL     1     -27.026 -32.046  34.950  1.00  0.00     0.051 A 
ATOM     15  C   UNL     1     -26.852 -31.891  36.330  1.00  0.00     0.157 A 
ATOM     16  C   UNL     1     -29.215 -31.388  36.560  1.00  0.00     0.062 A 
ATOM     17  C   UNL     1     -27.949 -31.565  37.137  1.00  0.00     0.158 A 
BRANCH  15  18
ATOM     18  O   UNL     1     -25.596 -32.063  36.907  1.00  0.00    -0.504 OA
ATOM     19  H   UNL     1     -24.819 -32.450  36.382  1.00  0.00     0.293 HD
ENDBRANCH  15  18
BRANCH  17  20
ATOM     20  O   UNL     1     -27.774 -31.423  38.513  1.00  0.00    -0.504 OA
ATOM     21  H   UNL     1     -27.909 -30.531  38.975  1.00  0.00     0.293 HD
ENDBRANCH  17  20
ENDBRANCH   1  12
BRANCH   6  22
ATOM     22  O   UNL     1     -34.913 -31.057  31.642  1.00  0.00    -0.507 OA
ATOM     23  H   UNL     1     -35.725 -30.638  31.205  1.00  0.00     0.293 HD
ENDBRANCH   6  22
BRANCH   8  24
ATOM     24  O   UNL     1     -36.261 -29.578  36.034  1.00  0.00    -0.508 OA
ATOM     25  H   UNL     1     -36.716 -28.686  35.873  1.00  0.00     0.293 HD
ENDBRANCH   8  24
TORSDOF 5
ENDMDL
MODEL 5
REMARK VINA RESULT:    -8.454      1.476      3.114
REMARK INTER + INTRA:         -10.255
REMARK INTER:                  -9.945
REMARK INTRA:                  -0.310
REMARK UNBOUND:                -0.317
REMARK SMILES O=c1cc(-c2ccc(O)c(O)c2)oc2cc(O)cc(O)c12
REMARK SMILES IDX 4 1 3 2 2 3 1 4 21 5 19 6 18 7 16 8 15 9 14 10 13 11 5 12
REMARK SMILES IDX 6 13 7 14 8 15 12 16 10 17 9 18 11 20 20 22 17 24
REMARK H PARENT 9 19 11 21 20 23 17 25
REMARK Flexibility Score: inf
ROOT
ATOM      1  C   UNL     1     -31.285 -31.074  36.153  1.00  0.00     0.138 A 
ATOM      2  C   UNL     1     -32.103 -30.515  37.149  1.00  0.00     0.100 A 
ATOM      3  C   UNL     1     -33.418 -30.165  36.841  1.00  0.00     0.197 A 
ATOM      4  O   UNL     1     -34.145 -29.664  37.742  1.00  0.00    -0.289 OA
ATOM      5  C   UNL     1     -33.907 -30.375  35.537  1.00  0.00     0.107 A 
ATOM      6  C   UNL     1     -35.226 -30.051  35.142  1.00  0.00     0.134 A 
ATOM      7  C   UNL     1     -35.634 -30.285  33.820  1.00  0.00     0.093 A 
ATOM      8  C   UNL     1     -34.750 -30.836  32.888  1.00  0.00     0.123 A 
ATOM      9  C   UNL     1     -33.444 -31.159  33.273  1.00  0.00     0.094 A 
ATOM     10  C   UNL     1     -33.019 -30.933  34.586  1.00  0.00     0.146 A 
ATOM     11  O   UNL     1     -31.774 -31.249  34.927  1.00  0.00    -0.456 OA
ENDROOT
BRANCH   1  12
ATOM     12  C   UNL     1     -29.878 -31.462  36.422  1.00  0.00     0.021 A 
ATOM     13  C   UNL     1     -29.484 -31.767  37.736  1.00  0.00     0.016 A 
ATOM     14  C   UNL     1     -28.163 -32.127  38.018  1.00  0.00     0.051 A 
ATOM     15  C   UNL     1     -27.213 -32.180  36.991  1.00  0.00     0.157 A 
ATOM     16  C   UNL     1     -28.912 -31.505  35.397  1.00  0.00     0.062 A 
ATOM     17  C   UNL     1     -27.587 -31.866  35.679  1.00  0.00     0.158 A 
BRANCH  15  18
ATOM     18  O   UNL     1     -25.895 -32.541  37.267  1.00  0.00    -0.504 OA
ATOM     19  H   UNL     1     -25.628 -33.509  37.407  1.00  0.00     0.293 HD
ENDBRANCH  15  18
BRANCH  17  20
ATOM     20  O   UNL     1     -26.634 -31.909  34.662  1.00  0.00    -0.504 OA
ATOM     21  H   UNL     1     -25.992 -32.688  34.570  1.00  0.00     0.293 HD
ENDBRANCH  17  20
ENDBRANCH   1  12
BRANCH   6  22
ATOM     22  O   UNL     1     -36.132 -29.499  36.049  1.00  0.00    -0.507 OA
ATOM     23  H   UNL     1     -35.844 -28.823  36.747  1.00  0.00     0.293 HD
ENDBRANCH   6  22
BRANCH   8  24
ATOM     24  O   UNL     1     -35.180 -31.058  31.582  1.00  0.00    -0.508 OA
ATOM     25  H   UNL     1     -35.875 -30.464  31.145  1.00  0.00     0.293 HD
ENDBRANCH   8  24
TORSDOF 5
ENDMDL
MODEL 6
REMARK VINA RESULT:    -8.335      3.901      6.838
REMARK INTER + INTRA:         -10.115
REMARK INTER:                  -9.797
REMARK INTRA:                  -0.317
REMARK UNBOUND:                -0.317
REMARK SMILES O=c1cc(-c2ccc(O)c(O)c2)oc2cc(O)cc(O)c12
REMARK SMILES IDX 4 1 3 2 2 3 1 4 21 5 19 6 18 7 16 8 15 9 14 10 13 11 5 12
REMARK SMILES IDX 6 13 7 14 8 15 12 16 10 17 9 18 11 20 20 22 17 24
REMARK H PARENT 9 19 11 21 20 23 17 25
REMARK Flexibility Score: inf
ROOT
ATOM      1  C   UNL     1     -34.203 -29.948  35.137  1.00  0.00     0.138 A 
ATOM      2  C   UNL     1     -34.823 -31.135  35.561  1.00  0.00     0.100 A 
ATOM      3  C   UNL     1     -34.405 -32.355  35.029  1.00  0.00     0.197 A 
ATOM      4  O   UNL     1     -34.968 -33.416  35.415  1.00  0.00    -0.289 OA
ATOM      5  C   UNL     1     -33.371 -32.380  34.073  1.00  0.00     0.107 A 
ATOM      6  C   UNL     1     -32.886 -33.572  33.486  1.00  0.00     0.134 A 
ATOM      7  C   UNL     1     -31.856 -33.511  32.535  1.00  0.00     0.093 A 
ATOM      8  C   UNL     1     -31.302 -32.283  32.162  1.00  0.00     0.123 A 
ATOM      9  C   UNL     1     -31.777 -31.100  32.740  1.00  0.00     0.094 A 
ATOM     10  C   UNL     1     -32.803 -31.141  33.689  1.00  0.00     0.146 A 
ATOM     11  O   UNL     1     -33.236 -30.004  34.225  1.00  0.00    -0.456 OA
ENDROOT
BRANCH   1  12
ATOM     12  C   UNL     1     -34.608 -28.621  35.667  1.00  0.00     0.021 A 
ATOM     13  C   UNL     1     -35.545 -28.550  36.712  1.00  0.00     0.016 A 
ATOM     14  C   UNL     1     -35.949 -27.314  37.223  1.00  0.00     0.051 A 
ATOM     15  C   UNL     1     -35.430 -26.127  36.691  1.00  0.00     0.157 A 
ATOM     16  C   UNL     1     -34.101 -27.422  35.128  1.00  0.00     0.062 A 
ATOM     17  C   UNL     1     -34.507 -26.181  35.640  1.00  0.00     0.158 A 
BRANCH  15  18
ATOM     18  O   UNL     1     -35.829 -24.892  37.198  1.00  0.00    -0.504 OA
ATOM     19  H   UNL     1     -35.196 -24.310  37.735  1.00  0.00     0.293 HD
ENDBRANCH  15  18
BRANCH  17  20
ATOM     20  O   UNL     1     -34.001 -24.997  35.106  1.00  0.00    -0.504 OA
ATOM     21  H   UNL     1     -34.180 -24.730  34.144  1.00  0.00     0.293 HD
ENDBRANCH  17  20
ENDBRANCH   1  12
BRANCH   6  22
ATOM     22  O   UNL     1     -33.419 -34.813  33.837  1.00  0.00    -0.507 OA
ATOM     23  H   UNL     1     -33.155 -35.663  33.353  1.00  0.00     0.293 HD
ENDBRANCH   6  22
BRANCH   8  24
ATOM     24  O   UNL     1     -30.281 -32.249  31.216  1.00  0.00    -0.508 OA
ATOM     25  H   UNL     1     -29.825 -33.097  30.898  1.00  0.00     0.293 HD
ENDBRANCH   8  24
TORSDOF 5
ENDMDL
MODEL 7
REMARK VINA RESULT:    -8.325      2.182      3.146
REMARK INTER + INTRA:         -10.103
REMARK INTER:                  -9.837
REMARK INTRA:                  -0.266
REMARK UNBOUND:                -0.317
REMARK SMILES O=c1cc(-c2ccc(O)c(O)c2)oc2cc(O)cc(O)c12
REMARK SMILES IDX 4 1 3 2 2 3 1 4 21 5 19 6 18 7 16 8 15 9 14 10 13 11 5 12
REMARK SMILES IDX 6 13 7 14 8 15 12 16 10 17 9 18 11 20 20 22 17 24
REMARK H PARENT 9 19 11 21 20 23 17 25
REMARK Flexibility Score: inf
ROOT
ATOM      1  C   UNL     1     -32.134 -30.184  37.366  1.00  0.00     0.138 A 
ATOM      2  C   UNL     1     -33.200 -30.844  38.000  1.00  0.00     0.100 A 
ATOM      3  C   UNL     1     -34.486 -30.311  37.912  1.00  0.00     0.197 A 
ATOM      4  O   UNL     1     -35.437 -30.910  38.485  1.00  0.00    -0.289 OA
ATOM      5  C   UNL     1     -34.698 -29.118  37.193  1.00  0.00     0.107 A 
ATOM      6  C   UNL     1     -35.969 -28.513  37.054  1.00  0.00     0.134 A 
ATOM      7  C   UNL     1     -36.095 -27.320  36.326  1.00  0.00     0.093 A 
ATOM      8  C   UNL     1     -34.978 -26.724  35.735  1.00  0.00     0.123 A 
ATOM      9  C   UNL     1     -33.718 -27.318  35.869  1.00  0.00     0.094 A 
ATOM     10  C   UNL     1     -33.572 -28.507  36.591  1.00  0.00     0.146 A 
ATOM     11  O   UNL     1     -32.366 -29.053  36.703  1.00  0.00    -0.456 OA
ENDROOT
BRANCH   1  12
ATOM     12  C   UNL     1     -30.744 -30.703  37.427  1.00  0.00     0.021 A 
ATOM     13  C   UNL     1     -30.099 -31.092  36.241  1.00  0.00     0.016 A 
ATOM     14  C   UNL     1     -28.794 -31.592  36.271  1.00  0.00     0.051 A 
ATOM     15  C   UNL     1     -28.116 -31.719  37.490  1.00  0.00     0.157 A 
ATOM     16  C   UNL     1     -30.060 -30.847  38.650  1.00  0.00     0.062 A 
ATOM     17  C   UNL     1     -28.751 -31.349  38.681  1.00  0.00     0.158 A 
BRANCH  15  18
ATOM     18  O   UNL     1     -26.814 -32.215  37.525  1.00  0.00    -0.504 OA
ATOM     19  H   UNL     1     -26.273 -32.346  36.677  1.00  0.00     0.293 HD
ENDBRANCH  15  18
BRANCH  17  20
ATOM     20  O   UNL     1     -28.077 -31.488  39.893  1.00  0.00    -0.504 OA
ATOM     21  H   UNL     1     -27.092 -31.726  39.928  1.00  0.00     0.293 HD
ENDBRANCH  17  20
ENDBRANCH   1  12
BRANCH   6  22
ATOM     22  O   UNL     1     -37.104 -29.084  37.632  1.00  0.00    -0.507 OA
ATOM     23  H   UNL     1     -37.504 -29.947  37.282  1.00  0.00     0.293 HD
ENDBRANCH   6  22
BRANCH   8  24
ATOM     24  O   UNL     1     -35.130 -25.539  35.018  1.00  0.00    -0.508 OA
ATOM     25  H   UNL     1     -35.927 -24.930  35.164  1.00  0.00     0.293 HD
ENDBRANCH   8  24
TORSDOF 5
ENDMDL
MODEL 8
REMARK VINA RESULT:    -8.208      2.966      4.190
REMARK INTER + INTRA:          -9.965
REMARK INTER:                  -9.675
REMARK INTRA:                  -0.290
REMARK UNBOUND:                -0.317
REMARK SMILES O=c1cc(-c2ccc(O)c(O)c2)oc2cc(O)cc(O)c12
REMARK SMILES IDX 4 1 3 2 2 3 1 4 21 5 19 6 18 7 16 8 15 9 14 10 13 11 5 12
REMARK SMILES IDX 6 13 7 14 8 15 12 16 10 17 9 18 11 20 20 22 17 24
REMARK H PARENT 9 19 11 21 20 23 17 25
REMARK Flexibility Score: inf
ROOT
ATOM      1  C   UNL     1     -33.341 -30.805  34.823  1.00  0.00     0.138 A 
ATOM      2  C   UNL     1     -34.378 -31.390  35.569  1.00  0.00     0.100 A 
ATOM      3  C   UNL     1     -35.272 -30.572  36.261  1.00  0.00     0.197 A 
ATOM      4  O   UNL     1     -36.199 -31.106  36.929  1.00  0.00    -0.289 OA
ATOM      5  C   UNL     1     -35.120 -29.172  36.205  1.00  0.00     0.107 A 
ATOM      6  C   UNL     1     -35.982 -28.272  36.875  1.00  0.00     0.134 A 
ATOM      7  C   UNL     1     -35.760 -26.890  36.774  1.00  0.00     0.093 A 
ATOM      8  C   UNL     1     -34.695 -26.393  36.017  1.00  0.00     0.123 A 
ATOM      9  C   UNL     1     -33.840 -27.279  35.352  1.00  0.00     0.094 A 
ATOM     10  C   UNL     1     -34.045 -28.659  35.441  1.00  0.00     0.146 A 
ATOM     11  O   UNL     1     -33.220 -29.480  34.799  1.00  0.00    -0.456 OA
ENDROOT
BRANCH   1  12
ATOM     12  C   UNL     1     -32.360 -31.625  34.069  1.00  0.00     0.021 A 
ATOM     13  C   UNL     1     -32.818 -32.671  33.250  1.00  0.00     0.016 A 
ATOM     14  C   UNL     1     -31.915 -33.463  32.536  1.00  0.00     0.051 A 
ATOM     15  C   UNL     1     -30.539 -33.229  32.637  1.00  0.00     0.157 A 
ATOM     16  C   UNL     1     -30.972 -31.404  34.175  1.00  0.00     0.062 A 
ATOM     17  C   UNL     1     -30.066 -32.200  33.460  1.00  0.00     0.158 A 
BRANCH  15  18
ATOM     18  O   UNL     1     -29.635 -34.016  31.925  1.00  0.00    -0.504 OA
ATOM     19  H   UNL     1     -28.796 -33.620  31.515  1.00  0.00     0.293 HD
ENDBRANCH  15  18
BRANCH  17  20
ATOM     20  O   UNL     1     -28.694 -31.977  33.566  1.00  0.00    -0.504 OA
ATOM     21  H   UNL     1     -28.256 -31.786  34.459  1.00  0.00     0.293 HD
ENDBRANCH  17  20
ENDBRANCH   1  12
BRANCH   6  22
ATOM     22  O   UNL     1     -37.054 -28.737  37.638  1.00  0.00    -0.507 OA
ATOM     23  H   UNL     1     -37.211 -28.418  38.587  1.00  0.00     0.293 HD
ENDBRANCH   6  22
BRANCH   8  24
ATOM     24  O   UNL     1     -34.496 -25.017  35.933  1.00  0.00    -0.508 OA
ATOM     25  H   UNL     1     -34.500 -24.535  35.041  1.00  0.00     0.293 HD
ENDBRANCH   8  24
TORSDOF 5
ENDMDL
MODEL 9
REMARK VINA RESULT:    -8.159      1.660      2.172
REMARK INTER + INTRA:          -9.907
REMARK INTER:                  -9.639
REMARK INTRA:                  -0.269
REMARK UNBOUND:                -0.317
REMARK SMILES O=c1cc(-c2ccc(O)c(O)c2)oc2cc(O)cc(O)c12
REMARK SMILES IDX 4 1 3 2 2 3 1 4 21 5 19 6 18 7 16 8 15 9 14 10 13 11 5 12
REMARK SMILES IDX 6 13 7 14 8 15 12 16 10 17 9 18 11 20 20 22 17 24
REMARK H PARENT 9 19 11 21 20 23 17 25
REMARK Flexibility Score: inf
ROOT
ATOM      1  C   UNL     1     -31.646 -31.143  36.456  1.00  0.00     0.138 A 
ATOM      2  C   UNL     1     -32.528 -31.991  35.765  1.00  0.00     0.100 A 
ATOM      3  C   UNL     1     -33.887 -31.679  35.723  1.00  0.00     0.197 A 
ATOM      4  O   UNL     1     -34.672 -32.447  35.102  1.00  0.00    -0.289 OA
ATOM      5  C   UNL     1     -34.357 -30.522  36.376  1.00  0.00     0.107 A 
ATOM      6  C   UNL     1     -35.716 -30.133  36.381  1.00  0.00     0.134 A 
ATOM      7  C   UNL     1     -36.104 -28.968  37.060  1.00  0.00     0.093 A 
ATOM      8  C   UNL     1     -35.160 -28.187  37.731  1.00  0.00     0.123 A 
ATOM      9  C   UNL     1     -33.813 -28.567  37.730  1.00  0.00     0.094 A 
ATOM     10  C   UNL     1     -33.407 -29.724  37.058  1.00  0.00     0.146 A 
ATOM     11  O   UNL     1     -32.123 -30.063  37.070  1.00  0.00    -0.456 OA
ENDROOT
BRANCH   1  12
ATOM     12  C   UNL     1     -30.190 -31.426  36.536  1.00  0.00     0.021 A 
ATOM     13  C   UNL     1     -29.585 -31.582  37.794  1.00  0.00     0.016 A 
ATOM     14  C   UNL     1     -28.215 -31.840  37.898  1.00  0.00     0.051 A 
ATOM     15  C   UNL     1     -27.427 -31.937  36.745  1.00  0.00     0.157 A 
ATOM     16  C   UNL     1     -29.387 -31.511  35.381  1.00  0.00     0.062 A 
ATOM     17  C   UNL     1     -28.013 -31.769  35.485  1.00  0.00     0.158 A 
BRANCH  15  18
ATOM     18  O   UNL     1     -26.061 -32.196  36.843  1.00  0.00    -0.504 OA
ATOM     19  H   UNL     1     -25.535 -31.959  37.677  1.00  0.00     0.293 HD
ENDBRANCH  15  18
BRANCH  17  20
ATOM     20  O   UNL     1     -27.222 -31.856  34.340  1.00  0.00    -0.504 OA
ATOM     21  H   UNL     1     -26.551 -32.604  34.215  1.00  0.00     0.293 HD
ENDBRANCH  17  20
ENDBRANCH   1  12
BRANCH   6  22
ATOM     22  O   UNL     1     -36.683 -30.892  35.719  1.00  0.00    -0.507 OA
ATOM     23  H   UNL     1     -37.648 -30.913  36.028  1.00  0.00     0.293 HD
ENDBRANCH   6  22
BRANCH   8  24
ATOM     24  O   UNL     1     -35.571 -27.035  38.398  1.00  0.00    -0.508 OA
ATOM     25  H   UNL     1     -35.648 -26.145  37.920  1.00  0.00     0.293 HD
ENDBRANCH   8  24
TORSDOF 5
ENDMDL
