MODEL 1
REMARK VINA RESULT:    -8.048      0.000      0.000
REMARK INTER + INTRA:          -9.839
REMARK INTER:                  -9.694
REMARK INTRA:                  -0.145
REMARK UNBOUND:                -0.145
REMARK SMILES O=c1c(O)c(-c2ccc(O)c(O)c2)oc2cc(O)cc(O)c12
REMARK SMILES IDX 5 1 3 2 2 3 1 4 22 5 20 6 19 7 17 8 16 9 15 10 14 11 6 12
REMARK SMILES IDX 7 13 8 14 9 15 13 16 11 17 10 18 12 20 4 22 21 24 18 26
REMARK H PARENT 10 19 12 21 4 23 21 25 18 27
REMARK Flexibility Score: inf
ROOT
ATOM      1  C   UNL     1      50.879  58.548   6.774  1.00  0.00     0.180 A 
ATOM      2  C   UNL     1      49.765  58.513   7.631  1.00  0.00     0.208 A 
ATOM      3  C   UNL     1      48.493  58.278   7.086  1.00  0.00     0.238 A 
ATOM      4  O   UNL     1      47.494  58.302   7.852  1.00  0.00    -0.285 OA
ATOM      5  C   UNL     1      48.352  58.064   5.694  1.00  0.00     0.111 A 
ATOM      6  C   UNL     1      47.116  57.776   5.040  1.00  0.00     0.134 A 
ATOM      7  C   UNL     1      47.074  57.711   3.641  1.00  0.00     0.093 A 
ATOM      8  C   UNL     1      48.234  57.859   2.878  1.00  0.00     0.123 A 
ATOM      9  C   UNL     1      49.455  58.081   3.510  1.00  0.00     0.094 A 
ATOM     10  C   UNL     1      49.523  58.187   4.902  1.00  0.00     0.146 A 
ATOM     11  O   UNL     1      50.705  58.409   5.464  1.00  0.00    -0.452 OA
ENDROOT
BRANCH   1  12
ATOM     12  C   UNL     1      52.254  58.767   7.276  1.00  0.00     0.025 A 
ATOM     13  C   UNL     1      53.251  57.789   7.126  1.00  0.00     0.016 A 
ATOM     14  C   UNL     1      54.548  58.027   7.586  1.00  0.00     0.051 A 
ATOM     15  C   UNL     1      54.879  59.243   8.192  1.00  0.00     0.157 A 
ATOM     16  C   UNL     1      52.589  59.995   7.864  1.00  0.00     0.062 A 
ATOM     17  C   UNL     1      53.887  60.243   8.329  1.00  0.00     0.158 A 
BRANCH  15  18
ATOM     18  O   UNL     1      56.192  59.416   8.634  1.00  0.00    -0.504 OA
ATOM     19  H   UNL     1      56.616  58.870   9.370  1.00  0.00     0.293 HD
ENDBRANCH  15  18
BRANCH  17  20
ATOM     20  O   UNL     1      54.144  61.485   8.913  1.00  0.00    -0.504 OA
ATOM     21  H   UNL     1      53.893  61.725   9.862  1.00  0.00     0.293 HD
ENDBRANCH  17  20
ENDBRANCH   1  12
BRANCH   2  22
ATOM     22  O   UNL     1      49.924  58.749   8.999  1.00  0.00    -0.502 OA
ATOM     23  H   UNL     1      49.768  58.032   9.697  1.00  0.00     0.293 HD
ENDBRANCH   2  22
BRANCH   6  24
ATOM     24  O   UNL     1      45.917  57.520   5.712  1.00  0.00    -0.507 OA
ATOM     25  H   UNL     1      44.998  57.642   5.314  1.00  0.00     0.293 HD
ENDBRANCH   6  24
BRANCH   8  26
ATOM     26  O   UNL     1      48.186  57.778   1.487  1.00  0.00    -0.508 OA
ATOM     27  H   UNL     1      49.030  57.747   0.929  1.00  0.00     0.293 HD
ENDBRANCH   8  26
TORSDOF 6
ENDMDL
MODEL 2
REMARK VINA RESULT:    -7.911      6.740      9.428
REMARK INTER + INTRA:          -9.674
REMARK INTER:                  -9.418
REMARK INTRA:                  -0.256
REMARK UNBOUND:                -0.145
REMARK SMILES O=c1c(O)c(-c2ccc(O)c(O)c2)oc2cc(O)cc(O)c12
REMARK SMILES IDX 5 1 3 2 2 3 1 4 22 5 20 6 19 7 17 8 16 9 15 10 14 11 6 12
REMARK SMILES IDX 7 13 8 14 9 15 13 16 11 17 10 18 12 20 4 22 21 24 18 26
REMARK H PARENT 10 19 12 21 4 23 21 25 18 27
REMARK Flexibility Score: inf
ROOT
ATOM      1  C   UNL     1      52.660  61.415  -0.152  1.00  0.00     0.180 A 
ATOM      2  C   UNL     1      52.382  62.496  -1.007  1.00  0.00     0.208 A 
ATOM      3  C   UNL     1      52.265  63.784  -0.462  1.00  0.00     0.238 A 
ATOM      4  O   UNL     1      51.963  64.738  -1.226  1.00  0.00    -0.285 OA
ATOM      5  C   UNL     1      52.444  63.979   0.929  1.00  0.00     0.111 A 
ATOM      6  C   UNL     1      52.389  65.247   1.582  1.00  0.00     0.134 A 
ATOM      7  C   UNL     1      52.450  65.306   2.981  1.00  0.00     0.093 A 
ATOM      8  C   UNL     1      52.631  64.149   3.743  1.00  0.00     0.123 A 
ATOM      9  C   UNL     1      52.747  62.914   3.111  1.00  0.00     0.094 A 
ATOM     10  C   UNL     1      52.652  62.819   1.719  1.00  0.00     0.146 A 
ATOM     11  O   UNL     1      52.757  61.621   1.157  1.00  0.00    -0.452 OA
ENDROOT
BRANCH   1  12
ATOM     12  C   UNL     1      52.822  60.032  -0.655  1.00  0.00     0.025 A 
ATOM     13  C   UNL     1      51.716  59.271  -1.068  1.00  0.00     0.016 A 
ATOM     14  C   UNL     1      51.895  57.978  -1.562  1.00  0.00     0.051 A 
ATOM     15  C   UNL     1      53.175  57.422  -1.665  1.00  0.00     0.157 A 
ATOM     16  C   UNL     1      54.108  59.486  -0.776  1.00  0.00     0.062 A 
ATOM     17  C   UNL     1      54.298  58.189  -1.270  1.00  0.00     0.158 A 
BRANCH  15  18
ATOM     18  O   UNL     1      53.285  56.123  -2.161  1.00  0.00    -0.504 OA
ATOM     19  H   UNL     1      54.119  55.559  -2.089  1.00  0.00     0.293 HD
ENDBRANCH  15  18
BRANCH  17  20
ATOM     20  O   UNL     1      55.606  57.707  -1.352  1.00  0.00    -0.504 OA
ATOM     21  H   UNL     1      56.316  57.880  -0.654  1.00  0.00     0.293 HD
ENDBRANCH  17  20
ENDBRANCH   1  12
BRANCH   2  22
ATOM     22  O   UNL     1      52.188  62.277  -2.373  1.00  0.00    -0.502 OA
ATOM     23  H   UNL     1      52.339  63.000  -3.067  1.00  0.00     0.293 HD
ENDBRANCH   2  22
BRANCH   6  24
ATOM     24  O   UNL     1      52.302  66.469   0.910  1.00  0.00    -0.507 OA
ATOM     25  H   UNL     1      52.875  66.734   0.123  1.00  0.00     0.293 HD
ENDBRANCH   6  24
BRANCH   8  26
ATOM     26  O   UNL     1      52.708  64.219   5.133  1.00  0.00    -0.508 OA
ATOM     27  H   UNL     1      52.851  65.099   5.612  1.00  0.00     0.293 HD
ENDBRANCH   8  26
TORSDOF 6
ENDMDL
MODEL 3
REMARK VINA RESULT:    -7.765      1.530      6.867
REMARK INTER + INTRA:          -9.499
REMARK INTER:                  -9.167
REMARK INTRA:                  -0.331
REMARK UNBOUND:                -0.145
REMARK SMILES O=c1c(O)c(-c2ccc(O)c(O)c2)oc2cc(O)cc(O)c12
REMARK SMILES IDX 5 1 3 2 2 3 1 4 22 5 20 6 19 7 17 8 16 9 15 10 14 11 6 12
REMARK SMILES IDX 7 13 8 14 9 15 13 16 11 17 10 18 12 20 4 22 21 24 18 26
REMARK H PARENT 10 19 12 21 4 23 21 25 18 27
REMARK Flexibility Score: inf
ROOT
ATOM      1  C   UNL     1      50.861  59.283   6.468  1.00  0.00     0.180 A 
ATOM      2  C   UNL     1      51.119  60.383   7.306  1.00  0.00     0.208 A 
ATOM      3  C   UNL     1      52.367  60.478   7.942  1.00  0.00     0.238 A 
ATOM      4  O   UNL     1      52.570  61.436   8.732  1.00  0.00    -0.285 OA
ATOM      5  C   UNL     1      53.348  59.483   7.718  1.00  0.00     0.111 A 
ATOM      6  C   UNL     1      54.661  59.500   8.278  1.00  0.00     0.134 A 
ATOM      7  C   UNL     1      55.505  58.397   8.094  1.00  0.00     0.093 A 
ATOM      8  C   UNL     1      55.106  57.307   7.316  1.00  0.00     0.123 A 
ATOM      9  C   UNL     1      53.850  57.308   6.717  1.00  0.00     0.094 A 
ATOM     10  C   UNL     1      52.971  58.377   6.912  1.00  0.00     0.146 A 
ATOM     11  O   UNL     1      51.779  58.333   6.331  1.00  0.00    -0.452 OA
ENDROOT
BRANCH   1  12
ATOM     12  C   UNL     1      49.579  59.126   5.745  1.00  0.00     0.025 A 
ATOM     13  C   UNL     1      49.399  59.648   4.454  1.00  0.00     0.016 A 
ATOM     14  C   UNL     1      48.189  59.467   3.782  1.00  0.00     0.051 A 
ATOM     15  C   UNL     1      47.142  58.752   4.374  1.00  0.00     0.157 A 
ATOM     16  C   UNL     1      48.539  58.391   6.333  1.00  0.00     0.062 A 
ATOM     17  C   UNL     1      47.321  58.204   5.667  1.00  0.00     0.158 A 
BRANCH  15  18
ATOM     18  O   UNL     1      45.957  58.611   3.652  1.00  0.00    -0.504 OA
ATOM     19  H   UNL     1      45.682  59.218   2.893  1.00  0.00     0.293 HD
ENDBRANCH  15  18
BRANCH  17  20
ATOM     20  O   UNL     1      46.327  57.472   6.319  1.00  0.00    -0.504 OA
ATOM     21  H   UNL     1      45.398  57.327   5.950  1.00  0.00     0.293 HD
ENDBRANCH  17  20
ENDBRANCH   1  12
BRANCH   2  22
ATOM     22  O   UNL     1      50.128  61.342   7.530  1.00  0.00    -0.502 OA
ATOM     23  H   UNL     1      49.158  61.096   7.690  1.00  0.00     0.293 HD
ENDBRANCH   2  22
BRANCH   6  24
ATOM     24  O   UNL     1      55.191  60.578   8.993  1.00  0.00    -0.507 OA
ATOM     25  H   UNL     1      56.177  60.766   9.101  1.00  0.00     0.293 HD
ENDBRANCH   6  24
BRANCH   8  26
ATOM     26  O   UNL     1      55.958  56.221   7.125  1.00  0.00    -0.508 OA
ATOM     27  H   UNL     1      55.886  55.385   7.692  1.00  0.00     0.293 HD
ENDBRANCH   8  26
TORSDOF 6
ENDMDL
MODEL 4
REMARK VINA RESULT:    -7.588      7.094      8.381
REMARK INTER + INTRA:          -9.285
REMARK INTER:                  -9.068
REMARK INTRA:                  -0.218
REMARK UNBOUND:                -0.145
REMARK SMILES O=c1c(O)c(-c2ccc(O)c(O)c2)oc2cc(O)cc(O)c12
REMARK SMILES IDX 5 1 3 2 2 3 1 4 22 5 20 6 19 7 17 8 16 9 15 10 14 11 6 12
REMARK SMILES IDX 7 13 8 14 9 15 13 16 11 17 10 18 12 20 4 22 21 24 18 26
REMARK H PARENT 10 19 12 21 4 23 21 25 18 27
REMARK Flexibility Score: inf
ROOT
ATOM      1  C   UNL     1      52.242  61.716   0.462  1.00  0.00     0.180 A 
ATOM      2  C   UNL     1      51.155  61.255  -0.301  1.00  0.00     0.208 A 
ATOM      3  C   UNL     1      51.268  60.031  -0.980  1.00  0.00     0.238 A 
ATOM      4  O   UNL     1      50.311  59.651  -1.704  1.00  0.00    -0.285 OA
ATOM      5  C   UNL     1      52.461  59.276  -0.875  1.00  0.00     0.111 A 
ATOM      6  C   UNL     1      52.670  58.003  -1.488  1.00  0.00     0.134 A 
ATOM      7  C   UNL     1      53.936  57.406  -1.424  1.00  0.00     0.093 A 
ATOM      8  C   UNL     1      54.980  58.005  -0.716  1.00  0.00     0.123 A 
ATOM      9  C   UNL     1      54.768  59.218  -0.065  1.00  0.00     0.094 A 
ATOM     10  C   UNL     1      53.527  59.856  -0.140  1.00  0.00     0.146 A 
ATOM     11  O   UNL     1      53.371  61.016   0.486  1.00  0.00    -0.452 OA
ENDROOT
BRANCH   1  12
ATOM     12  C   UNL     1      52.190  62.983   1.225  1.00  0.00     0.025 A 
ATOM     13  C   UNL     1      52.172  62.991   2.629  1.00  0.00     0.016 A 
ATOM     14  C   UNL     1      52.147  64.199   3.328  1.00  0.00     0.051 A 
ATOM     15  C   UNL     1      52.152  65.420   2.645  1.00  0.00     0.157 A 
ATOM     16  C   UNL     1      52.216  64.206   0.538  1.00  0.00     0.062 A 
ATOM     17  C   UNL     1      52.191  65.423   1.230  1.00  0.00     0.158 A 
BRANCH  15  18
ATOM     18  O   UNL     1      52.121  66.592   3.402  1.00  0.00    -0.504 OA
ATOM     19  H   UNL     1      52.682  67.407   3.205  1.00  0.00     0.293 HD
ENDBRANCH  15  18
BRANCH  17  20
ATOM     20  O   UNL     1      52.207  66.601   0.479  1.00  0.00    -0.504 OA
ATOM     21  H   UNL     1      52.785  66.741  -0.337  1.00  0.00     0.293 HD
ENDBRANCH  17  20
ENDBRANCH   1  12
BRANCH   2  22
ATOM     22  O   UNL     1      49.995  62.027  -0.408  1.00  0.00    -0.502 OA
ATOM     23  H   UNL     1      50.010  62.991  -0.718  1.00  0.00     0.293 HD
ENDBRANCH   2  22
BRANCH   6  24
ATOM     24  O   UNL     1      51.670  57.277  -2.140  1.00  0.00    -0.507 OA
ATOM     25  H   UNL     1      51.749  56.309  -2.414  1.00  0.00     0.293 HD
ENDBRANCH   6  24
BRANCH   8  26
ATOM     26  O   UNL     1      56.232  57.397  -0.645  1.00  0.00    -0.508 OA
ATOM     27  H   UNL     1      57.009  57.717  -1.208  1.00  0.00     0.293 HD
ENDBRANCH   8  26
TORSDOF 6
ENDMDL
MODEL 5
REMARK VINA RESULT:    -7.528      1.444      2.992
REMARK INTER + INTRA:          -9.213
REMARK INTER:                  -8.912
REMARK INTRA:                  -0.301
REMARK UNBOUND:                -0.145
REMARK SMILES O=c1c(O)c(-c2ccc(O)c(O)c2)oc2cc(O)cc(O)c12
REMARK SMILES IDX 5 1 3 2 2 3 1 4 22 5 20 6 19 7 17 8 16 9 15 10 14 11 6 12
REMARK SMILES IDX 7 13 8 14 9 15 13 16 11 17 10 18 12 20 4 22 21 24 18 26
REMARK H PARENT 10 19 12 21 4 23 21 25 18 27
REMARK Flexibility Score: inf
ROOT
ATOM      1  C   UNL     1      51.886  58.863   5.696  1.00  0.00     0.180 A 
ATOM      2  C   UNL     1      51.951  59.208   4.334  1.00  0.00     0.208 A 
ATOM      3  C   UNL     1      50.774  59.190   3.569  1.00  0.00     0.238 A 
ATOM      4  O   UNL     1      50.849  59.448   2.339  1.00  0.00    -0.285 OA
ATOM      5  C   UNL     1      49.544  58.845   4.179  1.00  0.00     0.111 A 
ATOM      6  C   UNL     1      48.283  58.834   3.509  1.00  0.00     0.134 A 
ATOM      7  C   UNL     1      47.151  58.350   4.177  1.00  0.00     0.093 A 
ATOM      8  C   UNL     1      47.222  57.938   5.509  1.00  0.00     0.123 A 
ATOM      9  C   UNL     1      48.435  58.001   6.190  1.00  0.00     0.094 A 
ATOM     10  C   UNL     1      49.590  58.445   5.540  1.00  0.00     0.146 A 
ATOM     11  O   UNL     1      50.728  58.480   6.222  1.00  0.00    -0.452 OA
ENDROOT
BRANCH   1  12
ATOM     12  C   UNL     1      53.079  58.881   6.572  1.00  0.00     0.025 A 
ATOM     13  C   UNL     1      53.988  57.811   6.591  1.00  0.00     0.016 A 
ATOM     14  C   UNL     1      55.119  57.861   7.408  1.00  0.00     0.051 A 
ATOM     15  C   UNL     1      55.373  58.979   8.210  1.00  0.00     0.157 A 
ATOM     16  C   UNL     1      53.342  60.012   7.359  1.00  0.00     0.062 A 
ATOM     17  C   UNL     1      54.474  60.071   8.182  1.00  0.00     0.158 A 
BRANCH  15  18
ATOM     18  O   UNL     1      56.519  58.963   9.007  1.00  0.00    -0.504 OA
ATOM     19  H   UNL     1      56.512  59.096  10.008  1.00  0.00     0.293 HD
ENDBRANCH  15  18
BRANCH  17  20
ATOM     20  O   UNL     1      54.665  61.224   8.947  1.00  0.00    -0.504 OA
ATOM     21  H   UNL     1      53.965  61.617   9.560  1.00  0.00     0.293 HD
ENDBRANCH  17  20
ENDBRANCH   1  12
BRANCH   2  22
ATOM     22  O   UNL     1      53.179  59.525   3.748  1.00  0.00    -0.502 OA
ATOM     23  H   UNL     1      53.909  60.019   4.247  1.00  0.00     0.293 HD
ENDBRANCH   2  22
BRANCH   6  24
ATOM     24  O   UNL     1      48.085  59.309   2.209  1.00  0.00    -0.507 OA
ATOM     25  H   UNL     1      47.351  58.999   1.590  1.00  0.00     0.293 HD
ENDBRANCH   6  24
BRANCH   8  26
ATOM     26  O   UNL     1      46.087  57.473   6.171  1.00  0.00    -0.508 OA
ATOM     27  H   UNL     1      45.684  57.977   6.951  1.00  0.00     0.293 HD
ENDBRANCH   8  26
TORSDOF 6
ENDMDL
MODEL 6
REMARK VINA RESULT:    -7.499      1.718      2.073
REMARK INTER + INTRA:          -9.179
REMARK INTER:                  -9.306
REMARK INTRA:                   0.127
REMARK UNBOUND:                -0.145
REMARK SMILES O=c1c(O)c(-c2ccc(O)c(O)c2)oc2cc(O)cc(O)c12
REMARK SMILES IDX 5 1 3 2 2 3 1 4 22 5 20 6 19 7 17 8 16 9 15 10 14 11 6 12
REMARK SMILES IDX 7 13 8 14 9 15 13 16 11 17 10 18 12 20 4 22 21 24 18 26
REMARK H PARENT 10 19 12 21 4 23 21 25 18 27
REMARK Flexibility Score: inf
ROOT
ATOM      1  C   UNL     1      50.555  58.732   6.072  1.00  0.00     0.180 A 
ATOM      2  C   UNL     1      49.670  59.758   6.447  1.00  0.00     0.208 A 
ATOM      3  C   UNL     1      48.412  59.833   5.828  1.00  0.00     0.238 A 
ATOM      4  O   UNL     1      47.646  60.785   6.130  1.00  0.00    -0.285 OA
ATOM      5  C   UNL     1      48.048  58.873   4.854  1.00  0.00     0.111 A 
ATOM      6  C   UNL     1      46.784  58.829   4.193  1.00  0.00     0.134 A 
ATOM      7  C   UNL     1      46.581  57.914   3.152  1.00  0.00     0.093 A 
ATOM      8  C   UNL     1      47.573  56.998   2.794  1.00  0.00     0.123 A 
ATOM      9  C   UNL     1      48.788  56.993   3.474  1.00  0.00     0.094 A 
ATOM     10  C   UNL     1      49.034  57.918   4.492  1.00  0.00     0.146 A 
ATOM     11  O   UNL     1      50.210  57.886   5.107  1.00  0.00    -0.452 OA
ENDROOT
BRANCH   1  12
ATOM     12  C   UNL     1      51.888  58.573   6.695  1.00  0.00     0.025 A 
ATOM     13  C   UNL     1      52.083  58.789   8.069  1.00  0.00     0.016 A 
ATOM     14  C   UNL     1      53.344  58.609   8.640  1.00  0.00     0.051 A 
ATOM     15  C   UNL     1      54.430  58.200   7.860  1.00  0.00     0.157 A 
ATOM     16  C   UNL     1      52.971  58.142   5.914  1.00  0.00     0.062 A 
ATOM     17  C   UNL     1      54.240  57.959   6.478  1.00  0.00     0.158 A 
BRANCH  15  18
ATOM     18  O   UNL     1      55.665  58.044   8.490  1.00  0.00    -0.504 OA
ATOM     19  H   UNL     1      56.553  58.068   8.009  1.00  0.00     0.293 HD
ENDBRANCH  15  18
BRANCH  17  20
ATOM     20  O   UNL     1      55.273  57.540   5.637  1.00  0.00    -0.504 OA
ATOM     21  H   UNL     1      55.143  56.923   4.847  1.00  0.00     0.293 HD
ENDBRANCH  17  20
ENDBRANCH   1  12
BRANCH   2  22
ATOM     22  O   UNL     1      50.058  60.708   7.395  1.00  0.00    -0.502 OA
ATOM     23  H   UNL     1      50.990  61.103   7.419  1.00  0.00     0.293 HD
ENDBRANCH   2  22
BRANCH   6  24
ATOM     24  O   UNL     1      45.695  59.637   4.534  1.00  0.00    -0.507 OA
ATOM     25  H   UNL     1      44.966  59.919   3.895  1.00  0.00     0.293 HD
ENDBRANCH   6  24
BRANCH   8  26
ATOM     26  O   UNL     1      47.356  56.080   1.768  1.00  0.00    -0.508 OA
ATOM     27  H   UNL     1      46.766  56.301   0.975  1.00  0.00     0.293 HD
ENDBRANCH   8  26
TORSDOF 6
ENDMDL
MODEL 7
REMARK VINA RESULT:    -7.439      8.097      9.121
REMARK INTER + INTRA:          -9.106
REMARK INTER:                  -8.797
REMARK INTRA:                  -0.309
REMARK UNBOUND:                -0.145
REMARK SMILES O=c1c(O)c(-c2ccc(O)c(O)c2)oc2cc(O)cc(O)c12
REMARK SMILES IDX 5 1 3 2 2 3 1 4 22 5 20 6 19 7 17 8 16 9 15 10 14 11 6 12
REMARK SMILES IDX 7 13 8 14 9 15 13 16 11 17 10 18 12 20 4 22 21 24 18 26
REMARK H PARENT 10 19 12 21 4 23 21 25 18 27
REMARK Flexibility Score: inf
ROOT
ATOM      1  C   UNL     1      49.933  65.289   1.918  1.00  0.00     0.180 A 
ATOM      2  C   UNL     1      49.970  66.671   2.177  1.00  0.00     0.208 A 
ATOM      3  C   UNL     1      48.833  67.295   2.715  1.00  0.00     0.238 A 
ATOM      4  O   UNL     1      48.856  68.540   2.894  1.00  0.00    -0.285 OA
ATOM      5  C   UNL     1      47.679  66.527   3.003  1.00  0.00     0.111 A 
ATOM      6  C   UNL     1      46.486  67.049   3.587  1.00  0.00     0.134 A 
ATOM      7  C   UNL     1      45.359  66.225   3.707  1.00  0.00     0.093 A 
ATOM      8  C   UNL     1      45.405  64.882   3.324  1.00  0.00     0.123 A 
ATOM      9  C   UNL     1      46.583  64.349   2.809  1.00  0.00     0.094 A 
ATOM     10  C   UNL     1      47.713  65.155   2.643  1.00  0.00     0.146 A 
ATOM     11  O   UNL     1      48.812  64.610   2.138  1.00  0.00    -0.452 OA
ENDROOT
BRANCH   1  12
ATOM     12  C   UNL     1      51.098  64.556   1.374  1.00  0.00     0.025 A 
ATOM     13  C   UNL     1      52.166  64.166   2.199  1.00  0.00     0.016 A 
ATOM     14  C   UNL     1      53.244  63.455   1.669  1.00  0.00     0.051 A 
ATOM     15  C   UNL     1      53.274  63.108   0.314  1.00  0.00     0.157 A 
ATOM     16  C   UNL     1      51.116  64.192   0.020  1.00  0.00     0.062 A 
ATOM     17  C   UNL     1      52.194  63.478  -0.521  1.00  0.00     0.158 A 
BRANCH  15  18
ATOM     18  O   UNL     1      54.383  62.401  -0.154  1.00  0.00    -0.504 OA
ATOM     19  H   UNL     1      54.353  61.748  -0.924  1.00  0.00     0.293 HD
ENDBRANCH  15  18
BRANCH  17  20
ATOM     20  O   UNL     1      52.148  63.161  -1.880  1.00  0.00    -0.504 OA
ATOM     21  H   UNL     1      52.739  63.586  -2.580  1.00  0.00     0.293 HD
ENDBRANCH  17  20
ENDBRANCH   1  12
BRANCH   2  22
ATOM     22  O   UNL     1      51.113  67.412   1.865  1.00  0.00    -0.502 OA
ATOM     23  H   UNL     1      51.292  68.328   2.260  1.00  0.00     0.293 HD
ENDBRANCH   2  22
BRANCH   6  24
ATOM     24  O   UNL     1      46.364  68.348   4.087  1.00  0.00    -0.507 OA
ATOM     25  H   UNL     1      46.561  69.187   3.561  1.00  0.00     0.293 HD
ENDBRANCH   6  24
BRANCH   8  26
ATOM     26  O   UNL     1      44.284  64.065   3.462  1.00  0.00    -0.508 OA
ATOM     27  H   UNL     1      43.436  64.236   2.934  1.00  0.00     0.293 HD
ENDBRANCH   8  26
TORSDOF 6
ENDMDL
MODEL 8
REMARK VINA RESULT:    -7.414      1.626      6.846
REMARK INTER + INTRA:          -9.076
REMARK INTER:                  -8.753
REMARK INTRA:                  -0.323
REMARK UNBOUND:                -0.145
REMARK SMILES O=c1c(O)c(-c2ccc(O)c(O)c2)oc2cc(O)cc(O)c12
REMARK SMILES IDX 5 1 3 2 2 3 1 4 22 5 20 6 19 7 17 8 16 9 15 10 14 11 6 12
REMARK SMILES IDX 7 13 8 14 9 15 13 16 11 17 10 18 12 20 4 22 21 24 18 26
REMARK H PARENT 10 19 12 21 4 23 21 25 18 27
REMARK Flexibility Score: inf
ROOT
ATOM      1  C   UNL     1      50.791  59.214   6.456  1.00  0.00     0.180 A 
ATOM      2  C   UNL     1      51.005  60.337   7.275  1.00  0.00     0.208 A 
ATOM      3  C   UNL     1      52.246  60.487   7.916  1.00  0.00     0.238 A 
ATOM      4  O   UNL     1      52.412  61.466   8.689  1.00  0.00    -0.285 OA
ATOM      5  C   UNL     1      53.262  59.522   7.716  1.00  0.00     0.111 A 
ATOM      6  C   UNL     1      54.570  59.595   8.283  1.00  0.00     0.134 A 
ATOM      7  C   UNL     1      55.452  58.518   8.125  1.00  0.00     0.093 A 
ATOM      8  C   UNL     1      55.096  57.401   7.366  1.00  0.00     0.123 A 
ATOM      9  C   UNL     1      53.844  57.347   6.760  1.00  0.00     0.094 A 
ATOM     10  C   UNL     1      52.928  58.389   6.929  1.00  0.00     0.146 A 
ATOM     11  O   UNL     1      51.742  58.293   6.343  1.00  0.00    -0.452 OA
ENDROOT
BRANCH   1  12
ATOM     12  C   UNL     1      49.520  58.999   5.729  1.00  0.00     0.025 A 
ATOM     13  C   UNL     1      48.453  58.296   6.314  1.00  0.00     0.016 A 
ATOM     14  C   UNL     1      47.255  58.126   5.619  1.00  0.00     0.051 A 
ATOM     15  C   UNL     1      47.090  58.661   4.337  1.00  0.00     0.157 A 
ATOM     16  C   UNL     1      49.350  59.554   4.453  1.00  0.00     0.062 A 
ATOM     17  C   UNL     1      48.151  59.389   3.747  1.00  0.00     0.158 A 
BRANCH  15  18
ATOM     18  O   UNL     1      45.869  58.451   3.694  1.00  0.00    -0.504 OA
ATOM     19  H   UNL     1      45.605  57.583   3.252  1.00  0.00     0.293 HD
ENDBRANCH  15  18
BRANCH  17  20
ATOM     20  O   UNL     1      48.059  59.960   2.476  1.00  0.00    -0.504 OA
ATOM     21  H   UNL     1      47.187  60.112   1.988  1.00  0.00     0.293 HD
ENDBRANCH  17  20
ENDBRANCH   1  12
BRANCH   2  22
ATOM     22  O   UNL     1      49.981  61.266   7.475  1.00  0.00    -0.502 OA
ATOM     23  H   UNL     1      49.654  61.882   6.741  1.00  0.00     0.293 HD
ENDBRANCH   2  22
BRANCH   6  24
ATOM     24  O   UNL     1      55.059  60.704   8.980  1.00  0.00    -0.507 OA
ATOM     25  H   UNL     1      55.413  61.544   8.547  1.00  0.00     0.293 HD
ENDBRANCH   6  24
BRANCH   8  26
ATOM     26  O   UNL     1      55.986  56.341   7.200  1.00  0.00    -0.508 OA
ATOM     27  H   UNL     1      56.911  56.357   7.612  1.00  0.00     0.293 HD
ENDBRANCH   8  26
TORSDOF 6
ENDMDL
MODEL 9
REMARK VINA RESULT:    -7.392      1.882      1.941
REMARK INTER + INTRA:          -9.049
REMARK INTER:                  -8.772
REMARK INTRA:                  -0.277
REMARK UNBOUND:                -0.145
REMARK SMILES O=c1c(O)c(-c2ccc(O)c(O)c2)oc2cc(O)cc(O)c12
REMARK SMILES IDX 5 1 3 2 2 3 1 4 22 5 20 6 19 7 17 8 16 9 15 10 14 11 6 12
REMARK SMILES IDX 7 13 8 14 9 15 13 16 11 17 10 18 12 20 4 22 21 24 18 26
REMARK H PARENT 10 19 12 21 4 23 21 25 18 27
REMARK Flexibility Score: inf
ROOT
ATOM      1  C   UNL     1      50.365  59.614   6.844  1.00  0.00     0.180 A 
ATOM      2  C   UNL     1      49.467  58.680   7.391  1.00  0.00     0.208 A 
ATOM      3  C   UNL     1      48.191  58.547   6.822  1.00  0.00     0.238 A 
ATOM      4  O   UNL     1      47.375  57.748   7.350  1.00  0.00    -0.285 OA
ATOM      5  C   UNL     1      47.835  59.335   5.701  1.00  0.00     0.111 A 
ATOM      6  C   UNL     1      46.583  59.252   5.019  1.00  0.00     0.134 A 
ATOM      7  C   UNL     1      46.289  60.172   4.004  1.00  0.00     0.093 A 
ATOM      8  C   UNL     1      47.226  61.128   3.604  1.00  0.00     0.123 A 
ATOM      9  C   UNL     1      48.472  61.178   4.224  1.00  0.00     0.094 A 
ATOM     10  C   UNL     1      48.782  60.297   5.264  1.00  0.00     0.146 A 
ATOM     11  O   UNL     1      49.977  60.385   5.835  1.00  0.00    -0.452 OA
ENDROOT
BRANCH   1  12
ATOM     12  C   UNL     1      51.735  59.795   7.374  1.00  0.00     0.025 A 
ATOM     13  C   UNL     1      52.854  59.278   6.701  1.00  0.00     0.016 A 
ATOM     14  C   UNL     1      54.139  59.482   7.208  1.00  0.00     0.051 A 
ATOM     15  C   UNL     1      54.336  60.214   8.384  1.00  0.00     0.157 A 
ATOM     16  C   UNL     1      51.931  60.547   8.542  1.00  0.00     0.062 A 
ATOM     17  C   UNL     1      53.217  60.757   9.058  1.00  0.00     0.158 A 
BRANCH  15  18
ATOM     18  O   UNL     1      55.645  60.377   8.839  1.00  0.00    -0.504 OA
ATOM     19  H   UNL     1      56.459  60.342   8.243  1.00  0.00     0.293 HD
ENDBRANCH  15  18
BRANCH  17  20
ATOM     20  O   UNL     1      53.334  61.506  10.231  1.00  0.00    -0.504 OA
ATOM     21  H   UNL     1      52.557  61.732  10.836  1.00  0.00     0.293 HD
ENDBRANCH  17  20
ENDBRANCH   1  12
BRANCH   2  22
ATOM     22  O   UNL     1      49.833  57.928   8.511  1.00  0.00    -0.502 OA
ATOM     23  H   UNL     1      50.792  57.852   8.826  1.00  0.00     0.293 HD
ENDBRANCH   2  22
BRANCH   6  24
ATOM     24  O   UNL     1      45.615  58.278   5.277  1.00  0.00    -0.507 OA
ATOM     25  H   UNL     1      45.050  57.829   4.572  1.00  0.00     0.293 HD
ENDBRANCH   6  24
BRANCH   8  26
ATOM     26  O   UNL     1      46.930  62.029   2.583  1.00  0.00    -0.508 OA
ATOM     27  H   UNL     1      45.991  62.128   2.218  1.00  0.00     0.293 HD
ENDBRANCH   8  26
TORSDOF 6
ENDMDL
