MODEL 1
REMARK VINA RESULT:    -4.030      0.000      0.000
REMARK INTER + INTRA:          -6.974
REMARK INTER:                  -6.387
REMARK INTRA:                  -0.587
REMARK UNBOUND:                -0.587
REMARK SMILES CCCCCCCCCCCC(=O)[O-]
REMARK SMILES IDX 7 1 8 2 9 3 10 4 11 5 12 6 13 7 14 8 6 9 5 10 4 11 3 12 2 13
REMARK SMILES IDX 1 14
REMARK H PARENT
REMARK Flexibility Score: inf
ROOT
ATOM      1  C   UNL     1    -117.954 -99.172  45.930  1.00  0.00     0.000 C 
ENDROOT
BRANCH   1   2
ATOM      2  C   UNL     1    -117.956 -99.783  47.338  1.00  0.00     0.000 C 
BRANCH   2   3
ATOM      3  C   UNL     1    -117.595 -98.731  48.394  1.00  0.00     0.000 C 
BRANCH   3   4
ATOM      4  C   UNL     1    -118.682 -97.655  48.492  1.00  0.00     0.006 C 
BRANCH   4   5
ATOM      5  C   UNL     1    -118.073 -96.284  48.802  1.00  0.00     0.053 C 
BRANCH   5   6
ATOM      6  C   UNL     1    -118.483 -95.283  47.769  1.00  0.00     0.041 C 
ATOM      7  O   UNL     1    -118.811 -94.117  48.111  1.00  0.00    -0.550 OA
ATOM      8  O   UNL     1    -118.455 -95.624  46.422  1.00  0.00    -0.550 OA
ENDBRANCH   5   6
ENDBRANCH   4   5
ENDBRANCH   3   4
ENDBRANCH   2   3
ENDBRANCH   1   2
BRANCH   1   9
ATOM      9  C   UNL     1    -118.712-100.031  44.904  1.00  0.00     0.000 C 
BRANCH   9  10
ATOM     10  C   UNL     1    -118.225 -99.835  43.452  1.00  0.00    -0.000 C 
BRANCH  10  11
ATOM     11  C   UNL     1    -117.488 -98.502  43.260  1.00  0.00    -0.000 C 
BRANCH  11  12
ATOM     12  C   UNL     1    -116.242 -98.682  42.386  1.00  0.00    -0.000 C 
BRANCH  12  13
ATOM     13  C   UNL     1    -116.537 -99.596  41.190  1.00  0.00    -0.003 C 
ATOM     14  C   UNL     1    -117.245 -98.833  40.074  1.00  0.00     0.004 C 
ENDBRANCH  12  13
ENDBRANCH  11  12
ENDBRANCH  10  11
ENDBRANCH   9  10
ENDBRANCH   1   9
TORSDOF 10
ENDMDL
MODEL 2
REMARK VINA RESULT:    -3.630      3.000      6.632
REMARK INTER + INTRA:          -6.339
REMARK INTER:                  -5.830
REMARK INTRA:                  -0.509
REMARK UNBOUND:                -0.587
REMARK SMILES CCCCCCCCCCCC(=O)[O-]
REMARK SMILES IDX 7 1 8 2 9 3 10 4 11 5 12 6 13 7 14 8 6 9 5 10 4 11 3 12 2 13
REMARK SMILES IDX 1 14
REMARK H PARENT
REMARK Flexibility Score: inf
ROOT
ATOM      1  C   UNL     1    -118.128 -99.826  44.785  1.00  0.00     0.000 C 
ENDROOT
BRANCH   1   2
ATOM      2  C   UNL     1    -117.642 -98.597  44.005  1.00  0.00     0.000 C 
BRANCH   2   3
ATOM      3  C   UNL     1    -116.619 -98.995  42.933  1.00  0.00     0.000 C 
BRANCH   3   4
ATOM      4  C   UNL     1    -117.204-100.044  41.979  1.00  0.00     0.006 C 
BRANCH   4   5
ATOM      5  C   UNL     1    -118.350 -99.455  41.150  1.00  0.00     0.053 C 
BRANCH   5   6
ATOM      6  C   UNL     1    -117.817 -98.526  40.106  1.00  0.00     0.041 C 
ATOM      7  O   UNL     1    -118.145 -97.310  40.113  1.00  0.00    -0.550 OA
ATOM      8  O   UNL     1    -116.919 -98.992  39.154  1.00  0.00    -0.550 OA
ENDBRANCH   5   6
ENDBRANCH   4   5
ENDBRANCH   3   4
ENDBRANCH   2   3
ENDBRANCH   1   2
BRANCH   1   9
ATOM      9  C   UNL     1    -118.684 -99.472  46.174  1.00  0.00     0.000 C 
BRANCH   9  10
ATOM     10  C   UNL     1    -117.604 -99.000  47.171  1.00  0.00    -0.000 C 
BRANCH  10  11
ATOM     11  C   UNL     1    -118.112 -98.997  48.621  1.00  0.00    -0.000 C 
BRANCH  11  12
ATOM     12  C   UNL     1    -118.330 -97.566  49.125  1.00  0.00    -0.000 C 
BRANCH  12  13
ATOM     13  C   UNL     1    -118.192 -96.553  47.983  1.00  0.00    -0.003 C 
ATOM     14  C   UNL     1    -118.551 -95.144  48.448  1.00  0.00     0.004 C 
ENDBRANCH  12  13
ENDBRANCH  11  12
ENDBRANCH  10  11
ENDBRANCH   9  10
ENDBRANCH   1   9
TORSDOF 10
ENDMDL
MODEL 3
REMARK VINA RESULT:    -3.326      6.756     11.166
REMARK INTER + INTRA:          -5.858
REMARK INTER:                  -5.256
REMARK INTRA:                  -0.603
REMARK UNBOUND:                -0.587
REMARK SMILES CCCCCCCCCCCC(=O)[O-]
REMARK SMILES IDX 7 1 8 2 9 3 10 4 11 5 12 6 13 7 14 8 6 9 5 10 4 11 3 12 2 13
REMARK SMILES IDX 1 14
REMARK H PARENT
REMARK Flexibility Score: inf
ROOT
ATOM      1  C   UNL     1    -116.205 -98.758  36.607  1.00  0.00     0.000 C 
ENDROOT
BRANCH   1   2
ATOM      2  C   UNL     1    -115.092 -98.869  35.555  1.00  0.00     0.000 C 
BRANCH   2   3
ATOM      3  C   UNL     1    -115.471 -99.869  34.456  1.00  0.00     0.000 C 
BRANCH   3   4
ATOM      4  C   UNL     1    -115.576 -99.174  33.093  1.00  0.00     0.006 C 
BRANCH   4   5
ATOM      5  C   UNL     1    -116.967 -98.565  32.893  1.00  0.00     0.053 C 
BRANCH   5   6
ATOM      6  C   UNL     1    -116.868 -97.083  32.710  1.00  0.00     0.041 C 
ATOM      7  O   UNL     1    -117.719 -96.472  32.013  1.00  0.00    -0.550 OA
ATOM      8  O   UNL     1    -115.863 -96.370  33.351  1.00  0.00    -0.550 OA
ENDBRANCH   5   6
ENDBRANCH   4   5
ENDBRANCH   3   4
ENDBRANCH   2   3
ENDBRANCH   1   2
BRANCH   1   9
ATOM      9  C   UNL     1    -116.770-100.125  37.026  1.00  0.00     0.000 C 
BRANCH   9  10
ATOM     10  C   UNL     1    -117.454-100.114  38.411  1.00  0.00    -0.000 C 
BRANCH  10  11
ATOM     11  C   UNL     1    -117.160 -98.826  39.194  1.00  0.00    -0.000 C 
BRANCH  11  12
ATOM     12  C   UNL     1    -117.684 -98.923  40.631  1.00  0.00    -0.000 C 
BRANCH  12  13
ATOM     13  C   UNL     1    -116.672 -99.631  41.540  1.00  0.00    -0.003 C 
ATOM     14  C   UNL     1    -116.397 -98.815  42.800  1.00  0.00     0.004 C 
ENDBRANCH  12  13
ENDBRANCH  11  12
ENDBRANCH  10  11
ENDBRANCH   9  10
ENDBRANCH   1   9
TORSDOF 10
ENDMDL
MODEL 4
REMARK VINA RESULT:    -3.278      6.554     10.630
REMARK INTER + INTRA:          -5.782
REMARK INTER:                  -5.077
REMARK INTRA:                  -0.704
REMARK UNBOUND:                -0.587
REMARK SMILES CCCCCCCCCCCC(=O)[O-]
REMARK SMILES IDX 7 1 8 2 9 3 10 4 11 5 12 6 13 7 14 8 6 9 5 10 4 11 3 12 2 13
REMARK SMILES IDX 1 14
REMARK H PARENT
REMARK Flexibility Score: inf
ROOT
ATOM      1  C   UNL     1    -115.357 -98.258  34.951  1.00  0.00     0.000 C 
ENDROOT
BRANCH   1   2
ATOM      2  C   UNL     1    -115.309 -99.736  35.364  1.00  0.00     0.000 C 
BRANCH   2   3
ATOM      3  C   UNL     1    -116.502-100.097  36.256  1.00  0.00     0.000 C 
BRANCH   3   4
ATOM      4  C   UNL     1    -116.575 -99.174  37.478  1.00  0.00     0.006 C 
BRANCH   4   5
ATOM      5  C   UNL     1    -117.239 -99.881  38.663  1.00  0.00     0.053 C 
BRANCH   5   6
ATOM      6  C   UNL     1    -117.160 -99.032  39.892  1.00  0.00     0.041 C 
ATOM      7  O   UNL     1    -116.306 -99.282  40.782  1.00  0.00    -0.550 OA
ATOM      8  O   UNL     1    -117.998 -97.932  40.031  1.00  0.00    -0.550 OA
ENDBRANCH   5   6
ENDBRANCH   4   5
ENDBRANCH   3   4
ENDBRANCH   2   3
ENDBRANCH   1   2
BRANCH   1   9
ATOM      9  C   UNL     1    -116.474 -97.956  33.939  1.00  0.00     0.000 C 
BRANCH   9  10
ATOM     10  C   UNL     1    -116.423 -98.842  32.676  1.00  0.00    -0.000 C 
BRANCH  10  11
ATOM     11  C   UNL     1    -117.755 -99.560  32.415  1.00  0.00    -0.000 C 
BRANCH  11  12
ATOM     12  C   UNL     1    -118.859 -98.559  32.056  1.00  0.00    -0.000 C 
BRANCH  12  13
ATOM     13  C   UNL     1    -118.682 -98.032  30.627  1.00  0.00    -0.003 C 
ATOM     14  C   UNL     1    -118.564 -96.511  30.610  1.00  0.00     0.004 C 
ENDBRANCH  12  13
ENDBRANCH  11  12
ENDBRANCH  10  11
ENDBRANCH   9  10
ENDBRANCH   1   9
TORSDOF 10
ENDMDL
MODEL 5
REMARK VINA RESULT:    -3.256      7.718     12.031
REMARK INTER + INTRA:          -5.747
REMARK INTER:                  -5.433
REMARK INTRA:                  -0.313
REMARK UNBOUND:                -0.587
REMARK SMILES CCCCCCCCCCCC(=O)[O-]
REMARK SMILES IDX 7 1 8 2 9 3 10 4 11 5 12 6 13 7 14 8 6 9 5 10 4 11 3 12 2 13
REMARK SMILES IDX 1 14
REMARK H PARENT
REMARK Flexibility Score: inf
ROOT
ATOM      1  C   UNL     1    -115.388 -99.572  35.495  1.00  0.00     0.000 C 
ENDROOT
BRANCH   1   2
ATOM      2  C   UNL     1    -115.524 -98.202  34.815  1.00  0.00     0.000 C 
BRANCH   2   3
ATOM      3  C   UNL     1    -115.856 -98.358  33.326  1.00  0.00     0.000 C 
BRANCH   3   4
ATOM      4  C   UNL     1    -116.547 -97.101  32.783  1.00  0.00     0.006 C 
BRANCH   4   5
ATOM      5  C   UNL     1    -117.999 -97.396  32.396  1.00  0.00     0.053 C 
BRANCH   5   6
ATOM      6  C   UNL     1    -118.371 -96.653  31.152  1.00  0.00     0.041 C 
ATOM      7  O   UNL     1    -118.308 -97.222  30.031  1.00  0.00    -0.550 OA
ATOM      8  O   UNL     1    -118.835 -95.346  31.236  1.00  0.00    -0.550 OA
ENDBRANCH   5   6
ENDBRANCH   4   5
ENDBRANCH   3   4
ENDBRANCH   2   3
ENDBRANCH   1   2
BRANCH   1   9
ATOM      9  C   UNL     1    -116.595 -99.923  36.380  1.00  0.00     0.000 C 
BRANCH   9  10
ATOM     10  C   UNL     1    -116.663 -99.107  37.688  1.00  0.00    -0.000 C 
BRANCH  10  11
ATOM     11  C   UNL     1    -117.357 -99.878  38.820  1.00  0.00    -0.000 C 
BRANCH  11  12
ATOM     12  C   UNL     1    -117.465 -99.021  40.086  1.00  0.00    -0.000 C 
BRANCH  12  13
ATOM     13  C   UNL     1    -116.660 -99.635  41.237  1.00  0.00    -0.003 C 
ATOM     14  C   UNL     1    -116.095 -98.554  42.154  1.00  0.00     0.004 C 
ENDBRANCH  12  13
ENDBRANCH  11  12
ENDBRANCH  10  11
ENDBRANCH   9  10
ENDBRANCH   1   9
TORSDOF 10
ENDMDL
MODEL 6
REMARK VINA RESULT:    -3.239      5.485      9.045
REMARK INTER + INTRA:          -5.719
REMARK INTER:                  -5.177
REMARK INTRA:                  -0.543
REMARK UNBOUND:                -0.587
REMARK SMILES CCCCCCCCCCCC(=O)[O-]
REMARK SMILES IDX 7 1 8 2 9 3 10 4 11 5 12 6 13 7 14 8 6 9 5 10 4 11 3 12 2 13
REMARK SMILES IDX 1 14
REMARK H PARENT
REMARK Flexibility Score: inf
ROOT
ATOM      1  C   UNL     1    -116.164 -98.809  36.596  1.00  0.00     0.000 C 
ENDROOT
BRANCH   1   2
ATOM      2  C   UNL     1    -116.505-100.119  37.319  1.00  0.00     0.000 C 
BRANCH   2   3
ATOM      3  C   UNL     1    -117.672 -99.922  38.294  1.00  0.00     0.000 C 
BRANCH   3   4
ATOM      4  C   UNL     1    -117.177 -99.385  39.642  1.00  0.00     0.006 C 
BRANCH   4   5
ATOM      5  C   UNL     1    -118.348 -99.127  40.595  1.00  0.00     0.053 C 
BRANCH   5   6
ATOM      6  C   UNL     1    -118.474 -97.665  40.887  1.00  0.00     0.041 C 
ATOM      7  O   UNL     1    -118.231 -96.816  39.990  1.00  0.00    -0.550 OA
ATOM      8  O   UNL     1    -118.907 -97.242  42.138  1.00  0.00    -0.550 OA
ENDBRANCH   5   6
ENDBRANCH   4   5
ENDBRANCH   3   4
ENDBRANCH   2   3
ENDBRANCH   1   2
BRANCH   1   9
ATOM      9  C   UNL     1    -115.300 -99.024  35.342  1.00  0.00     0.000 C 
BRANCH   9  10
ATOM     10  C   UNL     1    -116.046 -99.729  34.189  1.00  0.00    -0.000 C 
BRANCH  10  11
ATOM     11  C   UNL     1    -116.075 -98.880  32.910  1.00  0.00    -0.000 C 
BRANCH  11  12
ATOM     12  C   UNL     1    -115.788 -97.407  33.220  1.00  0.00    -0.000 C 
BRANCH  12  13
ATOM     13  C   UNL     1    -116.913 -96.505  32.698  1.00  0.00    -0.003 C 
ATOM     14  C   UNL     1    -117.902 -97.295  31.845  1.00  0.00     0.004 C 
ENDBRANCH  12  13
ENDBRANCH  11  12
ENDBRANCH  10  11
ENDBRANCH   9  10
ENDBRANCH   1   9
TORSDOF 10
ENDMDL
MODEL 7
REMARK VINA RESULT:    -3.117      1.951      3.625
REMARK INTER + INTRA:          -5.527
REMARK INTER:                  -5.148
REMARK INTRA:                  -0.380
REMARK UNBOUND:                -0.587
REMARK SMILES CCCCCCCCCCCC(=O)[O-]
REMARK SMILES IDX 7 1 8 2 9 3 10 4 11 5 12 6 13 7 14 8 6 9 5 10 4 11 3 12 2 13
REMARK SMILES IDX 1 14
REMARK H PARENT
REMARK Flexibility Score: inf
ROOT
ATOM      1  C   UNL     1    -116.281 -98.684  42.416  1.00  0.00     0.000 C 
ENDROOT
BRANCH   1   2
ATOM      2  C   UNL     1    -117.539 -98.306  43.209  1.00  0.00     0.000 C 
BRANCH   2   3
ATOM      3  C   UNL     1    -117.601 -99.065  44.540  1.00  0.00     0.000 C 
BRANCH   3   4
ATOM      4  C   UNL     1    -118.707 -98.505  45.442  1.00  0.00     0.006 C 
BRANCH   4   5
ATOM      5  C   UNL     1    -118.180 -98.238  46.855  1.00  0.00     0.053 C 
BRANCH   5   6
ATOM      6  C   UNL     1    -118.205 -96.772  47.155  1.00  0.00     0.041 C 
ATOM      7  O   UNL     1    -117.854 -96.351  48.288  1.00  0.00    -0.550 OA
ATOM      8  O   UNL     1    -118.568 -95.867  46.165  1.00  0.00    -0.550 OA
ENDBRANCH   5   6
ENDBRANCH   4   5
ENDBRANCH   3   4
ENDBRANCH   2   3
ENDBRANCH   1   2
BRANCH   1   9
ATOM      9  C   UNL     1    -116.543 -99.767  41.357  1.00  0.00     0.000 C 
BRANCH   9  10
ATOM     10  C   UNL     1    -117.690 -99.418  40.385  1.00  0.00    -0.000 C 
BRANCH  10  11
ATOM     11  C   UNL     1    -117.482-100.036  38.995  1.00  0.00    -0.000 C 
BRANCH  11  12
ATOM     12  C   UNL     1    -116.786 -99.050  38.051  1.00  0.00    -0.000 C 
BRANCH  12  13
ATOM     13  C   UNL     1    -116.485 -99.703  36.697  1.00  0.00    -0.003 C 
ATOM     14  C   UNL     1    -115.521 -98.851  35.875  1.00  0.00     0.004 C 
ENDBRANCH  12  13
ENDBRANCH  11  12
ENDBRANCH  10  11
ENDBRANCH   9  10
ENDBRANCH   1   9
TORSDOF 10
ENDMDL
MODEL 8
REMARK VINA RESULT:    -2.535      6.102     10.094
REMARK INTER + INTRA:          -4.604
REMARK INTER:                  -4.182
REMARK INTRA:                  -0.422
REMARK UNBOUND:                -0.587
REMARK SMILES CCCCCCCCCCCC(=O)[O-]
REMARK SMILES IDX 7 1 8 2 9 3 10 4 11 5 12 6 13 7 14 8 6 9 5 10 4 11 3 12 2 13
REMARK SMILES IDX 1 14
REMARK H PARENT
REMARK Flexibility Score: inf
ROOT
ATOM      1  C   UNL     1    -116.890 -99.215  38.510  1.00  0.00     0.000 C 
ENDROOT
BRANCH   1   2
ATOM      2  C   UNL     1    -117.184-100.115  37.301  1.00  0.00     0.000 C 
BRANCH   2   3
ATOM      3  C   UNL     1    -116.095 -99.973  36.232  1.00  0.00     0.000 C 
BRANCH   3   4
ATOM      4  C   UNL     1    -116.118 -98.573  35.606  1.00  0.00     0.006 C 
BRANCH   4   5
ATOM      5  C   UNL     1    -115.724 -98.625  34.127  1.00  0.00     0.053 C 
BRANCH   5   6
ATOM      6  C   UNL     1    -116.494 -97.610  33.344  1.00  0.00     0.041 C 
ATOM      7  O   UNL     1    -117.467 -97.965  32.629  1.00  0.00    -0.550 OA
ATOM      8  O   UNL     1    -116.168 -96.263  33.443  1.00  0.00    -0.550 OA
ENDBRANCH   5   6
ENDBRANCH   4   5
ENDBRANCH   3   4
ENDBRANCH   2   3
ENDBRANCH   1   2
BRANCH   1   9
ATOM      9  C   UNL     1    -117.291 -99.859  39.847  1.00  0.00     0.000 C 
BRANCH   9  10
ATOM     10  C   UNL     1    -118.681 -99.419  40.355  1.00  0.00    -0.000 C 
BRANCH  10  11
ATOM     11  C   UNL     1    -118.780 -99.458  41.887  1.00  0.00    -0.000 C 
BRANCH  11  12
ATOM     12  C   UNL     1    -117.416 -99.757  42.519  1.00  0.00    -0.000 C 
BRANCH  12  13
ATOM     13  C   UNL     1    -117.231 -98.975  43.825  1.00  0.00    -0.003 C 
ATOM     14  C   UNL     1    -118.260 -97.855  43.947  1.00  0.00     0.004 C 
ENDBRANCH  12  13
ENDBRANCH  11  12
ENDBRANCH  10  11
ENDBRANCH   9  10
ENDBRANCH   1   9
TORSDOF 10
ENDMDL
MODEL 9
REMARK VINA RESULT:    -2.268      1.730      3.029
REMARK INTER + INTRA:          -4.181
REMARK INTER:                  -3.606
REMARK INTRA:                  -0.575
REMARK UNBOUND:                -0.587
REMARK SMILES CCCCCCCCCCCC(=O)[O-]
REMARK SMILES IDX 7 1 8 2 9 3 10 4 11 5 12 6 13 7 14 8 6 9 5 10 4 11 3 12 2 13
REMARK SMILES IDX 1 14
REMARK H PARENT
REMARK Flexibility Score: inf
ROOT
ATOM      1  C   UNL     1    -117.751 -99.986  43.319  1.00  0.00     0.000 C 
ENDROOT
BRANCH   1   2
ATOM      2  C   UNL     1    -119.080 -99.622  43.996  1.00  0.00     0.000 C 
BRANCH   2   3
ATOM      3  C   UNL     1    -118.897 -98.457  44.975  1.00  0.00     0.000 C 
BRANCH   3   4
ATOM      4  C   UNL     1    -119.078 -98.924  46.425  1.00  0.00     0.006 C 
BRANCH   4   5
ATOM      5  C   UNL     1    -117.796 -98.708  47.235  1.00  0.00     0.053 C 
BRANCH   5   6
ATOM      6  C   UNL     1    -118.014 -97.674  48.295  1.00  0.00     0.041 C 
ATOM      7  O   UNL     1    -117.218 -96.706  48.409  1.00  0.00    -0.550 OA
ATOM      8  O   UNL     1    -119.125 -97.754  49.125  1.00  0.00    -0.550 OA
ENDBRANCH   5   6
ENDBRANCH   4   5
ENDBRANCH   3   4
ENDBRANCH   2   3
ENDBRANCH   1   2
BRANCH   1   9
ATOM      9  C   UNL     1    -116.846 -98.766  43.080  1.00  0.00     0.000 C 
BRANCH   9  10
ATOM     10  C   UNL     1    -116.216 -98.729  41.671  1.00  0.00    -0.000 C 
BRANCH  10  11
ATOM     11  C   UNL     1    -117.275 -98.754  40.560  1.00  0.00    -0.000 C 
BRANCH  11  12
ATOM     12  C   UNL     1    -117.157-100.027  39.715  1.00  0.00    -0.000 C 
BRANCH  12  13
ATOM     13  C   UNL     1    -117.701 -99.801  38.299  1.00  0.00    -0.003 C 
ATOM     14  C   UNL     1    -116.567 -99.666  37.287  1.00  0.00     0.004 C 
ENDBRANCH  12  13
ENDBRANCH  11  12
ENDBRANCH  10  11
ENDBRANCH   9  10
ENDBRANCH   1   9
TORSDOF 10
ENDMDL
