MODEL 1
REMARK VINA RESULT:    33.623      0.000      0.000
REMARK INTER + INTRA:          41.572
REMARK INTER:                  41.486
REMARK INTRA:                   0.086
REMARK UNBOUND:                 0.086
REMARK SMILES Oc1cc(O)c2cc(O)c(-c3cc(O)c(O)c(O)c3)[o+]c2c1
REMARK SMILES IDX 10 1 20 2 21 3 22 4 2 5 3 6 4 7 6 8 7 9 8 10 11 11 12 12
REMARK SMILES IDX 13 13 19 14 15 15 17 16 14 17 16 19 18 21 9 23 1 25 5 27
REMARK H PARENT 14 18 16 20 18 22 9 24 1 26 5 28
REMARK Flexibility Score: inf
ROOT
ATOM      1  C   UNL     1     -37.249  24.524   6.860  1.00  0.00     0.402 A 
ATOM      2  O   UNL     1     -38.116  24.529   5.850  1.00  0.00    -0.202 OA
ATOM      3  C   UNL     1     -39.253  23.841   5.860  1.00  0.00     0.368 A 
ATOM      4  C   UNL     1     -40.098  23.907   4.749  1.00  0.00     0.162 A 
ATOM      5  C   UNL     1     -41.296  23.193   4.730  1.00  0.00     0.128 A 
ATOM      6  C   UNL     1     -41.654  22.405   5.829  1.00  0.00     0.093 A 
ATOM      7  C   UNL     1     -40.825  22.322   6.955  1.00  0.00     0.136 A 
ATOM      8  C   UNL     1     -39.606  23.048   6.978  1.00  0.00     0.125 A 
ATOM      9  C   UNL     1     -38.720  23.035   8.067  1.00  0.00     0.078 A 
ATOM     10  C   UNL     1     -37.539  23.781   8.020  1.00  0.00     0.223 A 
ENDROOT
BRANCH   1  11
ATOM     11  C   UNL     1     -36.011  25.324   6.725  1.00  0.00     0.091 A 
ATOM     12  C   UNL     1     -34.789  24.876   7.253  1.00  0.00     0.068 A 
ATOM     13  C   UNL     1     -33.622  25.638   7.095  1.00  0.00     0.162 A 
ATOM     14  C   UNL     1     -36.044  26.530   6.006  1.00  0.00     0.068 A 
ATOM     15  C   UNL     1     -33.670  26.855   6.394  1.00  0.00     0.200 A 
ATOM     16  C   UNL     1     -34.882  27.297   5.847  1.00  0.00     0.162 A 
BRANCH  13  17
ATOM     17  O   UNL     1     -32.416  25.187   7.628  1.00  0.00    -0.504 OA
ATOM     18  H   UNL     1     -32.151  24.210   7.593  1.00  0.00     0.293 HD
ENDBRANCH  13  17
BRANCH  15  19
ATOM     19  O   UNL     1     -32.525  27.632   6.228  1.00  0.00    -0.502 OA
ATOM     20  H   UNL     1     -31.913  27.527   5.427  1.00  0.00     0.293 HD
ENDBRANCH  15  19
BRANCH  16  21
ATOM     21  O   UNL     1     -34.923  28.500   5.146  1.00  0.00    -0.504 OA
ATOM     22  H   UNL     1     -35.696  28.730   4.531  1.00  0.00     0.293 HD
ENDBRANCH  16  21
ENDBRANCH   1  11
BRANCH  10  23
ATOM     23  O   UNL     1     -36.683  23.808   9.121  1.00  0.00    -0.500 OA
ATOM     24  H   UNL     1     -35.931  24.485   9.194  1.00  0.00     0.294 HD
ENDBRANCH  10  23
BRANCH   5  25
ATOM     25  O   UNL     1     -42.125  23.273   3.614  1.00  0.00    -0.507 OA
ATOM     26  H   UNL     1     -42.994  23.794   3.635  1.00  0.00     0.293 HD
ENDBRANCH   5  25
BRANCH   7  27
ATOM     27  O   UNL     1     -41.252  21.510   8.010  1.00  0.00    -0.507 OA
ATOM     28  H   UNL     1     -42.033  21.723   8.613  1.00  0.00     0.293 HD
ENDBRANCH   7  27
TORSDOF 7
ENDMDL
MODEL 2
REMARK VINA RESULT:    33.917      1.350      2.995
REMARK INTER + INTRA:          41.934
REMARK INTER:                  42.317
REMARK INTRA:                  -0.382
REMARK UNBOUND:                 0.086
REMARK SMILES Oc1cc(O)c2cc(O)c(-c3cc(O)c(O)c(O)c3)[o+]c2c1
REMARK SMILES IDX 10 1 20 2 21 3 22 4 2 5 3 6 4 7 6 8 7 9 8 10 11 11 12 12
REMARK SMILES IDX 13 13 19 14 15 15 17 16 14 17 16 19 18 21 9 23 1 25 5 27
REMARK H PARENT 14 18 16 20 18 22 9 24 1 26 5 28
REMARK Flexibility Score: inf
ROOT
ATOM      1  C   UNL     1     -36.986  24.526   6.215  1.00  0.00     0.402 A 
ATOM      2  O   UNL     1     -37.887  24.509   7.195  1.00  0.00    -0.202 OA
ATOM      3  C   UNL     1     -39.103  23.989   7.059  1.00  0.00     0.368 A 
ATOM      4  C   UNL     1     -39.981  24.020   8.145  1.00  0.00     0.162 A 
ATOM      5  C   UNL     1     -41.265  23.485   8.030  1.00  0.00     0.128 A 
ATOM      6  C   UNL     1     -41.675  22.915   6.821  1.00  0.00     0.093 A 
ATOM      7  C   UNL     1     -40.814  22.872   5.717  1.00  0.00     0.136 A 
ATOM      8  C   UNL     1     -39.508  23.413   5.831  1.00  0.00     0.125 A 
ATOM      9  C   UNL     1     -38.573  23.402   4.783  1.00  0.00     0.078 A 
ATOM     10  C   UNL     1     -37.301  23.950   4.971  1.00  0.00     0.223 A 
ENDROOT
BRANCH   1  11
ATOM     11  C   UNL     1     -35.668  25.144   6.488  1.00  0.00     0.091 A 
ATOM     12  C   UNL     1     -35.399  26.478   6.138  1.00  0.00     0.068 A 
ATOM     13  C   UNL     1     -34.152  27.052   6.424  1.00  0.00     0.162 A 
ATOM     14  C   UNL     1     -34.684  24.401   7.159  1.00  0.00     0.068 A 
ATOM     15  C   UNL     1     -33.165  26.293   7.076  1.00  0.00     0.200 A 
ATOM     16  C   UNL     1     -33.435  24.969   7.446  1.00  0.00     0.162 A 
BRANCH  13  17
ATOM     17  O   UNL     1     -33.892  28.374   6.068  1.00  0.00    -0.504 OA
ATOM     18  H   UNL     1     -34.566  29.112   6.236  1.00  0.00     0.293 HD
ENDBRANCH  13  17
BRANCH  15  19
ATOM     19  O   UNL     1     -31.916  26.840   7.367  1.00  0.00    -0.502 OA
ATOM     20  H   UNL     1     -31.735  27.341   8.229  1.00  0.00     0.293 HD
ENDBRANCH  15  19
BRANCH  16  21
ATOM     21  O   UNL     1     -32.457  24.223   8.100  1.00  0.00    -0.504 OA
ATOM     22  H   UNL     1     -32.170  23.311   7.762  1.00  0.00     0.293 HD
ENDBRANCH  16  21
ENDBRANCH   1  11
BRANCH  10  23
ATOM     23  O   UNL     1     -36.356  23.895   3.947  1.00  0.00    -0.500 OA
ATOM     24  H   UNL     1     -36.419  24.493   3.131  1.00  0.00     0.294 HD
ENDBRANCH  10  23
BRANCH   5  25
ATOM     25  O   UNL     1     -42.125  23.525   9.125  1.00  0.00    -0.507 OA
ATOM     26  H   UNL     1     -42.107  24.294   9.785  1.00  0.00     0.293 HD
ENDBRANCH   5  25
BRANCH   7  27
ATOM     27  O   UNL     1     -41.302  22.289   4.543  1.00  0.00    -0.507 OA
ATOM     28  H   UNL     1     -41.223  21.307   4.318  1.00  0.00     0.293 HD
ENDBRANCH   7  27
TORSDOF 7
ENDMDL
MODEL 3
REMARK VINA RESULT:    34.296      0.332      1.818
REMARK INTER + INTRA:          42.402
REMARK INTER:                  42.203
REMARK INTRA:                   0.199
REMARK UNBOUND:                 0.086
REMARK SMILES Oc1cc(O)c2cc(O)c(-c3cc(O)c(O)c(O)c3)[o+]c2c1
REMARK SMILES IDX 10 1 20 2 21 3 22 4 2 5 3 6 4 7 6 8 7 9 8 10 11 11 12 12
REMARK SMILES IDX 13 13 19 14 15 15 17 16 14 17 16 19 18 21 9 23 1 25 5 27
REMARK H PARENT 14 18 16 20 18 22 9 24 1 26 5 28
REMARK Flexibility Score: inf
ROOT
ATOM      1  C   UNL     1     -37.120  24.750   6.876  1.00  0.00     0.402 A 
ATOM      2  O   UNL     1     -38.039  24.691   5.915  1.00  0.00    -0.202 OA
ATOM      3  C   UNL     1     -39.149  23.967   6.011  1.00  0.00     0.368 A 
ATOM      4  C   UNL     1     -40.055  23.966   4.946  1.00  0.00     0.162 A 
ATOM      5  C   UNL     1     -41.227  23.214   5.018  1.00  0.00     0.128 A 
ATOM      6  C   UNL     1     -41.499  22.454   6.161  1.00  0.00     0.093 A 
ATOM      7  C   UNL     1     -40.607  22.438   7.241  1.00  0.00     0.136 A 
ATOM      8  C   UNL     1     -39.415  23.204   7.173  1.00  0.00     0.125 A 
ATOM      9  C   UNL     1     -38.471  23.258   8.212  1.00  0.00     0.078 A 
ATOM     10  C   UNL     1     -37.321  24.040   8.075  1.00  0.00     0.223 A 
ENDROOT
BRANCH   1  11
ATOM     11  C   UNL     1     -35.919  25.585   6.646  1.00  0.00     0.091 A 
ATOM     12  C   UNL     1     -35.988  26.778   5.908  1.00  0.00     0.068 A 
ATOM     13  C   UNL     1     -34.844  27.567   5.719  1.00  0.00     0.162 A 
ATOM     14  C   UNL     1     -34.696  25.209   7.223  1.00  0.00     0.068 A 
ATOM     15  C   UNL     1     -33.619  27.170   6.282  1.00  0.00     0.200 A 
ATOM     16  C   UNL     1     -33.549  25.992   7.037  1.00  0.00     0.162 A 
BRANCH  13  17
ATOM     17  O   UNL     1     -34.922  28.746   4.980  1.00  0.00    -0.504 OA
ATOM     18  H   UNL     1     -34.298  28.929   4.202  1.00  0.00     0.293 HD
ENDBRANCH  13  17
BRANCH  15  19
ATOM     19  O   UNL     1     -32.467  27.935   6.105  1.00  0.00    -0.502 OA
ATOM     20  H   UNL     1     -32.499  28.942   6.005  1.00  0.00     0.293 HD
ENDBRANCH  15  19
BRANCH  16  21
ATOM     21  O   UNL     1     -32.334  25.606   7.600  1.00  0.00    -0.504 OA
ATOM     22  H   UNL     1     -32.285  24.894   8.320  1.00  0.00     0.293 HD
ENDBRANCH  16  21
ENDBRANCH   1  11
BRANCH  10  23
ATOM     23  O   UNL     1     -36.408  24.134   9.125  1.00  0.00    -0.500 OA
ATOM     24  H   UNL     1     -35.595  24.736   9.071  1.00  0.00     0.294 HD
ENDBRANCH  10  23
BRANCH   5  25
ATOM     25  O   UNL     1     -42.117  23.227   3.947  1.00  0.00    -0.507 OA
ATOM     26  H   UNL     1     -41.875  23.660   3.063  1.00  0.00     0.293 HD
ENDBRANCH   5  25
BRANCH   7  27
ATOM     27  O   UNL     1     -40.949  21.650   8.345  1.00  0.00    -0.507 OA
ATOM     28  H   UNL     1     -40.749  21.895   9.304  1.00  0.00     0.293 HD
ENDBRANCH   7  27
TORSDOF 7
ENDMDL
MODEL 4
REMARK VINA RESULT:    34.383      1.292      2.395
REMARK INTER + INTRA:          42.510
REMARK INTER:                  42.864
REMARK INTRA:                  -0.354
REMARK UNBOUND:                 0.086
REMARK SMILES Oc1cc(O)c2cc(O)c(-c3cc(O)c(O)c(O)c3)[o+]c2c1
REMARK SMILES IDX 10 1 20 2 21 3 22 4 2 5 3 6 4 7 6 8 7 9 8 10 11 11 12 12
REMARK SMILES IDX 13 13 19 14 15 15 17 16 14 17 16 19 18 21 9 23 1 25 5 27
REMARK H PARENT 14 18 16 20 18 22 9 24 1 26 5 28
REMARK Flexibility Score: inf
ROOT
ATOM      1  C   UNL     1     -37.019  24.568   6.209  1.00  0.00     0.402 A 
ATOM      2  O   UNL     1     -37.918  24.524   7.190  1.00  0.00    -0.202 OA
ATOM      3  C   UNL     1     -39.120  23.972   7.055  1.00  0.00     0.368 A 
ATOM      4  C   UNL     1     -39.997  23.977   8.143  1.00  0.00     0.162 A 
ATOM      5  C   UNL     1     -41.265  23.408   8.029  1.00  0.00     0.128 A 
ATOM      6  C   UNL     1     -41.662  22.828   6.819  1.00  0.00     0.093 A 
ATOM      7  C   UNL     1     -40.802  22.810   5.714  1.00  0.00     0.136 A 
ATOM      8  C   UNL     1     -39.510  23.387   5.827  1.00  0.00     0.125 A 
ATOM      9  C   UNL     1     -38.578  23.403   4.777  1.00  0.00     0.078 A 
ATOM     10  C   UNL     1     -37.321  23.985   4.964  1.00  0.00     0.223 A 
ENDROOT
BRANCH   1  11
ATOM     11  C   UNL     1     -35.718  25.220   6.480  1.00  0.00     0.091 A 
ATOM     12  C   UNL     1     -34.684  24.541   7.145  1.00  0.00     0.068 A 
ATOM     13  C   UNL     1     -33.450  25.169   7.374  1.00  0.00     0.162 A 
ATOM     14  C   UNL     1     -35.490  26.525   6.015  1.00  0.00     0.068 A 
ATOM     15  C   UNL     1     -33.240  26.483   6.924  1.00  0.00     0.200 A 
ATOM     16  C   UNL     1     -34.261  27.158   6.242  1.00  0.00     0.162 A 
BRANCH  13  17
ATOM     17  O   UNL     1     -32.433  24.488   8.040  1.00  0.00    -0.504 OA
ATOM     18  H   UNL     1     -32.632  23.740   8.693  1.00  0.00     0.293 HD
ENDBRANCH  13  17
BRANCH  15  19
ATOM     19  O   UNL     1     -32.024  27.130   7.143  1.00  0.00    -0.502 OA
ATOM     20  H   UNL     1     -31.613  27.206   8.065  1.00  0.00     0.293 HD
ENDBRANCH  15  19
BRANCH  16  21
ATOM     21  O   UNL     1     -34.045  28.459   5.790  1.00  0.00    -0.504 OA
ATOM     22  H   UNL     1     -34.729  28.942   5.219  1.00  0.00     0.293 HD
ENDBRANCH  16  21
ENDBRANCH   1  11
BRANCH  10  23
ATOM     23  O   UNL     1     -36.376  23.957   3.939  1.00  0.00    -0.500 OA
ATOM     24  H   UNL     1     -36.587  23.559   3.031  1.00  0.00     0.294 HD
ENDBRANCH  10  23
BRANCH   5  25
ATOM     25  O   UNL     1     -42.125  23.423   9.125  1.00  0.00    -0.507 OA
ATOM     26  H   UNL     1     -42.054  22.732   9.863  1.00  0.00     0.293 HD
ENDBRANCH   5  25
BRANCH   7  27
ATOM     27  O   UNL     1     -41.275  22.216   4.540  1.00  0.00    -0.507 OA
ATOM     28  H   UNL     1     -41.128  22.589   3.613  1.00  0.00     0.293 HD
ENDBRANCH   7  27
TORSDOF 7
ENDMDL
MODEL 5
REMARK VINA RESULT:    35.618      1.599      7.359
REMARK INTER + INTRA:          44.033
REMARK INTER:                  44.309
REMARK INTRA:                  -0.276
REMARK UNBOUND:                 0.086
REMARK SMILES Oc1cc(O)c2cc(O)c(-c3cc(O)c(O)c(O)c3)[o+]c2c1
REMARK SMILES IDX 10 1 20 2 21 3 22 4 2 5 3 6 4 7 6 8 7 9 8 10 11 11 12 12
REMARK SMILES IDX 13 13 19 14 15 15 17 16 14 17 16 19 18 21 9 23 1 25 5 27
REMARK H PARENT 14 18 16 20 18 22 9 24 1 26 5 28
REMARK Flexibility Score: inf
ROOT
ATOM      1  C   UNL     1     -38.332  24.764   7.379  1.00  0.00     0.402 A 
ATOM      2  O   UNL     1     -37.048  24.450   7.227  1.00  0.00    -0.202 OA
ATOM      3  C   UNL     1     -36.066  25.344   7.280  1.00  0.00     0.368 A 
ATOM      4  C   UNL     1     -34.747  24.917   7.105  1.00  0.00     0.162 A 
ATOM      5  C   UNL     1     -33.697  25.835   7.153  1.00  0.00     0.128 A 
ATOM      6  C   UNL     1     -33.965  27.189   7.376  1.00  0.00     0.093 A 
ATOM      7  C   UNL     1     -35.278  27.642   7.554  1.00  0.00     0.136 A 
ATOM      8  C   UNL     1     -36.349  26.712   7.509  1.00  0.00     0.125 A 
ATOM      9  C   UNL     1     -37.694  27.073   7.689  1.00  0.00     0.078 A 
ATOM     10  C   UNL     1     -38.695  26.099   7.636  1.00  0.00     0.223 A 
ENDROOT
BRANCH   1  11
ATOM     11  C   UNL     1     -39.334  23.678   7.288  1.00  0.00     0.091 A 
ATOM     12  C   UNL     1     -40.268  23.630   6.240  1.00  0.00     0.068 A 
ATOM     13  C   UNL     1     -41.195  22.581   6.159  1.00  0.00     0.162 A 
ATOM     14  C   UNL     1     -39.318  22.643   8.237  1.00  0.00     0.068 A 
ATOM     15  C   UNL     1     -41.186  21.562   7.126  1.00  0.00     0.200 A 
ATOM     16  C   UNL     1     -40.243  21.593   8.162  1.00  0.00     0.162 A 
BRANCH  13  17
ATOM     17  O   UNL     1     -42.121  22.546   5.118  1.00  0.00    -0.504 OA
ATOM     18  H   UNL     1     -42.461  21.670   4.737  1.00  0.00     0.293 HD
ENDBRANCH  13  17
BRANCH  15  19
ATOM     19  O   UNL     1     -42.100  20.511   7.069  1.00  0.00    -0.502 OA
ATOM     20  H   UNL     1     -42.310  19.935   7.876  1.00  0.00     0.293 HD
ENDBRANCH  15  19
BRANCH  16  21
ATOM     21  O   UNL     1     -40.232  20.576   9.115  1.00  0.00    -0.504 OA
ATOM     22  H   UNL     1     -40.662  20.696  10.024  1.00  0.00     0.293 HD
ENDBRANCH  16  21
ENDBRANCH   1  11
BRANCH  10  23
ATOM     23  O   UNL     1     -40.025  26.449   7.865  1.00  0.00    -0.500 OA
ATOM     24  H   UNL     1     -40.397  26.547   8.803  1.00  0.00     0.294 HD
ENDBRANCH  10  23
BRANCH   5  25
ATOM     25  O   UNL     1     -32.389  25.389   6.977  1.00  0.00    -0.507 OA
ATOM     26  H   UNL     1     -31.770  25.239   7.765  1.00  0.00     0.293 HD
ENDBRANCH   5  25
BRANCH   7  27
ATOM     27  O   UNL     1     -35.463  29.012   7.768  1.00  0.00    -0.507 OA
ATOM     28  H   UNL     1     -34.850  29.589   8.327  1.00  0.00     0.293 HD
ENDBRANCH   7  27
TORSDOF 7
ENDMDL
