MODEL 1
REMARK VINA RESULT:    -4.939      0.000      0.000
REMARK INTER + INTRA:          -8.273
REMARK INTER:                  -7.826
REMARK INTRA:                  -0.447
REMARK UNBOUND:                -0.447
REMARK SMILES CCCCCCCCCCCC(=O)[O-]
REMARK SMILES IDX 7 1 8 2 9 3 10 4 11 5 12 6 13 7 14 8 6 9 5 10 4 11 3 12 2 13
REMARK SMILES IDX 1 14
REMARK H PARENT
REMARK Flexibility Score: inf
ROOT
ATOM      1  C   UNL     1      -3.746  37.139  19.654  1.00  0.00     0.000 C 
ENDROOT
BRANCH   1   2
ATOM      2  C   UNL     1      -4.830  37.712  20.585  1.00  0.00     0.000 C 
BRANCH   2   3
ATOM      3  C   UNL     1      -5.566  36.621  21.378  1.00  0.00     0.000 C 
BRANCH   3   4
ATOM      4  C   UNL     1      -5.070  36.507  22.827  1.00  0.00     0.006 C 
BRANCH   4   5
ATOM      5  C   UNL     1      -5.834  37.467  23.744  1.00  0.00     0.053 C 
BRANCH   5   6
ATOM      6  C   UNL     1      -4.887  38.395  24.436  1.00  0.00     0.041 C 
ATOM      7  O   UNL     1      -4.312  38.037  25.498  1.00  0.00    -0.550 OA
ATOM      8  O   UNL     1      -4.676  39.674  23.937  1.00  0.00    -0.550 OA
ENDBRANCH   5   6
ENDBRANCH   4   5
ENDBRANCH   3   4
ENDBRANCH   2   3
ENDBRANCH   1   2
BRANCH   1   9
ATOM      9  C   UNL     1      -3.363  38.126  18.530  1.00  0.00     0.000 C 
BRANCH   9  10
ATOM     10  C   UNL     1      -2.029  37.791  17.841  1.00  0.00    -0.000 C 
BRANCH  10  11
ATOM     11  C   UNL     1      -2.187  36.779  16.695  1.00  0.00    -0.000 C 
BRANCH  11  12
ATOM     12  C   UNL     1      -2.011  37.425  15.311  1.00  0.00    -0.000 C 
BRANCH  12  13
ATOM     13  C   UNL     1      -3.323  37.492  14.517  1.00  0.00    -0.003 C 
ATOM     14  C   UNL     1      -3.727  38.939  14.246  1.00  0.00     0.004 C 
ENDBRANCH  12  13
ENDBRANCH  11  12
ENDBRANCH  10  11
ENDBRANCH   9  10
ENDBRANCH   1   9
TORSDOF 10
ENDMDL
MODEL 2
REMARK VINA RESULT:    -4.868      0.779      1.403
REMARK INTER + INTRA:          -8.161
REMARK INTER:                  -7.686
REMARK INTRA:                  -0.475
REMARK UNBOUND:                -0.447
REMARK SMILES CCCCCCCCCCCC(=O)[O-]
REMARK SMILES IDX 7 1 8 2 9 3 10 4 11 5 12 6 13 7 14 8 6 9 5 10 4 11 3 12 2 13
REMARK SMILES IDX 1 14
REMARK H PARENT
REMARK Flexibility Score: inf
ROOT
ATOM      1  C   UNL     1      -4.568  38.122  20.329  1.00  0.00     0.000 C 
ENDROOT
BRANCH   1   2
ATOM      2  C   UNL     1      -5.353  36.866  20.748  1.00  0.00     0.000 C 
BRANCH   2   3
ATOM      3  C   UNL     1      -4.926  36.331  22.124  1.00  0.00     0.000 C 
BRANCH   3   4
ATOM      4  C   UNL     1      -5.824  36.840  23.261  1.00  0.00     0.006 C 
BRANCH   4   5
ATOM      5  C   UNL     1      -5.019  37.029  24.551  1.00  0.00     0.053 C 
BRANCH   5   6
ATOM      6  C   UNL     1      -5.006  38.469  24.954  1.00  0.00     0.041 C 
ATOM      7  O   UNL     1      -4.651  39.354  24.132  1.00  0.00    -0.550 OA
ATOM      8  O   UNL     1      -5.339  38.830  26.254  1.00  0.00    -0.550 OA
ENDBRANCH   5   6
ENDBRANCH   4   5
ENDBRANCH   3   4
ENDBRANCH   2   3
ENDBRANCH   1   2
BRANCH   1   9
ATOM      9  C   UNL     1      -3.851  37.934  18.975  1.00  0.00     0.000 C 
BRANCH   9  10
ATOM     10  C   UNL     1      -2.333  38.180  19.040  1.00  0.00    -0.000 C 
BRANCH  10  11
ATOM     11  C   UNL     1      -1.612  37.809  17.735  1.00  0.00    -0.000 C 
BRANCH  11  12
ATOM     12  C   UNL     1      -2.532  37.088  16.737  1.00  0.00    -0.000 C 
BRANCH  12  13
ATOM     13  C   UNL     1      -2.151  37.362  15.275  1.00  0.00    -0.003 C 
ATOM     14  C   UNL     1      -3.369  37.793  14.462  1.00  0.00     0.004 C 
ENDBRANCH  12  13
ENDBRANCH  11  12
ENDBRANCH  10  11
ENDBRANCH   9  10
ENDBRANCH   1   9
TORSDOF 10
ENDMDL
MODEL 3
REMARK VINA RESULT:    -4.833      3.646      7.189
REMARK INTER + INTRA:          -8.105
REMARK INTER:                  -7.233
REMARK INTRA:                  -0.872
REMARK UNBOUND:                -0.447
REMARK SMILES CCCCCCCCCCCC(=O)[O-]
REMARK SMILES IDX 7 1 8 2 9 3 10 4 11 5 12 6 13 7 14 8 6 9 5 10 4 11 3 12 2 13
REMARK SMILES IDX 1 14
REMARK H PARENT
REMARK Flexibility Score: inf
ROOT
ATOM      1  C   UNL     1      -4.644  36.376  22.040  1.00  0.00     0.000 C 
ENDROOT
BRANCH   1   2
ATOM      2  C   UNL     1      -5.299  36.761  20.701  1.00  0.00     0.000 C 
BRANCH   2   3
ATOM      3  C   UNL     1      -4.442  37.738  19.881  1.00  0.00     0.000 C 
BRANCH   3   4
ATOM      4  C   UNL     1      -3.500  37.022  18.902  1.00  0.00     0.006 C 
BRANCH   4   5
ATOM      5  C   UNL     1      -2.574  38.023  18.205  1.00  0.00     0.053 C 
BRANCH   5   6
ATOM      6  C   UNL     1      -2.388  37.651  16.768  1.00  0.00     0.041 C 
ATOM      7  O   UNL     1      -1.604  36.718  16.451  1.00  0.00    -0.550 OA
ATOM      8  O   UNL     1      -3.043  38.367  15.773  1.00  0.00    -0.550 OA
ENDBRANCH   5   6
ENDBRANCH   4   5
ENDBRANCH   3   4
ENDBRANCH   2   3
ENDBRANCH   1   2
BRANCH   1   9
ATOM      9  C   UNL     1      -5.653  35.736  23.018  1.00  0.00     0.000 C 
BRANCH   9  10
ATOM     10  C   UNL     1      -6.110  36.684  24.141  1.00  0.00    -0.000 C 
BRANCH  10  11
ATOM     11  C   UNL     1      -4.949  37.478  24.761  1.00  0.00    -0.000 C 
BRANCH  11  12
ATOM     12  C   UNL     1      -5.192  38.996  24.732  1.00  0.00    -0.000 C 
BRANCH  12  13
ATOM     13  C   UNL     1      -4.404  39.701  23.619  1.00  0.00    -0.003 C 
ATOM     14  C   UNL     1      -5.318  40.086  22.458  1.00  0.00     0.004 C 
ENDBRANCH  12  13
ENDBRANCH  11  12
ENDBRANCH  10  11
ENDBRANCH   9  10
ENDBRANCH   1   9
TORSDOF 10
ENDMDL
MODEL 4
REMARK VINA RESULT:    -4.724      1.514      2.478
REMARK INTER + INTRA:          -7.932
REMARK INTER:                  -7.176
REMARK INTRA:                  -0.756
REMARK UNBOUND:                -0.447
REMARK SMILES CCCCCCCCCCCC(=O)[O-]
REMARK SMILES IDX 7 1 8 2 9 3 10 4 11 5 12 6 13 7 14 8 6 9 5 10 4 11 3 12 2 13
REMARK SMILES IDX 1 14
REMARK H PARENT
REMARK Flexibility Score: inf
ROOT
ATOM      1  C   UNL     1      -4.900  37.242  20.448  1.00  0.00     0.000 C 
ENDROOT
BRANCH   1   2
ATOM      2  C   UNL     1      -5.779  36.566  21.517  1.00  0.00     0.000 C 
BRANCH   2   3
ATOM      3  C   UNL     1      -4.971  36.084  22.731  1.00  0.00     0.000 C 
BRANCH   3   4
ATOM      4  C   UNL     1      -5.712  36.300  24.059  1.00  0.00     0.006 C 
BRANCH   4   5
ATOM      5  C   UNL     1      -6.095  37.773  24.238  1.00  0.00     0.053 C 
BRANCH   5   6
ATOM      6  C   UNL     1      -4.911  38.571  24.686  1.00  0.00     0.041 C 
ATOM      7  O   UNL     1      -4.535  39.572  24.021  1.00  0.00    -0.550 OA
ATOM      8  O   UNL     1      -4.193  38.180  25.809  1.00  0.00    -0.550 OA
ENDBRANCH   5   6
ENDBRANCH   4   5
ENDBRANCH   3   4
ENDBRANCH   2   3
ENDBRANCH   1   2
BRANCH   1   9
ATOM      9  C   UNL     1      -3.934  36.244  19.774  1.00  0.00     0.000 C 
BRANCH   9  10
ATOM     10  C   UNL     1      -4.333  35.875  18.335  1.00  0.00    -0.000 C 
BRANCH  10  11
ATOM     11  C   UNL     1      -3.261  36.254  17.302  1.00  0.00    -0.000 C 
BRANCH  11  12
ATOM     12  C   UNL     1      -2.840  37.729  17.404  1.00  0.00    -0.000 C 
BRANCH  12  13
ATOM     13  C   UNL     1      -1.329  37.901  17.614  1.00  0.00    -0.003 C 
ATOM     14  C   UNL     1      -1.028  38.468  18.999  1.00  0.00     0.004 C 
ENDBRANCH  12  13
ENDBRANCH  11  12
ENDBRANCH  10  11
ENDBRANCH   9  10
ENDBRANCH   1   9
TORSDOF 10
ENDMDL
MODEL 5
REMARK VINA RESULT:    -4.696      3.876      7.599
REMARK INTER + INTRA:          -7.889
REMARK INTER:                  -7.180
REMARK INTRA:                  -0.709
REMARK UNBOUND:                -0.447
REMARK SMILES CCCCCCCCCCCC(=O)[O-]
REMARK SMILES IDX 7 1 8 2 9 3 10 4 11 5 12 6 13 7 14 8 6 9 5 10 4 11 3 12 2 13
REMARK SMILES IDX 1 14
REMARK H PARENT
REMARK Flexibility Score: inf
ROOT
ATOM      1  C   UNL     1      -4.478  38.115  20.282  1.00  0.00     0.000 C 
ENDROOT
BRANCH   1   2
ATOM      2  C   UNL     1      -3.883  38.152  18.863  1.00  0.00     0.000 C 
BRANCH   2   3
ATOM      3  C   UNL     1      -2.348  38.231  18.865  1.00  0.00     0.000 C 
BRANCH   3   4
ATOM      4  C   UNL     1      -1.720  37.573  17.628  1.00  0.00     0.006 C 
BRANCH   4   5
ATOM      5  C   UNL     1      -2.801  37.028  16.690  1.00  0.00     0.053 C 
BRANCH   5   6
ATOM      6  C   UNL     1      -2.616  37.571  15.308  1.00  0.00     0.041 C 
ATOM      7  O   UNL     1      -1.650  37.184  14.599  1.00  0.00    -0.550 OA
ATOM      8  O   UNL     1      -3.483  38.541  14.820  1.00  0.00    -0.550 OA
ENDBRANCH   5   6
ENDBRANCH   4   5
ENDBRANCH   3   4
ENDBRANCH   2   3
ENDBRANCH   1   2
BRANCH   1   9
ATOM      9  C   UNL     1      -4.456  36.694  20.885  1.00  0.00     0.000 C 
BRANCH   9  10
ATOM     10  C   UNL     1      -5.737  36.330  21.655  1.00  0.00    -0.000 C 
BRANCH  10  11
ATOM     11  C   UNL     1      -5.521  36.258  23.175  1.00  0.00    -0.000 C 
BRANCH  11  12
ATOM     12  C   UNL     1      -6.125  37.463  23.914  1.00  0.00    -0.000 C 
BRANCH  12  13
ATOM     13  C   UNL     1      -5.069  38.289  24.662  1.00  0.00    -0.003 C 
ATOM     14  C   UNL     1      -4.611  39.481  23.826  1.00  0.00     0.004 C 
ENDBRANCH  12  13
ENDBRANCH  11  12
ENDBRANCH  10  11
ENDBRANCH   9  10
ENDBRANCH   1   9
TORSDOF 10
ENDMDL
MODEL 6
REMARK VINA RESULT:    -4.657      2.144      3.302
REMARK INTER + INTRA:          -7.826
REMARK INTER:                  -6.969
REMARK INTRA:                  -0.857
REMARK UNBOUND:                -0.447
REMARK SMILES CCCCCCCCCCCC(=O)[O-]
REMARK SMILES IDX 7 1 8 2 9 3 10 4 11 5 12 6 13 7 14 8 6 9 5 10 4 11 3 12 2 13
REMARK SMILES IDX 1 14
REMARK H PARENT
REMARK Flexibility Score: inf
ROOT
ATOM      1  C   UNL     1      -4.683  36.228  22.191  1.00  0.00     0.000 C 
ENDROOT
BRANCH   1   2
ATOM      2  C   UNL     1      -5.539  35.942  23.439  1.00  0.00     0.000 C 
BRANCH   2   3
ATOM      3  C   UNL     1      -5.294  36.952  24.570  1.00  0.00     0.000 C 
BRANCH   3   4
ATOM      4  C   UNL     1      -6.060  38.267  24.367  1.00  0.00     0.006 C 
BRANCH   4   5
ATOM      5  C   UNL     1      -5.097  39.456  24.298  1.00  0.00     0.053 C 
BRANCH   5   6
ATOM      6  C   UNL     1      -4.866  39.861  22.877  1.00  0.00     0.041 C 
ATOM      7  O   UNL     1      -3.723  39.742  22.362  1.00  0.00    -0.550 OA
ATOM      8  O   UNL     1      -5.901  40.418  22.135  1.00  0.00    -0.550 OA
ENDBRANCH   5   6
ENDBRANCH   4   5
ENDBRANCH   3   4
ENDBRANCH   2   3
ENDBRANCH   1   2
BRANCH   1   9
ATOM      9  C   UNL     1      -5.535  36.719  21.001  1.00  0.00     0.000 C 
BRANCH   9  10
ATOM     10  C   UNL     1      -4.714  37.402  19.894  1.00  0.00    -0.000 C 
BRANCH  10  11
ATOM     11  C   UNL     1      -3.771  36.431  19.166  1.00  0.00    -0.000 C 
BRANCH  11  12
ATOM     12  C   UNL     1      -3.007  37.104  18.014  1.00  0.00    -0.000 C 
BRANCH  12  13
ATOM     13  C   UNL     1      -2.291  38.391  18.449  1.00  0.00    -0.003 C 
ATOM     14  C   UNL     1      -0.814  38.129  18.732  1.00  0.00     0.004 C 
ENDBRANCH  12  13
ENDBRANCH  11  12
ENDBRANCH  10  11
ENDBRANCH   9  10
ENDBRANCH   1   9
TORSDOF 10
ENDMDL
MODEL 7
REMARK VINA RESULT:    -4.413      3.296      7.126
REMARK INTER + INTRA:          -7.439
REMARK INTER:                  -6.618
REMARK INTRA:                  -0.821
REMARK UNBOUND:                -0.447
REMARK SMILES CCCCCCCCCCCC(=O)[O-]
REMARK SMILES IDX 7 1 8 2 9 3 10 4 11 5 12 6 13 7 14 8 6 9 5 10 4 11 3 12 2 13
REMARK SMILES IDX 1 14
REMARK H PARENT
REMARK Flexibility Score: inf
ROOT
ATOM      1  C   UNL     1      -4.968  37.242  21.170  1.00  0.00     0.000 C 
ENDROOT
BRANCH   1   2
ATOM      2  C   UNL     1      -4.035  36.315  20.370  1.00  0.00     0.000 C 
BRANCH   2   3
ATOM      3  C   UNL     1      -4.567  36.011  18.961  1.00  0.00     0.000 C 
BRANCH   3   4
ATOM      4  C   UNL     1      -3.558  36.365  17.858  1.00  0.00     0.006 C 
BRANCH   4   5
ATOM      5  C   UNL     1      -3.039  37.796  18.030  1.00  0.00     0.053 C 
BRANCH   5   6
ATOM      6  C   UNL     1      -1.582  37.867  17.697  1.00  0.00     0.041 C 
ATOM      7  O   UNL     1      -1.186  37.616  16.529  1.00  0.00    -0.550 OA
ATOM      8  O   UNL     1      -0.656  38.165  18.689  1.00  0.00    -0.550 OA
ENDBRANCH   5   6
ENDBRANCH   4   5
ENDBRANCH   3   4
ENDBRANCH   2   3
ENDBRANCH   1   2
BRANCH   1   9
ATOM      9  C   UNL     1      -4.338  38.629  21.419  1.00  0.00     0.000 C 
BRANCH   9  10
ATOM     10  C   UNL     1      -5.338  39.677  21.936  1.00  0.00    -0.000 C 
BRANCH  10  11
ATOM     11  C   UNL     1      -5.741  39.446  23.401  1.00  0.00    -0.000 C 
BRANCH  11  12
ATOM     12  C   UNL     1      -4.533  39.148  24.304  1.00  0.00    -0.000 C 
BRANCH  12  13
ATOM     13  C   UNL     1      -4.861  38.142  25.418  1.00  0.00    -0.003 C 
ATOM     14  C   UNL     1      -5.367  36.825  24.837  1.00  0.00     0.004 C 
ENDBRANCH  12  13
ENDBRANCH  11  12
ENDBRANCH  10  11
ENDBRANCH   9  10
ENDBRANCH   1   9
TORSDOF 10
ENDMDL
MODEL 8
REMARK VINA RESULT:    -4.345      4.013      7.773
REMARK INTER + INTRA:          -7.333
REMARK INTER:                  -6.789
REMARK INTRA:                  -0.543
REMARK UNBOUND:                -0.447
REMARK SMILES CCCCCCCCCCCC(=O)[O-]
REMARK SMILES IDX 7 1 8 2 9 3 10 4 11 5 12 6 13 7 14 8 6 9 5 10 4 11 3 12 2 13
REMARK SMILES IDX 1 14
REMARK H PARENT
REMARK Flexibility Score: inf
ROOT
ATOM      1  C   UNL     1      -4.243  36.938  20.438  1.00  0.00     0.000 C 
ENDROOT
BRANCH   1   2
ATOM      2  C   UNL     1      -3.800  37.604  19.123  1.00  0.00     0.000 C 
BRANCH   2   3
ATOM      3  C   UNL     1      -3.651  36.599  17.970  1.00  0.00     0.000 C 
BRANCH   3   4
ATOM      4  C   UNL     1      -2.437  36.895  17.079  1.00  0.00     0.006 C 
BRANCH   4   5
ATOM      5  C   UNL     1      -2.544  38.290  16.455  1.00  0.00     0.053 C 
BRANCH   5   6
ATOM      6  C   UNL     1      -3.144  38.208  15.088  1.00  0.00     0.041 C 
ATOM      7  O   UNL     1      -3.733  39.206  14.594  1.00  0.00    -0.550 OA
ATOM      8  O   UNL     1      -3.097  37.015  14.378  1.00  0.00    -0.550 OA
ENDBRANCH   5   6
ENDBRANCH   4   5
ENDBRANCH   3   4
ENDBRANCH   2   3
ENDBRANCH   1   2
BRANCH   1   9
ATOM      9  C   UNL     1      -5.087  37.888  21.315  1.00  0.00     0.000 C 
BRANCH   9  10
ATOM     10  C   UNL     1      -4.331  39.153  21.759  1.00  0.00    -0.000 C 
BRANCH  10  11
ATOM     11  C   UNL     1      -4.540  39.482  23.246  1.00  0.00    -0.000 C 
BRANCH  11  12
ATOM     12  C   UNL     1      -5.725  38.719  23.858  1.00  0.00    -0.000 C 
BRANCH  12  13
ATOM     13  C   UNL     1      -5.289  37.708  24.929  1.00  0.00    -0.003 C 
ATOM     14  C   UNL     1      -5.890  36.330  24.660  1.00  0.00     0.004 C 
ENDBRANCH  12  13
ENDBRANCH  11  12
ENDBRANCH  10  11
ENDBRANCH   9  10
ENDBRANCH   1   9
TORSDOF 10
ENDMDL
