MODEL 1
REMARK VINA RESULT:    -4.568      0.000      0.000
REMARK INTER + INTRA:          -4.835
REMARK INTER:                  -4.835
REMARK INTRA:                   0.000
REMARK UNBOUND:                 0.000
REMARK SMILES O=c1ccc2cc(O)c(O)cc2o1
REMARK SMILES IDX 4 1 3 2 2 3 1 4 13 5 12 6 11 7 9 8 7 9 6 10 5 11 8 12 10 14
REMARK H PARENT 8 13 10 15
REMARK Flexibility Score: inf
ROOT
ATOM      1  C   UNL     1      19.788  -8.250  25.603  1.00  0.00     0.019 A 
ATOM      2  C   UNL     1      18.399  -8.360  25.677  1.00  0.00     0.094 A 
ATOM      3  C   UNL     1      17.706  -8.929  24.604  1.00  0.00     0.336 A 
ATOM      4  O   UNL     1      16.453  -9.036  24.650  1.00  0.00    -0.246 OA
ATOM      5  O   UNL     1      18.364  -9.359  23.529  1.00  0.00    -0.423 OA
ATOM      6  C   UNL     1      19.687  -9.274  23.419  1.00  0.00     0.142 A 
ATOM      7  C   UNL     1      20.325  -9.743  22.266  1.00  0.00     0.098 A 
ATOM      8  C   UNL     1      21.718  -9.656  22.143  1.00  0.00     0.161 A 
ATOM      9  C   UNL     1      22.481  -9.095  23.185  1.00  0.00     0.158 A 
ATOM     10  C   UNL     1      21.846  -8.623  24.340  1.00  0.00     0.062 A 
ATOM     11  C   UNL     1      20.453  -8.711  24.462  1.00  0.00     0.022 A 
ENDROOT
BRANCH   9  12
ATOM     12  O   UNL     1      23.869  -8.996  23.088  1.00  0.00    -0.504 OA
ATOM     13  H   UNL     1      24.392  -9.466  22.360  1.00  0.00     0.293 HD
ENDBRANCH   9  12
BRANCH   8  14
ATOM     14  O   UNL     1      22.350 -10.125  20.993  1.00  0.00    -0.504 OA
ATOM     15  H   UNL     1      23.358 -10.235  20.948  1.00  0.00     0.293 HD
ENDBRANCH   8  14
TORSDOF 2
ENDMDL
MODEL 2
REMARK VINA RESULT:    -4.543      2.764      4.340
REMARK INTER + INTRA:          -4.808
REMARK INTER:                  -4.808
REMARK INTRA:                   0.000
REMARK UNBOUND:                 0.000
REMARK SMILES O=c1ccc2cc(O)c(O)cc2o1
REMARK SMILES IDX 4 1 3 2 2 3 1 4 13 5 12 6 11 7 9 8 7 9 6 10 5 11 8 12 10 14
REMARK H PARENT 8 13 10 15
REMARK Flexibility Score: inf
ROOT
ATOM      1  C   UNL     1      22.183  -9.415  20.986  1.00  0.00     0.019 A 
ATOM      2  C   UNL     1      21.652  -8.644  19.952  1.00  0.00     0.094 A 
ATOM      3  C   UNL     1      20.898  -7.510  20.269  1.00  0.00     0.336 A 
ATOM      4  O   UNL     1      20.409  -6.803  19.351  1.00  0.00    -0.246 OA
ATOM      5  O   UNL     1      20.691  -7.173  21.541  1.00  0.00    -0.423 OA
ATOM      6  C   UNL     1      21.180  -7.879  22.557  1.00  0.00     0.142 A 
ATOM      7  C   UNL     1      20.930  -7.477  23.873  1.00  0.00     0.098 A 
ATOM      8  C   UNL     1      21.442  -8.217  24.948  1.00  0.00     0.161 A 
ATOM      9  C   UNL     1      22.211  -9.371  24.703  1.00  0.00     0.158 A 
ATOM     10  C   UNL     1      22.462  -9.777  23.387  1.00  0.00     0.062 A 
ATOM     11  C   UNL     1      21.950  -9.037  22.313  1.00  0.00     0.022 A 
ENDROOT
BRANCH   9  12
ATOM     12  O   UNL     1      22.732 -10.125  25.754  1.00  0.00    -0.504 OA
ATOM     13  H   UNL     1      22.151 -10.468  26.509  1.00  0.00     0.293 HD
ENDBRANCH   9  12
BRANCH   8  14
ATOM     14  O   UNL     1      21.192  -7.813  26.258  1.00  0.00    -0.504 OA
ATOM     15  H   UNL     1      21.016  -8.485  26.996  1.00  0.00     0.293 HD
ENDBRANCH   8  14
TORSDOF 2
ENDMDL
MODEL 3
REMARK VINA RESULT:    -4.536     11.758     12.377
REMARK INTER + INTRA:          -4.801
REMARK INTER:                  -4.801
REMARK INTRA:                   0.000
REMARK UNBOUND:                 0.000
REMARK SMILES O=c1ccc2cc(O)c(O)cc2o1
REMARK SMILES IDX 4 1 3 2 2 3 1 4 13 5 12 6 11 7 9 8 7 9 6 10 5 11 8 12 10 14
REMARK H PARENT 8 13 10 15
REMARK Flexibility Score: inf
ROOT
ATOM      1  C   UNL     1      21.443  -0.723  13.863  1.00  0.00     0.019 A 
ATOM      2  C   UNL     1      20.813  -1.625  13.007  1.00  0.00     0.094 A 
ATOM      3  C   UNL     1      21.375  -2.892  12.823  1.00  0.00     0.336 A 
ATOM      4  O   UNL     1      20.822  -3.720  12.054  1.00  0.00    -0.246 OA
ATOM      5  O   UNL     1      22.495  -3.230  13.459  1.00  0.00    -0.423 OA
ATOM      6  C   UNL     1      23.128  -2.401  14.284  1.00  0.00     0.142 A 
ATOM      7  C   UNL     1      24.302  -2.810  14.925  1.00  0.00     0.098 A 
ATOM      8  C   UNL     1      24.973  -1.941  15.796  1.00  0.00     0.161 A 
ATOM      9  C   UNL     1      24.464  -0.649  16.029  1.00  0.00     0.158 A 
ATOM     10  C   UNL     1      23.289  -0.236  15.388  1.00  0.00     0.062 A 
ATOM     11  C   UNL     1      22.619  -1.105  14.518  1.00  0.00     0.022 A 
ENDROOT
BRANCH   9  12
ATOM     12  O   UNL     1      25.111   0.235  16.890  1.00  0.00    -0.504 OA
ATOM     13  H   UNL     1      26.062   0.082  17.204  1.00  0.00     0.293 HD
ENDBRANCH   9  12
BRANCH   8  14
ATOM     14  O   UNL     1      26.142  -2.353  16.433  1.00  0.00    -0.504 OA
ATOM     15  H   UNL     1      26.129  -3.057  17.162  1.00  0.00     0.293 HD
ENDBRANCH   8  14
TORSDOF 2
ENDMDL
MODEL 4
REMARK VINA RESULT:    -4.498      1.729      4.606
REMARK INTER + INTRA:          -4.761
REMARK INTER:                  -4.761
REMARK INTRA:                   0.000
REMARK UNBOUND:                 0.000
REMARK SMILES O=c1ccc2cc(O)c(O)cc2o1
REMARK SMILES IDX 4 1 3 2 2 3 1 4 13 5 12 6 11 7 9 8 7 9 6 10 5 11 8 12 10 14
REMARK H PARENT 8 13 10 15
REMARK Flexibility Score: inf
ROOT
ATOM      1  C   UNL     1      19.873  -7.902  25.735  1.00  0.00     0.019 A 
ATOM      2  C   UNL     1      21.195  -8.299  25.538  1.00  0.00     0.094 A 
ATOM      3  C   UNL     1      21.482  -9.230  24.535  1.00  0.00     0.336 A 
ATOM      4  O   UNL     1      22.669  -9.602  24.343  1.00  0.00    -0.246 OA
ATOM      5  O   UNL     1      20.505  -9.729  23.780  1.00  0.00    -0.423 OA
ATOM      6  C   UNL     1      19.231  -9.377  23.933  1.00  0.00     0.142 A 
ATOM      7  C   UNL     1      18.247  -9.934  23.110  1.00  0.00     0.098 A 
ATOM      8  C   UNL     1      16.903  -9.568  23.267  1.00  0.00     0.161 A 
ATOM      9  C   UNL     1      16.541  -8.635  24.257  1.00  0.00     0.158 A 
ATOM     10  C   UNL     1      17.524  -8.076  25.084  1.00  0.00     0.062 A 
ATOM     11  C   UNL     1      18.867  -8.443  24.926  1.00  0.00     0.022 A 
ENDROOT
BRANCH   9  12
ATOM     12  O   UNL     1      15.212  -8.253  24.434  1.00  0.00    -0.504 OA
ATOM     13  H   UNL     1      14.794  -7.498  23.905  1.00  0.00     0.293 HD
ENDBRANCH   9  12
BRANCH   8  14
ATOM     14  O   UNL     1      15.926 -10.125  22.445  1.00  0.00    -0.504 OA
ATOM     15  H   UNL     1      15.420  -9.564  21.767  1.00  0.00     0.293 HD
ENDBRANCH   8  14
TORSDOF 2
ENDMDL
MODEL 5
REMARK VINA RESULT:    -4.335      9.975     11.396
REMARK INTER + INTRA:          -4.588
REMARK INTER:                  -4.588
REMARK INTRA:                   0.000
REMARK UNBOUND:                 0.000
REMARK SMILES O=c1ccc2cc(O)c(O)cc2o1
REMARK SMILES IDX 4 1 3 2 2 3 1 4 13 5 12 6 11 7 9 8 7 9 6 10 5 11 8 12 10 14
REMARK H PARENT 8 13 10 15
REMARK Flexibility Score: inf
ROOT
ATOM      1  C   UNL     1      20.526  -3.617  14.758  1.00  0.00     0.019 A 
ATOM      2  C   UNL     1      20.240  -3.546  13.395  1.00  0.00     0.094 A 
ATOM      3  C   UNL     1      21.261  -3.193  12.506  1.00  0.00     0.336 A 
ATOM      4  O   UNL     1      21.023  -3.121  11.273  1.00  0.00    -0.246 OA
ATOM      5  O   UNL     1      22.485  -2.930  12.957  1.00  0.00    -0.423 OA
ATOM      6  C   UNL     1      22.800  -2.987  14.249  1.00  0.00     0.142 A 
ATOM      7  C   UNL     1      24.104  -2.701  14.665  1.00  0.00     0.098 A 
ATOM      8  C   UNL     1      24.442  -2.760  16.024  1.00  0.00     0.161 A 
ATOM      9  C   UNL     1      23.466  -3.109  16.976  1.00  0.00     0.158 A 
ATOM     10  C   UNL     1      22.159  -3.395  16.563  1.00  0.00     0.062 A 
ATOM     11  C   UNL     1      21.822  -3.336  15.204  1.00  0.00     0.022 A 
ENDROOT
BRANCH   9  12
ATOM     12  O   UNL     1      23.775  -3.174  18.334  1.00  0.00    -0.504 OA
ATOM     13  H   UNL     1      24.611  -3.633  18.673  1.00  0.00     0.293 HD
ENDBRANCH   9  12
BRANCH   8  14
ATOM     14  O   UNL     1      25.743  -2.474  16.434  1.00  0.00    -0.504 OA
ATOM     15  H   UNL     1      26.108  -1.527  16.421  1.00  0.00     0.293 HD
ENDBRANCH   8  14
TORSDOF 2
ENDMDL
MODEL 6
REMARK VINA RESULT:    -4.326      5.094      7.942
REMARK INTER + INTRA:          -4.579
REMARK INTER:                  -4.579
REMARK INTRA:                   0.000
REMARK UNBOUND:                 0.000
REMARK SMILES O=c1ccc2cc(O)c(O)cc2o1
REMARK SMILES IDX 4 1 3 2 2 3 1 4 13 5 12 6 11 7 9 8 7 9 6 10 5 11 8 12 10 14
REMARK H PARENT 8 13 10 15
REMARK Flexibility Score: inf
ROOT
ATOM      1  C   UNL     1      14.490  -7.264  23.645  1.00  0.00     0.019 A 
ATOM      2  C   UNL     1      15.654  -7.995  23.883  1.00  0.00     0.094 A 
ATOM      3  C   UNL     1      16.777  -7.334  24.391  1.00  0.00     0.336 A 
ATOM      4  O   UNL     1      17.837  -7.976  24.612  1.00  0.00    -0.246 OA
ATOM      5  O   UNL     1      16.733  -6.028  24.643  1.00  0.00    -0.423 OA
ATOM      6  C   UNL     1      15.644  -5.294  24.432  1.00  0.00     0.142 A 
ATOM      7  C   UNL     1      15.657  -3.925  24.715  1.00  0.00     0.098 A 
ATOM      8  C   UNL     1      14.512  -3.146  24.494  1.00  0.00     0.161 A 
ATOM      9  C   UNL     1      13.344  -3.744  23.985  1.00  0.00     0.158 A 
ATOM     10  C   UNL     1      13.329  -5.114  23.699  1.00  0.00     0.062 A 
ATOM     11  C   UNL     1      14.473  -5.892  23.920  1.00  0.00     0.022 A 
ENDROOT
BRANCH   9  12
ATOM     12  O   UNL     1      12.192  -2.992  23.755  1.00  0.00    -0.504 OA
ATOM     13  H   UNL     1      11.553  -3.205  23.000  1.00  0.00     0.293 HD
ENDBRANCH   9  12
BRANCH   8  14
ATOM     14  O   UNL     1      14.529  -1.782  24.779  1.00  0.00    -0.504 OA
ATOM     15  H   UNL     1      15.386  -1.241  24.737  1.00  0.00     0.293 HD
ENDBRANCH   8  14
TORSDOF 2
ENDMDL
MODEL 7
REMARK VINA RESULT:    -4.273     15.069     15.860
REMARK INTER + INTRA:          -4.523
REMARK INTER:                  -4.523
REMARK INTRA:                   0.000
REMARK UNBOUND:                 0.000
REMARK SMILES O=c1ccc2cc(O)c(O)cc2o1
REMARK SMILES IDX 4 1 3 2 2 3 1 4 13 5 12 6 11 7 9 8 7 9 6 10 5 11 8 12 10 14
REMARK H PARENT 8 13 10 15
REMARK Flexibility Score: inf
ROOT
ATOM      1  C   UNL     1      18.107   3.447  15.977  1.00  0.00     0.019 A 
ATOM      2  C   UNL     1      18.724   3.649  14.743  1.00  0.00     0.094 A 
ATOM      3  C   UNL     1      17.961   3.538  13.576  1.00  0.00     0.336 A 
ATOM      4  O   UNL     1      18.499   3.716  12.453  1.00  0.00    -0.246 OA
ATOM      5  O   UNL     1      16.664   3.242  13.646  1.00  0.00    -0.423 OA
ATOM      6  C   UNL     1      16.037   3.042  14.802  1.00  0.00     0.142 A 
ATOM      7  C   UNL     1      14.673   2.734  14.813  1.00  0.00     0.098 A 
ATOM      8  C   UNL     1      14.006   2.522  16.028  1.00  0.00     0.161 A 
ATOM      9  C   UNL     1      14.711   2.619  17.242  1.00  0.00     0.158 A 
ATOM     10  C   UNL     1      16.077   2.925  17.234  1.00  0.00     0.062 A 
ATOM     11  C   UNL     1      16.743   3.137  16.020  1.00  0.00     0.022 A 
ENDROOT
BRANCH   9  12
ATOM     12  O   UNL     1      14.072   2.412  18.464  1.00  0.00    -0.504 OA
ATOM     13  H   UNL     1      13.089   2.175  18.524  1.00  0.00     0.293 HD
ENDBRANCH   9  12
BRANCH   8  14
ATOM     14  O   UNL     1      12.646   2.216  16.035  1.00  0.00    -0.504 OA
ATOM     15  H   UNL     1      12.112   2.152  15.175  1.00  0.00     0.293 HD
ENDBRANCH   8  14
TORSDOF 2
ENDMDL
MODEL 8
REMARK VINA RESULT:    -4.192      1.940      4.227
REMARK INTER + INTRA:          -4.437
REMARK INTER:                  -4.437
REMARK INTRA:                   0.000
REMARK UNBOUND:                 0.000
REMARK SMILES O=c1ccc2cc(O)c(O)cc2o1
REMARK SMILES IDX 4 1 3 2 2 3 1 4 13 5 12 6 11 7 9 8 7 9 6 10 5 11 8 12 10 14
REMARK H PARENT 8 13 10 15
REMARK Flexibility Score: inf
ROOT
ATOM      1  C   UNL     1      22.583  -9.065  22.019  1.00  0.00     0.019 A 
ATOM      2  C   UNL     1      22.212  -9.505  20.749  1.00  0.00     0.094 A 
ATOM      3  C   UNL     1      20.858  -9.727  20.476  1.00  0.00     0.336 A 
ATOM      4  O   UNL     1      20.504 -10.125  19.336  1.00  0.00    -0.246 OA
ATOM      5  O   UNL     1      19.939  -9.519  21.417  1.00  0.00    -0.423 OA
ATOM      6  C   UNL     1      20.250  -9.098  22.640  1.00  0.00     0.142 A 
ATOM      7  C   UNL     1      19.241  -8.897  23.588  1.00  0.00     0.098 A 
ATOM      8  C   UNL     1      19.562  -8.454  24.878  1.00  0.00     0.161 A 
ATOM      9  C   UNL     1      20.904  -8.210  25.224  1.00  0.00     0.158 A 
ATOM     10  C   UNL     1      21.916  -8.412  24.278  1.00  0.00     0.062 A 
ATOM     11  C   UNL     1      21.596  -8.855  22.988  1.00  0.00     0.022 A 
ENDROOT
BRANCH   9  12
ATOM     12  O   UNL     1      21.250  -7.770  26.501  1.00  0.00    -0.504 OA
ATOM     13  H   UNL     1      21.804  -6.935  26.650  1.00  0.00     0.293 HD
ENDBRANCH   9  12
BRANCH   8  14
ATOM     14  O   UNL     1      18.553  -8.254  25.820  1.00  0.00    -0.504 OA
ATOM     15  H   UNL     1      17.814  -8.935  25.959  1.00  0.00     0.293 HD
ENDBRANCH   8  14
TORSDOF 2
ENDMDL
MODEL 9
REMARK VINA RESULT:    -4.184      2.948      5.655
REMARK INTER + INTRA:          -4.429
REMARK INTER:                  -4.429
REMARK INTRA:                   0.000
REMARK UNBOUND:                 0.000
REMARK SMILES O=c1ccc2cc(O)c(O)cc2o1
REMARK SMILES IDX 4 1 3 2 2 3 1 4 13 5 12 6 11 7 9 8 7 9 6 10 5 11 8 12 10 14
REMARK H PARENT 8 13 10 15
REMARK Flexibility Score: inf
ROOT
ATOM      1  C   UNL     1      18.249  -8.613  25.359  1.00  0.00     0.019 A 
ATOM      2  C   UNL     1      19.599  -8.272  25.428  1.00  0.00     0.094 A 
ATOM      3  C   UNL     1      20.058  -7.167  24.703  1.00  0.00     0.336 A 
ATOM      4  O   UNL     1      21.273  -6.844  24.752  1.00  0.00    -0.246 OA
ATOM      5  O   UNL     1      19.216  -6.454  23.959  1.00  0.00    -0.423 OA
ATOM      6  C   UNL     1      17.921  -6.744  23.865  1.00  0.00     0.142 A 
ATOM      7  C   UNL     1      17.084  -5.957  23.068  1.00  0.00     0.098 A 
ATOM      8  C   UNL     1      15.719  -6.258  22.965  1.00  0.00     0.161 A 
ATOM      9  C   UNL     1      15.186  -7.356  23.667  1.00  0.00     0.158 A 
ATOM     10  C   UNL     1      16.022  -8.145  24.466  1.00  0.00     0.062 A 
ATOM     11  C   UNL     1      17.387  -7.845  24.568  1.00  0.00     0.022 A 
ENDROOT
BRANCH   9  12
ATOM     12  O   UNL     1      13.832  -7.677  23.582  1.00  0.00    -0.504 OA
ATOM     13  H   UNL     1      13.105  -6.994  23.760  1.00  0.00     0.293 HD
ENDBRANCH   9  12
BRANCH   8  14
ATOM     14  O   UNL     1      14.887  -5.472  22.169  1.00  0.00    -0.504 OA
ATOM     15  H   UNL     1      15.062  -5.349  21.177  1.00  0.00     0.293 HD
ENDBRANCH   8  14
TORSDOF 2
ENDMDL
