MODEL 1
REMARK VINA RESULT:    -4.721      0.000      0.000
REMARK INTER + INTRA:         -14.591
REMARK INTER:                 -10.793
REMARK INTRA:                  -3.798
REMARK UNBOUND:                -3.798
REMARK SMILES CCCCCCCCCCCCCCCCCCCCCCCC(=O)[O-]
REMARK SMILES IDX 13 1 14 2 15 3 16 4 17 5 18 6 19 7 20 8 21 9 22 10 23 11
REMARK SMILES IDX 24 12 25 13 26 14 12 15 11 16 10 17 9 18 8 19 7 20 6 21 5 22
REMARK SMILES IDX 4 23 3 24 2 25 1 26
REMARK H PARENT
REMARK Flexibility Score: inf
ROOT
ATOM      1  C   UNL     1      62.784  28.868   9.294  1.00  0.00     0.000 C 
ENDROOT
BRANCH   1   2
ATOM      2  C   UNL     1      63.102  30.341   9.619  1.00  0.00     0.000 C 
BRANCH   2   3
ATOM      3  C   UNL     1      64.443  30.581  10.341  1.00  0.00     0.000 C 
BRANCH   3   4
ATOM      4  C   UNL     1      64.931  32.041  10.331  1.00  0.00     0.000 C 
BRANCH   4   5
ATOM      5  C   UNL     1      64.740  32.741  11.688  1.00  0.00     0.000 C 
BRANCH   5   6
ATOM      6  C   UNL     1      65.707  33.920  11.890  1.00  0.00     0.000 C 
BRANCH   6   7
ATOM      7  C   UNL     1      66.116  34.189  13.354  1.00  0.00     0.000 C 
BRANCH   7   8
ATOM      8  C   UNL     1      65.143  33.657  14.421  1.00  0.00     0.000 C 
BRANCH   8   9
ATOM      9  C   UNL     1      65.218  34.434  15.745  1.00  0.00     0.000 C 
BRANCH   9  10
ATOM     10  C   UNL     1      64.429  33.760  16.882  1.00  0.00     0.006 C 
BRANCH  10  11
ATOM     11  C   UNL     1      63.240  34.589  17.399  1.00  0.00     0.053 C 
BRANCH  11  12
ATOM     12  C   UNL     1      62.558  33.954  18.573  1.00  0.00     0.041 C 
ATOM     13  O   UNL     1      61.582  33.178  18.399  1.00  0.00    -0.550 OA
ATOM     14  O   UNL     1      62.974  34.254  19.864  1.00  0.00    -0.550 OA
ENDBRANCH  11  12
ENDBRANCH  10  11
ENDBRANCH   9  10
ENDBRANCH   8   9
ENDBRANCH   7   8
ENDBRANCH   6   7
ENDBRANCH   5   6
ENDBRANCH   4   5
ENDBRANCH   3   4
ENDBRANCH   2   3
ENDBRANCH   1   2
BRANCH   1  15
ATOM     15  C   UNL     1      61.421  28.370   9.808  1.00  0.00     0.000 C 
BRANCH  15  16
ATOM     16  C   UNL     1      60.427  29.512  10.065  1.00  0.00     0.000 C 
BRANCH  16  17
ATOM     17  C   UNL     1      59.821  29.405  11.472  1.00  0.00     0.000 C 
BRANCH  17  18
ATOM     18  C   UNL     1      60.446  28.272  12.302  1.00  0.00    -0.000 C 
BRANCH  18  19
ATOM     19  C   UNL     1      61.224  28.792  13.521  1.00  0.00    -0.000 C 
BRANCH  19  20
ATOM     20  C   UNL     1      62.702  29.025  13.167  1.00  0.00    -0.000 C 
BRANCH  20  21
ATOM     21  C   UNL     1      63.276  30.294  13.817  1.00  0.00    -0.000 C 
BRANCH  21  22
ATOM     22  C   UNL     1      62.638  30.602  15.182  1.00  0.00    -0.000 C 
BRANCH  22  23
ATOM     23  C   UNL     1      61.864  31.933  15.196  1.00  0.00    -0.000 C 
BRANCH  23  24
ATOM     24  C   UNL     1      61.745  32.636  13.831  1.00  0.00    -0.000 C 
BRANCH  24  25
ATOM     25  C   UNL     1      60.333  32.546  13.232  1.00  0.00    -0.003 C 
ATOM     26  C   UNL     1      59.353  31.929  14.226  1.00  0.00     0.004 C 
ENDBRANCH  24  25
ENDBRANCH  23  24
ENDBRANCH  22  23
ENDBRANCH  21  22
ENDBRANCH  20  21
ENDBRANCH  19  20
ENDBRANCH  18  19
ENDBRANCH  17  18
ENDBRANCH  16  17
ENDBRANCH  15  16
ENDBRANCH   1  15
TORSDOF 22
ENDMDL
MODEL 2
REMARK VINA RESULT:    -4.718      1.150      4.203
REMARK INTER + INTRA:         -14.585
REMARK INTER:                 -10.952
REMARK INTRA:                  -3.633
REMARK UNBOUND:                -3.798
REMARK SMILES CCCCCCCCCCCCCCCCCCCCCCCC(=O)[O-]
REMARK SMILES IDX 13 1 14 2 15 3 16 4 17 5 18 6 19 7 20 8 21 9 22 10 23 11
REMARK SMILES IDX 24 12 25 13 26 14 12 15 11 16 10 17 9 18 8 19 7 20 6 21 5 22
REMARK SMILES IDX 4 23 3 24 2 25 1 26
REMARK H PARENT
REMARK Flexibility Score: inf
ROOT
ATOM      1  C   UNL     1      59.951  29.594  10.646  1.00  0.00     0.000 C 
ENDROOT
BRANCH   1   2
ATOM      2  C   UNL     1      60.093  28.236  11.362  1.00  0.00     0.000 C 
BRANCH   2   3
ATOM      3  C   UNL     1      60.345  28.316  12.881  1.00  0.00     0.000 C 
BRANCH   3   4
ATOM      4  C   UNL     1      61.828  28.392  13.287  1.00  0.00     0.000 C 
BRANCH   4   5
ATOM      5  C   UNL     1      62.237  29.789  13.787  1.00  0.00     0.000 C 
BRANCH   5   6
ATOM      6  C   UNL     1      61.050  30.590  14.352  1.00  0.00     0.000 C 
BRANCH   6   7
ATOM      7  C   UNL     1      60.653  31.836  13.533  1.00  0.00     0.000 C 
BRANCH   7   8
ATOM      8  C   UNL     1      61.110  33.185  14.116  1.00  0.00     0.000 C 
BRANCH   8   9
ATOM      9  C   UNL     1      60.675  33.388  15.576  1.00  0.00     0.000 C 
BRANCH   9  10
ATOM     10  C   UNL     1      61.861  33.429  16.556  1.00  0.00     0.006 C 
BRANCH  10  11
ATOM     11  C   UNL     1      61.764  34.541  17.615  1.00  0.00     0.053 C 
BRANCH  11  12
ATOM     12  C   UNL     1      61.746  34.008  19.016  1.00  0.00     0.041 C 
ATOM     13  O   UNL     1      60.708  33.464  19.476  1.00  0.00    -0.550 OA
ATOM     14  O   UNL     1      62.864  34.149  19.827  1.00  0.00    -0.550 OA
ENDBRANCH  11  12
ENDBRANCH  10  11
ENDBRANCH   9  10
ENDBRANCH   8   9
ENDBRANCH   7   8
ENDBRANCH   6   7
ENDBRANCH   5   6
ENDBRANCH   4   5
ENDBRANCH   3   4
ENDBRANCH   2   3
ENDBRANCH   1   2
BRANCH   1  15
ATOM     15  C   UNL     1      61.082  29.926   9.655  1.00  0.00     0.000 C 
BRANCH  15  16
ATOM     16  C   UNL     1      61.746  28.673   9.067  1.00  0.00     0.000 C 
BRANCH  16  17
ATOM     17  C   UNL     1      63.261  28.684   9.322  1.00  0.00     0.000 C 
BRANCH  17  18
ATOM     18  C   UNL     1      63.692  29.808  10.278  1.00  0.00    -0.000 C 
BRANCH  18  19
ATOM     19  C   UNL     1      64.797  30.698   9.686  1.00  0.00    -0.000 C 
BRANCH  19  20
ATOM     20  C   UNL     1      64.870  32.043  10.425  1.00  0.00    -0.000 C 
BRANCH  20  21
ATOM     21  C   UNL     1      64.093  32.037  11.751  1.00  0.00    -0.000 C 
BRANCH  21  22
ATOM     22  C   UNL     1      64.603  33.098  12.741  1.00  0.00    -0.000 C 
BRANCH  22  23
ATOM     23  C   UNL     1      64.655  32.587  14.194  1.00  0.00    -0.000 C 
BRANCH  23  24
ATOM     24  C   UNL     1      65.615  33.353  15.123  1.00  0.00    -0.000 C 
BRANCH  24  25
ATOM     25  C   UNL     1      65.383  34.871  15.104  1.00  0.00    -0.003 C 
ATOM     26  C   UNL     1      65.166  35.412  16.514  1.00  0.00     0.004 C 
ENDBRANCH  24  25
ENDBRANCH  23  24
ENDBRANCH  22  23
ENDBRANCH  21  22
ENDBRANCH  20  21
ENDBRANCH  19  20
ENDBRANCH  18  19
ENDBRANCH  17  18
ENDBRANCH  16  17
ENDBRANCH  15  16
ENDBRANCH   1  15
TORSDOF 22
ENDMDL
MODEL 3
REMARK VINA RESULT:    -4.581      9.332     13.696
REMARK INTER + INTRA:         -14.270
REMARK INTER:                 -11.331
REMARK INTRA:                  -2.939
REMARK UNBOUND:                -3.798
REMARK SMILES CCCCCCCCCCCCCCCCCCCCCCCC(=O)[O-]
REMARK SMILES IDX 13 1 14 2 15 3 16 4 17 5 18 6 19 7 20 8 21 9 22 10 23 11
REMARK SMILES IDX 24 12 25 13 26 14 12 15 11 16 10 17 9 18 8 19 7 20 6 21 5 22
REMARK SMILES IDX 4 23 3 24 2 25 1 26
REMARK H PARENT
REMARK Flexibility Score: inf
ROOT
ATOM      1  C   UNL     1      62.008  27.169  27.186  1.00  0.00     0.000 C 
ENDROOT
BRANCH   1   2
ATOM      2  C   UNL     1      61.012  26.965  26.027  1.00  0.00     0.000 C 
BRANCH   2   3
ATOM      3  C   UNL     1      60.955  28.113  24.999  1.00  0.00     0.000 C 
BRANCH   3   4
ATOM      4  C   UNL     1      62.326  28.643  24.545  1.00  0.00     0.000 C 
BRANCH   4   5
ATOM      5  C   UNL     1      62.838  27.955  23.268  1.00  0.00     0.000 C 
BRANCH   5   6
ATOM      6  C   UNL     1      63.307  26.510  23.517  1.00  0.00     0.000 C 
BRANCH   6   7
ATOM      7  C   UNL     1      64.671  26.378  24.225  1.00  0.00     0.000 C 
BRANCH   7   8
ATOM      8  C   UNL     1      65.885  26.200  23.296  1.00  0.00     0.000 C 
BRANCH   8   9
ATOM      9  C   UNL     1      66.359  27.520  22.667  1.00  0.00     0.000 C 
BRANCH   9  10
ATOM     10  C   UNL     1      66.925  27.338  21.246  1.00  0.00     0.006 C 
BRANCH  10  11
ATOM     11  C   UNL     1      66.394  26.092  20.514  1.00  0.00     0.053 C 
BRANCH  11  12
ATOM     12  C   UNL     1      66.177  26.330  19.049  1.00  0.00     0.041 C 
ATOM     13  O   UNL     1      66.847  27.205  18.441  1.00  0.00    -0.550 OA
ATOM     14  O   UNL     1      65.205  25.611  18.366  1.00  0.00    -0.550 OA
ENDBRANCH  11  12
ENDBRANCH  10  11
ENDBRANCH   9  10
ENDBRANCH   8   9
ENDBRANCH   7   8
ENDBRANCH   6   7
ENDBRANCH   5   6
ENDBRANCH   4   5
ENDBRANCH   3   4
ENDBRANCH   2   3
ENDBRANCH   1   2
BRANCH   1  15
ATOM     15  C   UNL     1      61.367  27.280  28.581  1.00  0.00     0.000 C 
BRANCH  15  16
ATOM     16  C   UNL     1      61.296  28.727  29.091  1.00  0.00     0.000 C 
BRANCH  16  17
ATOM     17  C   UNL     1      62.162  29.656  28.227  1.00  0.00     0.000 C 
BRANCH  17  18
ATOM     18  C   UNL     1      62.576  30.938  28.967  1.00  0.00    -0.000 C 
BRANCH  18  19
ATOM     19  C   UNL     1      64.101  31.106  29.053  1.00  0.00    -0.000 C 
BRANCH  19  20
ATOM     20  C   UNL     1      64.809  30.206  28.028  1.00  0.00    -0.000 C 
BRANCH  20  21
ATOM     21  C   UNL     1      66.339  30.217  28.182  1.00  0.00    -0.000 C 
BRANCH  21  22
ATOM     22  C   UNL     1      67.069  30.327  26.833  1.00  0.00    -0.000 C 
BRANCH  22  23
ATOM     23  C   UNL     1      66.208  29.854  25.646  1.00  0.00    -0.000 C 
BRANCH  23  24
ATOM     24  C   UNL     1      66.532  30.521  24.296  1.00  0.00    -0.000 C 
BRANCH  24  25
ATOM     25  C   UNL     1      65.285  30.766  23.435  1.00  0.00    -0.003 C 
ATOM     26  C   UNL     1      64.207  31.503  24.225  1.00  0.00     0.004 C 
ENDBRANCH  24  25
ENDBRANCH  23  24
ENDBRANCH  22  23
ENDBRANCH  21  22
ENDBRANCH  20  21
ENDBRANCH  19  20
ENDBRANCH  18  19
ENDBRANCH  17  18
ENDBRANCH  16  17
ENDBRANCH  15  16
ENDBRANCH   1  15
TORSDOF 22
ENDMDL
MODEL 4
REMARK VINA RESULT:    -4.518      1.239      3.383
REMARK INTER + INTRA:         -14.127
REMARK INTER:                 -10.408
REMARK INTRA:                  -3.719
REMARK UNBOUND:                -3.798
REMARK SMILES CCCCCCCCCCCCCCCCCCCCCCCC(=O)[O-]
REMARK SMILES IDX 13 1 14 2 15 3 16 4 17 5 18 6 19 7 20 8 21 9 22 10 23 11
REMARK SMILES IDX 24 12 25 13 26 14 12 15 11 16 10 17 9 18 8 19 7 20 6 21 5 22
REMARK SMILES IDX 4 23 3 24 2 25 1 26
REMARK H PARENT
REMARK Flexibility Score: inf
ROOT
ATOM      1  C   UNL     1      64.128  31.010  12.580  1.00  0.00     0.000 C 
ENDROOT
BRANCH   1   2
ATOM      2  C   UNL     1      64.107  32.420  11.956  1.00  0.00     0.000 C 
BRANCH   2   3
ATOM      3  C   UNL     1      65.457  33.163  11.963  1.00  0.00     0.000 C 
BRANCH   3   4
ATOM      4  C   UNL     1      65.559  34.308  12.987  1.00  0.00     0.000 C 
BRANCH   4   5
ATOM      5  C   UNL     1      66.046  33.831  14.366  1.00  0.00     0.000 C 
BRANCH   5   6
ATOM      6  C   UNL     1      65.064  34.180  15.498  1.00  0.00     0.000 C 
BRANCH   6   7
ATOM      7  C   UNL     1      63.603  33.748  15.254  1.00  0.00     0.000 C 
BRANCH   7   8
ATOM      8  C   UNL     1      63.178  32.437  15.938  1.00  0.00     0.000 C 
BRANCH   8   9
ATOM      9  C   UNL     1      61.824  32.544  16.658  1.00  0.00     0.000 C 
BRANCH   9  10
ATOM     10  C   UNL     1      61.102  33.875  16.381  1.00  0.00     0.006 C 
BRANCH  10  11
ATOM     11  C   UNL     1      61.086  34.843  17.577  1.00  0.00     0.053 C 
BRANCH  11  12
ATOM     12  C   UNL     1      61.566  34.204  18.846  1.00  0.00     0.041 C 
ATOM     13  O   UNL     1      62.784  34.249  19.159  1.00  0.00    -0.550 OA
ATOM     14  O   UNL     1      60.672  33.522  19.661  1.00  0.00    -0.550 OA
ENDBRANCH  11  12
ENDBRANCH  10  11
ENDBRANCH   9  10
ENDBRANCH   8   9
ENDBRANCH   7   8
ENDBRANCH   6   7
ENDBRANCH   5   6
ENDBRANCH   4   5
ENDBRANCH   3   4
ENDBRANCH   2   3
ENDBRANCH   1   2
BRANCH   1  15
ATOM     15  C   UNL     1      63.725  29.871  11.626  1.00  0.00     0.000 C 
BRANCH  15  16
ATOM     16  C   UNL     1      63.838  30.266  10.146  1.00  0.00     0.000 C 
BRANCH  16  17
ATOM     17  C   UNL     1      63.635  29.045   9.236  1.00  0.00     0.000 C 
BRANCH  17  18
ATOM     18  C   UNL     1      62.157  28.640   9.109  1.00  0.00    -0.000 C 
BRANCH  18  19
ATOM     19  C   UNL     1      61.220  29.852   8.991  1.00  0.00    -0.000 C 
BRANCH  19  20
ATOM     20  C   UNL     1      60.162  29.835  10.106  1.00  0.00    -0.000 C 
BRANCH  20  21
ATOM     21  C   UNL     1      60.166  28.526  10.911  1.00  0.00    -0.000 C 
BRANCH  21  22
ATOM     22  C   UNL     1      59.616  28.705  12.336  1.00  0.00    -0.000 C 
BRANCH  22  23
ATOM     23  C   UNL     1      60.725  28.771  13.403  1.00  0.00    -0.000 C 
BRANCH  23  24
ATOM     24  C   UNL     1      60.901  30.142  14.081  1.00  0.00    -0.000 C 
BRANCH  24  25
ATOM     25  C   UNL     1      59.902  31.193  13.575  1.00  0.00    -0.003 C 
ATOM     26  C   UNL     1      60.626  32.414  13.015  1.00  0.00     0.004 C 
ENDBRANCH  24  25
ENDBRANCH  23  24
ENDBRANCH  22  23
ENDBRANCH  21  22
ENDBRANCH  20  21
ENDBRANCH  19  20
ENDBRANCH  18  19
ENDBRANCH  17  18
ENDBRANCH  16  17
ENDBRANCH  15  16
ENDBRANCH   1  15
TORSDOF 22
ENDMDL
MODEL 5
REMARK VINA RESULT:    -4.480      1.467      4.054
REMARK INTER + INTRA:         -14.039
REMARK INTER:                  -9.674
REMARK INTRA:                  -4.365
REMARK UNBOUND:                -3.798
REMARK SMILES CCCCCCCCCCCCCCCCCCCCCCCC(=O)[O-]
REMARK SMILES IDX 13 1 14 2 15 3 16 4 17 5 18 6 19 7 20 8 21 9 22 10 23 11
REMARK SMILES IDX 24 12 25 13 26 14 12 15 11 16 10 17 9 18 8 19 7 20 6 21 5 22
REMARK SMILES IDX 4 23 3 24 2 25 1 26
REMARK H PARENT
REMARK Flexibility Score: inf
ROOT
ATOM      1  C   UNL     1      63.355  30.159  14.150  1.00  0.00     0.000 C 
ENDROOT
BRANCH   1   2
ATOM      2  C   UNL     1      63.651  30.072  12.639  1.00  0.00     0.000 C 
BRANCH   2   3
ATOM      3  C   UNL     1      63.500  31.395  11.861  1.00  0.00     0.000 C 
BRANCH   3   4
ATOM      4  C   UNL     1      64.562  31.629  10.772  1.00  0.00     0.000 C 
BRANCH   4   5
ATOM      5  C   UNL     1      65.498  32.806  11.096  1.00  0.00     0.000 C 
BRANCH   5   6
ATOM      6  C   UNL     1      65.064  33.584  12.351  1.00  0.00     0.000 C 
BRANCH   6   7
ATOM      7  C   UNL     1      66.200  33.914  13.342  1.00  0.00     0.000 C 
BRANCH   7   8
ATOM      8  C   UNL     1      65.985  35.174  14.199  1.00  0.00     0.000 C 
BRANCH   8   9
ATOM      9  C   UNL     1      66.216  34.929  15.699  1.00  0.00     0.000 C 
BRANCH   9  10
ATOM     10  C   UNL     1      65.261  35.740  16.593  1.00  0.00     0.006 C 
BRANCH  10  11
ATOM     11  C   UNL     1      65.485  35.533  18.102  1.00  0.00     0.053 C 
BRANCH  11  12
ATOM     12  C   UNL     1      64.755  34.338  18.637  1.00  0.00     0.041 C 
ATOM     13  O   UNL     1      65.329  33.219  18.703  1.00  0.00    -0.550 OA
ATOM     14  O   UNL     1      63.426  34.452  19.024  1.00  0.00    -0.550 OA
ENDBRANCH  11  12
ENDBRANCH  10  11
ENDBRANCH   9  10
ENDBRANCH   8   9
ENDBRANCH   7   8
ENDBRANCH   6   7
ENDBRANCH   5   6
ENDBRANCH   4   5
ENDBRANCH   3   4
ENDBRANCH   2   3
ENDBRANCH   1   2
BRANCH   1  15
ATOM     15  C   UNL     1      64.306  31.073  14.945  1.00  0.00     0.000 C 
BRANCH  15  16
ATOM     16  C   UNL     1      63.564  32.000  15.919  1.00  0.00     0.000 C 
BRANCH  16  17
ATOM     17  C   UNL     1      62.969  33.208  15.180  1.00  0.00     0.000 C 
BRANCH  17  18
ATOM     18  C   UNL     1      61.776  33.829  15.925  1.00  0.00    -0.000 C 
BRANCH  18  19
ATOM     19  C   UNL     1      60.459  33.700  15.144  1.00  0.00    -0.000 C 
BRANCH  19  20
ATOM     20  C   UNL     1      60.667  32.900  13.849  1.00  0.00    -0.000 C 
BRANCH  20  21
ATOM     21  C   UNL     1      59.871  31.584  13.829  1.00  0.00    -0.000 C 
BRANCH  21  22
ATOM     22  C   UNL     1      59.973  30.852  12.480  1.00  0.00    -0.000 C 
BRANCH  22  23
ATOM     23  C   UNL     1      59.907  29.320  12.623  1.00  0.00    -0.000 C 
BRANCH  23  24
ATOM     24  C   UNL     1      60.506  28.525  11.448  1.00  0.00    -0.000 C 
BRANCH  24  25
ATOM     25  C   UNL     1      60.822  29.405  10.230  1.00  0.00    -0.003 C 
ATOM     26  C   UNL     1      62.015  28.857   9.451  1.00  0.00     0.004 C 
ENDBRANCH  24  25
ENDBRANCH  23  24
ENDBRANCH  22  23
ENDBRANCH  21  22
ENDBRANCH  20  21
ENDBRANCH  19  20
ENDBRANCH  18  19
ENDBRANCH  17  18
ENDBRANCH  16  17
ENDBRANCH  15  16
ENDBRANCH   1  15
TORSDOF 22
ENDMDL
MODEL 6
REMARK VINA RESULT:    -4.468      3.172      6.816
REMARK INTER + INTRA:         -14.012
REMARK INTER:                 -10.344
REMARK INTRA:                  -3.668
REMARK UNBOUND:                -3.798
REMARK SMILES CCCCCCCCCCCCCCCCCCCCCCCC(=O)[O-]
REMARK SMILES IDX 13 1 14 2 15 3 16 4 17 5 18 6 19 7 20 8 21 9 22 10 23 11
REMARK SMILES IDX 24 12 25 13 26 14 12 15 11 16 10 17 9 18 8 19 7 20 6 21 5 22
REMARK SMILES IDX 4 23 3 24 2 25 1 26
REMARK H PARENT
REMARK Flexibility Score: inf
ROOT
ATOM      1  C   UNL     1      63.795  29.761  12.979  1.00  0.00     0.000 C 
ENDROOT
BRANCH   1   2
ATOM      2  C   UNL     1      64.014  30.538  14.292  1.00  0.00     0.000 C 
BRANCH   2   3
ATOM      3  C   UNL     1      62.812  30.553  15.257  1.00  0.00     0.000 C 
BRANCH   3   4
ATOM      4  C   UNL     1      62.382  31.952  15.733  1.00  0.00     0.000 C 
BRANCH   4   5
ATOM      5  C   UNL     1      62.052  32.902  14.568  1.00  0.00     0.000 C 
BRANCH   5   6
ATOM      6  C   UNL     1      60.546  33.187  14.441  1.00  0.00     0.000 C 
BRANCH   6   7
ATOM      7  C   UNL     1      59.681  31.976  14.032  1.00  0.00     0.000 C 
BRANCH   7   8
ATOM      8  C   UNL     1      60.062  31.312  12.698  1.00  0.00     0.000 C 
BRANCH   8   9
ATOM      9  C   UNL     1      60.273  29.794  12.819  1.00  0.00     0.000 C 
BRANCH   9  10
ATOM     10  C   UNL     1      59.654  29.007  11.649  1.00  0.00     0.006 C 
BRANCH  10  11
ATOM     11  C   UNL     1      59.812  29.691  10.279  1.00  0.00     0.053 C 
BRANCH  11  12
ATOM     12  C   UNL     1      60.955  29.137   9.483  1.00  0.00     0.041 C 
ATOM     13  O   UNL     1      61.883  29.892   9.093  1.00  0.00    -0.550 OA
ATOM     14  O   UNL     1      60.972  27.792   9.135  1.00  0.00    -0.550 OA
ENDBRANCH  11  12
ENDBRANCH  10  11
ENDBRANCH   9  10
ENDBRANCH   8   9
ENDBRANCH   7   8
ENDBRANCH   6   7
ENDBRANCH   5   6
ENDBRANCH   4   5
ENDBRANCH   3   4
ENDBRANCH   2   3
ENDBRANCH   1   2
BRANCH   1  15
ATOM     15  C   UNL     1      63.794  30.626  11.705  1.00  0.00     0.000 C 
BRANCH  15  16
ATOM     16  C   UNL     1      63.910  32.127  12.004  1.00  0.00     0.000 C 
BRANCH  16  17
ATOM     17  C   UNL     1      65.213  32.702  11.426  1.00  0.00     0.000 C 
BRANCH  17  18
ATOM     18  C   UNL     1      65.614  34.035  12.080  1.00  0.00    -0.000 C 
BRANCH  18  19
ATOM     19  C   UNL     1      65.902  33.893  13.582  1.00  0.00    -0.000 C 
BRANCH  19  20
ATOM     20  C   UNL     1      65.766  35.248  14.295  1.00  0.00    -0.000 C 
BRANCH  20  21
ATOM     21  C   UNL     1      65.643  35.108  15.821  1.00  0.00    -0.000 C 
BRANCH  21  22
ATOM     22  C   UNL     1      65.555  33.641  16.276  1.00  0.00    -0.000 C 
BRANCH  22  23
ATOM     23  C   UNL     1      64.997  33.489  17.704  1.00  0.00    -0.000 C 
BRANCH  23  24
ATOM     24  C   UNL     1      63.848  34.449  18.064  1.00  0.00    -0.000 C 
BRANCH  24  25
ATOM     25  C   UNL     1      62.726  33.767  18.860  1.00  0.00    -0.003 C 
ATOM     26  C   UNL     1      61.356  34.295  18.441  1.00  0.00     0.004 C 
ENDBRANCH  24  25
ENDBRANCH  23  24
ENDBRANCH  22  23
ENDBRANCH  21  22
ENDBRANCH  20  21
ENDBRANCH  19  20
ENDBRANCH  18  19
ENDBRANCH  17  18
ENDBRANCH  16  17
ENDBRANCH  15  16
ENDBRANCH   1  15
TORSDOF 22
ENDMDL
MODEL 7
REMARK VINA RESULT:    -4.445      1.815      4.314
REMARK INTER + INTRA:         -13.961
REMARK INTER:                 -10.651
REMARK INTRA:                  -3.310
REMARK UNBOUND:                -3.798
REMARK SMILES CCCCCCCCCCCCCCCCCCCCCCCC(=O)[O-]
REMARK SMILES IDX 13 1 14 2 15 3 16 4 17 5 18 6 19 7 20 8 21 9 22 10 23 11
REMARK SMILES IDX 24 12 25 13 26 14 12 15 11 16 10 17 9 18 8 19 7 20 6 21 5 22
REMARK SMILES IDX 4 23 3 24 2 25 1 26
REMARK H PARENT
REMARK Flexibility Score: inf
ROOT
ATOM      1  C   UNL     1      60.385  28.538  13.307  1.00  0.00     0.000 C 
ENDROOT
BRANCH   1   2
ATOM      2  C   UNL     1      60.880  29.951  13.673  1.00  0.00     0.000 C 
BRANCH   2   3
ATOM      3  C   UNL     1      61.417  30.109  15.110  1.00  0.00     0.000 C 
BRANCH   3   4
ATOM      4  C   UNL     1      60.894  31.344  15.864  1.00  0.00     0.000 C 
BRANCH   4   5
ATOM      5  C   UNL     1      60.363  32.437  14.920  1.00  0.00     0.000 C 
BRANCH   5   6
ATOM      6  C   UNL     1      60.640  33.859  15.439  1.00  0.00     0.000 C 
BRANCH   6   7
ATOM      7  C   UNL     1      61.820  33.977  16.426  1.00  0.00     0.000 C 
BRANCH   7   8
ATOM      8  C   UNL     1      61.431  34.174  17.902  1.00  0.00     0.000 C 
BRANCH   8   9
ATOM      9  C   UNL     1      62.608  33.966  18.868  1.00  0.00     0.000 C 
BRANCH   9  10
ATOM     10  C   UNL     1      63.836  33.331  18.190  1.00  0.00     0.006 C 
BRANCH  10  11
ATOM     11  C   UNL     1      65.162  34.053  18.489  1.00  0.00     0.053 C 
BRANCH  11  12
ATOM     12  C   UNL     1      65.631  34.901  17.346  1.00  0.00     0.041 C 
ATOM     13  O   UNL     1      65.151  36.051  17.168  1.00  0.00    -0.550 OA
ATOM     14  O   UNL     1      66.570  34.403  16.451  1.00  0.00    -0.550 OA
ENDBRANCH  11  12
ENDBRANCH  10  11
ENDBRANCH   9  10
ENDBRANCH   8   9
ENDBRANCH   7   8
ENDBRANCH   6   7
ENDBRANCH   5   6
ENDBRANCH   4   5
ENDBRANCH   3   4
ENDBRANCH   2   3
ENDBRANCH   1   2
BRANCH   1  15
ATOM     15  C   UNL     1      59.359  28.487  12.159  1.00  0.00     0.000 C 
BRANCH  15  16
ATOM     16  C   UNL     1      59.707  29.439  11.006  1.00  0.00     0.000 C 
BRANCH  16  17
ATOM     17  C   UNL     1      59.863  28.668   9.686  1.00  0.00     0.000 C 
BRANCH  17  18
ATOM     18  C   UNL     1      61.328  28.327   9.369  1.00  0.00    -0.000 C 
BRANCH  18  19
ATOM     19  C   UNL     1      62.224  29.573   9.297  1.00  0.00    -0.000 C 
BRANCH  19  20
ATOM     20  C   UNL     1      63.372  29.481  10.313  1.00  0.00    -0.000 C 
BRANCH  20  21
ATOM     21  C   UNL     1      64.508  30.475  10.020  1.00  0.00    -0.000 C 
BRANCH  21  22
ATOM     22  C   UNL     1      64.475  31.703  10.946  1.00  0.00    -0.000 C 
BRANCH  22  23
ATOM     23  C   UNL     1      63.369  31.618  12.015  1.00  0.00    -0.000 C 
BRANCH  23  24
ATOM     24  C   UNL     1      63.362  32.763  13.044  1.00  0.00    -0.000 C 
BRANCH  24  25
ATOM     25  C   UNL     1      64.672  32.860  13.840  1.00  0.00    -0.003 C 
ATOM     26  C   UNL     1      64.741  31.782  14.918  1.00  0.00     0.004 C 
ENDBRANCH  24  25
ENDBRANCH  23  24
ENDBRANCH  22  23
ENDBRANCH  21  22
ENDBRANCH  20  21
ENDBRANCH  19  20
ENDBRANCH  18  19
ENDBRANCH  17  18
ENDBRANCH  16  17
ENDBRANCH  15  16
ENDBRANCH   1  15
TORSDOF 22
ENDMDL
MODEL 8
REMARK VINA RESULT:    -4.397      1.593      2.549
REMARK INTER + INTRA:         -13.850
REMARK INTER:                 -10.589
REMARK INTRA:                  -3.261
REMARK UNBOUND:                -3.798
REMARK SMILES CCCCCCCCCCCCCCCCCCCCCCCC(=O)[O-]
REMARK SMILES IDX 13 1 14 2 15 3 16 4 17 5 18 6 19 7 20 8 21 9 22 10 23 11
REMARK SMILES IDX 24 12 25 13 26 14 12 15 11 16 10 17 9 18 8 19 7 20 6 21 5 22
REMARK SMILES IDX 4 23 3 24 2 25 1 26
REMARK H PARENT
REMARK Flexibility Score: inf
ROOT
ATOM      1  C   UNL     1      62.897  28.738   9.295  1.00  0.00     0.000 C 
ENDROOT
BRANCH   1   2
ATOM      2  C   UNL     1      63.193  30.160   9.812  1.00  0.00     0.000 C 
BRANCH   2   3
ATOM      3  C   UNL     1      63.721  30.238  11.259  1.00  0.00     0.000 C 
BRANCH   3   4
ATOM      4  C   UNL     1      63.988  31.664  11.773  1.00  0.00     0.000 C 
BRANCH   4   5
ATOM      5  C   UNL     1      63.900  31.770  13.305  1.00  0.00     0.000 C 
BRANCH   5   6
ATOM      6  C   UNL     1      64.009  33.220  13.809  1.00  0.00     0.000 C 
BRANCH   6   7
ATOM      7  C   UNL     1      65.017  33.441  14.957  1.00  0.00     0.000 C 
BRANCH   7   8
ATOM      8  C   UNL     1      65.308  34.910  15.308  1.00  0.00     0.000 C 
BRANCH   8   9
ATOM      9  C   UNL     1      65.010  35.249  16.777  1.00  0.00     0.000 C 
BRANCH   9  10
ATOM     10  C   UNL     1      65.795  34.368  17.767  1.00  0.00     0.006 C 
BRANCH  10  11
ATOM     11  C   UNL     1      64.921  33.696  18.840  1.00  0.00     0.053 C 
BRANCH  11  12
ATOM     12  C   UNL     1      64.707  34.566  20.042  1.00  0.00     0.041 C 
ATOM     13  O   UNL     1      64.146  34.104  21.070  1.00  0.00    -0.550 OA
ATOM     14  O   UNL     1      65.092  35.901  20.011  1.00  0.00    -0.550 OA
ENDBRANCH  11  12
ENDBRANCH  10  11
ENDBRANCH   9  10
ENDBRANCH   8   9
ENDBRANCH   7   8
ENDBRANCH   6   7
ENDBRANCH   5   6
ENDBRANCH   4   5
ENDBRANCH   3   4
ENDBRANCH   2   3
ENDBRANCH   1   2
BRANCH   1  15
ATOM     15  C   UNL     1      61.455  28.250   9.525  1.00  0.00     0.000 C 
BRANCH  15  16
ATOM     16  C   UNL     1      60.438  29.400   9.571  1.00  0.00     0.000 C 
BRANCH  16  17
ATOM     17  C   UNL     1      59.632  29.367  10.879  1.00  0.00     0.000 C 
BRANCH  17  18
ATOM     18  C   UNL     1      60.396  28.691  12.029  1.00  0.00    -0.000 C 
BRANCH  18  19
ATOM     19  C   UNL     1      60.601  29.625  13.232  1.00  0.00    -0.000 C 
BRANCH  19  20
ATOM     20  C   UNL     1      60.254  31.076  12.864  1.00  0.00    -0.000 C 
BRANCH  20  21
ATOM     21  C   UNL     1      59.688  31.873  14.050  1.00  0.00    -0.000 C 
BRANCH  21  22
ATOM     22  C   UNL     1      60.679  31.975  15.222  1.00  0.00    -0.000 C 
BRANCH  22  23
ATOM     23  C   UNL     1      60.889  33.423  15.705  1.00  0.00    -0.000 C 
BRANCH  23  24
ATOM     24  C   UNL     1      61.867  33.585  16.883  1.00  0.00    -0.000 C 
BRANCH  24  25
ATOM     25  C   UNL     1      61.339  34.526  17.976  1.00  0.00    -0.003 C 
ATOM     26  C   UNL     1      61.102  33.773  19.282  1.00  0.00     0.004 C 
ENDBRANCH  24  25
ENDBRANCH  23  24
ENDBRANCH  22  23
ENDBRANCH  21  22
ENDBRANCH  20  21
ENDBRANCH  19  20
ENDBRANCH  18  19
ENDBRANCH  17  18
ENDBRANCH  16  17
ENDBRANCH  15  16
ENDBRANCH   1  15
TORSDOF 22
ENDMDL
MODEL 9
REMARK VINA RESULT:    -4.372      2.999      6.739
REMARK INTER + INTRA:         -13.794
REMARK INTER:                 -10.433
REMARK INTRA:                  -3.361
REMARK UNBOUND:                -3.798
REMARK SMILES CCCCCCCCCCCCCCCCCCCCCCCC(=O)[O-]
REMARK SMILES IDX 13 1 14 2 15 3 16 4 17 5 18 6 19 7 20 8 21 9 22 10 23 11
REMARK SMILES IDX 24 12 25 13 26 14 12 15 11 16 10 17 9 18 8 19 7 20 6 21 5 22
REMARK SMILES IDX 4 23 3 24 2 25 1 26
REMARK H PARENT
REMARK Flexibility Score: inf
ROOT
ATOM      1  C   UNL     1      60.028  30.803  13.512  1.00  0.00     0.000 C 
ENDROOT
BRANCH   1   2
ATOM      2  C   UNL     1      61.011  29.819  14.177  1.00  0.00     0.000 C 
BRANCH   2   3
ATOM      3  C   UNL     1      61.891  29.009  13.203  1.00  0.00     0.000 C 
BRANCH   3   4
ATOM      4  C   UNL     1      63.397  29.313  13.288  1.00  0.00     0.000 C 
BRANCH   4   5
ATOM      5  C   UNL     1      63.703  30.821  13.255  1.00  0.00     0.000 C 
BRANCH   5   6
ATOM      6  C   UNL     1      63.352  31.470  11.905  1.00  0.00     0.000 C 
BRANCH   6   7
ATOM      7  C   UNL     1      64.525  31.588  10.909  1.00  0.00     0.000 C 
BRANCH   7   8
ATOM      8  C   UNL     1      64.353  30.815   9.590  1.00  0.00     0.000 C 
BRANCH   8   9
ATOM      9  C   UNL     1      63.817  29.389   9.793  1.00  0.00     0.000 C 
BRANCH   9  10
ATOM     10  C   UNL     1      62.601  29.074   8.903  1.00  0.00     0.006 C 
BRANCH  10  11
ATOM     11  C   UNL     1      61.507  28.247   9.603  1.00  0.00     0.053 C 
BRANCH  11  12
ATOM     12  C   UNL     1      60.170  28.925   9.589  1.00  0.00     0.041 C 
ATOM     13  O   UNL     1      60.019  30.046  10.142  1.00  0.00    -0.550 OA
ATOM     14  O   UNL     1      59.079  28.297   9.001  1.00  0.00    -0.550 OA
ENDBRANCH  11  12
ENDBRANCH  10  11
ENDBRANCH   9  10
ENDBRANCH   8   9
ENDBRANCH   7   8
ENDBRANCH   6   7
ENDBRANCH   5   6
ENDBRANCH   4   5
ENDBRANCH   3   4
ENDBRANCH   2   3
ENDBRANCH   1   2
BRANCH   1  15
ATOM     15  C   UNL     1      59.750  32.085  14.317  1.00  0.00     0.000 C 
BRANCH  15  16
ATOM     16  C   UNL     1      60.797  33.182  14.073  1.00  0.00     0.000 C 
BRANCH  16  17
ATOM     17  C   UNL     1      61.783  33.271  15.248  1.00  0.00     0.000 C 
BRANCH  17  18
ATOM     18  C   UNL     1      61.156  33.905  16.500  1.00  0.00    -0.000 C 
BRANCH  18  19
ATOM     19  C   UNL     1      62.210  34.420  17.493  1.00  0.00    -0.000 C 
BRANCH  19  20
ATOM     20  C   UNL     1      63.361  33.412  17.640  1.00  0.00    -0.000 C 
BRANCH  20  21
ATOM     21  C   UNL     1      64.738  34.035  17.358  1.00  0.00    -0.000 C 
BRANCH  21  22
ATOM     22  C   UNL     1      65.841  32.978  17.179  1.00  0.00    -0.000 C 
BRANCH  22  23
ATOM     23  C   UNL     1      65.875  32.381  15.760  1.00  0.00    -0.000 C 
BRANCH  23  24
ATOM     24  C   UNL     1      66.444  33.310  14.672  1.00  0.00    -0.000 C 
BRANCH  24  25
ATOM     25  C   UNL     1      65.352  33.957  13.807  1.00  0.00    -0.003 C 
ATOM     26  C   UNL     1      65.963  34.763  12.663  1.00  0.00     0.004 C 
ENDBRANCH  24  25
ENDBRANCH  23  24
ENDBRANCH  22  23
ENDBRANCH  21  22
ENDBRANCH  20  21
ENDBRANCH  19  20
ENDBRANCH  18  19
ENDBRANCH  17  18
ENDBRANCH  16  17
ENDBRANCH  15  16
ENDBRANCH   1  15
TORSDOF 22
ENDMDL
