MODEL 1
REMARK VINA RESULT:    -1.956      0.000      0.000
REMARK INTER + INTRA:          -6.133
REMARK INTER:                  -4.244
REMARK INTRA:                  -1.890
REMARK UNBOUND:                -1.890
REMARK SMILES CCCCCCCCCCCCCCCCCCCCCC(=O)[O-]
REMARK SMILES IDX 12 1 11 2 10 3 9 4 8 5 7 6 6 7 5 8 4 9 3 10 2 11 1 12 13 13
REMARK SMILES IDX 14 14 15 15 16 16 17 17 18 18 19 19 20 20 21 21 22 22 23 23
REMARK SMILES IDX 24 24
REMARK H PARENT
REMARK Flexibility Score: inf
ROOT
ATOM      1  C   UNL     1      14.147  19.236  11.601  1.00  0.00     0.000 C 
ENDROOT
BRANCH   1   2
ATOM      2  C   UNL     1      14.214  20.721  11.200  1.00  0.00     0.000 C 
BRANCH   2   3
ATOM      3  C   UNL     1      15.628  21.313  11.379  1.00  0.00     0.000 C 
BRANCH   3   4
ATOM      4  C   UNL     1      16.431  21.415  10.070  1.00  0.00    -0.000 C 
BRANCH   4   5
ATOM      5  C   UNL     1      17.124  20.099   9.689  1.00  0.00    -0.000 C 
BRANCH   5   6
ATOM      6  C   UNL     1      17.041  19.844   8.177  1.00  0.00    -0.000 C 
BRANCH   6   7
ATOM      7  C   UNL     1      17.119  18.338   7.841  1.00  0.00    -0.000 C 
BRANCH   7   8
ATOM      8  C   UNL     1      15.782  17.600   8.032  1.00  0.00    -0.000 C 
BRANCH   8   9
ATOM      9  C   UNL     1      15.817  16.598   9.198  1.00  0.00    -0.000 C 
BRANCH   9  10
ATOM     10  C   UNL     1      15.431  15.171   8.751  1.00  0.00    -0.000 C 
BRANCH  10  11
ATOM     11  C   UNL     1      16.600  14.383   8.134  1.00  0.00    -0.003 C 
ATOM     12  C   UNL     1      16.156  13.416   7.038  1.00  0.00     0.004 C 
ENDBRANCH  10  11
ENDBRANCH   9  10
ENDBRANCH   8   9
ENDBRANCH   7   8
ENDBRANCH   6   7
ENDBRANCH   5   6
ENDBRANCH   4   5
ENDBRANCH   3   4
ENDBRANCH   2   3
ENDBRANCH   1   2
BRANCH   1  13
ATOM     13  C   UNL     1      14.820  18.952  12.955  1.00  0.00     0.000 C 
BRANCH  13  14
ATOM     14  C   UNL     1      16.354  18.811  12.861  1.00  0.00     0.000 C 
BRANCH  14  15
ATOM     15  C   UNL     1      16.771  17.542  12.098  1.00  0.00     0.000 C 
BRANCH  15  16
ATOM     16  C   UNL     1      16.973  16.327  13.019  1.00  0.00     0.000 C 
BRANCH  16  17
ATOM     17  C   UNL     1      16.011  15.172  12.693  1.00  0.00     0.000 C 
BRANCH  17  18
ATOM     18  C   UNL     1      16.709  13.798  12.665  1.00  0.00     0.000 C 
BRANCH  18  19
ATOM     19  C   UNL     1      17.125  13.303  11.267  1.00  0.00     0.000 C 
BRANCH  19  20
ATOM     20  C   UNL     1      16.714  11.844  10.996  1.00  0.00     0.006 C 
BRANCH  20  21
ATOM     21  C   UNL     1      15.512  11.412  11.847  1.00  0.00     0.053 C 
BRANCH  21  22
ATOM     22  C   UNL     1      14.221  11.915  11.278  1.00  0.00     0.041 C 
ATOM     23  O   UNL     1      13.821  11.510  10.155  1.00  0.00    -0.550 OA
ATOM     24  O   UNL     1      13.477  12.859  11.972  1.00  0.00    -0.550 OA
ENDBRANCH  21  22
ENDBRANCH  20  21
ENDBRANCH  19  20
ENDBRANCH  18  19
ENDBRANCH  17  18
ENDBRANCH  16  17
ENDBRANCH  15  16
ENDBRANCH  14  15
ENDBRANCH  13  14
ENDBRANCH   1  13
TORSDOF 20
ENDMDL
MODEL 2
REMARK VINA RESULT:    -1.494      3.010      7.475
REMARK INTER + INTRA:          -5.130
REMARK INTER:                  -3.939
REMARK INTRA:                  -1.191
REMARK UNBOUND:                -1.890
REMARK SMILES CCCCCCCCCCCCCCCCCCCCCC(=O)[O-]
REMARK SMILES IDX 12 1 11 2 10 3 9 4 8 5 7 6 6 7 5 8 4 9 3 10 2 11 1 12 13 13
REMARK SMILES IDX 14 14 15 15 16 16 17 17 18 18 19 19 20 20 21 21 22 22 23 23
REMARK SMILES IDX 24 24
REMARK H PARENT
REMARK Flexibility Score: inf
ROOT
ATOM      1  C   UNL     1      13.336  12.225   8.774  1.00  0.00     0.000 C 
ENDROOT
BRANCH   1   2
ATOM      2  C   UNL     1      14.171  12.841   9.912  1.00  0.00     0.000 C 
BRANCH   2   3
ATOM      3  C   UNL     1      14.819  11.768  10.812  1.00  0.00     0.000 C 
BRANCH   3   4
ATOM      4  C   UNL     1      14.877  12.156  12.301  1.00  0.00    -0.000 C 
BRANCH   4   5
ATOM      5  C   UNL     1      16.294  12.511  12.771  1.00  0.00    -0.000 C 
BRANCH   5   6
ATOM      6  C   UNL     1      16.746  13.865  12.206  1.00  0.00    -0.000 C 
BRANCH   6   7
ATOM      7  C   UNL     1      16.183  15.049  13.024  1.00  0.00    -0.000 C 
BRANCH   7   8
ATOM      8  C   UNL     1      16.022  16.338  12.200  1.00  0.00    -0.000 C 
BRANCH   8   9
ATOM      9  C   UNL     1      15.489  17.516  13.034  1.00  0.00    -0.000 C 
BRANCH   9  10
ATOM     10  C   UNL     1      14.503  18.396  12.235  1.00  0.00    -0.000 C 
BRANCH  10  11
ATOM     11  C   UNL     1      13.573  19.240  13.125  1.00  0.00    -0.003 C 
ATOM     12  C   UNL     1      13.147  20.551  12.468  1.00  0.00     0.004 C 
ENDBRANCH  10  11
ENDBRANCH   9  10
ENDBRANCH   8   9
ENDBRANCH   7   8
ENDBRANCH   6   7
ENDBRANCH   5   6
ENDBRANCH   4   5
ENDBRANCH   3   4
ENDBRANCH   2   3
ENDBRANCH   1   2
BRANCH   1  13
ATOM     13  C   UNL     1      13.912  12.527   7.380  1.00  0.00     0.000 C 
BRANCH  13  14
ATOM     14  C   UNL     1      14.773  13.808   7.335  1.00  0.00     0.000 C 
BRANCH  14  15
ATOM     15  C   UNL     1      16.278  13.492   7.365  1.00  0.00     0.000 C 
BRANCH  15  16
ATOM     16  C   UNL     1      17.015  14.189   8.521  1.00  0.00     0.000 C 
BRANCH  16  17
ATOM     17  C   UNL     1      16.353  15.516   8.929  1.00  0.00     0.000 C 
BRANCH  17  18
ATOM     18  C   UNL     1      16.468  16.604   7.843  1.00  0.00     0.000 C 
BRANCH  18  19
ATOM     19  C   UNL     1      17.124  17.920   8.301  1.00  0.00     0.000 C 
BRANCH  19  20
ATOM     20  C   UNL     1      16.103  18.978   8.756  1.00  0.00     0.006 C 
BRANCH  20  21
ATOM     21  C   UNL     1      16.276  19.354  10.234  1.00  0.00     0.053 C 
BRANCH  21  22
ATOM     22  C   UNL     1      16.571  20.812  10.404  1.00  0.00     0.041 C 
ATOM     23  O   UNL     1      17.106  21.465   9.470  1.00  0.00    -0.550 OA
ATOM     24  O   UNL     1      16.287  21.442  11.608  1.00  0.00    -0.550 OA
ENDBRANCH  21  22
ENDBRANCH  20  21
ENDBRANCH  19  20
ENDBRANCH  18  19
ENDBRANCH  17  18
ENDBRANCH  16  17
ENDBRANCH  15  16
ENDBRANCH  14  15
ENDBRANCH  13  14
ENDBRANCH   1  13
TORSDOF 20
ENDMDL
MODEL 3
REMARK VINA RESULT:    -1.000      2.049      5.922
REMARK INTER + INTRA:          -4.059
REMARK INTER:                  -3.271
REMARK INTRA:                  -0.788
REMARK UNBOUND:                -1.890
REMARK SMILES CCCCCCCCCCCCCCCCCCCCCC(=O)[O-]
REMARK SMILES IDX 12 1 11 2 10 3 9 4 8 5 7 6 6 7 5 8 4 9 3 10 2 11 1 12 13 13
REMARK SMILES IDX 14 14 15 15 16 16 17 17 18 18 19 19 20 20 21 21 22 22 23 23
REMARK SMILES IDX 24 24
REMARK H PARENT
REMARK Flexibility Score: inf
ROOT
ATOM      1  C   UNL     1      14.114  13.734   7.960  1.00  0.00     0.000 C 
ENDROOT
BRANCH   1   2
ATOM      2  C   UNL     1      14.816  13.137   6.726  1.00  0.00     0.000 C 
BRANCH   2   3
ATOM      3  C   UNL     1      16.352  13.258   6.810  1.00  0.00     0.000 C 
BRANCH   3   4
ATOM      4  C   UNL     1      16.839  14.539   7.512  1.00  0.00    -0.000 C 
BRANCH   4   5
ATOM      5  C   UNL     1      16.696  15.792   6.637  1.00  0.00    -0.000 C 
BRANCH   5   6
ATOM      6  C   UNL     1      17.125  17.055   7.398  1.00  0.00    -0.000 C 
BRANCH   6   7
ATOM      7  C   UNL     1      15.971  17.638   8.244  1.00  0.00    -0.000 C 
BRANCH   7   8
ATOM      8  C   UNL     1      16.336  18.960   8.944  1.00  0.00    -0.000 C 
BRANCH   8   9
ATOM      9  C   UNL     1      15.705  19.087  10.341  1.00  0.00    -0.000 C 
BRANCH   9  10
ATOM     10  C   UNL     1      15.365  20.552  10.694  1.00  0.00    -0.000 C 
BRANCH  10  11
ATOM     11  C   UNL     1      14.083  20.700  11.531  1.00  0.00    -0.003 C 
ATOM     12  C   UNL     1      14.057  21.983  12.361  1.00  0.00     0.004 C 
ENDBRANCH  10  11
ENDBRANCH   9  10
ENDBRANCH   8   9
ENDBRANCH   7   8
ENDBRANCH   6   7
ENDBRANCH   5   6
ENDBRANCH   4   5
ENDBRANCH   3   4
ENDBRANCH   2   3
ENDBRANCH   1   2
BRANCH   1  13
ATOM     13  C   UNL     1      13.851  12.692   9.060  1.00  0.00     0.000 C 
BRANCH  13  14
ATOM     14  C   UNL     1      15.122  12.285   9.837  1.00  0.00     0.000 C 
BRANCH  14  15
ATOM     15  C   UNL     1      14.834  11.189  10.878  1.00  0.00     0.000 C 
BRANCH  15  16
ATOM     16  C   UNL     1      15.874  10.057  10.861  1.00  0.00     0.000 C 
BRANCH  16  17
ATOM     17  C   UNL     1      16.562   9.867  12.224  1.00  0.00     0.000 C 
BRANCH  17  18
ATOM     18  C   UNL     1      16.467  11.114  13.125  1.00  0.00     0.000 C 
BRANCH  18  19
ATOM     19  C   UNL     1      17.125  12.385  12.557  1.00  0.00     0.000 C 
BRANCH  19  20
ATOM     20  C   UNL     1      16.522  13.682  13.125  1.00  0.00     0.006 C 
BRANCH  20  21
ATOM     21  C   UNL     1      15.843  14.530  12.041  1.00  0.00     0.053 C 
BRANCH  21  22
ATOM     22  C   UNL     1      16.071  15.994  12.259  1.00  0.00     0.041 C 
ATOM     23  O   UNL     1      17.083  16.560  11.769  1.00  0.00    -0.550 OA
ATOM     24  O   UNL     1      15.184  16.727  13.036  1.00  0.00    -0.550 OA
ENDBRANCH  21  22
ENDBRANCH  20  21
ENDBRANCH  19  20
ENDBRANCH  18  19
ENDBRANCH  17  18
ENDBRANCH  16  17
ENDBRANCH  15  16
ENDBRANCH  14  15
ENDBRANCH  13  14
ENDBRANCH   1  13
TORSDOF 20
ENDMDL
MODEL 4
REMARK VINA RESULT:    -0.997      5.380      8.994
REMARK INTER + INTRA:          -4.052
REMARK INTER:                  -2.106
REMARK INTRA:                  -1.945
REMARK UNBOUND:                -1.890
REMARK SMILES CCCCCCCCCCCCCCCCCCCCCC(=O)[O-]
REMARK SMILES IDX 12 1 11 2 10 3 9 4 8 5 7 6 6 7 5 8 4 9 3 10 2 11 1 12 13 13
REMARK SMILES IDX 14 14 15 15 16 16 17 17 18 18 19 19 20 20 21 21 22 22 23 23
REMARK SMILES IDX 24 24
REMARK H PARENT
REMARK Flexibility Score: inf
ROOT
ATOM      1  C   UNL     1      14.404  13.193   7.075  1.00  0.00     0.000 C 
ENDROOT
BRANCH   1   2
ATOM      2  C   UNL     1      13.777  12.537   8.318  1.00  0.00     0.000 C 
BRANCH   2   3
ATOM      3  C   UNL     1      14.637  12.738   9.585  1.00  0.00     0.000 C 
BRANCH   3   4
ATOM      4  C   UNL     1      13.843  12.632  10.899  1.00  0.00    -0.000 C 
BRANCH   4   5
ATOM      5  C   UNL     1      14.540  13.327  12.076  1.00  0.00    -0.000 C 
BRANCH   5   6
ATOM      6  C   UNL     1      16.025  13.580  11.774  1.00  0.00    -0.000 C 
BRANCH   6   7
ATOM      7  C   UNL     1      16.402  15.069  11.935  1.00  0.00    -0.000 C 
BRANCH   7   8
ATOM      8  C   UNL     1      16.500  15.822  10.596  1.00  0.00    -0.000 C 
BRANCH   8   9
ATOM      9  C   UNL     1      16.727  17.332  10.778  1.00  0.00    -0.000 C 
BRANCH   9  10
ATOM     10  C   UNL     1      15.778  18.173   9.896  1.00  0.00    -0.000 C 
BRANCH  10  11
ATOM     11  C   UNL     1      16.512  19.042   8.858  1.00  0.00    -0.003 C 
ATOM     12  C   UNL     1      16.712  20.484   9.322  1.00  0.00     0.004 C 
ENDBRANCH  10  11
ENDBRANCH   9  10
ENDBRANCH   8   9
ENDBRANCH   7   8
ENDBRANCH   6   7
ENDBRANCH   5   6
ENDBRANCH   4   5
ENDBRANCH   3   4
ENDBRANCH   2   3
ENDBRANCH   1   2
BRANCH   1  13
ATOM     13  C   UNL     1      15.601  14.097   7.415  1.00  0.00     0.000 C 
BRANCH  13  14
ATOM     14  C   UNL     1      15.295  15.604   7.270  1.00  0.00     0.000 C 
BRANCH  14  15
ATOM     15  C   UNL     1      16.357  16.328   6.426  1.00  0.00     0.000 C 
BRANCH  15  16
ATOM     16  C   UNL     1      15.783  16.946   5.139  1.00  0.00     0.000 C 
BRANCH  16  17
ATOM     17  C   UNL     1      14.359  16.452   4.832  1.00  0.00     0.000 C 
BRANCH  17  18
ATOM     18  C   UNL     1      13.826  16.958   3.477  1.00  0.00     0.000 C 
BRANCH  18  19
ATOM     19  C   UNL     1      14.889  17.559   2.538  1.00  0.00     0.000 C 
BRANCH  19  20
ATOM     20  C   UNL     1      14.314  17.998   1.179  1.00  0.00     0.006 C 
BRANCH  20  21
ATOM     21  C   UNL     1      15.047  19.219   0.607  1.00  0.00     0.053 C 
BRANCH  21  22
ATOM     22  C   UNL     1      14.167  20.016  -0.305  1.00  0.00     0.041 C 
ATOM     23  O   UNL     1      14.643  20.966  -0.979  1.00  0.00    -0.550 OA
ATOM     24  O   UNL     1      12.810  19.732  -0.384  1.00  0.00    -0.550 OA
ENDBRANCH  21  22
ENDBRANCH  20  21
ENDBRANCH  19  20
ENDBRANCH  18  19
ENDBRANCH  17  18
ENDBRANCH  16  17
ENDBRANCH  15  16
ENDBRANCH  14  15
ENDBRANCH  13  14
ENDBRANCH   1  13
TORSDOF 20
ENDMDL
MODEL 5
REMARK VINA RESULT:    -0.799      5.232      8.174
REMARK INTER + INTRA:          -3.624
REMARK INTER:                  -1.848
REMARK INTRA:                  -1.775
REMARK UNBOUND:                -1.890
REMARK SMILES CCCCCCCCCCCCCCCCCCCCCC(=O)[O-]
REMARK SMILES IDX 12 1 11 2 10 3 9 4 8 5 7 6 6 7 5 8 4 9 3 10 2 11 1 12 13 13
REMARK SMILES IDX 14 14 15 15 16 16 17 17 18 18 19 19 20 20 21 21 22 22 23 23
REMARK SMILES IDX 24 24
REMARK H PARENT
REMARK Flexibility Score: inf
ROOT
ATOM      1  C   UNL     1      17.125  18.225   9.746  1.00  0.00     0.000 C 
ENDROOT
BRANCH   1   2
ATOM      2  C   UNL     1      16.146  17.688  10.806  1.00  0.00     0.000 C 
BRANCH   2   3
ATOM      3  C   UNL     1      16.828  16.724  11.800  1.00  0.00     0.000 C 
BRANCH   3   4
ATOM      4  C   UNL     1      15.844  15.987  12.726  1.00  0.00    -0.000 C 
BRANCH   4   5
ATOM      5  C   UNL     1      16.223  14.517  12.954  1.00  0.00    -0.000 C 
BRANCH   5   6
ATOM      6  C   UNL     1      14.990  13.605  12.874  1.00  0.00    -0.000 C 
BRANCH   6   7
ATOM      7  C   UNL     1      15.028  12.690  11.630  1.00  0.00    -0.000 C 
BRANCH   7   8
ATOM      8  C   UNL     1      16.219  12.976  10.699  1.00  0.00    -0.000 C 
BRANCH   8   9
ATOM      9  C   UNL     1      15.807  13.083   9.220  1.00  0.00    -0.000 C 
BRANCH   9  10
ATOM     10  C   UNL     1      14.282  13.262   9.054  1.00  0.00    -0.000 C 
BRANCH  10  11
ATOM     11  C   UNL     1      13.693  12.457   7.882  1.00  0.00    -0.003 C 
ATOM     12  C   UNL     1      14.060  13.035   6.517  1.00  0.00     0.004 C 
ENDBRANCH  10  11
ENDBRANCH   9  10
ENDBRANCH   8   9
ENDBRANCH   7   8
ENDBRANCH   6   7
ENDBRANCH   5   6
ENDBRANCH   4   5
ENDBRANCH   3   4
ENDBRANCH   2   3
ENDBRANCH   1   2
BRANCH   1  13
ATOM     13  C   UNL     1      16.628  18.004   8.307  1.00  0.00     0.000 C 
BRANCH  13  14
ATOM     14  C   UNL     1      15.327  17.176   8.226  1.00  0.00     0.000 C 
BRANCH  14  15
ATOM     15  C   UNL     1      15.406  16.084   7.145  1.00  0.00     0.000 C 
BRANCH  15  16
ATOM     16  C   UNL     1      15.371  16.651   5.716  1.00  0.00     0.000 C 
BRANCH  16  17
ATOM     17  C   UNL     1      13.953  16.668   5.122  1.00  0.00     0.000 C 
BRANCH  17  18
ATOM     18  C   UNL     1      13.944  16.585   3.583  1.00  0.00     0.000 C 
BRANCH  18  19
ATOM     19  C   UNL     1      14.947  17.513   2.871  1.00  0.00     0.000 C 
BRANCH  19  20
ATOM     20  C   UNL     1      14.448  18.003   1.500  1.00  0.00     0.006 C 
BRANCH  20  21
ATOM     21  C   UNL     1      15.518  18.801   0.744  1.00  0.00     0.053 C 
BRANCH  21  22
ATOM     22  C   UNL     1      14.935  19.997   0.058  1.00  0.00     0.041 C 
ATOM     23  O   UNL     1      15.588  21.071  -0.012  1.00  0.00    -0.550 OA
ATOM     24  O   UNL     1      13.654  19.937  -0.474  1.00  0.00    -0.550 OA
ENDBRANCH  21  22
ENDBRANCH  20  21
ENDBRANCH  19  20
ENDBRANCH  18  19
ENDBRANCH  17  18
ENDBRANCH  16  17
ENDBRANCH  15  16
ENDBRANCH  14  15
ENDBRANCH  13  14
ENDBRANCH   1  13
TORSDOF 20
ENDMDL
MODEL 6
REMARK VINA RESULT:    -0.722      4.589      6.997
REMARK INTER + INTRA:          -3.456
REMARK INTER:                  -2.361
REMARK INTRA:                  -1.096
REMARK UNBOUND:                -1.890
REMARK SMILES CCCCCCCCCCCCCCCCCCCCCC(=O)[O-]
REMARK SMILES IDX 12 1 11 2 10 3 9 4 8 5 7 6 6 7 5 8 4 9 3 10 2 11 1 12 13 13
REMARK SMILES IDX 14 14 15 15 16 16 17 17 18 18 19 19 20 20 21 21 22 22 23 23
REMARK SMILES IDX 24 24
REMARK H PARENT
REMARK Flexibility Score: inf
ROOT
ATOM      1  C   UNL     1      14.783  13.906   9.020  1.00  0.00     0.000 C 
ENDROOT
BRANCH   1   2
ATOM      2  C   UNL     1      15.931  13.849   7.996  1.00  0.00     0.000 C 
BRANCH   2   3
ATOM      3  C   UNL     1      16.267  15.238   7.412  1.00  0.00     0.000 C 
BRANCH   3   4
ATOM      4  C   UNL     1      15.043  15.998   6.870  1.00  0.00    -0.000 C 
BRANCH   4   5
ATOM      5  C   UNL     1      15.227  16.475   5.423  1.00  0.00    -0.000 C 
BRANCH   5   6
ATOM      6  C   UNL     1      13.879  16.830   4.778  1.00  0.00    -0.000 C 
BRANCH   6   7
ATOM      7  C   UNL     1      13.896  16.613   3.249  1.00  0.00    -0.000 C 
BRANCH   7   8
ATOM      8  C   UNL     1      14.731  17.662   2.493  1.00  0.00    -0.000 C 
BRANCH   8   9
ATOM      9  C   UNL     1      14.152  17.998   1.108  1.00  0.00    -0.000 C 
BRANCH   9  10
ATOM     10  C   UNL     1      14.861  19.207   0.459  1.00  0.00    -0.000 C 
BRANCH  10  11
ATOM     11  C   UNL     1      13.901  20.160  -0.275  1.00  0.00    -0.003 C 
ATOM     12  C   UNL     1      14.627  21.174  -1.157  1.00  0.00     0.004 C 
ENDBRANCH  10  11
ENDBRANCH   9  10
ENDBRANCH   8   9
ENDBRANCH   7   8
ENDBRANCH   6   7
ENDBRANCH   5   6
ENDBRANCH   4   5
ENDBRANCH   3   4
ENDBRANCH   2   3
ENDBRANCH   1   2
BRANCH   1  13
ATOM     13  C   UNL     1      14.196  12.520   9.337  1.00  0.00     0.000 C 
BRANCH  13  14
ATOM     14  C   UNL     1      14.206  12.178  10.842  1.00  0.00     0.000 C 
BRANCH  14  15
ATOM     15  C   UNL     1      15.378  12.850  11.578  1.00  0.00     0.000 C 
BRANCH  15  16
ATOM     16  C   UNL     1      14.920  13.916  12.588  1.00  0.00     0.000 C 
BRANCH  16  17
ATOM     17  C   UNL     1      16.004  14.972  12.864  1.00  0.00     0.000 C 
BRANCH  17  18
ATOM     18  C   UNL     1      16.608  15.565  11.576  1.00  0.00     0.000 C 
BRANCH  18  19
ATOM     19  C   UNL     1      16.819  17.091  11.593  1.00  0.00     0.000 C 
BRANCH  19  20
ATOM     20  C   UNL     1      15.834  17.827  12.518  1.00  0.00     0.006 C 
BRANCH  20  21
ATOM     21  C   UNL     1      15.930  19.351  12.374  1.00  0.00     0.053 C 
BRANCH  21  22
ATOM     22  C   UNL     1      15.147  19.846  11.197  1.00  0.00     0.041 C 
ATOM     23  O   UNL     1      15.321  19.339  10.059  1.00  0.00    -0.550 OA
ATOM     24  O   UNL     1      14.250  20.895  11.352  1.00  0.00    -0.550 OA
ENDBRANCH  21  22
ENDBRANCH  20  21
ENDBRANCH  19  20
ENDBRANCH  18  19
ENDBRANCH  17  18
ENDBRANCH  16  17
ENDBRANCH  15  16
ENDBRANCH  14  15
ENDBRANCH  13  14
ENDBRANCH   1  13
TORSDOF 20
ENDMDL
MODEL 7
REMARK VINA RESULT:    -0.664      2.683      6.820
REMARK INTER + INTRA:          -3.329
REMARK INTER:                  -2.510
REMARK INTRA:                  -0.820
REMARK UNBOUND:                -1.890
REMARK SMILES CCCCCCCCCCCCCCCCCCCCCC(=O)[O-]
REMARK SMILES IDX 12 1 11 2 10 3 9 4 8 5 7 6 6 7 5 8 4 9 3 10 2 11 1 12 13 13
REMARK SMILES IDX 14 14 15 15 16 16 17 17 18 18 19 19 20 20 21 21 22 22 23 23
REMARK SMILES IDX 24 24
REMARK H PARENT
REMARK Flexibility Score: inf
ROOT
ATOM      1  C   UNL     1      14.699  15.336   6.177  1.00  0.00     0.000 C 
ENDROOT
BRANCH   1   2
ATOM      2  C   UNL     1      14.455  14.328   7.316  1.00  0.00     0.000 C 
BRANCH   2   3
ATOM      3  C   UNL     1      15.562  13.255   7.397  1.00  0.00     0.000 C 
BRANCH   3   4
ATOM      4  C   UNL     1      16.956  13.822   7.723  1.00  0.00    -0.000 C 
BRANCH   4   5
ATOM      5  C   UNL     1      17.113  14.209   9.199  1.00  0.00    -0.000 C 
BRANCH   5   6
ATOM      6  C   UNL     1      15.749  14.473   9.855  1.00  0.00    -0.000 C 
BRANCH   6   7
ATOM      7  C   UNL     1      15.895  15.026  11.290  1.00  0.00    -0.000 C 
BRANCH   7   8
ATOM      8  C   UNL     1      16.043  13.926  12.356  1.00  0.00    -0.000 C 
BRANCH   8   9
ATOM      9  C   UNL     1      14.740  13.141  12.585  1.00  0.00    -0.000 C 
BRANCH   9  10
ATOM     10  C   UNL     1      14.923  11.627  12.345  1.00  0.00    -0.000 C 
BRANCH  10  11
ATOM     11  C   UNL     1      16.352  11.129  12.626  1.00  0.00    -0.003 C 
ATOM     12  C   UNL     1      16.843  10.113  11.596  1.00  0.00     0.004 C 
ENDBRANCH  10  11
ENDBRANCH   9  10
ENDBRANCH   8   9
ENDBRANCH   7   8
ENDBRANCH   6   7
ENDBRANCH   5   6
ENDBRANCH   4   5
ENDBRANCH   3   4
ENDBRANCH   2   3
ENDBRANCH   1   2
BRANCH   1  13
ATOM     13  C   UNL     1      15.762  16.390   6.530  1.00  0.00     0.000 C 
BRANCH  13  14
ATOM     14  C   UNL     1      15.516  17.080   7.889  1.00  0.00     0.000 C 
BRANCH  14  15
ATOM     15  C   UNL     1      16.734  17.901   8.346  1.00  0.00     0.000 C 
BRANCH  15  16
ATOM     16  C   UNL     1      16.900  17.928   9.875  1.00  0.00     0.000 C 
BRANCH  16  17
ATOM     17  C   UNL     1      17.124  19.349  10.419  1.00  0.00     0.000 C 
BRANCH  17  18
ATOM     18  C   UNL     1      15.808  20.098  10.708  1.00  0.00     0.000 C 
BRANCH  18  19
ATOM     19  C   UNL     1      15.935  21.305  11.657  1.00  0.00     0.000 C 
BRANCH  19  20
ATOM     20  C   UNL     1      15.351  21.037  13.055  1.00  0.00     0.006 C 
BRANCH  20  21
ATOM     21  C   UNL     1      14.369  19.858  13.058  1.00  0.00     0.053 C 
BRANCH  21  22
ATOM     22  C   UNL     1      12.946  20.324  13.043  1.00  0.00     0.041 C 
ATOM     23  O   UNL     1      12.004  19.492  13.125  1.00  0.00    -0.550 OA
ATOM     24  O   UNL     1      12.658  21.675  12.903  1.00  0.00    -0.550 OA
ENDBRANCH  21  22
ENDBRANCH  20  21
ENDBRANCH  19  20
ENDBRANCH  18  19
ENDBRANCH  17  18
ENDBRANCH  16  17
ENDBRANCH  15  16
ENDBRANCH  14  15
ENDBRANCH  13  14
ENDBRANCH   1  13
TORSDOF 20
ENDMDL
MODEL 8
REMARK VINA RESULT:    -0.643      1.455      2.083
REMARK INTER + INTRA:          -3.286
REMARK INTER:                  -2.615
REMARK INTRA:                  -0.670
REMARK UNBOUND:                -1.890
REMARK SMILES CCCCCCCCCCCCCCCCCCCCCC(=O)[O-]
REMARK SMILES IDX 12 1 11 2 10 3 9 4 8 5 7 6 6 7 5 8 4 9 3 10 2 11 1 12 13 13
REMARK SMILES IDX 14 14 15 15 16 16 17 17 18 18 19 19 20 20 21 21 22 22 23 23
REMARK SMILES IDX 24 24
REMARK H PARENT
REMARK Flexibility Score: inf
ROOT
ATOM      1  C   UNL     1      14.432  19.022  10.693  1.00  0.00     0.000 C 
ENDROOT
BRANCH   1   2
ATOM      2  C   UNL     1      15.115  20.380  10.450  1.00  0.00     0.000 C 
BRANCH   2   3
ATOM      3  C   UNL     1      16.629  20.237  10.185  1.00  0.00     0.000 C 
BRANCH   3   4
ATOM      4  C   UNL     1      16.987  20.054   8.700  1.00  0.00    -0.000 C 
BRANCH   4   5
ATOM      5  C   UNL     1      17.106  18.579   8.291  1.00  0.00    -0.000 C 
BRANCH   5   6
ATOM      6  C   UNL     1      15.800  18.069   7.664  1.00  0.00    -0.000 C 
BRANCH   6   7
ATOM      7  C   UNL     1      15.004  17.171   8.638  1.00  0.00    -0.000 C 
BRANCH   7   8
ATOM      8  C   UNL     1      14.840  15.725   8.138  1.00  0.00    -0.000 C 
BRANCH   8   9
ATOM      9  C   UNL     1      16.077  15.213   7.381  1.00  0.00    -0.000 C 
BRANCH   9  10
ATOM     10  C   UNL     1      16.187  13.673   7.421  1.00  0.00    -0.000 C 
BRANCH  10  11
ATOM     11  C   UNL     1      14.935  12.982   7.991  1.00  0.00    -0.003 C 
ATOM     12  C   UNL     1      13.903  12.639   6.918  1.00  0.00     0.004 C 
ENDBRANCH  10  11
ENDBRANCH   9  10
ENDBRANCH   8   9
ENDBRANCH   7   8
ENDBRANCH   6   7
ENDBRANCH   5   6
ENDBRANCH   4   5
ENDBRANCH   3   4
ENDBRANCH   2   3
ENDBRANCH   1   2
BRANCH   1  13
ATOM     13  C   UNL     1      14.480  18.584  12.166  1.00  0.00     0.000 C 
BRANCH  13  14
ATOM     14  C   UNL     1      15.784  17.851  12.548  1.00  0.00     0.000 C 
BRANCH  14  15
ATOM     15  C   UNL     1      16.521  17.305  11.313  1.00  0.00     0.000 C 
BRANCH  15  16
ATOM     16  C   UNL     1      17.107  15.901  11.535  1.00  0.00     0.000 C 
BRANCH  16  17
ATOM     17  C   UNL     1      16.981  15.433  12.995  1.00  0.00     0.000 C 
BRANCH  17  18
ATOM     18  C   UNL     1      16.382  14.019  13.125  1.00  0.00     0.000 C 
BRANCH  18  19
ATOM     19  C   UNL     1      14.895  13.900  12.742  1.00  0.00     0.000 C 
BRANCH  19  20
ATOM     20  C   UNL     1      14.676  13.250  11.364  1.00  0.00     0.006 C 
BRANCH  20  21
ATOM     21  C   UNL     1      14.888  11.731  11.399  1.00  0.00     0.053 C 
BRANCH  21  22
ATOM     22  C   UNL     1      16.273  11.354  10.974  1.00  0.00     0.041 C 
ATOM     23  O   UNL     1      16.770  10.253  11.329  1.00  0.00    -0.550 OA
ATOM     24  O   UNL     1      17.031  12.237  10.216  1.00  0.00    -0.550 OA
ENDBRANCH  21  22
ENDBRANCH  20  21
ENDBRANCH  19  20
ENDBRANCH  18  19
ENDBRANCH  17  18
ENDBRANCH  16  17
ENDBRANCH  15  16
ENDBRANCH  14  15
ENDBRANCH  13  14
ENDBRANCH   1  13
TORSDOF 20
ENDMDL
