MODEL 1
REMARK VINA RESULT:    -6.036      0.000      0.000
REMARK INTER + INTRA:         -10.574
REMARK INTER:                  -8.858
REMARK INTRA:                  -1.715
REMARK UNBOUND:                -1.715
REMARK SMILES O=c1c(O[C@@H]2O[C@@H](CO)[C@@H](O)[C@@H](O)[C@@H]2O)c(-c2ccc(O)c(O)c2)oc2cc(O)cc(O)c12
REMARK SMILES IDX 4 1 3 2 16 3 25 4 2 5 26 6 1 7 33 8 27 9 31 10 28 11 30 12
REMARK SMILES IDX 17 13 18 14 19 15 20 16 24 17 22 18 21 19 23 21 32 23 29 25
REMARK SMILES IDX 5 27 14 28 6 29 12 30 7 31 10 32 15 33 13 35 8 37 9 38 11 40
REMARK H PARENT 21 20 23 22 32 24 29 26 15 34 13 36 9 39 11 41
REMARK Flexibility Score: inf
ROOT
ATOM      1  O   UNL     1      17.980  42.705  76.110  1.00  0.00    -0.454 OA
ENDROOT
BRANCH   1   2
ATOM      2  C   UNL     1      18.361  41.457  76.641  1.00  0.00     0.214 A 
ATOM      3  C   UNL     1      18.831  41.416  77.966  1.00  0.00     0.180 A 
ATOM      4  O   UNL     1      19.254  40.271  78.488  1.00  0.00    -0.452 OA
ATOM      5  C   UNL     1      18.314  40.253  75.905  1.00  0.00     0.239 A 
ATOM      6  C   UNL     1      19.264  39.124  77.822  1.00  0.00     0.146 A 
ATOM      7  O   UNL     1      17.776  40.241  74.769  1.00  0.00    -0.285 OA
ATOM      8  C   UNL     1      18.824  39.061  76.475  1.00  0.00     0.111 A 
ATOM      9  C   UNL     1      19.703  37.974  78.482  1.00  0.00     0.094 A 
ATOM     10  C   UNL     1      18.894  37.806  75.796  1.00  0.00     0.134 A 
ATOM     11  C   UNL     1      19.708  36.741  77.827  1.00  0.00     0.123 A 
ATOM     12  C   UNL     1      19.300  36.663  76.496  1.00  0.00     0.093 A 
BRANCH   3  13
ATOM     13  C   UNL     1      18.898  42.631  78.807  1.00  0.00     0.025 A 
ATOM     14  C   UNL     1      20.008  43.484  78.704  1.00  0.00     0.016 A 
ATOM     15  C   UNL     1      20.087  44.639  79.486  1.00  0.00     0.051 A 
ATOM     16  C   UNL     1      19.063  44.953  80.390  1.00  0.00     0.157 A 
ATOM     17  C   UNL     1      17.885  42.935  79.735  1.00  0.00     0.062 A 
ATOM     18  C   UNL     1      17.960  44.094  80.516  1.00  0.00     0.158 A 
BRANCH  16  19
ATOM     19  O   UNL     1      19.142  46.110  81.163  1.00  0.00    -0.504 OA
ATOM     20  H   UNL     1      19.987  46.356  81.665  1.00  0.00     0.293 HD
ENDBRANCH  16  19
BRANCH  18  21
ATOM     21  O   UNL     1      16.929  44.371  81.414  1.00  0.00    -0.504 OA
ATOM     22  H   UNL     1      16.854  45.264  81.887  1.00  0.00     0.293 HD
ENDBRANCH  18  21
ENDBRANCH   3  13
BRANCH  10  23
ATOM     23  O   UNL     1      18.607  37.636  74.439  1.00  0.00    -0.507 OA
ATOM     24  H   UNL     1      17.760  37.224  74.079  1.00  0.00     0.293 HD
ENDBRANCH  10  23
BRANCH  11  25
ATOM     25  O   UNL     1      20.125  35.588  78.488  1.00  0.00    -0.508 OA
ATOM     26  H   UNL     1      20.465  35.617  79.442  1.00  0.00     0.293 HD
ENDBRANCH  11  25
ENDBRANCH   1   2
BRANCH   1  27
ATOM     27  C   UNL     1      18.520  43.345  74.949  1.00  0.00     0.339 C 
ATOM     28  C   UNL     1      17.390  43.739  73.972  1.00  0.00     0.214 C 
ATOM     29  O   UNL     1      19.306  44.476  75.302  1.00  0.00    -0.332 OA
ATOM     30  C   UNL     1      16.528  44.871  74.562  1.00  0.00     0.180 C 
ATOM     31  C   UNL     1      18.527  45.468  75.958  1.00  0.00     0.179 C 
ATOM     32  C   UNL     1      17.435  46.029  75.018  1.00  0.00     0.177 C 
BRANCH  28  33
ATOM     33  O   UNL     1      16.607  42.623  73.626  1.00  0.00    -0.384 OA
ATOM     34  H   UNL     1      16.584  42.559  72.637  1.00  0.00     0.211 HD
ENDBRANCH  28  33
BRANCH  30  35
ATOM     35  O   UNL     1      15.609  45.313  73.597  1.00  0.00    -0.387 OA
ATOM     36  H   UNL     1      15.594  46.304  73.650  1.00  0.00     0.211 HD
ENDBRANCH  30  35
BRANCH  31  37
ATOM     37  C   UNL     1      19.453  46.572  76.494  1.00  0.00     0.191 C 
BRANCH  37  38
ATOM     38  O   UNL     1      18.757  47.773  76.703  1.00  0.00    -0.394 OA
ATOM     39  H   UNL     1      18.967  48.069  77.627  1.00  0.00     0.210 HD
ENDBRANCH  37  38
ENDBRANCH  31  37
BRANCH  32  40
ATOM     40  O   UNL     1      18.030  46.648  73.904  1.00  0.00    -0.387 OA
ATOM     41  H   UNL     1      17.292  46.990  73.334  1.00  0.00     0.211 HD
ENDBRANCH  32  40
ENDBRANCH   1  27
TORSDOF 12
ENDMDL
MODEL 2
REMARK VINA RESULT:    -5.777     15.848     19.229
REMARK INTER + INTRA:         -10.194
REMARK INTER:                  -9.489
REMARK INTRA:                  -0.705
REMARK UNBOUND:                -1.715
REMARK SMILES O=c1c(O[C@@H]2O[C@@H](CO)[C@@H](O)[C@@H](O)[C@@H]2O)c(-c2ccc(O)c(O)c2)oc2cc(O)cc(O)c12
REMARK SMILES IDX 4 1 3 2 16 3 25 4 2 5 26 6 1 7 33 8 27 9 31 10 28 11 30 12
REMARK SMILES IDX 17 13 18 14 19 15 20 16 24 17 22 18 21 19 23 21 32 23 29 25
REMARK SMILES IDX 5 27 14 28 6 29 12 30 7 31 10 32 15 33 13 35 8 37 9 38 11 40
REMARK H PARENT 21 20 23 22 32 24 29 26 15 34 13 36 9 39 11 41
REMARK Flexibility Score: inf
ROOT
ATOM      1  O   UNL     1       5.268  33.497  70.640  1.00  0.00    -0.454 OA
ENDROOT
BRANCH   1   2
ATOM      2  C   UNL     1       4.402  33.998  69.649  1.00  0.00     0.214 A 
ATOM      3  C   UNL     1       4.838  33.969  68.311  1.00  0.00     0.180 A 
ATOM      4  O   UNL     1       4.079  34.483  67.352  1.00  0.00    -0.452 OA
ATOM      5  C   UNL     1       3.132  34.547  69.931  1.00  0.00     0.239 A 
ATOM      6  C   UNL     1       2.897  35.041  67.575  1.00  0.00     0.146 A 
ATOM      7  O   UNL     1       2.667  34.464  71.095  1.00  0.00    -0.285 OA
ATOM      8  C   UNL     1       2.374  35.135  68.890  1.00  0.00     0.111 A 
ATOM      9  C   UNL     1       2.171  35.524  66.483  1.00  0.00     0.094 A 
ATOM     10  C   UNL     1       1.113  35.782  69.074  1.00  0.00     0.134 A 
ATOM     11  C   UNL     1       0.913  36.098  66.670  1.00  0.00     0.123 A 
ATOM     12  C   UNL     1       0.391  36.219  67.957  1.00  0.00     0.093 A 
BRANCH   3  13
ATOM     13  C   UNL     1       6.150  33.399  67.932  1.00  0.00     0.025 A 
ATOM     14  C   UNL     1       7.328  34.065  68.305  1.00  0.00     0.016 A 
ATOM     15  C   UNL     1       8.575  33.540  67.961  1.00  0.00     0.051 A 
ATOM     16  C   UNL     1       8.664  32.347  67.229  1.00  0.00     0.157 A 
ATOM     17  C   UNL     1       6.242  32.217  67.175  1.00  0.00     0.062 A 
ATOM     18  C   UNL     1       7.490  31.686  66.832  1.00  0.00     0.158 A 
BRANCH  16  19
ATOM     19  O   UNL     1       9.911  31.822  66.894  1.00  0.00    -0.504 OA
ATOM     20  H   UNL     1      10.585  32.356  66.358  1.00  0.00     0.293 HD
ENDBRANCH  16  19
BRANCH  18  21
ATOM     21  O   UNL     1       7.543  30.504  66.095  1.00  0.00    -0.504 OA
ATOM     22  H   UNL     1       7.016  30.379  65.239  1.00  0.00     0.293 HD
ENDBRANCH  18  21
ENDBRANCH   3  13
BRANCH  10  23
ATOM     23  O   UNL     1       0.547  36.045  70.325  1.00  0.00    -0.507 OA
ATOM     24  H   UNL     1      -0.090  36.802  70.518  1.00  0.00     0.293 HD
ENDBRANCH  10  23
BRANCH  11  25
ATOM     25  O   UNL     1       0.175  36.561  65.583  1.00  0.00    -0.508 OA
ATOM     26  H   UNL     1       0.107  36.028  64.723  1.00  0.00     0.293 HD
ENDBRANCH  11  25
ENDBRANCH   1   2
BRANCH   1  27
ATOM     27  C   UNL     1       5.061  32.337  71.454  1.00  0.00     0.339 C 
ATOM     28  C   UNL     1       5.589  31.073  70.741  1.00  0.00     0.214 C 
ATOM     29  O   UNL     1       5.665  32.491  72.733  1.00  0.00    -0.332 OA
ATOM     30  C   UNL     1       7.126  31.100  70.646  1.00  0.00     0.180 C 
ATOM     31  C   UNL     1       7.075  32.640  72.629  1.00  0.00     0.179 C 
ATOM     32  C   UNL     1       7.726  31.367  72.040  1.00  0.00     0.177 C 
BRANCH  28  33
ATOM     33  O   UNL     1       4.999  30.922  69.473  1.00  0.00    -0.384 OA
ATOM     34  H   UNL     1       5.711  31.012  68.790  1.00  0.00     0.211 HD
ENDBRANCH  28  33
BRANCH  30  35
ATOM     35  O   UNL     1       7.588  29.877  70.134  1.00  0.00    -0.387 OA
ATOM     36  H   UNL     1       8.514  30.034  69.812  1.00  0.00     0.211 HD
ENDBRANCH  30  35
BRANCH  31  37
ATOM     37  C   UNL     1       7.653  33.001  74.007  1.00  0.00     0.191 C 
BRANCH  37  38
ATOM     38  O   UNL     1       8.996  32.612  74.122  1.00  0.00    -0.394 OA
ATOM     39  H   UNL     1       9.252  32.205  73.253  1.00  0.00     0.210 HD
ENDBRANCH  37  38
ENDBRANCH  31  37
BRANCH  32  40
ATOM     40  O   UNL     1       7.493  30.269  72.887  1.00  0.00    -0.387 OA
ATOM     41  H   UNL     1       6.583  29.930  72.679  1.00  0.00     0.211 HD
ENDBRANCH  32  40
ENDBRANCH   1  27
TORSDOF 12
ENDMDL
MODEL 3
REMARK VINA RESULT:    -5.470     16.225     19.460
REMARK INTER + INTRA:          -9.744
REMARK INTER:                  -8.929
REMARK INTRA:                  -0.815
REMARK UNBOUND:                -1.715
REMARK SMILES O=c1c(O[C@@H]2O[C@@H](CO)[C@@H](O)[C@@H](O)[C@@H]2O)c(-c2ccc(O)c(O)c2)oc2cc(O)cc(O)c12
REMARK SMILES IDX 4 1 3 2 16 3 25 4 2 5 26 6 1 7 33 8 27 9 31 10 28 11 30 12
REMARK SMILES IDX 17 13 18 14 19 15 20 16 24 17 22 18 21 19 23 21 32 23 29 25
REMARK SMILES IDX 5 27 14 28 6 29 12 30 7 31 10 32 15 33 13 35 8 37 9 38 11 40
REMARK H PARENT 21 20 23 22 32 24 29 26 15 34 13 36 9 39 11 41
REMARK Flexibility Score: inf
ROOT
ATOM      1  O   UNL     1       4.318  32.100  69.994  1.00  0.00    -0.454 OA
ENDROOT
BRANCH   1   2
ATOM      2  C   UNL     1       3.673  33.007  69.131  1.00  0.00     0.214 A 
ATOM      3  C   UNL     1       4.341  33.391  67.953  1.00  0.00     0.180 A 
ATOM      4  O   UNL     1       3.795  34.287  67.140  1.00  0.00    -0.452 OA
ATOM      5  C   UNL     1       2.405  33.566  69.398  1.00  0.00     0.239 A 
ATOM      6  C   UNL     1       2.624  34.865  67.370  1.00  0.00     0.146 A 
ATOM      7  O   UNL     1       1.733  33.140  70.372  1.00  0.00    -0.285 OA
ATOM      8  C   UNL     1       1.878  34.559  68.537  1.00  0.00     0.111 A 
ATOM      9  C   UNL     1       2.133  35.773  66.428  1.00  0.00     0.094 A 
ATOM     10  C   UNL     1       0.642  35.242  68.751  1.00  0.00     0.134 A 
ATOM     11  C   UNL     1       0.894  36.387  66.619  1.00  0.00     0.123 A 
ATOM     12  C   UNL     1       0.156  36.116  67.770  1.00  0.00     0.093 A 
BRANCH   3  13
ATOM     13  C   UNL     1       5.667  32.841  67.594  1.00  0.00     0.025 A 
ATOM     14  C   UNL     1       5.751  31.573  66.997  1.00  0.00     0.016 A 
ATOM     15  C   UNL     1       6.993  31.039  66.646  1.00  0.00     0.051 A 
ATOM     16  C   UNL     1       8.169  31.758  66.897  1.00  0.00     0.157 A 
ATOM     17  C   UNL     1       6.851  33.548  67.869  1.00  0.00     0.062 A 
ATOM     18  C   UNL     1       8.096  33.017  67.515  1.00  0.00     0.158 A 
BRANCH  16  19
ATOM     19  O   UNL     1       9.407  31.225  66.538  1.00  0.00    -0.504 OA
ATOM     20  H   UNL     1       9.480  30.409  65.943  1.00  0.00     0.293 HD
ENDBRANCH  16  19
BRANCH  18  21
ATOM     21  O   UNL     1       9.248  33.754  67.789  1.00  0.00    -0.504 OA
ATOM     22  H   UNL     1       9.212  34.733  68.046  1.00  0.00     0.293 HD
ENDBRANCH  18  21
ENDBRANCH   3  13
BRANCH  10  23
ATOM     23  O   UNL     1      -0.125  35.121  69.913  1.00  0.00    -0.507 OA
ATOM     24  H   UNL     1      -0.292  35.867  70.570  1.00  0.00     0.293 HD
ENDBRANCH  10  23
BRANCH  11  25
ATOM     25  O   UNL     1       0.390  37.277  65.673  1.00  0.00    -0.508 OA
ATOM     26  H   UNL     1      -0.438  37.061  65.130  1.00  0.00     0.293 HD
ENDBRANCH  11  25
ENDBRANCH   1   2
BRANCH   1  27
ATOM     27  C   UNL     1       4.589  32.284  71.387  1.00  0.00     0.339 C 
ATOM     28  C   UNL     1       5.515  31.166  71.913  1.00  0.00     0.214 C 
ATOM     29  O   UNL     1       5.149  33.568  71.637  1.00  0.00    -0.332 OA
ATOM     30  C   UNL     1       6.928  31.299  71.314  1.00  0.00     0.180 C 
ATOM     31  C   UNL     1       6.398  33.730  70.979  1.00  0.00     0.179 C 
ATOM     32  C   UNL     1       7.447  32.734  71.526  1.00  0.00     0.177 C 
BRANCH  28  33
ATOM     33  O   UNL     1       4.968  29.895  71.661  1.00  0.00    -0.384 OA
ATOM     34  H   UNL     1       3.981  29.986  71.631  1.00  0.00     0.211 HD
ENDBRANCH  28  33
BRANCH  30  35
ATOM     35  O   UNL     1       7.786  30.368  71.922  1.00  0.00    -0.387 OA
ATOM     36  H   UNL     1       8.001  29.686  71.232  1.00  0.00     0.211 HD
ENDBRANCH  30  35
BRANCH  31  37
ATOM     37  C   UNL     1       6.861  35.190  71.114  1.00  0.00     0.191 C 
BRANCH  37  38
ATOM     38  O   UNL     1       6.234  36.019  70.171  1.00  0.00    -0.394 OA
ATOM     39  H   UNL     1       6.063  35.462  69.368  1.00  0.00     0.210 HD
ENDBRANCH  37  38
ENDBRANCH  31  37
BRANCH  32  40
ATOM     40  O   UNL     1       7.672  32.973  72.893  1.00  0.00    -0.387 OA
ATOM     41  H   UNL     1       7.042  33.689  73.170  1.00  0.00     0.211 HD
ENDBRANCH  32  40
ENDBRANCH   1  27
TORSDOF 12
ENDMDL
MODEL 4
REMARK VINA RESULT:    -5.164      3.385      5.512
REMARK INTER + INTRA:          -9.295
REMARK INTER:                  -8.639
REMARK INTRA:                  -0.655
REMARK UNBOUND:                -1.715
REMARK SMILES O=c1c(O[C@@H]2O[C@@H](CO)[C@@H](O)[C@@H](O)[C@@H]2O)c(-c2ccc(O)c(O)c2)oc2cc(O)cc(O)c12
REMARK SMILES IDX 4 1 3 2 16 3 25 4 2 5 26 6 1 7 33 8 27 9 31 10 28 11 30 12
REMARK SMILES IDX 17 13 18 14 19 15 20 16 24 17 22 18 21 19 23 21 32 23 29 25
REMARK SMILES IDX 5 27 14 28 6 29 12 30 7 31 10 32 15 33 13 35 8 37 9 38 11 40
REMARK H PARENT 21 20 23 22 32 24 29 26 15 34 13 36 9 39 11 41
REMARK Flexibility Score: inf
ROOT
ATOM      1  O   UNL     1      17.006  45.817  75.455  1.00  0.00    -0.454 OA
ENDROOT
BRANCH   1   2
ATOM      2  C   UNL     1      16.828  44.465  75.099  1.00  0.00     0.214 A 
ATOM      3  C   UNL     1      15.531  44.033  74.765  1.00  0.00     0.180 A 
ATOM      4  O   UNL     1      15.308  42.756  74.480  1.00  0.00    -0.452 OA
ATOM      5  C   UNL     1      17.878  43.522  75.081  1.00  0.00     0.239 A 
ATOM      6  C   UNL     1      16.256  41.829  74.486  1.00  0.00     0.146 A 
ATOM      7  O   UNL     1      19.062  43.910  75.245  1.00  0.00    -0.285 OA
ATOM      8  C   UNL     1      17.594  42.158  74.824  1.00  0.00     0.111 A 
ATOM      9  C   UNL     1      15.911  40.520  74.139  1.00  0.00     0.094 A 
ATOM     10  C   UNL     1      18.564  41.111  74.853  1.00  0.00     0.134 A 
ATOM     11  C   UNL     1      16.881  39.518  74.111  1.00  0.00     0.123 A 
ATOM     12  C   UNL     1      18.197  39.817  74.461  1.00  0.00     0.093 A 
BRANCH   3  13
ATOM     13  C   UNL     1      14.380  44.962  74.748  1.00  0.00     0.025 A 
ATOM     14  C   UNL     1      14.459  46.146  73.997  1.00  0.00     0.016 A 
ATOM     15  C   UNL     1      13.381  47.034  73.963  1.00  0.00     0.051 A 
ATOM     16  C   UNL     1      12.213  46.757  74.688  1.00  0.00     0.157 A 
ATOM     17  C   UNL     1      13.218  44.701  75.495  1.00  0.00     0.062 A 
ATOM     18  C   UNL     1      12.135  45.586  75.459  1.00  0.00     0.158 A 
BRANCH  16  19
ATOM     19  O   UNL     1      11.136  47.642  74.645  1.00  0.00    -0.504 OA
ATOM     20  H   UNL     1      11.231  48.575  74.264  1.00  0.00     0.293 HD
ENDBRANCH  16  19
BRANCH  18  21
ATOM     21  O   UNL     1      10.991  45.286  76.200  1.00  0.00    -0.504 OA
ATOM     22  H   UNL     1      10.081  45.188  75.768  1.00  0.00     0.293 HD
ENDBRANCH  18  21
ENDBRANCH   3  13
BRANCH  10  23
ATOM     23  O   UNL     1      19.883  41.281  75.285  1.00  0.00    -0.507 OA
ATOM     24  H   UNL     1      20.364  40.658  75.915  1.00  0.00     0.293 HD
ENDBRANCH  10  23
BRANCH  11  25
ATOM     25  O   UNL     1      16.547  38.216  73.745  1.00  0.00    -0.508 OA
ATOM     26  H   UNL     1      16.958  37.413  74.206  1.00  0.00     0.293 HD
ENDBRANCH  11  25
ENDBRANCH   1   2
BRANCH   1  27
ATOM     27  C   UNL     1      18.178  46.612  75.247  1.00  0.00     0.339 C 
ATOM     28  C   UNL     1      17.987  47.553  74.038  1.00  0.00     0.214 C 
ATOM     29  O   UNL     1      18.515  47.347  76.417  1.00  0.00    -0.332 OA
ATOM     30  C   UNL     1      16.941  48.640  74.351  1.00  0.00     0.180 C 
ATOM     31  C   UNL     1      17.488  48.264  76.772  1.00  0.00     0.179 C 
ATOM     32  C   UNL     1      17.300  49.338  75.676  1.00  0.00     0.177 C 
BRANCH  28  33
ATOM     33  O   UNL     1      17.646  46.829  72.881  1.00  0.00    -0.384 OA
ATOM     34  H   UNL     1      16.961  46.158  73.130  1.00  0.00     0.211 HD
ENDBRANCH  28  33
BRANCH  30  35
ATOM     35  O   UNL     1      16.898  49.568  73.298  1.00  0.00    -0.387 OA
ATOM     36  H   UNL     1      17.825  49.901  73.172  1.00  0.00     0.211 HD
ENDBRANCH  30  35
BRANCH  31  37
ATOM     37  C   UNL     1      17.808  48.884  78.141  1.00  0.00     0.191 C 
BRANCH  37  38
ATOM     38  O   UNL     1      17.173  50.125  78.308  1.00  0.00    -0.394 OA
ATOM     39  H   UNL     1      16.927  50.195  79.267  1.00  0.00     0.210 HD
ENDBRANCH  37  38
ENDBRANCH  31  37
BRANCH  32  40
ATOM     40  O   UNL     1      18.481  50.087  75.526  1.00  0.00    -0.387 OA
ATOM     41  H   UNL     1      18.726  50.053  74.565  1.00  0.00     0.211 HD
ENDBRANCH  32  40
ENDBRANCH   1  27
TORSDOF 12
ENDMDL
MODEL 5
REMARK VINA RESULT:    -4.993      3.064      5.176
REMARK INTER + INTRA:          -9.043
REMARK INTER:                  -8.273
REMARK INTRA:                  -0.771
REMARK UNBOUND:                -1.715
REMARK SMILES O=c1c(O[C@@H]2O[C@@H](CO)[C@@H](O)[C@@H](O)[C@@H]2O)c(-c2ccc(O)c(O)c2)oc2cc(O)cc(O)c12
REMARK SMILES IDX 4 1 3 2 16 3 25 4 2 5 26 6 1 7 33 8 27 9 31 10 28 11 30 12
REMARK SMILES IDX 17 13 18 14 19 15 20 16 24 17 22 18 21 19 23 21 32 23 29 25
REMARK SMILES IDX 5 27 14 28 6 29 12 30 7 31 10 32 15 33 13 35 8 37 9 38 11 40
REMARK H PARENT 21 20 23 22 32 24 29 26 15 34 13 36 9 39 11 41
REMARK Flexibility Score: inf
ROOT
ATOM      1  O   UNL     1      15.816  45.381  73.590  1.00  0.00    -0.454 OA
ENDROOT
BRANCH   1   2
ATOM      2  C   UNL     1      16.516  44.255  74.066  1.00  0.00     0.214 A 
ATOM      3  C   UNL     1      17.799  44.452  74.608  1.00  0.00     0.180 A 
ATOM      4  O   UNL     1      18.518  43.413  75.015  1.00  0.00    -0.452 OA
ATOM      5  C   UNL     1      16.006  42.940  74.005  1.00  0.00     0.239 A 
ATOM      6  C   UNL     1      18.094  42.158  74.943  1.00  0.00     0.146 A 
ATOM      7  O   UNL     1      14.815  42.754  73.649  1.00  0.00    -0.285 OA
ATOM      8  C   UNL     1      16.821  41.850  74.398  1.00  0.00     0.111 A 
ATOM      9  C   UNL     1      18.923  41.145  75.430  1.00  0.00     0.094 A 
ATOM     10  C   UNL     1      16.434  40.478  74.310  1.00  0.00     0.134 A 
ATOM     11  C   UNL     1      18.508  39.813  75.395  1.00  0.00     0.123 A 
ATOM     12  C   UNL     1      17.269  39.489  74.843  1.00  0.00     0.093 A 
BRANCH   3  13
ATOM     13  C   UNL     1      18.400  45.800  74.719  1.00  0.00     0.025 A 
ATOM     14  C   UNL     1      19.172  46.302  73.661  1.00  0.00     0.016 A 
ATOM     15  C   UNL     1      19.743  47.574  73.744  1.00  0.00     0.051 A 
ATOM     16  C   UNL     1      19.559  48.359  74.891  1.00  0.00     0.157 A 
ATOM     17  C   UNL     1      18.240  46.578  75.880  1.00  0.00     0.062 A 
ATOM     18  C   UNL     1      18.807  47.855  75.964  1.00  0.00     0.158 A 
BRANCH  16  19
ATOM     19  O   UNL     1      20.124  49.631  74.967  1.00  0.00    -0.504 OA
ATOM     20  H   UNL     1      20.485  50.101  74.146  1.00  0.00     0.293 HD
ENDBRANCH  16  19
BRANCH  18  21
ATOM     21  O   UNL     1      18.614  48.605  77.124  1.00  0.00    -0.504 OA
ATOM     22  H   UNL     1      17.691  48.873  77.444  1.00  0.00     0.293 HD
ENDBRANCH  18  21
ENDBRANCH   3  13
BRANCH  10  23
ATOM     23  O   UNL     1      15.264  40.036  73.687  1.00  0.00    -0.507 OA
ATOM     24  H   UNL     1      14.662  39.311  74.045  1.00  0.00     0.293 HD
ENDBRANCH  10  23
BRANCH  11  25
ATOM     25  O   UNL     1      19.323  38.802  75.899  1.00  0.00    -0.508 OA
ATOM     26  H   UNL     1      19.201  38.441  76.838  1.00  0.00     0.293 HD
ENDBRANCH  11  25
ENDBRANCH   1   2
BRANCH   1  27
ATOM     27  C   UNL     1      15.460  46.549  74.337  1.00  0.00     0.339 C 
ATOM     28  C   UNL     1      15.295  47.764  73.398  1.00  0.00     0.214 C 
ATOM     29  O   UNL     1      14.280  46.331  75.102  1.00  0.00    -0.332 OA
ATOM     30  C   UNL     1      14.056  47.596  72.499  1.00  0.00     0.180 C 
ATOM     31  C   UNL     1      13.162  46.054  74.268  1.00  0.00     0.179 C 
ATOM     32  C   UNL     1      12.827  47.265  73.368  1.00  0.00     0.177 C 
BRANCH  28  33
ATOM     33  O   UNL     1      16.458  47.977  72.636  1.00  0.00    -0.384 OA
ATOM     34  H   UNL     1      16.373  48.857  72.188  1.00  0.00     0.211 HD
ENDBRANCH  28  33
BRANCH  30  35
ATOM     35  O   UNL     1      13.842  48.775  71.768  1.00  0.00    -0.387 OA
ATOM     36  H   UNL     1      13.599  49.479  72.425  1.00  0.00     0.211 HD
ENDBRANCH  30  35
BRANCH  31  37
ATOM     37  C   UNL     1      11.968  45.632  75.139  1.00  0.00     0.191 C 
BRANCH  37  38
ATOM     38  O   UNL     1      12.380  44.883  76.252  1.00  0.00    -0.394 OA
ATOM     39  H   UNL     1      13.361  45.014  76.340  1.00  0.00     0.210 HD
ENDBRANCH  37  38
ENDBRANCH  31  37
BRANCH  32  40
ATOM     40  O   UNL     1      12.480  48.374  74.160  1.00  0.00    -0.387 OA
ATOM     41  H   UNL     1      13.128  49.096  73.949  1.00  0.00     0.211 HD
ENDBRANCH  32  40
ENDBRANCH   1  27
TORSDOF 12
ENDMDL
MODEL 6
REMARK VINA RESULT:    -4.834      1.978      6.743
REMARK INTER + INTRA:          -8.811
REMARK INTER:                  -7.315
REMARK INTRA:                  -1.496
REMARK UNBOUND:                -1.715
REMARK SMILES O=c1c(O[C@@H]2O[C@@H](CO)[C@@H](O)[C@@H](O)[C@@H]2O)c(-c2ccc(O)c(O)c2)oc2cc(O)cc(O)c12
REMARK SMILES IDX 4 1 3 2 16 3 25 4 2 5 26 6 1 7 33 8 27 9 31 10 28 11 30 12
REMARK SMILES IDX 17 13 18 14 19 15 20 16 24 17 22 18 21 19 23 21 32 23 29 25
REMARK SMILES IDX 5 27 14 28 6 29 12 30 7 31 10 32 15 33 13 35 8 37 9 38 11 40
REMARK H PARENT 21 20 23 22 32 24 29 26 15 34 13 36 9 39 11 41
REMARK Flexibility Score: inf
ROOT
ATOM      1  O   UNL     1      18.804  45.134  76.466  1.00  0.00    -0.454 OA
ENDROOT
BRANCH   1   2
ATOM      2  C   UNL     1      19.022  45.529  77.801  1.00  0.00     0.214 A 
ATOM      3  C   UNL     1      19.192  44.524  78.771  1.00  0.00     0.180 A 
ATOM      4  O   UNL     1      19.341  44.850  80.049  1.00  0.00    -0.452 OA
ATOM      5  C   UNL     1      19.055  46.878  78.217  1.00  0.00     0.239 A 
ATOM      6  C   UNL     1      19.342  46.101  80.489  1.00  0.00     0.146 A 
ATOM      7  O   UNL     1      19.039  47.792  77.354  1.00  0.00    -0.285 OA
ATOM      8  C   UNL     1      19.163  47.187  79.595  1.00  0.00     0.111 A 
ATOM      9  C   UNL     1      19.539  46.327  81.853  1.00  0.00     0.094 A 
ATOM     10  C   UNL     1      19.134  48.510  80.131  1.00  0.00     0.134 A 
ATOM     11  C   UNL     1      19.570  47.628  82.357  1.00  0.00     0.123 A 
ATOM     12  C   UNL     1      19.374  48.708  81.497  1.00  0.00     0.093 A 
BRANCH   3  13
ATOM     13  C   UNL     1      19.182  43.088  78.414  1.00  0.00     0.025 A 
ATOM     14  C   UNL     1      20.113  42.600  77.484  1.00  0.00     0.016 A 
ATOM     15  C   UNL     1      20.124  41.247  77.138  1.00  0.00     0.051 A 
ATOM     16  C   UNL     1      19.198  40.363  77.709  1.00  0.00     0.157 A 
ATOM     17  C   UNL     1      18.237  42.204  78.965  1.00  0.00     0.062 A 
ATOM     18  C   UNL     1      18.248  40.847  78.623  1.00  0.00     0.158 A 
BRANCH  16  19
ATOM     19  O   UNL     1      19.216  39.012  77.367  1.00  0.00    -0.504 OA
ATOM     20  H   UNL     1      18.667  38.329  77.875  1.00  0.00     0.293 HD
ENDBRANCH  16  19
BRANCH  18  21
ATOM     21  O   UNL     1      17.306  39.996  79.201  1.00  0.00    -0.504 OA
ATOM     22  H   UNL     1      16.531  39.614  78.673  1.00  0.00     0.293 HD
ENDBRANCH  18  21
ENDBRANCH   3  13
BRANCH  10  23
ATOM     23  O   UNL     1      18.845  49.651  79.377  1.00  0.00    -0.507 OA
ATOM     24  H   UNL     1      19.471  50.432  79.257  1.00  0.00     0.293 HD
ENDBRANCH  10  23
BRANCH  11  25
ATOM     25  O   UNL     1      19.787  47.860  83.713  1.00  0.00    -0.508 OA
ATOM     26  H   UNL     1      20.722  47.938  84.095  1.00  0.00     0.293 HD
ENDBRANCH  11  25
ENDBRANCH   1   2
BRANCH   1  27
ATOM     27  C   UNL     1      17.565  45.171  75.751  1.00  0.00     0.339 C 
ATOM     28  C   UNL     1      17.721  45.963  74.435  1.00  0.00     0.214 C 
ATOM     29  O   UNL     1      17.076  43.858  75.502  1.00  0.00    -0.332 OA
ATOM     30  C   UNL     1      18.616  45.200  73.441  1.00  0.00     0.180 C 
ATOM     31  C   UNL     1      17.969  43.116  74.682  1.00  0.00     0.179 C 
ATOM     32  C   UNL     1      18.101  43.757  73.281  1.00  0.00     0.177 C 
BRANCH  28  33
ATOM     33  O   UNL     1      18.211  47.259  74.678  1.00  0.00    -0.384 OA
ATOM     34  H   UNL     1      18.590  47.607  73.831  1.00  0.00     0.211 HD
ENDBRANCH  28  33
BRANCH  30  35
ATOM     35  O   UNL     1      18.618  45.864  72.204  1.00  0.00    -0.387 OA
ATOM     36  H   UNL     1      18.768  46.827  72.397  1.00  0.00     0.211 HD
ENDBRANCH  30  35
BRANCH  31  37
ATOM     37  C   UNL     1      17.498  41.655  74.608  1.00  0.00     0.191 C 
BRANCH  37  38
ATOM     38  O   UNL     1      18.536  40.798  74.210  1.00  0.00    -0.394 OA
ATOM     39  H   UNL     1      18.110  40.017  73.767  1.00  0.00     0.210 HD
ENDBRANCH  37  38
ENDBRANCH  31  37
BRANCH  32  40
ATOM     40  O   UNL     1      16.854  43.755  72.631  1.00  0.00    -0.387 OA
ATOM     41  H   UNL     1      16.795  42.907  72.118  1.00  0.00     0.211 HD
ENDBRANCH  32  40
ENDBRANCH   1  27
TORSDOF 12
ENDMDL
MODEL 7
REMARK VINA RESULT:    -4.703      3.064      5.160
REMARK INTER + INTRA:          -8.617
REMARK INTER:                  -7.298
REMARK INTRA:                  -1.319
REMARK UNBOUND:                -1.715
REMARK SMILES O=c1c(O[C@@H]2O[C@@H](CO)[C@@H](O)[C@@H](O)[C@@H]2O)c(-c2ccc(O)c(O)c2)oc2cc(O)cc(O)c12
REMARK SMILES IDX 4 1 3 2 16 3 25 4 2 5 26 6 1 7 33 8 27 9 31 10 28 11 30 12
REMARK SMILES IDX 17 13 18 14 19 15 20 16 24 17 22 18 21 19 23 21 32 23 29 25
REMARK SMILES IDX 5 27 14 28 6 29 12 30 7 31 10 32 15 33 13 35 8 37 9 38 11 40
REMARK H PARENT 21 20 23 22 32 24 29 26 15 34 13 36 9 39 11 41
REMARK Flexibility Score: inf
ROOT
ATOM      1  O   UNL     1      15.805  46.166  74.594  1.00  0.00    -0.454 OA
ENDROOT
BRANCH   1   2
ATOM      2  C   UNL     1      16.507  44.970  74.843  1.00  0.00     0.214 A 
ATOM      3  C   UNL     1      17.794  45.060  75.404  1.00  0.00     0.180 A 
ATOM      4  O   UNL     1      18.513  43.962  75.602  1.00  0.00    -0.452 OA
ATOM      5  C   UNL     1      15.994  43.691  74.538  1.00  0.00     0.239 A 
ATOM      6  C   UNL     1      18.086  42.745  75.297  1.00  0.00     0.146 A 
ATOM      7  O   UNL     1      14.800  43.576  74.161  1.00  0.00    -0.285 OA
ATOM      8  C   UNL     1      16.809  42.546  74.712  1.00  0.00     0.111 A 
ATOM      9  C   UNL     1      18.917  41.657  75.577  1.00  0.00     0.094 A 
ATOM     10  C   UNL     1      16.419  41.216  74.368  1.00  0.00     0.134 A 
ATOM     11  C   UNL     1      18.499  40.356  75.294  1.00  0.00     0.123 A 
ATOM     12  C   UNL     1      17.256  40.143  74.699  1.00  0.00     0.093 A 
BRANCH   3  13
ATOM     13  C   UNL     1      18.397  46.363  75.764  1.00  0.00     0.025 A 
ATOM     14  C   UNL     1      18.678  46.646  77.110  1.00  0.00     0.016 A 
ATOM     15  C   UNL     1      19.253  47.868  77.470  1.00  0.00     0.051 A 
ATOM     16  C   UNL     1      19.545  48.828  76.491  1.00  0.00     0.157 A 
ATOM     17  C   UNL     1      18.666  47.339  74.788  1.00  0.00     0.062 A 
ATOM     18  C   UNL     1      19.246  48.561  75.145  1.00  0.00     0.158 A 
BRANCH  16  19
ATOM     19  O   UNL     1      20.125  50.043  76.853  1.00  0.00    -0.504 OA
ATOM     20  H   UNL     1      20.479  50.204  77.788  1.00  0.00     0.293 HD
ENDBRANCH  16  19
BRANCH  18  21
ATOM     21  O   UNL     1      19.514  49.499  74.148  1.00  0.00    -0.504 OA
ATOM     22  H   UNL     1      18.778  50.029  73.697  1.00  0.00     0.293 HD
ENDBRANCH  18  21
ENDBRANCH   3  13
BRANCH  10  23
ATOM     23  O   UNL     1      15.244  40.901  73.680  1.00  0.00    -0.507 OA
ATOM     24  H   UNL     1      14.908  41.391  72.866  1.00  0.00     0.293 HD
ENDBRANCH  10  23
BRANCH  11  25
ATOM     25  O   UNL     1      19.315  39.268  75.591  1.00  0.00    -0.508 OA
ATOM     26  H   UNL     1      19.848  39.223  76.452  1.00  0.00     0.293 HD
ENDBRANCH  11  25
ENDBRANCH   1   2
BRANCH   1  27
ATOM     27  C   UNL     1      14.914  46.428  73.506  1.00  0.00     0.339 C 
ATOM     28  C   UNL     1      13.520  46.833  74.032  1.00  0.00     0.214 C 
ATOM     29  O   UNL     1      15.440  47.424  72.637  1.00  0.00    -0.332 OA
ATOM     30  C   UNL     1      13.572  48.214  74.712  1.00  0.00     0.180 C 
ATOM     31  C   UNL     1      15.603  48.668  73.306  1.00  0.00     0.179 C 
ATOM     32  C   UNL     1      14.239  49.233  73.767  1.00  0.00     0.177 C 
BRANCH  28  33
ATOM     33  O   UNL     1      12.999  45.854  74.897  1.00  0.00    -0.384 OA
ATOM     34  H   UNL     1      12.150  45.521  74.508  1.00  0.00     0.211 HD
ENDBRANCH  28  33
BRANCH  30  35
ATOM     35  O   UNL     1      12.271  48.625  75.044  1.00  0.00    -0.387 OA
ATOM     36  H   UNL     1      12.127  49.502  74.601  1.00  0.00     0.211 HD
ENDBRANCH  30  35
BRANCH  31  37
ATOM     37  C   UNL     1      16.355  49.646  72.390  1.00  0.00     0.191 C 
BRANCH  37  38
ATOM     38  O   UNL     1      17.507  49.060  71.844  1.00  0.00    -0.394 OA
ATOM     39  H   UNL     1      17.219  48.220  71.401  1.00  0.00     0.210 HD
ENDBRANCH  37  38
ENDBRANCH  31  37
BRANCH  32  40
ATOM     40  O   UNL     1      13.415  49.474  72.654  1.00  0.00    -0.387 OA
ATOM     41  H   UNL     1      13.219  50.447  72.643  1.00  0.00     0.211 HD
ENDBRANCH  32  40
ENDBRANCH   1  27
TORSDOF 12
ENDMDL
MODEL 8
REMARK VINA RESULT:    -4.693      3.326      7.325
REMARK INTER + INTRA:          -8.603
REMARK INTER:                  -8.306
REMARK INTRA:                  -0.297
REMARK UNBOUND:                -1.715
REMARK SMILES O=c1c(O[C@@H]2O[C@@H](CO)[C@@H](O)[C@@H](O)[C@@H]2O)c(-c2ccc(O)c(O)c2)oc2cc(O)cc(O)c12
REMARK SMILES IDX 4 1 3 2 16 3 25 4 2 5 26 6 1 7 33 8 27 9 31 10 28 11 30 12
REMARK SMILES IDX 17 13 18 14 19 15 20 16 24 17 22 18 21 19 23 21 32 23 29 25
REMARK SMILES IDX 5 27 14 28 6 29 12 30 7 31 10 32 15 33 13 35 8 37 9 38 11 40
REMARK H PARENT 21 20 23 22 32 24 29 26 15 34 13 36 9 39 11 41
REMARK Flexibility Score: inf
ROOT
ATOM      1  O   UNL     1      17.603  45.845  73.591  1.00  0.00    -0.454 OA
ENDROOT
BRANCH   1   2
ATOM      2  C   UNL     1      16.305  45.701  74.118  1.00  0.00     0.214 A 
ATOM      3  C   UNL     1      16.002  44.520  74.821  1.00  0.00     0.180 A 
ATOM      4  O   UNL     1      14.775  44.317  75.285  1.00  0.00    -0.452 OA
ATOM      5  C   UNL     1      15.289  46.668  73.958  1.00  0.00     0.239 A 
ATOM      6  C   UNL     1      13.782  45.181  75.126  1.00  0.00     0.146 A 
ATOM      7  O   UNL     1      15.571  47.784  73.452  1.00  0.00    -0.285 OA
ATOM      8  C   UNL     1      13.979  46.395  74.419  1.00  0.00     0.111 A 
ATOM      9  C   UNL     1      12.538  44.876  75.684  1.00  0.00     0.094 A 
ATOM     10  C   UNL     1      12.862  47.268  74.245  1.00  0.00     0.134 A 
ATOM     11  C   UNL     1      11.470  45.766  75.560  1.00  0.00     0.123 A 
ATOM     12  C   UNL     1      11.638  46.954  74.850  1.00  0.00     0.093 A 
BRANCH   3  13
ATOM     13  C   UNL     1      17.014  43.464  75.043  1.00  0.00     0.025 A 
ATOM     14  C   UNL     1      17.603  43.325  76.309  1.00  0.00     0.016 A 
ATOM     15  C   UNL     1      18.556  42.331  76.540  1.00  0.00     0.051 A 
ATOM     16  C   UNL     1      18.944  41.468  75.506  1.00  0.00     0.157 A 
ATOM     17  C   UNL     1      17.425  42.614  74.000  1.00  0.00     0.062 A 
ATOM     18  C   UNL     1      18.376  41.614  74.230  1.00  0.00     0.158 A 
BRANCH  16  19
ATOM     19  O   UNL     1      19.890  40.472  75.742  1.00  0.00    -0.504 OA
ATOM     20  H   UNL     1      20.797  40.484  75.290  1.00  0.00     0.293 HD
ENDBRANCH  16  19
BRANCH  18  21
ATOM     21  O   UNL     1      18.748  40.779  73.176  1.00  0.00    -0.504 OA
ATOM     22  H   UNL     1      19.718  40.605  72.944  1.00  0.00     0.293 HD
ENDBRANCH  18  21
ENDBRANCH   3  13
BRANCH  10  23
ATOM     23  O   UNL     1      12.894  48.430  73.469  1.00  0.00    -0.507 OA
ATOM     24  H   UNL     1      12.123  48.770  72.915  1.00  0.00     0.293 HD
ENDBRANCH  10  23
BRANCH  11  25
ATOM     25  O   UNL     1      10.234  45.477  76.133  1.00  0.00    -0.508 OA
ATOM     26  H   UNL     1       9.996  44.539  76.435  1.00  0.00     0.293 HD
ENDBRANCH  11  25
ENDBRANCH   1   2
BRANCH   1  27
ATOM     27  C   UNL     1      18.802  46.121  74.323  1.00  0.00     0.339 C 
ATOM     28  C   UNL     1      19.739  47.035  73.505  1.00  0.00     0.214 C 
ATOM     29  O   UNL     1      18.509  46.695  75.592  1.00  0.00    -0.332 OA
ATOM     30  C   UNL     1      19.142  48.448  73.367  1.00  0.00     0.180 C 
ATOM     31  C   UNL     1      17.846  47.945  75.458  1.00  0.00     0.179 C 
ATOM     32  C   UNL     1      18.753  48.984  74.759  1.00  0.00     0.177 C 
BRANCH  28  33
ATOM     33  O   UNL     1      20.024  46.473  72.247  1.00  0.00    -0.384 OA
ATOM     34  H   UNL     1      19.608  47.046  71.554  1.00  0.00     0.211 HD
ENDBRANCH  28  33
BRANCH  30  35
ATOM     35  O   UNL     1      20.078  49.297  72.754  1.00  0.00    -0.387 OA
ATOM     36  H   UNL     1      19.725  50.221  72.841  1.00  0.00     0.211 HD
ENDBRANCH  30  35
BRANCH  31  37
ATOM     37  C   UNL     1      17.377  48.424  76.841  1.00  0.00     0.191 C 
BRANCH  37  38
ATOM     38  O   UNL     1      16.096  48.996  76.782  1.00  0.00    -0.394 OA
ATOM     39  H   UNL     1      16.215  49.977  76.871  1.00  0.00     0.210 HD
ENDBRANCH  37  38
ENDBRANCH  31  37
BRANCH  32  40
ATOM     40  O   UNL     1      19.906  49.214  75.530  1.00  0.00    -0.387 OA
ATOM     41  H   UNL     1      20.501  48.429  75.404  1.00  0.00     0.211 HD
ENDBRANCH  32  40
ENDBRANCH   1  27
TORSDOF 12
ENDMDL
MODEL 9
REMARK VINA RESULT:    -4.666      1.790      4.833
REMARK INTER + INTRA:          -8.563
REMARK INTER:                  -7.749
REMARK INTRA:                  -0.814
REMARK UNBOUND:                -1.715
REMARK SMILES O=c1c(O[C@@H]2O[C@@H](CO)[C@@H](O)[C@@H](O)[C@@H]2O)c(-c2ccc(O)c(O)c2)oc2cc(O)cc(O)c12
REMARK SMILES IDX 4 1 3 2 16 3 25 4 2 5 26 6 1 7 33 8 27 9 31 10 28 11 30 12
REMARK SMILES IDX 17 13 18 14 19 15 20 16 24 17 22 18 21 19 23 21 32 23 29 25
REMARK SMILES IDX 5 27 14 28 6 29 12 30 7 31 10 32 15 33 13 35 8 37 9 38 11 40
REMARK H PARENT 21 20 23 22 32 24 29 26 15 34 13 36 9 39 11 41
REMARK Flexibility Score: inf
ROOT
ATOM      1  O   UNL     1      18.523  44.106  77.255  1.00  0.00    -0.454 OA
ENDROOT
BRANCH   1   2
ATOM      2  C   UNL     1      18.397  42.915  76.512  1.00  0.00     0.214 A 
ATOM      3  C   UNL     1      17.599  42.938  75.353  1.00  0.00     0.180 A 
ATOM      4  O   UNL     1      17.406  41.825  74.656  1.00  0.00    -0.452 OA
ATOM      5  C   UNL     1      19.011  41.700  76.883  1.00  0.00     0.239 A 
ATOM      6  C   UNL     1      17.933  40.654  74.987  1.00  0.00     0.146 A 
ATOM      7  O   UNL     1      19.831  41.685  77.835  1.00  0.00    -0.285 OA
ATOM      8  C   UNL     1      18.739  40.521  76.146  1.00  0.00     0.111 A 
ATOM      9  C   UNL     1      17.687  39.555  74.161  1.00  0.00     0.094 A 
ATOM     10  C   UNL     1      19.247  39.227  76.475  1.00  0.00     0.134 A 
ATOM     11  C   UNL     1      18.239  38.308  74.460  1.00  0.00     0.123 A 
ATOM     12  C   UNL     1      19.017  38.153  75.607  1.00  0.00     0.093 A 
BRANCH   3  13
ATOM     13  C   UNL     1      16.933  44.175  74.890  1.00  0.00     0.025 A 
ATOM     14  C   UNL     1      17.684  45.160  74.231  1.00  0.00     0.016 A 
ATOM     15  C   UNL     1      17.072  46.333  73.781  1.00  0.00     0.051 A 
ATOM     16  C   UNL     1      15.703  46.542  73.993  1.00  0.00     0.157 A 
ATOM     17  C   UNL     1      15.564  44.400  75.125  1.00  0.00     0.062 A 
ATOM     18  C   UNL     1      14.948  45.572  74.671  1.00  0.00     0.158 A 
BRANCH  16  19
ATOM     19  O   UNL     1      15.094  47.710  73.536  1.00  0.00    -0.504 OA
ATOM     20  H   UNL     1      15.399  48.624  73.848  1.00  0.00     0.293 HD
ENDBRANCH  16  19
BRANCH  18  21
ATOM     21  O   UNL     1      13.585  45.754  74.908  1.00  0.00    -0.504 OA
ATOM     22  H   UNL     1      12.987  44.997  75.217  1.00  0.00     0.293 HD
ENDBRANCH  18  21
ENDBRANCH   3  13
BRANCH  10  23
ATOM     23  O   UNL     1      19.950  38.940  77.649  1.00  0.00    -0.507 OA
ATOM     24  H   UNL     1      19.612  38.343  78.388  1.00  0.00     0.293 HD
ENDBRANCH  10  23
BRANCH  11  25
ATOM     25  O   UNL     1      18.014  37.214  73.628  1.00  0.00    -0.508 OA
ATOM     26  H   UNL     1      18.750  36.830  73.046  1.00  0.00     0.293 HD
ENDBRANCH  11  25
ENDBRANCH   1   2
BRANCH   1  27
ATOM     27  C   UNL     1      19.730  44.664  77.784  1.00  0.00     0.339 C 
ATOM     28  C   UNL     1      20.052  46.009  77.096  1.00  0.00     0.214 C 
ATOM     29  O   UNL     1      19.650  44.819  79.196  1.00  0.00    -0.332 OA
ATOM     30  C   UNL     1      19.026  47.086  77.495  1.00  0.00     0.180 C 
ATOM     31  C   UNL     1      18.617  45.723  79.564  1.00  0.00     0.179 C 
ATOM     32  C   UNL     1      18.907  47.145  79.030  1.00  0.00     0.177 C 
BRANCH  28  33
ATOM     33  O   UNL     1      20.125  45.860  75.700  1.00  0.00    -0.384 OA
ATOM     34  H   UNL     1      21.081  45.868  75.440  1.00  0.00     0.211 HD
ENDBRANCH  28  33
BRANCH  30  35
ATOM     35  O   UNL     1      19.427  48.330  76.982  1.00  0.00    -0.387 OA
ATOM     36  H   UNL     1      19.001  49.024  77.550  1.00  0.00     0.211 HD
ENDBRANCH  30  35
BRANCH  31  37
ATOM     37  C   UNL     1      18.440  45.702  81.090  1.00  0.00     0.191 C 
BRANCH  37  38
ATOM     38  O   UNL     1      19.624  46.063  81.752  1.00  0.00    -0.394 OA
ATOM     39  H   UNL     1      20.217  46.481  81.073  1.00  0.00     0.210 HD
ENDBRANCH  37  38
ENDBRANCH  31  37
BRANCH  32  40
ATOM     40  O   UNL     1      20.098  47.637  79.592  1.00  0.00    -0.387 OA
ATOM     41  H   UNL     1      20.271  48.522  79.176  1.00  0.00     0.211 HD
ENDBRANCH  32  40
ENDBRANCH   1  27
TORSDOF 12
ENDMDL
