MODEL 1
REMARK VINA RESULT:    33.689      0.000      0.000
REMARK INTER + INTRA:          40.388
REMARK INTER:                  40.582
REMARK INTRA:                  -0.194
REMARK UNBOUND:                -0.194
REMARK SMILES O=c1c(O)c(-c2ccc(O)c(O)c2)oc2cc(O)cc(O)c12
REMARK SMILES IDX 5 1 3 2 2 3 1 4 22 5 20 6 19 7 17 8 16 9 15 10 14 11 6 12
REMARK SMILES IDX 7 13 8 14 9 15 13 16 11 17 10 18 12 20 4 22 21 24 18 26
REMARK H PARENT 10 19 12 21 4 23 21 25 18 27
REMARK Flexibility Score: inf
ROOT
ATOM      1  C   UNL     1     -22.891  28.097  -7.209  1.00  0.00     0.180 A 
ATOM      2  C   UNL     1     -24.230  27.681  -7.345  1.00  0.00     0.208 A 
ATOM      3  C   UNL     1     -25.161  28.568  -7.907  1.00  0.00     0.238 A 
ATOM      4  O   UNL     1     -26.361  28.204  -8.044  1.00  0.00    -0.285 OA
ATOM      5  C   UNL     1     -24.745  29.855  -8.305  1.00  0.00     0.111 A 
ATOM      6  C   UNL     1     -25.621  30.810  -8.876  1.00  0.00     0.134 A 
ATOM      7  C   UNL     1     -25.132  32.074  -9.237  1.00  0.00     0.093 A 
ATOM      8  C   UNL     1     -23.789  32.403  -9.037  1.00  0.00     0.123 A 
ATOM      9  C   UNL     1     -22.919  31.464  -8.474  1.00  0.00     0.094 A 
ATOM     10  C   UNL     1     -23.387  30.198  -8.109  1.00  0.00     0.146 A 
ATOM     11  O   UNL     1     -22.538  29.323  -7.580  1.00  0.00    -0.452 OA
ENDROOT
BRANCH   1  12
ATOM     12  C   UNL     1     -21.848  27.212  -6.643  1.00  0.00     0.025 A 
ATOM     13  C   UNL     1     -21.870  26.822  -5.294  1.00  0.00     0.016 A 
ATOM     14  C   UNL     1     -20.888  25.966  -4.791  1.00  0.00     0.051 A 
ATOM     15  C   UNL     1     -19.874  25.475  -5.620  1.00  0.00     0.157 A 
ATOM     16  C   UNL     1     -20.844  26.703  -7.483  1.00  0.00     0.062 A 
ATOM     17  C   UNL     1     -19.854  25.845  -6.986  1.00  0.00     0.158 A 
BRANCH  15  18
ATOM     18  O   UNL     1     -18.920  24.629  -5.053  1.00  0.00    -0.504 OA
ATOM     19  H   UNL     1     -19.137  23.737  -4.631  1.00  0.00     0.293 HD
ENDBRANCH  15  18
BRANCH  17  20
ATOM     20  O   UNL     1     -18.881  25.388  -7.877  1.00  0.00    -0.504 OA
ATOM     21  H   UNL     1     -18.104  25.947  -8.199  1.00  0.00     0.293 HD
ENDBRANCH  17  20
ENDBRANCH   1  12
BRANCH   2  22
ATOM     22  O   UNL     1     -24.627  26.418  -6.898  1.00  0.00    -0.502 OA
ATOM     23  H   UNL     1     -24.966  25.702  -7.528  1.00  0.00     0.293 HD
ENDBRANCH   2  22
BRANCH   6  24
ATOM     24  O   UNL     1     -26.968  30.514  -9.087  1.00  0.00    -0.507 OA
ATOM     25  H   UNL     1     -27.402  30.622  -9.996  1.00  0.00     0.293 HD
ENDBRANCH   6  24
BRANCH   8  26
ATOM     26  O   UNL     1     -23.329  33.666  -9.404  1.00  0.00    -0.508 OA
ATOM     27  H   UNL     1     -23.544  34.489  -8.853  1.00  0.00     0.293 HD
ENDBRANCH   8  26
TORSDOF 6
ENDMDL
MODEL 2
REMARK VINA RESULT:    34.303      1.270      2.801
REMARK INTER + INTRA:          41.128
REMARK INTER:                  40.979
REMARK INTRA:                   0.149
REMARK UNBOUND:                -0.194
REMARK SMILES O=c1c(O)c(-c2ccc(O)c(O)c2)oc2cc(O)cc(O)c12
REMARK SMILES IDX 5 1 3 2 2 3 1 4 22 5 20 6 19 7 17 8 16 9 15 10 14 11 6 12
REMARK SMILES IDX 7 13 8 14 9 15 13 16 11 17 10 18 12 20 4 22 21 24 18 26
REMARK H PARENT 10 19 12 21 4 23 21 25 18 27
REMARK Flexibility Score: inf
ROOT
ATOM      1  C   UNL     1     -22.611  28.641  -7.351  1.00  0.00     0.180 A 
ATOM      2  C   UNL     1     -22.097  29.694  -8.132  1.00  0.00     0.208 A 
ATOM      3  C   UNL     1     -22.983  30.657  -8.639  1.00  0.00     0.238 A 
ATOM      4  O   UNL     1     -22.534  31.611  -9.332  1.00  0.00    -0.285 OA
ATOM      5  C   UNL     1     -24.363  30.542  -8.374  1.00  0.00     0.111 A 
ATOM      6  C   UNL     1     -25.323  31.468  -8.851  1.00  0.00     0.134 A 
ATOM      7  C   UNL     1     -26.680  31.279  -8.553  1.00  0.00     0.093 A 
ATOM      8  C   UNL     1     -27.097  30.185  -7.790  1.00  0.00     0.123 A 
ATOM      9  C   UNL     1     -26.153  29.268  -7.316  1.00  0.00     0.094 A 
ATOM     10  C   UNL     1     -24.796  29.440  -7.601  1.00  0.00     0.146 A 
ATOM     11  O   UNL     1     -23.920  28.556  -7.135  1.00  0.00    -0.452 OA
ENDROOT
BRANCH   1  12
ATOM     12  C   UNL     1     -21.739  27.598  -6.766  1.00  0.00     0.025 A 
ATOM     13  C   UNL     1     -21.949  27.113  -5.465  1.00  0.00     0.016 A 
ATOM     14  C   UNL     1     -21.127  26.111  -4.945  1.00  0.00     0.051 A 
ATOM     15  C   UNL     1     -20.089  25.567  -5.711  1.00  0.00     0.157 A 
ATOM     16  C   UNL     1     -20.713  27.038  -7.545  1.00  0.00     0.062 A 
ATOM     17  C   UNL     1     -19.883  26.034  -7.030  1.00  0.00     0.158 A 
BRANCH  15  18
ATOM     18  O   UNL     1     -19.302  24.573  -5.129  1.00  0.00    -0.504 OA
ATOM     19  H   UNL     1     -19.618  23.628  -4.961  1.00  0.00     0.293 HD
ENDBRANCH  15  18
BRANCH  17  20
ATOM     20  O   UNL     1     -18.876  25.533  -7.858  1.00  0.00    -0.504 OA
ATOM     21  H   UNL     1     -18.901  25.576  -8.867  1.00  0.00     0.293 HD
ENDBRANCH  17  20
ENDBRANCH   1  12
BRANCH   2  22
ATOM     22  O   UNL     1     -20.731  29.758  -8.421  1.00  0.00    -0.502 OA
ATOM     23  H   UNL     1     -20.120  30.447  -8.001  1.00  0.00     0.293 HD
ENDBRANCH   2  22
BRANCH   6  24
ATOM     24  O   UNL     1     -24.940  32.570  -9.617  1.00  0.00    -0.507 OA
ATOM     25  H   UNL     1     -25.222  33.512  -9.375  1.00  0.00     0.293 HD
ENDBRANCH   6  24
BRANCH   8  26
ATOM     26  O   UNL     1     -28.451  30.020  -7.508  1.00  0.00    -0.508 OA
ATOM     27  H   UNL     1     -29.158  30.115  -8.228  1.00  0.00     0.293 HD
ENDBRANCH   8  26
TORSDOF 6
ENDMDL
MODEL 3
REMARK VINA RESULT:    34.552      1.401      3.197
REMARK INTER + INTRA:          41.427
REMARK INTER:                  41.376
REMARK INTRA:                   0.052
REMARK UNBOUND:                -0.194
REMARK SMILES O=c1c(O)c(-c2ccc(O)c(O)c2)oc2cc(O)cc(O)c12
REMARK SMILES IDX 5 1 3 2 2 3 1 4 22 5 20 6 19 7 17 8 16 9 15 10 14 11 6 12
REMARK SMILES IDX 7 13 8 14 9 15 13 16 11 17 10 18 12 20 4 22 21 24 18 26
REMARK H PARENT 10 19 12 21 4 23 21 25 18 27
REMARK Flexibility Score: inf
ROOT
ATOM      1  C   UNL     1     -22.604  28.525  -7.413  1.00  0.00     0.180 A 
ATOM      2  C   UNL     1     -22.181  29.671  -8.115  1.00  0.00     0.208 A 
ATOM      3  C   UNL     1     -23.144  30.600  -8.540  1.00  0.00     0.238 A 
ATOM      4  O   UNL     1     -22.777  31.635  -9.160  1.00  0.00    -0.285 OA
ATOM      5  C   UNL     1     -24.507  30.360  -8.274  1.00  0.00     0.111 A 
ATOM      6  C   UNL     1     -25.541  31.243  -8.671  1.00  0.00     0.134 A 
ATOM      7  C   UNL     1     -26.876  30.929  -8.377  1.00  0.00     0.093 A 
ATOM      8  C   UNL     1     -27.198  29.752  -7.698  1.00  0.00     0.123 A 
ATOM      9  C   UNL     1     -26.182  28.876  -7.302  1.00  0.00     0.094 A 
ATOM     10  C   UNL     1     -24.845  29.172  -7.585  1.00  0.00     0.146 A 
ATOM     11  O   UNL     1     -23.900  28.325  -7.194  1.00  0.00    -0.452 OA
ENDROOT
BRANCH   1  12
ATOM     12  C   UNL     1     -21.647  27.510  -6.916  1.00  0.00     0.025 A 
ATOM     13  C   UNL     1     -20.623  27.007  -7.734  1.00  0.00     0.016 A 
ATOM     14  C   UNL     1     -19.718  26.069  -7.235  1.00  0.00     0.051 A 
ATOM     15  C   UNL     1     -19.808  25.622  -5.911  1.00  0.00     0.157 A 
ATOM     16  C   UNL     1     -21.726  27.082  -5.582  1.00  0.00     0.062 A 
ATOM     17  C   UNL     1     -20.823  26.140  -5.072  1.00  0.00     0.158 A 
BRANCH  15  18
ATOM     18  O   UNL     1     -18.875  24.680  -5.476  1.00  0.00    -0.504 OA
ATOM     19  H   UNL     1     -18.975  24.134  -4.632  1.00  0.00     0.293 HD
ENDBRANCH  15  18
BRANCH  17  20
ATOM     20  O   UNL     1     -20.970  25.751  -3.739  1.00  0.00    -0.504 OA
ATOM     21  H   UNL     1     -20.621  26.282  -2.954  1.00  0.00     0.293 HD
ENDBRANCH  17  20
ENDBRANCH   1  12
BRANCH   2  22
ATOM     22  O   UNL     1     -20.828  29.860  -8.409  1.00  0.00    -0.502 OA
ATOM     23  H   UNL     1     -20.272  30.579  -7.962  1.00  0.00     0.293 HD
ENDBRANCH   2  22
BRANCH   6  24
ATOM     24  O   UNL     1     -25.252  32.426  -9.352  1.00  0.00    -0.507 OA
ATOM     25  H   UNL     1     -25.819  32.747 -10.128  1.00  0.00     0.293 HD
ENDBRANCH   6  24
BRANCH   8  26
ATOM     26  O   UNL     1     -28.532  29.463  -7.418  1.00  0.00    -0.508 OA
ATOM     27  H   UNL     1     -29.088  28.880  -8.033  1.00  0.00     0.293 HD
ENDBRANCH   8  26
TORSDOF 6
ENDMDL
