MODEL 1
REMARK VINA RESULT:     0.629      0.000      0.000
REMARK INTER + INTRA:           0.395
REMARK INTER:                   1.143
REMARK INTRA:                  -0.748
REMARK UNBOUND:                -0.748
REMARK SMILES CCCCCCCCCCCCCCCC(=O)[O-]
REMARK SMILES IDX 9 1 10 2 11 3 12 4 13 5 14 6 15 7 16 8 17 9 18 10 8 11 7 12
REMARK SMILES IDX 6 13 5 14 4 15 3 16 2 17 1 18
REMARK H PARENT
REMARK Flexibility Score: inf
ROOT
ATOM      1  C   UNL     1      22.222  55.103  31.688  1.00  0.00     0.000 C 
ENDROOT
BRANCH   1   2
ATOM      2  C   UNL     1      23.636  55.125  32.295  1.00  0.00     0.000 C 
BRANCH   2   3
ATOM      3  C   UNL     1      24.685  54.493  31.367  1.00  0.00     0.000 C 
BRANCH   3   4
ATOM      4  C   UNL     1      24.342  53.044  30.988  1.00  0.00     0.000 C 
BRANCH   4   5
ATOM      5  C   UNL     1      24.213  52.893  29.464  1.00  0.00     0.000 C 
BRANCH   5   6
ATOM      6  C   UNL     1      22.762  52.649  29.009  1.00  0.00     0.006 C 
BRANCH   6   7
ATOM      7  C   UNL     1      22.624  51.672  27.832  1.00  0.00     0.053 C 
BRANCH   7   8
ATOM      8  C   UNL     1      23.239  52.211  26.577  1.00  0.00     0.041 C 
ATOM      9  O   UNL     1      22.937  53.364  26.168  1.00  0.00    -0.550 OA
ATOM     10  O   UNL     1      24.172  51.456  25.880  1.00  0.00    -0.550 OA
ENDBRANCH   7   8
ENDBRANCH   6   7
ENDBRANCH   5   6
ENDBRANCH   4   5
ENDBRANCH   3   4
ENDBRANCH   2   3
ENDBRANCH   1   2
BRANCH   1  11
ATOM     11  C   UNL     1      21.425  53.851  32.087  1.00  0.00     0.000 C 
BRANCH  11  12
ATOM     12  C   UNL     1      20.144  54.192  32.868  1.00  0.00    -0.000 C 
BRANCH  12  13
ATOM     13  C   UNL     1      19.941  53.297  34.102  1.00  0.00    -0.000 C 
BRANCH  13  14
ATOM     14  C   UNL     1      20.180  53.989  35.458  1.00  0.00    -0.000 C 
BRANCH  14  15
ATOM     15  C   UNL     1      21.238  55.113  35.408  1.00  0.00    -0.000 C 
BRANCH  15  16
ATOM     16  C   UNL     1      22.539  54.721  36.125  1.00  0.00    -0.000 C 
BRANCH  16  17
ATOM     17  C   UNL     1      23.578  54.191  35.130  1.00  0.00    -0.003 C 
ATOM     18  C   UNL     1      24.952  54.800  35.391  1.00  0.00     0.004 C 
ENDBRANCH  16  17
ENDBRANCH  15  16
ENDBRANCH  14  15
ENDBRANCH  13  14
ENDBRANCH  12  13
ENDBRANCH  11  12
ENDBRANCH   1  11
TORSDOF 14
ENDMDL
MODEL 2
REMARK VINA RESULT:     1.284     23.660     26.771
REMARK INTER + INTRA:           1.586
REMARK INTER:                   1.269
REMARK INTRA:                   0.318
REMARK UNBOUND:                -0.748
REMARK SMILES CCCCCCCCCCCCCCCC(=O)[O-]
REMARK SMILES IDX 9 1 10 2 11 3 12 4 13 5 14 6 15 7 16 8 17 9 18 10 8 11 7 12
REMARK SMILES IDX 6 13 5 14 4 15 3 16 2 17 1 18
REMARK H PARENT
REMARK Flexibility Score: inf
ROOT
ATOM      1  C   UNL     1      37.810  40.141  19.283  1.00  0.00     0.000 C 
ENDROOT
BRANCH   1   2
ATOM      2  C   UNL     1      37.566  38.896  20.152  1.00  0.00     0.000 C 
BRANCH   2   3
ATOM      3  C   UNL     1      36.090  38.738  20.555  1.00  0.00     0.000 C 
BRANCH   3   4
ATOM      4  C   UNL     1      35.668  37.266  20.685  1.00  0.00     0.000 C 
BRANCH   4   5
ATOM      5  C   UNL     1      36.819  36.413  21.241  1.00  0.00     0.000 C 
BRANCH   5   6
ATOM      6  C   UNL     1      36.911  35.027  20.576  1.00  0.00     0.006 C 
BRANCH   6   7
ATOM      7  C   UNL     1      38.078  34.876  19.587  1.00  0.00     0.053 C 
BRANCH   7   8
ATOM      8  C   UNL     1      39.332  35.518  20.094  1.00  0.00     0.041 C 
ATOM      9  O   UNL     1      39.766  35.239  21.243  1.00  0.00    -0.550 OA
ATOM     10  O   UNL     1      40.041  36.396  19.284  1.00  0.00    -0.550 OA
ENDBRANCH   7   8
ENDBRANCH   6   7
ENDBRANCH   5   6
ENDBRANCH   4   5
ENDBRANCH   3   4
ENDBRANCH   2   3
ENDBRANCH   1   2
BRANCH   1  11
ATOM     11  C   UNL     1      39.274  40.275  18.836  1.00  0.00     0.000 C 
BRANCH  11  12
ATOM     12  C   UNL     1      39.410  40.484  17.318  1.00  0.00    -0.000 C 
BRANCH  12  13
ATOM     13  C   UNL     1      40.121  39.315  16.616  1.00  0.00    -0.000 C 
BRANCH  13  14
ATOM     14  C   UNL     1      39.359  37.976  16.640  1.00  0.00    -0.000 C 
BRANCH  14  15
ATOM     15  C   UNL     1      40.071  36.838  15.877  1.00  0.00    -0.000 C 
BRANCH  15  16
ATOM     16  C   UNL     1      39.521  35.453  16.251  1.00  0.00    -0.000 C 
BRANCH  16  17
ATOM     17  C   UNL     1      38.177  35.573  16.979  1.00  0.00    -0.003 C 
ATOM     18  C   UNL     1      37.047  34.966  16.154  1.00  0.00     0.004 C 
ENDBRANCH  16  17
ENDBRANCH  15  16
ENDBRANCH  14  15
ENDBRANCH  13  14
ENDBRANCH  12  13
ENDBRANCH  11  12
ENDBRANCH   1  11
TORSDOF 14
ENDMDL
MODEL 3
REMARK VINA RESULT:     1.454      1.147      2.857
REMARK INTER + INTRA:           1.897
REMARK INTER:                   2.897
REMARK INTRA:                  -1.000
REMARK UNBOUND:                -0.748
REMARK SMILES CCCCCCCCCCCCCCCC(=O)[O-]
REMARK SMILES IDX 9 1 10 2 11 3 12 4 13 5 14 6 15 7 16 8 17 9 18 10 8 11 7 12
REMARK SMILES IDX 6 13 5 14 4 15 3 16 2 17 1 18
REMARK H PARENT
REMARK Flexibility Score: inf
ROOT
ATOM      1  C   UNL     1      25.226  54.492  31.102  1.00  0.00     0.000 C 
ENDROOT
BRANCH   1   2
ATOM      2  C   UNL     1      24.362  53.259  30.787  1.00  0.00     0.000 C 
BRANCH   2   3
ATOM      3  C   UNL     1      23.182  53.587  29.858  1.00  0.00     0.000 C 
BRANCH   3   4
ATOM      4  C   UNL     1      22.122  52.475  29.835  1.00  0.00     0.000 C 
BRANCH   4   5
ATOM      5  C   UNL     1      21.694  52.156  28.394  1.00  0.00     0.000 C 
BRANCH   5   6
ATOM      6  C   UNL     1      22.605  52.814  27.341  1.00  0.00     0.006 C 
BRANCH   6   7
ATOM      7  C   UNL     1      23.618  51.857  26.693  1.00  0.00     0.053 C 
BRANCH   7   8
ATOM      8  C   UNL     1      24.053  52.329  25.341  1.00  0.00     0.041 C 
ATOM      9  O   UNL     1      23.818  53.512  24.977  1.00  0.00    -0.550 OA
ATOM     10  O   UNL     1      24.751  51.475  24.497  1.00  0.00    -0.550 OA
ENDBRANCH   7   8
ENDBRANCH   6   7
ENDBRANCH   5   6
ENDBRANCH   4   5
ENDBRANCH   3   4
ENDBRANCH   2   3
ENDBRANCH   1   2
BRANCH   1  11
ATOM     11  C   UNL     1      24.885  55.125  32.460  1.00  0.00     0.000 C 
BRANCH  11  12
ATOM     12  C   UNL     1      23.738  54.394  33.179  1.00  0.00    -0.000 C 
BRANCH  12  13
ATOM     13  C   UNL     1      23.624  54.777  34.664  1.00  0.00    -0.000 C 
BRANCH  13  14
ATOM     14  C   UNL     1      22.964  53.714  35.564  1.00  0.00    -0.000 C 
BRANCH  14  15
ATOM     15  C   UNL     1      21.580  54.128  36.107  1.00  0.00    -0.000 C 
BRANCH  15  16
ATOM     16  C   UNL     1      20.696  54.766  35.024  1.00  0.00    -0.000 C 
BRANCH  16  17
ATOM     17  C   UNL     1      20.271  53.730  33.978  1.00  0.00    -0.003 C 
ATOM     18  C   UNL     1      20.306  54.320  32.572  1.00  0.00     0.004 C 
ENDBRANCH  16  17
ENDBRANCH  15  16
ENDBRANCH  14  15
ENDBRANCH  13  14
ENDBRANCH  12  13
ENDBRANCH  11  12
ENDBRANCH   1  11
TORSDOF 14
ENDMDL
MODEL 4
REMARK VINA RESULT:     1.644     23.425     26.000
REMARK INTER + INTRA:           2.241
REMARK INTER:                   1.862
REMARK INTRA:                   0.378
REMARK UNBOUND:                -0.748
REMARK SMILES CCCCCCCCCCCCCCCC(=O)[O-]
REMARK SMILES IDX 9 1 10 2 11 3 12 4 13 5 14 6 15 7 16 8 17 9 18 10 8 11 7 12
REMARK SMILES IDX 6 13 5 14 4 15 3 16 2 17 1 18
REMARK H PARENT
REMARK Flexibility Score: inf
ROOT
ATOM      1  C   UNL     1      37.584  39.019  20.905  1.00  0.00     0.000 C 
ENDROOT
BRANCH   1   2
ATOM      2  C   UNL     1      38.787  38.772  19.979  1.00  0.00     0.000 C 
BRANCH   2   3
ATOM      3  C   UNL     1      39.073  39.966  19.053  1.00  0.00     0.000 C 
BRANCH   3   4
ATOM      4  C   UNL     1      39.265  39.544  17.588  1.00  0.00     0.000 C 
BRANCH   4   5
ATOM      5  C   UNL     1      39.915  38.155  17.499  1.00  0.00     0.000 C 
BRANCH   5   6
ATOM      6  C   UNL     1      40.097  37.672  16.048  1.00  0.00     0.006 C 
BRANCH   6   7
ATOM      7  C   UNL     1      40.041  36.146  15.877  1.00  0.00     0.053 C 
BRANCH   7   8
ATOM      8  C   UNL     1      38.954  35.527  16.699  1.00  0.00     0.041 C 
ATOM      9  O   UNL     1      39.226  34.979  17.800  1.00  0.00    -0.550 OA
ATOM     10  O   UNL     1      37.635  35.587  16.267  1.00  0.00    -0.550 OA
ENDBRANCH   7   8
ENDBRANCH   6   7
ENDBRANCH   5   6
ENDBRANCH   4   5
ENDBRANCH   3   4
ENDBRANCH   2   3
ENDBRANCH   1   2
BRANCH   1  11
ATOM     11  C   UNL     1      36.416  39.714  20.188  1.00  0.00     0.000 C 
BRANCH  11  12
ATOM     12  C   UNL     1      35.209  38.781  19.988  1.00  0.00    -0.000 C 
BRANCH  12  13
ATOM     13  C   UNL     1      35.240  37.556  20.918  1.00  0.00    -0.000 C 
BRANCH  13  14
ATOM     14  C   UNL     1      36.233  36.450  20.509  1.00  0.00    -0.000 C 
BRANCH  14  15
ATOM     15  C   UNL     1      36.414  35.348  21.574  1.00  0.00    -0.000 C 
BRANCH  15  16
ATOM     16  C   UNL     1      37.872  34.875  21.683  1.00  0.00    -0.000 C 
BRANCH  16  17
ATOM     17  C   UNL     1      38.618  35.084  20.360  1.00  0.00    -0.003 C 
ATOM     18  C   UNL     1      40.125  34.941  20.549  1.00  0.00     0.004 C 
ENDBRANCH  16  17
ENDBRANCH  15  16
ENDBRANCH  14  15
ENDBRANCH  13  14
ENDBRANCH  12  13
ENDBRANCH  11  12
ENDBRANCH   1  11
TORSDOF 14
ENDMDL
MODEL 5
REMARK VINA RESULT:     2.168      3.626      6.375
REMARK INTER + INTRA:           3.194
REMARK INTER:                   3.394
REMARK INTRA:                  -0.200
REMARK UNBOUND:                -0.748
REMARK SMILES CCCCCCCCCCCCCCCC(=O)[O-]
REMARK SMILES IDX 9 1 10 2 11 3 12 4 13 5 14 6 15 7 16 8 17 9 18 10 8 11 7 12
REMARK SMILES IDX 6 13 5 14 4 15 3 16 2 17 1 18
REMARK H PARENT
REMARK Flexibility Score: inf
ROOT
ATOM      1  C   UNL     1      24.385  52.482  29.577  1.00  0.00     0.000 C 
ENDROOT
BRANCH   1   2
ATOM      2  C   UNL     1      24.020  53.552  30.621  1.00  0.00     0.000 C 
BRANCH   2   3
ATOM      3  C   UNL     1      25.227  54.409  31.034  1.00  0.00     0.000 C 
BRANCH   3   4
ATOM      4  C   UNL     1      25.013  55.122  32.378  1.00  0.00     0.000 C 
BRANCH   4   5
ATOM      5  C   UNL     1      23.703  54.666  33.038  1.00  0.00     0.000 C 
BRANCH   5   6
ATOM      6  C   UNL     1      23.920  54.051  34.433  1.00  0.00     0.006 C 
BRANCH   6   7
ATOM      7  C   UNL     1      23.144  54.750  35.560  1.00  0.00     0.053 C 
BRANCH   7   8
ATOM      8  C   UNL     1      21.724  54.281  35.641  1.00  0.00     0.041 C 
ATOM      9  O   UNL     1      20.777  55.107  35.550  1.00  0.00    -0.550 OA
ATOM     10  O   UNL     1      21.445  52.927  35.780  1.00  0.00    -0.550 OA
ENDBRANCH   7   8
ENDBRANCH   6   7
ENDBRANCH   5   6
ENDBRANCH   4   5
ENDBRANCH   3   4
ENDBRANCH   2   3
ENDBRANCH   1   2
BRANCH   1  11
ATOM     11  C   UNL     1      23.279  52.274  28.531  1.00  0.00     0.000 C 
BRANCH  11  12
ATOM     12  C   UNL     1      21.911  52.790  29.008  1.00  0.00    -0.000 C 
BRANCH  12  13
ATOM     13  C   UNL     1      20.843  52.763  27.901  1.00  0.00    -0.000 C 
BRANCH  13  14
ATOM     14  C   UNL     1      20.335  54.145  27.449  1.00  0.00    -0.000 C 
BRANCH  14  15
ATOM     15  C   UNL     1      20.017  55.107  28.614  1.00  0.00    -0.000 C 
BRANCH  15  16
ATOM     16  C   UNL     1      19.875  54.370  29.955  1.00  0.00    -0.000 C 
BRANCH  16  17
ATOM     17  C   UNL     1      20.722  55.040  31.043  1.00  0.00    -0.003 C 
ATOM     18  C   UNL     1      20.164  54.749  32.433  1.00  0.00     0.004 C 
ENDBRANCH  16  17
ENDBRANCH  15  16
ENDBRANCH  14  15
ENDBRANCH  13  14
ENDBRANCH  12  13
ENDBRANCH  11  12
ENDBRANCH   1  11
TORSDOF 14
ENDMDL
MODEL 6
REMARK VINA RESULT:     2.906     23.098     26.015
REMARK INTER + INTRA:           4.537
REMARK INTER:                   3.854
REMARK INTRA:                   0.683
REMARK UNBOUND:                -0.748
REMARK SMILES CCCCCCCCCCCCCCCC(=O)[O-]
REMARK SMILES IDX 9 1 10 2 11 3 12 4 13 5 14 6 15 7 16 8 17 9 18 10 8 11 7 12
REMARK SMILES IDX 6 13 5 14 4 15 3 16 2 17 1 18
REMARK H PARENT
REMARK Flexibility Score: inf
ROOT
ATOM      1  C   UNL     1      35.810  38.935  20.610  1.00  0.00     0.000 C 
ENDROOT
BRANCH   1   2
ATOM      2  C   UNL     1      36.280  39.406  19.223  1.00  0.00     0.000 C 
BRANCH   2   3
ATOM      3  C   UNL     1      37.533  38.657  18.740  1.00  0.00     0.000 C 
BRANCH   3   4
ATOM      4  C   UNL     1      38.668  38.678  19.775  1.00  0.00     0.000 C 
BRANCH   4   5
ATOM      5  C   UNL     1      40.039  38.739  19.083  1.00  0.00     0.000 C 
BRANCH   5   6
ATOM      6  C   UNL     1      39.945  38.577  17.555  1.00  0.00     0.006 C 
BRANCH   6   7
ATOM      7  C   UNL     1      39.740  39.894  16.790  1.00  0.00     0.053 C 
BRANCH   7   8
ATOM      8  C   UNL     1      39.989  41.091  17.655  1.00  0.00     0.041 C 
ATOM      9  O   UNL     1      40.110  40.959  18.902  1.00  0.00    -0.550 OA
ATOM     10  O   UNL     1      40.125  42.349  17.080  1.00  0.00    -0.550 OA
ENDBRANCH   7   8
ENDBRANCH   6   7
ENDBRANCH   5   6
ENDBRANCH   4   5
ENDBRANCH   3   4
ENDBRANCH   2   3
ENDBRANCH   1   2
BRANCH   1  11
ATOM     11  C   UNL     1      35.480  37.435  20.647  1.00  0.00     0.000 C 
BRANCH  11  12
ATOM     12  C   UNL     1      36.429  36.646  21.567  1.00  0.00    -0.000 C 
BRANCH  12  13
ATOM     13  C   UNL     1      36.650  35.199  21.096  1.00  0.00    -0.000 C 
BRANCH  13  14
ATOM     14  C   UNL     1      38.019  34.926  20.444  1.00  0.00    -0.000 C 
BRANCH  14  15
ATOM     15  C   UNL     1      37.984  34.910  18.901  1.00  0.00    -0.000 C 
BRANCH  15  16
ATOM     16  C   UNL     1      39.392  34.929  18.286  1.00  0.00    -0.000 C 
BRANCH  16  17
ATOM     17  C   UNL     1      39.354  35.428  16.837  1.00  0.00    -0.003 C 
ATOM     18  C   UNL     1      37.945  35.337  16.260  1.00  0.00     0.004 C 
ENDBRANCH  16  17
ENDBRANCH  15  16
ENDBRANCH  14  15
ENDBRANCH  13  14
ENDBRANCH  12  13
ENDBRANCH  11  12
ENDBRANCH   1  11
TORSDOF 14
ENDMDL
MODEL 7
REMARK VINA RESULT:     3.038      1.420      3.221
REMARK INTER + INTRA:           4.775
REMARK INTER:                   5.724
REMARK INTRA:                  -0.949
REMARK UNBOUND:                -0.748
REMARK SMILES CCCCCCCCCCCCCCCC(=O)[O-]
REMARK SMILES IDX 9 1 10 2 11 3 12 4 13 5 14 6 15 7 16 8 17 9 18 10 8 11 7 12
REMARK SMILES IDX 6 13 5 14 4 15 3 16 2 17 1 18
REMARK H PARENT
REMARK Flexibility Score: inf
ROOT
ATOM      1  C   UNL     1      24.113  53.216  30.199  1.00  0.00     0.000 C 
ENDROOT
BRANCH   1   2
ATOM      2  C   UNL     1      22.620  52.900  30.005  1.00  0.00     0.000 C 
BRANCH   2   3
ATOM      3  C   UNL     1      22.305  52.384  28.592  1.00  0.00     0.000 C 
BRANCH   3   4
ATOM      4  C   UNL     1      21.198  53.195  27.900  1.00  0.00     0.000 C 
BRANCH   4   5
ATOM      5  C   UNL     1      21.719  53.843  26.608  1.00  0.00     0.000 C 
BRANCH   5   6
ATOM      6  C   UNL     1      23.238  53.672  26.425  1.00  0.00     0.006 C 
BRANCH   6   7
ATOM      7  C   UNL     1      23.643  52.984  25.112  1.00  0.00     0.053 C 
BRANCH   7   8
ATOM      8  C   UNL     1      24.327  51.673  25.351  1.00  0.00     0.041 C 
ATOM      9  O   UNL     1      23.986  50.948  26.322  1.00  0.00    -0.550 OA
ATOM     10  O   UNL     1      25.317  51.236  24.480  1.00  0.00    -0.550 OA
ENDBRANCH   7   8
ENDBRANCH   6   7
ENDBRANCH   5   6
ENDBRANCH   4   5
ENDBRANCH   3   4
ENDBRANCH   2   3
ENDBRANCH   1   2
BRANCH   1  11
ATOM     11  C   UNL     1      24.377  54.107  31.422  1.00  0.00     0.000 C 
BRANCH  11  12
ATOM     12  C   UNL     1      23.248  55.123  31.666  1.00  0.00    -0.000 C 
BRANCH  12  13
ATOM     13  C   UNL     1      22.637  55.011  33.073  1.00  0.00    -0.000 C 
BRANCH  13  14
ATOM     14  C   UNL     1      23.632  54.642  34.190  1.00  0.00    -0.000 C 
BRANCH  14  15
ATOM     15  C   UNL     1      22.999  54.580  35.596  1.00  0.00    -0.000 C 
BRANCH  15  16
ATOM     16  C   UNL     1      22.202  53.285  35.820  1.00  0.00    -0.000 C 
BRANCH  16  17
ATOM     17  C   UNL     1      20.730  53.590  36.123  1.00  0.00    -0.003 C 
ATOM     18  C   UNL     1      20.448  55.086  36.036  1.00  0.00     0.004 C 
ENDBRANCH  16  17
ENDBRANCH  15  16
ENDBRANCH  14  15
ENDBRANCH  13  14
ENDBRANCH  12  13
ENDBRANCH  11  12
ENDBRANCH   1  11
TORSDOF 14
ENDMDL
MODEL 8
REMARK VINA RESULT:     3.551      3.454      7.302
REMARK INTER + INTRA:           5.708
REMARK INTER:                   6.045
REMARK INTRA:                  -0.337
REMARK UNBOUND:                -0.748
REMARK SMILES CCCCCCCCCCCCCCCC(=O)[O-]
REMARK SMILES IDX 9 1 10 2 11 3 12 4 13 5 14 6 15 7 16 8 17 9 18 10 8 11 7 12
REMARK SMILES IDX 6 13 5 14 4 15 3 16 2 17 1 18
REMARK H PARENT
REMARK Flexibility Score: inf
ROOT
ATOM      1  C   UNL     1      21.554  54.787  30.695  1.00  0.00     0.000 C 
ENDROOT
BRANCH   1   2
ATOM      2  C   UNL     1      21.663  55.107  32.196  1.00  0.00     0.000 C 
BRANCH   2   3
ATOM      3  C   UNL     1      20.558  54.432  33.024  1.00  0.00     0.000 C 
BRANCH   3   4
ATOM      4  C   UNL     1      21.087  53.267  33.876  1.00  0.00     0.000 C 
BRANCH   4   5
ATOM      5  C   UNL     1      21.419  53.738  35.301  1.00  0.00     0.000 C 
BRANCH   5   6
ATOM      6  C   UNL     1      22.123  55.107  35.329  1.00  0.00     0.006 C 
BRANCH   6   7
ATOM      7  C   UNL     1      23.439  55.125  36.121  1.00  0.00     0.053 C 
BRANCH   7   8
ATOM      8  C   UNL     1      24.629  54.893  35.242  1.00  0.00     0.041 C 
ATOM      9  O   UNL     1      24.493  54.850  33.990  1.00  0.00    -0.550 OA
ATOM     10  O   UNL     1      25.893  54.760  35.802  1.00  0.00    -0.550 OA
ENDBRANCH   7   8
ENDBRANCH   6   7
ENDBRANCH   5   6
ENDBRANCH   4   5
ENDBRANCH   3   4
ENDBRANCH   2   3
ENDBRANCH   1   2
BRANCH   1  11
ATOM     11  C   UNL     1      20.110  54.505  30.252  1.00  0.00     0.000 C 
BRANCH  11  12
ATOM     12  C   UNL     1      19.875  54.830  28.766  1.00  0.00    -0.000 C 
BRANCH  12  13
ATOM     13  C   UNL     1      20.799  54.035  27.828  1.00  0.00    -0.000 C 
BRANCH  13  14
ATOM     14  C   UNL     1      21.340  52.714  28.408  1.00  0.00    -0.000 C 
BRANCH  14  15
ATOM     15  C   UNL     1      22.393  52.024  27.515  1.00  0.00    -0.000 C 
BRANCH  15  16
ATOM     16  C   UNL     1      23.492  52.994  27.054  1.00  0.00    -0.000 C 
BRANCH  16  17
ATOM     17  C   UNL     1      23.629  52.984  25.527  1.00  0.00    -0.003 C 
ATOM     18  C   UNL     1      23.034  54.248  24.913  1.00  0.00     0.004 C 
ENDBRANCH  16  17
ENDBRANCH  15  16
ENDBRANCH  14  15
ENDBRANCH  13  14
ENDBRANCH  12  13
ENDBRANCH  11  12
ENDBRANCH   1  11
TORSDOF 14
ENDMDL
