MODEL 1
REMARK VINA RESULT:    -1.847      0.000      0.000
REMARK INTER + INTRA:          -4.138
REMARK INTER:                  -3.574
REMARK INTRA:                  -0.564
REMARK UNBOUND:                -0.564
REMARK SMILES CCCCCCCCCCCCCCCCCC(=O)[O-]
REMARK SMILES IDX 10 1 11 2 12 3 13 4 14 5 15 6 16 7 17 8 18 9 19 10 20 11
REMARK SMILES IDX 9 12 8 13 7 14 6 15 5 16 4 17 3 18 2 19 1 20
REMARK H PARENT
REMARK Flexibility Score: inf
ROOT
ATOM      1  C   UNL     1      -6.888 -11.012   3.045  1.00  0.00     0.000 C 
ENDROOT
BRANCH   1   2
ATOM      2  C   UNL     1      -7.040 -11.751   1.705  1.00  0.00     0.000 C 
BRANCH   2   3
ATOM      3  C   UNL     1      -8.507 -12.035   1.343  1.00  0.00     0.000 C 
BRANCH   3   4
ATOM      4  C   UNL     1      -8.830 -11.696  -0.120  1.00  0.00     0.000 C 
BRANCH   4   5
ATOM      5  C   UNL     1     -10.340 -11.511  -0.363  1.00  0.00     0.000 C 
BRANCH   5   6
ATOM      6  C   UNL     1     -10.745 -11.797  -1.818  1.00  0.00     0.000 C 
BRANCH   6   7
ATOM      7  C   UNL     1      -9.719 -11.263  -2.832  1.00  0.00     0.006 C 
BRANCH   7   8
ATOM      8  C   UNL     1     -10.361 -10.943  -4.189  1.00  0.00     0.053 C 
BRANCH   8   9
ATOM      9  C   UNL     1      -9.352 -10.451  -5.180  1.00  0.00     0.041 C 
ATOM     10  O   UNL     1      -9.617  -9.467  -5.921  1.00  0.00    -0.550 OA
ATOM     11  O   UNL     1      -8.106 -11.060  -5.266  1.00  0.00    -0.550 OA
ENDBRANCH   8   9
ENDBRANCH   7   8
ENDBRANCH   6   7
ENDBRANCH   5   6
ENDBRANCH   4   5
ENDBRANCH   3   4
ENDBRANCH   2   3
ENDBRANCH   1   2
BRANCH   1  12
ATOM     12  C   UNL     1      -5.671 -11.478   3.872  1.00  0.00     0.000 C 
BRANCH  12  13
ATOM     13  C   UNL     1      -6.020 -11.677   5.358  1.00  0.00    -0.000 C 
BRANCH  13  14
ATOM     14  C   UNL     1      -7.519 -11.926   5.590  1.00  0.00    -0.000 C 
BRANCH  14  15
ATOM     15  C   UNL     1      -7.862 -12.125   7.076  1.00  0.00    -0.000 C 
BRANCH  15  16
ATOM     16  C   UNL     1      -9.358 -11.921   7.370  1.00  0.00    -0.000 C 
BRANCH  16  17
ATOM     17  C   UNL     1      -9.705 -12.116   8.854  1.00  0.00    -0.000 C 
BRANCH  17  18
ATOM     18  C   UNL     1     -10.465 -10.898   9.402  1.00  0.00    -0.000 C 
BRANCH  18  19
ATOM     19  C   UNL     1     -11.591 -11.292  10.371  1.00  0.00    -0.003 C 
ATOM     20  C   UNL     1     -11.377 -10.740  11.781  1.00  0.00     0.004 C 
ENDBRANCH  18  19
ENDBRANCH  17  18
ENDBRANCH  16  17
ENDBRANCH  15  16
ENDBRANCH  14  15
ENDBRANCH  13  14
ENDBRANCH  12  13
ENDBRANCH   1  12
TORSDOF 16
ENDMDL
MODEL 2
REMARK VINA RESULT:    -1.835      1.740      2.130
REMARK INTER + INTRA:          -4.117
REMARK INTER:                  -3.829
REMARK INTRA:                  -0.288
REMARK UNBOUND:                -0.564
REMARK SMILES CCCCCCCCCCCCCCCCCC(=O)[O-]
REMARK SMILES IDX 10 1 11 2 12 3 13 4 14 5 15 6 16 7 17 8 18 9 19 10 20 11
REMARK SMILES IDX 9 12 8 13 7 14 6 15 5 16 4 17 3 18 2 19 1 20
REMARK H PARENT
REMARK Flexibility Score: inf
ROOT
ATOM      1  C   UNL     1      -6.176 -10.480   3.714  1.00  0.00     0.000 C 
ENDROOT
BRANCH   1   2
ATOM      2  C   UNL     1      -6.049 -11.488   2.559  1.00  0.00     0.000 C 
BRANCH   2   3
ATOM      3  C   UNL     1      -7.394 -12.125   2.173  1.00  0.00     0.000 C 
BRANCH   3   4
ATOM      4  C   UNL     1      -7.837 -11.750   0.750  1.00  0.00     0.000 C 
BRANCH   4   5
ATOM      5  C   UNL     1      -9.353 -11.921   0.540  1.00  0.00     0.000 C 
BRANCH   5   6
ATOM      6  C   UNL     1      -9.889 -11.073  -0.624  1.00  0.00     0.000 C 
BRANCH   6   7
ATOM      7  C   UNL     1     -11.006 -10.109  -0.186  1.00  0.00     0.006 C 
BRANCH   7   8
ATOM      8  C   UNL     1     -12.113  -9.991  -1.241  1.00  0.00     0.053 C 
BRANCH   8   9
ATOM      9  C   UNL     1     -11.630 -10.387  -2.602  1.00  0.00     0.041 C 
ATOM     10  O   UNL     1     -11.642 -11.597  -2.953  1.00  0.00    -0.550 OA
ATOM     11  O   UNL     1     -11.194  -9.416  -3.495  1.00  0.00    -0.550 OA
ENDBRANCH   8   9
ENDBRANCH   7   8
ENDBRANCH   6   7
ENDBRANCH   5   6
ENDBRANCH   4   5
ENDBRANCH   3   4
ENDBRANCH   2   3
ENDBRANCH   1   2
BRANCH   1  12
ATOM     12  C   UNL     1      -5.544 -10.972   5.033  1.00  0.00     0.000 C 
BRANCH  12  13
ATOM     13  C   UNL     1      -6.464 -11.944   5.792  1.00  0.00    -0.000 C 
BRANCH  13  14
ATOM     14  C   UNL     1      -7.950 -11.751   5.446  1.00  0.00    -0.000 C 
BRANCH  14  15
ATOM     15  C   UNL     1      -8.882 -12.125   6.611  1.00  0.00    -0.000 C 
BRANCH  15  16
ATOM     16  C   UNL     1      -8.763 -11.154   7.797  1.00  0.00    -0.000 C 
BRANCH  16  17
ATOM     17  C   UNL     1      -9.128 -11.807   9.140  1.00  0.00    -0.000 C 
BRANCH  17  18
ATOM     18  C   UNL     1     -10.513 -11.342   9.615  1.00  0.00    -0.000 C 
BRANCH  18  19
ATOM     19  C   UNL     1     -10.644  -9.811   9.642  1.00  0.00    -0.003 C 
ATOM     20  C   UNL     1     -10.822  -9.258  11.056  1.00  0.00     0.004 C 
ENDBRANCH  18  19
ENDBRANCH  17  18
ENDBRANCH  16  17
ENDBRANCH  15  16
ENDBRANCH  14  15
ENDBRANCH  13  14
ENDBRANCH  12  13
ENDBRANCH   1  12
TORSDOF 16
ENDMDL
MODEL 3
REMARK VINA RESULT:    -1.345      5.071     10.711
REMARK INTER + INTRA:          -3.167
REMARK INTER:                  -2.312
REMARK INTRA:                  -0.855
REMARK UNBOUND:                -0.564
REMARK SMILES CCCCCCCCCCCCCCCCCC(=O)[O-]
REMARK SMILES IDX 10 1 11 2 12 3 13 4 14 5 15 6 16 7 17 8 18 9 19 10 20 11
REMARK SMILES IDX 9 12 8 13 7 14 6 15 5 16 4 17 3 18 2 19 1 20
REMARK H PARENT
REMARK Flexibility Score: inf
ROOT
ATOM      1  C   UNL     1      -7.043 -12.038   1.597  1.00  0.00     0.000 C 
ENDROOT
BRANCH   1   2
ATOM      2  C   UNL     1      -7.575 -11.604   2.974  1.00  0.00     0.000 C 
BRANCH   2   3
ATOM      3  C   UNL     1      -6.454 -11.195   3.944  1.00  0.00     0.000 C 
BRANCH   3   4
ATOM      4  C   UNL     1      -6.442 -12.044   5.224  1.00  0.00     0.000 C 
BRANCH   4   5
ATOM      5  C   UNL     1      -7.828 -12.125   5.890  1.00  0.00     0.000 C 
BRANCH   5   6
ATOM      6  C   UNL     1      -7.869 -11.424   7.258  1.00  0.00     0.000 C 
BRANCH   6   7
ATOM      7  C   UNL     1      -8.830 -12.110   8.244  1.00  0.00     0.006 C 
BRANCH   7   8
ATOM      8  C   UNL     1     -10.212 -11.444   8.262  1.00  0.00     0.053 C 
BRANCH   8   9
ATOM      9  C   UNL     1     -10.580 -10.963   9.631  1.00  0.00     0.041 C 
ATOM     10  O   UNL     1     -10.662 -11.777  10.590  1.00  0.00    -0.550 OA
ATOM     11  O   UNL     1     -10.806  -9.611   9.856  1.00  0.00    -0.550 OA
ENDBRANCH   8   9
ENDBRANCH   7   8
ENDBRANCH   6   7
ENDBRANCH   5   6
ENDBRANCH   4   5
ENDBRANCH   3   4
ENDBRANCH   2   3
ENDBRANCH   1   2
BRANCH   1  12
ATOM     12  C   UNL     1      -7.972 -11.651   0.427  1.00  0.00     0.000 C 
BRANCH  12  13
ATOM     13  C   UNL     1      -9.449 -11.966   0.729  1.00  0.00    -0.000 C 
BRANCH  13  14
ATOM     14  C   UNL     1     -10.356 -11.805  -0.502  1.00  0.00    -0.000 C 
BRANCH  14  15
ATOM     15  C   UNL     1     -10.912 -10.378  -0.644  1.00  0.00    -0.000 C 
BRANCH  15  16
ATOM     16  C   UNL     1     -11.359 -10.058  -2.080  1.00  0.00    -0.000 C 
BRANCH  16  17
ATOM     17  C   UNL     1     -11.808 -11.307  -2.856  1.00  0.00    -0.000 C 
BRANCH  17  18
ATOM     18  C   UNL     1     -11.358 -11.229  -4.322  1.00  0.00    -0.000 C 
BRANCH  18  19
ATOM     19  C   UNL     1     -10.150 -10.300  -4.522  1.00  0.00    -0.003 C 
ATOM     20  C   UNL     1      -8.814 -11.034  -4.399  1.00  0.00     0.004 C 
ENDBRANCH  18  19
ENDBRANCH  17  18
ENDBRANCH  16  17
ENDBRANCH  15  16
ENDBRANCH  14  15
ENDBRANCH  13  14
ENDBRANCH  12  13
ENDBRANCH   1  12
TORSDOF 16
ENDMDL
MODEL 4
REMARK VINA RESULT:    -0.881      5.443     10.934
REMARK INTER + INTRA:          -2.270
REMARK INTER:                  -1.642
REMARK INTRA:                  -0.628
REMARK UNBOUND:                -0.564
REMARK SMILES CCCCCCCCCCCCCCCCCC(=O)[O-]
REMARK SMILES IDX 10 1 11 2 12 3 13 4 14 5 15 6 16 7 17 8 18 9 19 10 20 11
REMARK SMILES IDX 9 12 8 13 7 14 6 15 5 16 4 17 3 18 2 19 1 20
REMARK H PARENT
REMARK Flexibility Score: inf
ROOT
ATOM      1  C   UNL     1      -6.545 -10.982   3.083  1.00  0.00     0.000 C 
ENDROOT
BRANCH   1   2
ATOM      2  C   UNL     1      -5.899 -11.321   4.437  1.00  0.00     0.000 C 
BRANCH   2   3
ATOM      3  C   UNL     1      -6.848 -12.083   5.376  1.00  0.00     0.000 C 
BRANCH   3   4
ATOM      4  C   UNL     1      -7.086 -11.343   6.702  1.00  0.00     0.000 C 
BRANCH   4   5
ATOM      5  C   UNL     1      -8.007 -12.125   7.656  1.00  0.00     0.000 C 
BRANCH   5   6
ATOM      6  C   UNL     1      -9.496 -11.834   7.412  1.00  0.00     0.000 C 
BRANCH   6   7
ATOM      7  C   UNL     1     -10.319 -11.835   8.712  1.00  0.00     0.006 C 
BRANCH   7   8
ATOM      8  C   UNL     1     -10.677 -10.415   9.170  1.00  0.00     0.053 C 
BRANCH   8   9
ATOM      9  C   UNL     1     -11.000 -10.366  10.632  1.00  0.00     0.041 C 
ATOM     10  O   UNL     1     -11.398  -9.293  11.158  1.00  0.00    -0.550 OA
ATOM     11  O   UNL     1     -10.888 -11.513  11.407  1.00  0.00    -0.550 OA
ENDBRANCH   8   9
ENDBRANCH   7   8
ENDBRANCH   6   7
ENDBRANCH   5   6
ENDBRANCH   4   5
ENDBRANCH   3   4
ENDBRANCH   2   3
ENDBRANCH   1   2
BRANCH   1  12
ATOM     12  C   UNL     1      -6.449 -12.125   2.050  1.00  0.00     0.000 C 
BRANCH  12  13
ATOM     13  C   UNL     1      -7.398 -11.912   0.857  1.00  0.00    -0.000 C 
BRANCH  13  14
ATOM     14  C   UNL     1      -8.854 -11.673   1.289  1.00  0.00    -0.000 C 
BRANCH  14  15
ATOM     15  C   UNL     1      -9.829 -11.665   0.100  1.00  0.00    -0.000 C 
BRANCH  15  16
ATOM     16  C   UNL     1      -9.288 -10.877  -1.104  1.00  0.00    -0.000 C 
BRANCH  16  17
ATOM     17  C   UNL     1     -10.092 -11.129  -2.390  1.00  0.00    -0.000 C 
BRANCH  17  18
ATOM     18  C   UNL     1      -9.218 -10.901  -3.633  1.00  0.00    -0.000 C 
BRANCH  18  19
ATOM     19  C   UNL     1      -9.524 -11.900  -4.760  1.00  0.00    -0.003 C 
ATOM     20  C   UNL     1     -10.684 -11.451  -5.649  1.00  0.00     0.004 C 
ENDBRANCH  18  19
ENDBRANCH  17  18
ENDBRANCH  16  17
ENDBRANCH  15  16
ENDBRANCH  14  15
ENDBRANCH  13  14
ENDBRANCH  12  13
ENDBRANCH   1  12
TORSDOF 16
ENDMDL
MODEL 5
REMARK VINA RESULT:    -0.879      1.929      3.457
REMARK INTER + INTRA:          -2.266
REMARK INTER:                  -1.669
REMARK INTRA:                  -0.596
REMARK UNBOUND:                -0.564
REMARK SMILES CCCCCCCCCCCCCCCCCC(=O)[O-]
REMARK SMILES IDX 10 1 11 2 12 3 13 4 14 5 15 6 16 7 17 8 18 9 19 10 20 11
REMARK SMILES IDX 9 12 8 13 7 14 6 15 5 16 4 17 3 18 2 19 1 20
REMARK H PARENT
REMARK Flexibility Score: inf
ROOT
ATOM      1  C   UNL     1      -7.866 -11.982   6.074  1.00  0.00     0.000 C 
ENDROOT
BRANCH   1   2
ATOM      2  C   UNL     1      -8.370 -11.402   4.742  1.00  0.00     0.000 C 
BRANCH   2   3
ATOM      3  C   UNL     1      -7.726 -12.072   3.517  1.00  0.00     0.000 C 
BRANCH   3   4
ATOM      4  C   UNL     1      -8.671 -12.124   2.307  1.00  0.00     0.000 C 
BRANCH   4   5
ATOM      5  C   UNL     1      -8.052 -11.494   1.047  1.00  0.00     0.000 C 
BRANCH   5   6
ATOM      6  C   UNL     1      -8.878 -11.769  -0.220  1.00  0.00     0.000 C 
BRANCH   6   7
ATOM      7  C   UNL     1      -9.604 -10.515  -0.735  1.00  0.00     0.006 C 
BRANCH   7   8
ATOM      8  C   UNL     1      -9.868 -10.579  -2.245  1.00  0.00     0.053 C 
BRANCH   8   9
ATOM      9  C   UNL     1     -11.325 -10.443  -2.562  1.00  0.00     0.041 C 
ATOM     10  O   UNL     1     -12.063 -11.463  -2.609  1.00  0.00    -0.550 OA
ATOM     11  O   UNL     1     -11.875  -9.185  -2.777  1.00  0.00    -0.550 OA
ENDBRANCH   8   9
ENDBRANCH   7   8
ENDBRANCH   6   7
ENDBRANCH   5   6
ENDBRANCH   4   5
ENDBRANCH   3   4
ENDBRANCH   2   3
ENDBRANCH   1   2
BRANCH   1  12
ATOM     12  C   UNL     1      -8.969 -12.122   7.143  1.00  0.00     0.000 C 
BRANCH  12  13
ATOM     13  C   UNL     1      -8.451 -11.805   8.558  1.00  0.00    -0.000 C 
BRANCH  13  14
ATOM     14  C   UNL     1      -9.544 -11.922   9.632  1.00  0.00    -0.000 C 
BRANCH  14  15
ATOM     15  C   UNL     1     -10.922 -11.461   9.127  1.00  0.00    -0.000 C 
BRANCH  15  16
ATOM     16  C   UNL     1     -11.318 -10.078   9.669  1.00  0.00    -0.000 C 
BRANCH  16  17
ATOM     17  C   UNL     1     -11.882 -10.137  11.097  1.00  0.00    -0.000 C 
BRANCH  17  18
ATOM     18  C   UNL     1     -11.244  -9.056  11.983  1.00  0.00    -0.000 C 
BRANCH  18  19
ATOM     19  C   UNL     1     -10.982  -9.545  13.416  1.00  0.00    -0.003 C 
ATOM     20  C   UNL     1     -12.092 -10.454  13.943  1.00  0.00     0.004 C 
ENDBRANCH  18  19
ENDBRANCH  17  18
ENDBRANCH  16  17
ENDBRANCH  15  16
ENDBRANCH  14  15
ENDBRANCH  13  14
ENDBRANCH  12  13
ENDBRANCH   1  12
TORSDOF 16
ENDMDL
MODEL 6
REMARK VINA RESULT:    -0.475     22.027     24.711
REMARK INTER + INTRA:          -1.484
REMARK INTER:                  -1.182
REMARK INTRA:                  -0.302
REMARK UNBOUND:                -0.564
REMARK SMILES CCCCCCCCCCCCCCCCCC(=O)[O-]
REMARK SMILES IDX 10 1 11 2 12 3 13 4 14 5 15 6 16 7 17 8 18 9 19 10 20 11
REMARK SMILES IDX 9 12 8 13 7 14 6 15 5 16 4 17 3 18 2 19 1 20
REMARK H PARENT
REMARK Flexibility Score: inf
ROOT
ATOM      1  C   UNL     1       5.212   4.100   0.661  1.00  0.00     0.000 C 
ENDROOT
BRANCH   1   2
ATOM      2  C   UNL     1       6.621   3.772   1.185  1.00  0.00     0.000 C 
BRANCH   2   3
ATOM      3  C   UNL     1       7.698   4.720   0.632  1.00  0.00     0.000 C 
BRANCH   3   4
ATOM      4  C   UNL     1       7.646   6.113   1.279  1.00  0.00     0.000 C 
BRANCH   4   5
ATOM      5  C   UNL     1       7.346   6.051   2.788  1.00  0.00     0.000 C 
BRANCH   5   6
ATOM      6  C   UNL     1       7.108   7.441   3.401  1.00  0.00     0.000 C 
BRANCH   6   7
ATOM      7  C   UNL     1       5.625   7.850   3.377  1.00  0.00     0.006 C 
BRANCH   7   8
ATOM      8  C   UNL     1       4.930   7.583   4.718  1.00  0.00     0.053 C 
BRANCH   8   9
ATOM      9  C   UNL     1       3.492   7.204   4.535  1.00  0.00     0.041 C 
ATOM     10  O   UNL     1       2.578   8.003   4.868  1.00  0.00    -0.550 OA
ATOM     11  O   UNL     1       3.163   5.978   3.969  1.00  0.00    -0.550 OA
ENDBRANCH   8   9
ENDBRANCH   7   8
ENDBRANCH   6   7
ENDBRANCH   5   6
ENDBRANCH   4   5
ENDBRANCH   3   4
ENDBRANCH   2   3
ENDBRANCH   1   2
BRANCH   1  12
ATOM     12  C   UNL     1       4.496   5.204   1.467  1.00  0.00     0.000 C 
BRANCH  12  13
ATOM     13  C   UNL     1       3.373   5.879   0.658  1.00  0.00    -0.000 C 
BRANCH  13  14
ATOM     14  C   UNL     1       3.310   7.399   0.879  1.00  0.00    -0.000 C 
BRANCH  14  15
ATOM     15  C   UNL     1       4.562   8.124   0.359  1.00  0.00    -0.000 C 
BRANCH  15  16
ATOM     16  C   UNL     1       5.354   7.283  -0.656  1.00  0.00    -0.000 C 
BRANCH  16  17
ATOM     17  C   UNL     1       5.637   8.039  -1.964  1.00  0.00    -0.000 C 
BRANCH  17  18
ATOM     18  C   UNL     1       7.063   7.757  -2.460  1.00  0.00    -0.000 C 
BRANCH  18  19
ATOM     19  C   UNL     1       7.195   7.888  -3.986  1.00  0.00    -0.003 C 
ATOM     20  C   UNL     1       5.851   8.124  -4.677  1.00  0.00     0.004 C 
ENDBRANCH  18  19
ENDBRANCH  17  18
ENDBRANCH  16  17
ENDBRANCH  15  16
ENDBRANCH  14  15
ENDBRANCH  13  14
ENDBRANCH  12  13
ENDBRANCH   1  12
TORSDOF 16
ENDMDL
