MODEL 1
REMARK VINA RESULT:    -5.229      0.000      0.000
REMARK INTER + INTRA:         -12.077
REMARK INTER:                 -10.121
REMARK INTRA:                  -1.956
REMARK UNBOUND:                -1.956
REMARK SMILES CCCCCCCCCCCCCCCCCC(=O)[O-]
REMARK SMILES IDX 10 1 11 2 12 3 13 4 14 5 15 6 16 7 17 8 18 9 19 10 20 11
REMARK SMILES IDX 9 12 8 13 7 14 6 15 5 16 4 17 3 18 2 19 1 20
REMARK H PARENT
REMARK Flexibility Score: inf
ROOT
ATOM      1  C   UNL     1       9.408 -24.178  23.938  1.00  0.00     0.000 C 
ENDROOT
BRANCH   1   2
ATOM      2  C   UNL     1       9.119 -24.951  22.641  1.00  0.00     0.000 C 
BRANCH   2   3
ATOM      3  C   UNL     1      10.403 -25.333  21.884  1.00  0.00     0.000 C 
BRANCH   3   4
ATOM      4  C   UNL     1      11.420 -24.180  21.815  1.00  0.00     0.000 C 
BRANCH   4   5
ATOM      5  C   UNL     1      12.021 -23.920  20.419  1.00  0.00     0.000 C 
BRANCH   5   6
ATOM      6  C   UNL     1      13.082 -22.802  20.359  1.00  0.00     0.000 C 
BRANCH   6   7
ATOM      7  C   UNL     1      14.506 -23.278  20.020  1.00  0.00     0.006 C 
BRANCH   7   8
ATOM      8  C   UNL     1      15.081 -24.231  21.076  1.00  0.00     0.053 C 
BRANCH   8   9
ATOM      9  C   UNL     1      15.249 -25.603  20.505  1.00  0.00     0.041 C 
ATOM     10  O   UNL     1      15.061 -25.807  19.276  1.00  0.00    -0.550 OA
ATOM     11  O   UNL     1      15.564 -26.670  21.338  1.00  0.00    -0.550 OA
ENDBRANCH   8   9
ENDBRANCH   7   8
ENDBRANCH   6   7
ENDBRANCH   5   6
ENDBRANCH   4   5
ENDBRANCH   3   4
ENDBRANCH   2   3
ENDBRANCH   1   2
BRANCH   1  12
ATOM     12  C   UNL     1       9.386 -25.084  25.181  1.00  0.00     0.000 C 
BRANCH  12  13
ATOM     13  C   UNL     1       9.907 -24.379  26.447  1.00  0.00    -0.000 C 
BRANCH  13  14
ATOM     14  C   UNL     1      10.672 -23.067  26.194  1.00  0.00    -0.000 C 
BRANCH  14  15
ATOM     15  C   UNL     1      12.182 -23.197  26.446  1.00  0.00    -0.000 C 
BRANCH  15  16
ATOM     16  C   UNL     1      12.962 -23.185  25.124  1.00  0.00    -0.000 C 
BRANCH  16  17
ATOM     17  C   UNL     1      12.787 -21.847  24.395  1.00  0.00    -0.000 C 
BRANCH  17  18
ATOM     18  C   UNL     1      14.081 -21.437  23.682  1.00  0.00    -0.000 C 
BRANCH  18  19
ATOM     19  C   UNL     1      15.145 -22.535  23.801  1.00  0.00    -0.003 C 
ATOM     20  C   UNL     1      16.337 -22.060  24.629  1.00  0.00     0.004 C 
ENDBRANCH  18  19
ENDBRANCH  17  18
ENDBRANCH  16  17
ENDBRANCH  15  16
ENDBRANCH  14  15
ENDBRANCH  13  14
ENDBRANCH  12  13
ENDBRANCH   1  12
TORSDOF 16
ENDMDL
MODEL 2
REMARK VINA RESULT:    -5.178      2.910      6.709
REMARK INTER + INTRA:         -11.977
REMARK INTER:                 -10.028
REMARK INTRA:                  -1.949
REMARK UNBOUND:                -1.956
REMARK SMILES CCCCCCCCCCCCCCCCCC(=O)[O-]
REMARK SMILES IDX 10 1 11 2 12 3 13 4 14 5 15 6 16 7 17 8 18 9 19 10 20 11
REMARK SMILES IDX 9 12 8 13 7 14 6 15 5 16 4 17 3 18 2 19 1 20
REMARK H PARENT
REMARK Flexibility Score: inf
ROOT
ATOM      1  C   UNL     1      15.390 -24.758  21.762  1.00  0.00     0.000 C 
ENDROOT
BRANCH   1   2
ATOM      2  C   UNL     1      15.763 -23.366  22.297  1.00  0.00     0.000 C 
BRANCH   2   3
ATOM      3  C   UNL     1      14.982 -22.993  23.569  1.00  0.00     0.000 C 
BRANCH   3   4
ATOM      4  C   UNL     1      14.302 -21.616  23.469  1.00  0.00     0.000 C 
BRANCH   4   5
ATOM      5  C   UNL     1      12.978 -21.482  24.247  1.00  0.00     0.000 C 
BRANCH   5   6
ATOM      6  C   UNL     1      11.888 -22.505  23.868  1.00  0.00     0.000 C 
BRANCH   6   7
ATOM      7  C   UNL     1      10.542 -22.315  24.592  1.00  0.00     0.006 C 
BRANCH   7   8
ATOM      8  C   UNL     1      10.706 -22.070  26.097  1.00  0.00     0.053 C 
BRANCH   8   9
ATOM      9  C   UNL     1      10.866 -23.368  26.823  1.00  0.00     0.041 C 
ATOM     10  O   UNL     1       9.924 -24.204  26.843  1.00  0.00    -0.550 OA
ATOM     11  O   UNL     1      12.036 -23.635  27.522  1.00  0.00    -0.550 OA
ENDBRANCH   8   9
ENDBRANCH   7   8
ENDBRANCH   6   7
ENDBRANCH   5   6
ENDBRANCH   4   5
ENDBRANCH   3   4
ENDBRANCH   2   3
ENDBRANCH   1   2
BRANCH   1  12
ATOM     12  C   UNL     1      14.813 -24.706  20.336  1.00  0.00     0.000 C 
BRANCH  12  13
ATOM     13  C   UNL     1      14.158 -23.353  20.003  1.00  0.00    -0.000 C 
BRANCH  13  14
ATOM     14  C   UNL     1      12.660 -23.253  20.342  1.00  0.00    -0.000 C 
BRANCH  14  15
ATOM     15  C   UNL     1      12.068 -24.580  20.838  1.00  0.00    -0.000 C 
BRANCH  15  16
ATOM     16  C   UNL     1      10.540 -24.493  20.946  1.00  0.00    -0.000 C 
BRANCH  16  17
ATOM     17  C   UNL     1      10.028 -25.284  22.156  1.00  0.00    -0.000 C 
BRANCH  17  18
ATOM     18  C   UNL     1       8.498 -25.229  22.241  1.00  0.00    -0.000 C 
BRANCH  18  19
ATOM     19  C   UNL     1       8.036 -24.020  23.063  1.00  0.00    -0.003 C 
ATOM     20  C   UNL     1       6.779 -23.394  22.466  1.00  0.00     0.004 C 
ENDBRANCH  18  19
ENDBRANCH  17  18
ENDBRANCH  16  17
ENDBRANCH  15  16
ENDBRANCH  14  15
ENDBRANCH  13  14
ENDBRANCH  12  13
ENDBRANCH   1  12
TORSDOF 16
ENDMDL
MODEL 3
REMARK VINA RESULT:    -5.177      2.736      5.470
REMARK INTER + INTRA:         -11.974
REMARK INTER:                 -10.077
REMARK INTRA:                  -1.898
REMARK UNBOUND:                -1.956
REMARK SMILES CCCCCCCCCCCCCCCCCC(=O)[O-]
REMARK SMILES IDX 10 1 11 2 12 3 13 4 14 5 15 6 16 7 17 8 18 9 19 10 20 11
REMARK SMILES IDX 9 12 8 13 7 14 6 15 5 16 4 17 3 18 2 19 1 20
REMARK H PARENT
REMARK Flexibility Score: inf
ROOT
ATOM      1  C   UNL     1      14.973 -23.033  23.178  1.00  0.00     0.000 C 
ENDROOT
BRANCH   1   2
ATOM      2  C   UNL     1      15.703 -23.024  21.825  1.00  0.00     0.000 C 
BRANCH   2   3
ATOM      3  C   UNL     1      14.920 -23.767  20.728  1.00  0.00     0.000 C 
BRANCH   3   4
ATOM      4  C   UNL     1      13.804 -22.908  20.106  1.00  0.00     0.000 C 
BRANCH   4   5
ATOM      5  C   UNL     1      12.369 -23.344  20.461  1.00  0.00     0.000 C 
BRANCH   5   6
ATOM      6  C   UNL     1      12.216 -24.822  20.876  1.00  0.00     0.000 C 
BRANCH   6   7
ATOM      7  C   UNL     1      10.817 -25.208  21.391  1.00  0.00     0.006 C 
BRANCH   7   8
ATOM      8  C   UNL     1      10.293 -24.248  22.466  1.00  0.00     0.053 C 
BRANCH   8   9
ATOM      9  C   UNL     1       8.817 -24.412  22.639  1.00  0.00     0.041 C 
ATOM     10  O   UNL     1       8.210 -23.781  23.544  1.00  0.00    -0.550 OA
ATOM     11  O   UNL     1       8.117 -25.302  21.833  1.00  0.00    -0.550 OA
ENDBRANCH   8   9
ENDBRANCH   7   8
ENDBRANCH   6   7
ENDBRANCH   5   6
ENDBRANCH   4   5
ENDBRANCH   3   4
ENDBRANCH   2   3
ENDBRANCH   1   2
BRANCH   1  12
ATOM     12  C   UNL     1      14.219 -21.719  23.450  1.00  0.00     0.000 C 
BRANCH  12  13
ATOM     13  C   UNL     1      12.877 -21.937  24.173  1.00  0.00    -0.000 C 
BRANCH  13  14
ATOM     14  C   UNL     1      12.585 -23.392  24.582  1.00  0.00    -0.000 C 
BRANCH  14  15
ATOM     15  C   UNL     1      12.050 -23.515  26.016  1.00  0.00    -0.000 C 
BRANCH  15  16
ATOM     16  C   UNL     1      10.517 -23.451  26.037  1.00  0.00    -0.000 C 
BRANCH  16  17
ATOM     17  C   UNL     1       9.938 -24.450  27.046  1.00  0.00    -0.000 C 
BRANCH  17  18
ATOM     18  C   UNL     1       9.353 -25.675  26.332  1.00  0.00    -0.000 C 
BRANCH  18  19
ATOM     19  C   UNL     1       9.733 -26.969  27.061  1.00  0.00    -0.003 C 
ATOM     20  C   UNL     1      11.131 -26.871  27.667  1.00  0.00     0.004 C 
ENDBRANCH  18  19
ENDBRANCH  17  18
ENDBRANCH  16  17
ENDBRANCH  15  16
ENDBRANCH  14  15
ENDBRANCH  13  14
ENDBRANCH  12  13
ENDBRANCH   1  12
TORSDOF 16
ENDMDL
MODEL 4
REMARK VINA RESULT:    -5.156      1.257      2.337
REMARK INTER + INTRA:         -11.934
REMARK INTER:                  -9.979
REMARK INTRA:                  -1.956
REMARK UNBOUND:                -1.956
REMARK SMILES CCCCCCCCCCCCCCCCCC(=O)[O-]
REMARK SMILES IDX 10 1 11 2 12 3 13 4 14 5 15 6 16 7 17 8 18 9 19 10 20 11
REMARK SMILES IDX 9 12 8 13 7 14 6 15 5 16 4 17 3 18 2 19 1 20
REMARK H PARENT
REMARK Flexibility Score: inf
ROOT
ATOM      1  C   UNL     1       9.834 -25.251  21.826  1.00  0.00     0.000 C 
ENDROOT
BRANCH   1   2
ATOM      2  C   UNL     1      11.135 -24.449  21.986  1.00  0.00     0.000 C 
BRANCH   2   3
ATOM      3  C   UNL     1      12.000 -24.466  20.714  1.00  0.00     0.000 C 
BRANCH   3   4
ATOM      4  C   UNL     1      12.794 -23.163  20.514  1.00  0.00     0.000 C 
BRANCH   4   5
ATOM      5  C   UNL     1      14.224 -23.345  19.969  1.00  0.00     0.000 C 
BRANCH   5   6
ATOM      6  C   UNL     1      15.344 -23.281  21.028  1.00  0.00     0.000 C 
BRANCH   6   7
ATOM      7  C   UNL     1      15.338 -24.436  22.048  1.00  0.00     0.006 C 
BRANCH   7   8
ATOM      8  C   UNL     1      15.404 -25.816  21.382  1.00  0.00     0.053 C 
BRANCH   8   9
ATOM      9  C   UNL     1      16.256 -26.744  22.189  1.00  0.00     0.041 C 
ATOM     10  O   UNL     1      17.378 -26.365  22.617  1.00  0.00    -0.550 OA
ATOM     11  O   UNL     1      15.834 -28.046  22.426  1.00  0.00    -0.550 OA
ENDBRANCH   8   9
ENDBRANCH   7   8
ENDBRANCH   6   7
ENDBRANCH   5   6
ENDBRANCH   4   5
ENDBRANCH   3   4
ENDBRANCH   2   3
ENDBRANCH   1   2
BRANCH   1  12
ATOM     12  C   UNL     1       8.687 -24.692  22.685  1.00  0.00     0.000 C 
BRANCH  12  13
ATOM     13  C   UNL     1       9.184 -23.908  23.914  1.00  0.00    -0.000 C 
BRANCH  13  14
ATOM     14  C   UNL     1       9.382 -24.750  25.187  1.00  0.00    -0.000 C 
BRANCH  14  15
ATOM     15  C   UNL     1      10.167 -24.009  26.279  1.00  0.00    -0.000 C 
BRANCH  15  16
ATOM     16  C   UNL     1      11.677 -24.077  26.012  1.00  0.00    -0.000 C 
BRANCH  16  17
ATOM     17  C   UNL     1      12.295 -22.674  25.988  1.00  0.00    -0.000 C 
BRANCH  17  18
ATOM     18  C   UNL     1      11.984 -21.959  24.668  1.00  0.00    -0.000 C 
BRANCH  18  19
ATOM     19  C   UNL     1      13.233 -21.871  23.783  1.00  0.00    -0.003 C 
ATOM     20  C   UNL     1      14.489 -22.248  24.564  1.00  0.00     0.004 C 
ENDBRANCH  18  19
ENDBRANCH  17  18
ENDBRANCH  16  17
ENDBRANCH  15  16
ENDBRANCH  14  15
ENDBRANCH  13  14
ENDBRANCH  12  13
ENDBRANCH   1  12
TORSDOF 16
ENDMDL
MODEL 5
REMARK VINA RESULT:    -5.129      3.060      5.835
REMARK INTER + INTRA:         -11.881
REMARK INTER:                 -10.162
REMARK INTRA:                  -1.719
REMARK UNBOUND:                -1.956
REMARK SMILES CCCCCCCCCCCCCCCCCC(=O)[O-]
REMARK SMILES IDX 10 1 11 2 12 3 13 4 14 5 15 6 16 7 17 8 18 9 19 10 20 11
REMARK SMILES IDX 9 12 8 13 7 14 6 15 5 16 4 17 3 18 2 19 1 20
REMARK H PARENT
REMARK Flexibility Score: inf
ROOT
ATOM      1  C   UNL     1      15.266 -23.045  21.076  1.00  0.00     0.000 C 
ENDROOT
BRANCH   1   2
ATOM      2  C   UNL     1      14.241 -23.036  19.931  1.00  0.00     0.000 C 
BRANCH   2   3
ATOM      3  C   UNL     1      12.790 -23.110  20.437  1.00  0.00     0.000 C 
BRANCH   3   4
ATOM      4  C   UNL     1      12.295 -24.556  20.619  1.00  0.00     0.000 C 
BRANCH   4   5
ATOM      5  C   UNL     1      10.789 -24.699  20.917  1.00  0.00     0.000 C 
BRANCH   5   6
ATOM      6  C   UNL     1      10.436 -25.011  22.386  1.00  0.00     0.000 C 
BRANCH   6   7
ATOM      7  C   UNL     1       8.954 -25.342  22.640  1.00  0.00     0.006 C 
BRANCH   7   8
ATOM      8  C   UNL     1       8.166 -24.151  23.200  1.00  0.00     0.053 C 
BRANCH   8   9
ATOM      9  C   UNL     1       7.143 -23.690  22.211  1.00  0.00     0.041 C 
ATOM     10  O   UNL     1       6.189 -22.957  22.581  1.00  0.00    -0.550 OA
ATOM     11  O   UNL     1       7.213 -24.112  20.889  1.00  0.00    -0.550 OA
ENDBRANCH   8   9
ENDBRANCH   7   8
ENDBRANCH   6   7
ENDBRANCH   5   6
ENDBRANCH   4   5
ENDBRANCH   3   4
ENDBRANCH   2   3
ENDBRANCH   1   2
BRANCH   1  12
ATOM     12  C   UNL     1      14.657 -23.516  22.409  1.00  0.00     0.000 C 
BRANCH  12  13
ATOM     13  C   UNL     1      15.004 -22.589  23.588  1.00  0.00    -0.000 C 
BRANCH  13  14
ATOM     14  C   UNL     1      13.903 -22.451  24.654  1.00  0.00    -0.000 C 
BRANCH  14  15
ATOM     15  C   UNL     1      12.486 -22.553  24.070  1.00  0.00    -0.000 C 
BRANCH  15  16
ATOM     16  C   UNL     1      11.508 -21.659  24.843  1.00  0.00    -0.000 C 
BRANCH  16  17
ATOM     17  C   UNL     1      10.268 -22.450  25.279  1.00  0.00    -0.000 C 
BRANCH  17  18
ATOM     18  C   UNL     1      10.530 -23.205  26.586  1.00  0.00    -0.000 C 
BRANCH  18  19
ATOM     19  C   UNL     1      10.689 -24.709  26.330  1.00  0.00    -0.003 C 
ATOM     20  C   UNL     1       9.429 -25.473  26.727  1.00  0.00     0.004 C 
ENDBRANCH  18  19
ENDBRANCH  17  18
ENDBRANCH  16  17
ENDBRANCH  15  16
ENDBRANCH  14  15
ENDBRANCH  13  14
ENDBRANCH  12  13
ENDBRANCH   1  12
TORSDOF 16
ENDMDL
MODEL 6
REMARK VINA RESULT:    -5.092      2.004      5.044
REMARK INTER + INTRA:         -11.811
REMARK INTER:                  -9.827
REMARK INTRA:                  -1.984
REMARK UNBOUND:                -1.956
REMARK SMILES CCCCCCCCCCCCCCCCCC(=O)[O-]
REMARK SMILES IDX 10 1 11 2 12 3 13 4 14 5 15 6 16 7 17 8 18 9 19 10 20 11
REMARK SMILES IDX 9 12 8 13 7 14 6 15 5 16 4 17 3 18 2 19 1 20
REMARK H PARENT
REMARK Flexibility Score: inf
ROOT
ATOM      1  C   UNL     1       9.120 -24.704  22.325  1.00  0.00     0.000 C 
ENDROOT
BRANCH   1   2
ATOM      2  C   UNL     1       9.186 -24.135  23.752  1.00  0.00     0.000 C 
BRANCH   2   3
ATOM      3  C   UNL     1       9.456 -25.222  24.808  1.00  0.00     0.000 C 
BRANCH   3   4
ATOM      4  C   UNL     1       9.734 -24.639  26.206  1.00  0.00     0.000 C 
BRANCH   4   5
ATOM      5  C   UNL     1      10.250 -23.186  26.217  1.00  0.00     0.000 C 
BRANCH   5   6
ATOM      6  C   UNL     1      11.785 -23.035  26.215  1.00  0.00     0.000 C 
BRANCH   6   7
ATOM      7  C   UNL     1      12.375 -22.445  24.920  1.00  0.00     0.006 C 
BRANCH   7   8
ATOM      8  C   UNL     1      13.711 -23.090  24.529  1.00  0.00     0.053 C 
BRANCH   8   9
ATOM      9  C   UNL     1      14.731 -22.037  24.229  1.00  0.00     0.041 C 
ATOM     10  O   UNL     1      15.959 -22.301  24.320  1.00  0.00    -0.550 OA
ATOM     11  O   UNL     1      14.326 -20.750  23.899  1.00  0.00    -0.550 OA
ENDBRANCH   8   9
ENDBRANCH   7   8
ENDBRANCH   6   7
ENDBRANCH   5   6
ENDBRANCH   4   5
ENDBRANCH   3   4
ENDBRANCH   2   3
ENDBRANCH   1   2
BRANCH   1  12
ATOM     12  C   UNL     1      10.480 -25.232  21.837  1.00  0.00     0.000 C 
BRANCH  12  13
ATOM     13  C   UNL     1      11.560 -24.136  21.770  1.00  0.00    -0.000 C 
BRANCH  13  14
ATOM     14  C   UNL     1      11.938 -23.680  20.350  1.00  0.00    -0.000 C 
BRANCH  14  15
ATOM     15  C   UNL     1      13.052 -22.622  20.337  1.00  0.00    -0.000 C 
BRANCH  15  16
ATOM     16  C   UNL     1      14.396 -23.235  20.752  1.00  0.00    -0.000 C 
BRANCH  16  17
ATOM     17  C   UNL     1      15.116 -23.851  19.547  1.00  0.00    -0.000 C 
BRANCH  17  18
ATOM     18  C   UNL     1      15.036 -25.382  19.582  1.00  0.00    -0.000 C 
BRANCH  18  19
ATOM     19  C   UNL     1      14.720 -25.882  20.996  1.00  0.00    -0.003 C 
ATOM     20  C   UNL     1      15.974 -26.410  21.688  1.00  0.00     0.004 C 
ENDBRANCH  18  19
ENDBRANCH  17  18
ENDBRANCH  16  17
ENDBRANCH  15  16
ENDBRANCH  14  15
ENDBRANCH  13  14
ENDBRANCH  12  13
ENDBRANCH   1  12
TORSDOF 16
ENDMDL
MODEL 7
REMARK VINA RESULT:    -5.076      1.522      4.359
REMARK INTER + INTRA:         -11.780
REMARK INTER:                  -9.980
REMARK INTRA:                  -1.799
REMARK UNBOUND:                -1.956
REMARK SMILES CCCCCCCCCCCCCCCCCC(=O)[O-]
REMARK SMILES IDX 10 1 11 2 12 3 13 4 14 5 15 6 16 7 17 8 18 9 19 10 20 11
REMARK SMILES IDX 9 12 8 13 7 14 6 15 5 16 4 17 3 18 2 19 1 20
REMARK H PARENT
REMARK Flexibility Score: inf
ROOT
ATOM      1  C   UNL     1       9.430 -24.882  25.282  1.00  0.00     0.000 C 
ENDROOT
BRANCH   1   2
ATOM      2  C   UNL     1      10.073 -24.329  26.564  1.00  0.00     0.000 C 
BRANCH   2   3
ATOM      3  C   UNL     1      10.746 -22.963  26.345  1.00  0.00     0.000 C 
BRANCH   3   4
ATOM      4  C   UNL     1      12.279 -23.026  26.470  1.00  0.00     0.000 C 
BRANCH   4   5
ATOM      5  C   UNL     1      13.026 -23.392  25.172  1.00  0.00     0.000 C 
BRANCH   5   6
ATOM      6  C   UNL     1      12.813 -22.418  23.995  1.00  0.00     0.000 C 
BRANCH   6   7
ATOM      7  C   UNL     1      14.062 -21.619  23.581  1.00  0.00     0.006 C 
BRANCH   7   8
ATOM      8  C   UNL     1      15.301 -21.983  24.408  1.00  0.00     0.053 C 
BRANCH   8   9
ATOM      9  C   UNL     1      16.259 -22.787  23.587  1.00  0.00     0.041 C 
ATOM     10  O   UNL     1      15.834 -23.527  22.660  1.00  0.00    -0.550 OA
ATOM     11  O   UNL     1      17.617 -22.761  23.877  1.00  0.00    -0.550 OA
ENDBRANCH   8   9
ENDBRANCH   7   8
ENDBRANCH   6   7
ENDBRANCH   5   6
ENDBRANCH   4   5
ENDBRANCH   3   4
ENDBRANCH   2   3
ENDBRANCH   1   2
BRANCH   1  12
ATOM     12  C   UNL     1       9.536 -23.903  24.100  1.00  0.00     0.000 C 
BRANCH  12  13
ATOM     13  C   UNL     1       8.500 -24.182  22.995  1.00  0.00    -0.000 C 
BRANCH  13  14
ATOM     14  C   UNL     1       8.978 -25.129  21.878  1.00  0.00    -0.000 C 
BRANCH  14  15
ATOM     15  C   UNL     1      10.500 -25.335  21.877  1.00  0.00    -0.000 C 
BRANCH  15  16
ATOM     16  C   UNL     1      11.146 -24.646  20.669  1.00  0.00    -0.000 C 
BRANCH  16  17
ATOM     17  C   UNL     1      12.645 -24.420  20.901  1.00  0.00    -0.000 C 
BRANCH  17  18
ATOM     18  C   UNL     1      13.111 -23.113  20.249  1.00  0.00    -0.000 C 
BRANCH  18  19
ATOM     19  C   UNL     1      14.562 -23.227  19.765  1.00  0.00    -0.003 C 
ATOM     20  C   UNL     1      14.989 -24.688  19.644  1.00  0.00     0.004 C 
ENDBRANCH  18  19
ENDBRANCH  17  18
ENDBRANCH  16  17
ENDBRANCH  15  16
ENDBRANCH  14  15
ENDBRANCH  13  14
ENDBRANCH  12  13
ENDBRANCH   1  12
TORSDOF 16
ENDMDL
MODEL 8
REMARK VINA RESULT:    -4.886      2.725      5.595
REMARK INTER + INTRA:         -11.412
REMARK INTER:                  -9.328
REMARK INTRA:                  -2.084
REMARK UNBOUND:                -1.956
REMARK SMILES CCCCCCCCCCCCCCCCCC(=O)[O-]
REMARK SMILES IDX 10 1 11 2 12 3 13 4 14 5 15 6 16 7 17 8 18 9 19 10 20 11
REMARK SMILES IDX 9 12 8 13 7 14 6 15 5 16 4 17 3 18 2 19 1 20
REMARK H PARENT
REMARK Flexibility Score: inf
ROOT
ATOM      1  C   UNL     1      12.600 -26.162  20.383  1.00  0.00     0.000 C 
ENDROOT
BRANCH   1   2
ATOM      2  C   UNL     1      11.541 -25.090  20.685  1.00  0.00     0.000 C 
BRANCH   2   3
ATOM      3  C   UNL     1      10.642 -25.468  21.875  1.00  0.00     0.000 C 
BRANCH   3   4
ATOM      4  C   UNL     1       9.218 -24.897  21.752  1.00  0.00     0.000 C 
BRANCH   4   5
ATOM      5  C   UNL     1       8.694 -24.169  23.006  1.00  0.00     0.000 C 
BRANCH   5   6
ATOM      6  C   UNL     1       9.468 -24.464  24.307  1.00  0.00     0.000 C 
BRANCH   6   7
ATOM      7  C   UNL     1      10.129 -23.236  24.960  1.00  0.00     0.006 C 
BRANCH   7   8
ATOM      8  C   UNL     1      10.077 -23.277  26.492  1.00  0.00     0.053 C 
BRANCH   8   9
ATOM      9  C   UNL     1      11.294 -23.956  27.038  1.00  0.00     0.041 C 
ATOM     10  O   UNL     1      11.351 -25.213  27.084  1.00  0.00    -0.550 OA
ATOM     11  O   UNL     1      12.344 -23.201  27.543  1.00  0.00    -0.550 OA
ENDBRANCH   8   9
ENDBRANCH   7   8
ENDBRANCH   6   7
ENDBRANCH   5   6
ENDBRANCH   4   5
ENDBRANCH   3   4
ENDBRANCH   2   3
ENDBRANCH   1   2
BRANCH   1  12
ATOM     12  C   UNL     1      14.014 -25.731  20.809  1.00  0.00     0.000 C 
BRANCH  12  13
ATOM     13  C   UNL     1      14.842 -25.154  19.645  1.00  0.00    -0.000 C 
BRANCH  13  14
ATOM     14  C   UNL     1      14.985 -23.621  19.645  1.00  0.00    -0.000 C 
BRANCH  14  15
ATOM     15  C   UNL     1      14.710 -22.993  21.020  1.00  0.00    -0.000 C 
BRANCH  15  16
ATOM     16  C   UNL     1      13.381 -22.228  21.017  1.00  0.00    -0.000 C 
BRANCH  16  17
ATOM     17  C   UNL     1      12.663 -22.367  22.366  1.00  0.00    -0.000 C 
BRANCH  17  18
ATOM     18  C   UNL     1      13.471 -23.244  23.330  1.00  0.00    -0.000 C 
BRANCH  18  19
ATOM     19  C   UNL     1      13.931 -22.438  24.550  1.00  0.00    -0.003 C 
ATOM     20  C   UNL     1      15.397 -22.033  24.423  1.00  0.00     0.004 C 
ENDBRANCH  18  19
ENDBRANCH  17  18
ENDBRANCH  16  17
ENDBRANCH  15  16
ENDBRANCH  14  15
ENDBRANCH  13  14
ENDBRANCH  12  13
ENDBRANCH   1  12
TORSDOF 16
ENDMDL
MODEL 9
REMARK VINA RESULT:    -4.851      1.236      4.407
REMARK INTER + INTRA:         -11.344
REMARK INTER:                  -9.207
REMARK INTRA:                  -2.137
REMARK UNBOUND:                -1.956
REMARK SMILES CCCCCCCCCCCCCCCCCC(=O)[O-]
REMARK SMILES IDX 10 1 11 2 12 3 13 4 14 5 15 6 16 7 17 8 18 9 19 10 20 11
REMARK SMILES IDX 9 12 8 13 7 14 6 15 5 16 4 17 3 18 2 19 1 20
REMARK H PARENT
REMARK Flexibility Score: inf
ROOT
ATOM      1  C   UNL     1      14.492 -22.235  23.767  1.00  0.00     0.000 C 
ENDROOT
BRANCH   1   2
ATOM      2  C   UNL     1      14.607 -23.297  22.662  1.00  0.00     0.000 C 
BRANCH   2   3
ATOM      3  C   UNL     1      14.849 -22.680  21.273  1.00  0.00     0.000 C 
BRANCH   3   4
ATOM      4  C   UNL     1      13.579 -22.655  20.403  1.00  0.00     0.000 C 
BRANCH   4   5
ATOM      5  C   UNL     1      12.316 -23.230  21.073  1.00  0.00     0.000 C 
BRANCH   5   6
ATOM      6  C   UNL     1      11.817 -24.570  20.493  1.00  0.00     0.000 C 
BRANCH   6   7
ATOM      7  C   UNL     1      12.664 -25.797  20.878  1.00  0.00     0.006 C 
BRANCH   7   8
ATOM      8  C   UNL     1      13.483 -26.346  19.703  1.00  0.00     0.053 C 
BRANCH   8   9
ATOM      9  C   UNL     1      14.926 -25.982  19.858  1.00  0.00     0.041 C 
ATOM     10  O   UNL     1      15.560 -25.481  18.892  1.00  0.00    -0.550 OA
ATOM     11  O   UNL     1      15.586 -26.242  21.052  1.00  0.00    -0.550 OA
ENDBRANCH   8   9
ENDBRANCH   7   8
ENDBRANCH   6   7
ENDBRANCH   5   6
ENDBRANCH   4   5
ENDBRANCH   3   4
ENDBRANCH   2   3
ENDBRANCH   1   2
BRANCH   1  12
ATOM     12  C   UNL     1      13.425 -22.590  24.817  1.00  0.00     0.000 C 
BRANCH  12  13
ATOM     13  C   UNL     1      12.135 -21.763  24.665  1.00  0.00    -0.000 C 
BRANCH  13  14
ATOM     14  C   UNL     1      11.089 -21.976  25.775  1.00  0.00    -0.000 C 
BRANCH  14  15
ATOM     15  C   UNL     1       9.755 -22.520  25.244  1.00  0.00    -0.000 C 
BRANCH  15  16
ATOM     16  C   UNL     1       9.808 -24.045  25.085  1.00  0.00    -0.000 C 
BRANCH  16  17
ATOM     17  C   UNL     1      10.105 -24.436  23.632  1.00  0.00    -0.000 C 
BRANCH  17  18
ATOM     18  C   UNL     1       8.971 -25.289  23.050  1.00  0.00    -0.000 C 
BRANCH  18  19
ATOM     19  C   UNL     1       8.235 -24.535  21.936  1.00  0.00    -0.003 C 
ATOM     20  C   UNL     1       7.021 -23.790  22.484  1.00  0.00     0.004 C 
ENDBRANCH  18  19
ENDBRANCH  17  18
ENDBRANCH  16  17
ENDBRANCH  15  16
ENDBRANCH  14  15
ENDBRANCH  13  14
ENDBRANCH  12  13
ENDBRANCH   1  12
TORSDOF 16
ENDMDL
