MODEL 1
REMARK VINA RESULT:    -7.132      0.000      0.000
REMARK INTER + INTRA:         -11.659
REMARK INTER:                 -10.468
REMARK INTRA:                  -1.191
REMARK UNBOUND:                -1.191
REMARK SMILES O=c1c(O[C@@H]2O[C@@H](CO)[C@H](O)[C@H](O)[C@H]2O)c(-c2ccc(O)c(O)c2)oc2cc(O)cc(O)c12
REMARK SMILES IDX 4 1 3 2 16 3 25 4 2 5 26 6 1 7 33 8 27 9 31 10 28 11 30 12
REMARK SMILES IDX 17 13 18 14 19 15 20 16 24 17 22 18 21 19 23 21 32 23 29 25
REMARK SMILES IDX 5 27 14 28 6 29 12 30 7 31 10 32 15 33 13 35 8 37 9 38 11 40
REMARK H PARENT 21 20 23 22 32 24 29 26 15 34 13 36 9 39 11 41
REMARK Flexibility Score: inf
ROOT
ATOM      1  O   UNL     1     -62.396 -43.469 -33.491  1.00  0.00    -0.454 OA
ENDROOT
BRANCH   1   2
ATOM      2  C   UNL     1     -62.272 -43.998 -34.789  1.00  0.00     0.214 A 
ATOM      3  C   UNL     1     -61.311 -45.002 -35.021  1.00  0.00     0.180 A 
ATOM      4  O   UNL     1     -61.194 -45.555 -36.227  1.00  0.00    -0.452 OA
ATOM      5  C   UNL     1     -63.064 -43.573 -35.877  1.00  0.00     0.239 A 
ATOM      6  C   UNL     1     -61.973 -45.234 -37.254  1.00  0.00     0.146 A 
ATOM      7  O   UNL     1     -63.849 -42.597 -35.745  1.00  0.00    -0.285 OA
ATOM      8  C   UNL     1     -62.958 -44.231 -37.120  1.00  0.00     0.111 A 
ATOM      9  C   UNL     1     -61.821 -45.915 -38.467  1.00  0.00     0.094 A 
ATOM     10  C   UNL     1     -63.809 -43.951 -38.219  1.00  0.00     0.134 A 
ATOM     11  C   UNL     1     -62.676 -45.645 -39.541  1.00  0.00     0.123 A 
ATOM     12  C   UNL     1     -63.668 -44.672 -39.414  1.00  0.00     0.093 A 
BRANCH   3  13
ATOM     13  C   UNL     1     -60.425 -45.489 -33.946  1.00  0.00     0.025 A 
ATOM     14  C   UNL     1     -59.155 -44.918 -33.781  1.00  0.00     0.016 A 
ATOM     15  C   UNL     1     -58.307 -45.365 -32.766  1.00  0.00     0.051 A 
ATOM     16  C   UNL     1     -58.707 -46.406 -31.915  1.00  0.00     0.157 A 
ATOM     17  C   UNL     1     -60.821 -46.544 -33.106  1.00  0.00     0.062 A 
ATOM     18  C   UNL     1     -59.971 -47.002 -32.092  1.00  0.00     0.158 A 
BRANCH  16  19
ATOM     19  O   UNL     1     -57.861 -46.849 -30.903  1.00  0.00    -0.504 OA
ATOM     20  H   UNL     1     -57.910 -46.469 -29.964  1.00  0.00     0.293 HD
ENDBRANCH  16  19
BRANCH  18  21
ATOM     21  O   UNL     1     -60.397 -48.049 -31.274  1.00  0.00    -0.504 OA
ATOM     22  H   UNL     1     -61.305 -48.486 -31.393  1.00  0.00     0.293 HD
ENDBRANCH  18  21
ENDBRANCH   3  13
BRANCH  10  23
ATOM     23  O   UNL     1     -64.803 -42.974 -38.125  1.00  0.00    -0.507 OA
ATOM     24  H   UNL     1     -65.765 -43.211 -37.900  1.00  0.00     0.293 HD
ENDBRANCH  10  23
BRANCH  11  25
ATOM     25  O   UNL     1     -62.548 -46.336 -40.743  1.00  0.00    -0.508 OA
ATOM     26  H   UNL     1     -63.310 -46.381 -41.410  1.00  0.00     0.293 HD
ENDBRANCH  11  25
ENDBRANCH   1   2
BRANCH   1  27
ATOM     27  C   UNL     1     -62.094 -42.126 -33.101  1.00  0.00     0.339 C 
ATOM     28  C   UNL     1     -61.961 -42.072 -31.565  1.00  0.00     0.214 C 
ATOM     29  O   UNL     1     -60.896 -41.716 -33.759  1.00  0.00    -0.332 OA
ATOM     30  C   UNL     1     -61.650 -40.619 -31.163  1.00  0.00     0.180 C 
ATOM     31  C   UNL     1     -60.505 -40.387 -33.435  1.00  0.00     0.179 C 
ATOM     32  C   UNL     1     -60.385 -40.161 -31.900  1.00  0.00     0.177 C 
BRANCH  28  33
ATOM     33  O   UNL     1     -63.158 -42.532 -30.978  1.00  0.00    -0.384 OA
ATOM     34  H   UNL     1     -63.015 -42.643 -29.997  1.00  0.00     0.211 HD
ENDBRANCH  28  33
BRANCH  30  35
ATOM     35  O   UNL     1     -61.431 -40.536 -29.775  1.00  0.00    -0.387 OA
ATOM     36  H   UNL     1     -62.196 -40.982 -29.328  1.00  0.00     0.211 HD
ENDBRANCH  30  35
BRANCH  31  37
ATOM     37  C   UNL     1     -61.342 -39.323 -34.203  1.00  0.00     0.191 C 
BRANCH  37  38
ATOM     38  O   UNL     1     -60.835 -38.031 -34.023  1.00  0.00    -0.394 OA
ATOM     39  H   UNL     1     -61.603 -37.413 -33.875  1.00  0.00     0.210 HD
ENDBRANCH  37  38
ENDBRANCH  31  37
BRANCH  32  40
ATOM     40  O   UNL     1     -59.265 -40.866 -31.418  1.00  0.00    -0.387 OA
ATOM     41  H   UNL     1     -58.838 -41.319 -32.191  1.00  0.00     0.211 HD
ENDBRANCH  32  40
ENDBRANCH   1  27
TORSDOF 12
ENDMDL
MODEL 2
REMARK VINA RESULT:    -7.030      2.783      4.904
REMARK INTER + INTRA:         -11.509
REMARK INTER:                  -9.837
REMARK INTRA:                  -1.672
REMARK UNBOUND:                -1.191
REMARK SMILES O=c1c(O[C@@H]2O[C@@H](CO)[C@H](O)[C@H](O)[C@H]2O)c(-c2ccc(O)c(O)c2)oc2cc(O)cc(O)c12
REMARK SMILES IDX 4 1 3 2 16 3 25 4 2 5 26 6 1 7 33 8 27 9 31 10 28 11 30 12
REMARK SMILES IDX 17 13 18 14 19 15 20 16 24 17 22 18 21 19 23 21 32 23 29 25
REMARK SMILES IDX 5 27 14 28 6 29 12 30 7 31 10 32 15 33 13 35 8 37 9 38 11 40
REMARK H PARENT 21 20 23 22 32 24 29 26 15 34 13 36 9 39 11 41
REMARK Flexibility Score: inf
ROOT
ATOM      1  O   UNL     1     -63.380 -42.283 -36.272  1.00  0.00    -0.454 OA
ENDROOT
BRANCH   1   2
ATOM      2  C   UNL     1     -63.335 -43.209 -37.331  1.00  0.00     0.214 A 
ATOM      3  C   UNL     1     -64.238 -44.290 -37.322  1.00  0.00     0.180 A 
ATOM      4  O   UNL     1     -64.252 -45.163 -38.327  1.00  0.00    -0.452 OA
ATOM      5  C   UNL     1     -62.427 -43.112 -38.407  1.00  0.00     0.239 A 
ATOM      6  C   UNL     1     -63.465 -45.059 -39.393  1.00  0.00     0.146 A 
ATOM      7  O   UNL     1     -61.524 -42.234 -38.395  1.00  0.00    -0.285 OA
ATOM      8  C   UNL     1     -62.519 -44.015 -39.486  1.00  0.00     0.111 A 
ATOM      9  C   UNL     1     -63.595 -45.987 -40.432  1.00  0.00     0.094 A 
ATOM     10  C   UNL     1     -61.733 -43.901 -40.660  1.00  0.00     0.134 A 
ATOM     11  C   UNL     1     -62.827 -45.857 -41.595  1.00  0.00     0.123 A 
ATOM     12  C   UNL     1     -61.905 -44.817 -41.709  1.00  0.00     0.093 A 
BRANCH   3  13
ATOM     13  C   UNL     1     -65.206 -44.482 -36.224  1.00  0.00     0.025 A 
ATOM     14  C   UNL     1     -66.365 -43.695 -36.175  1.00  0.00     0.016 A 
ATOM     15  C   UNL     1     -67.292 -43.868 -35.146  1.00  0.00     0.051 A 
ATOM     16  C   UNL     1     -67.063 -44.816 -34.137  1.00  0.00     0.157 A 
ATOM     17  C   UNL     1     -64.966 -45.421 -35.205  1.00  0.00     0.062 A 
ATOM     18  C   UNL     1     -65.888 -45.591 -34.166  1.00  0.00     0.158 A 
BRANCH  16  19
ATOM     19  O   UNL     1     -67.990 -44.988 -33.114  1.00  0.00    -0.504 OA
ATOM     20  H   UNL     1     -68.558 -45.824 -33.045  1.00  0.00     0.293 HD
ENDBRANCH  16  19
BRANCH  18  21
ATOM     21  O   UNL     1     -65.620 -46.533 -33.173  1.00  0.00    -0.504 OA
ATOM     22  H   UNL     1     -64.742 -47.040 -33.138  1.00  0.00     0.293 HD
ENDBRANCH  18  21
ENDBRANCH   3  13
BRANCH  10  23
ATOM     23  O   UNL     1     -60.793 -42.877 -40.797  1.00  0.00    -0.507 OA
ATOM     24  H   UNL     1     -60.374 -42.654 -41.695  1.00  0.00     0.293 HD
ENDBRANCH  10  23
BRANCH  11  25
ATOM     25  O   UNL     1     -62.969 -46.762 -42.645  1.00  0.00    -0.508 OA
ATOM     26  H   UNL     1     -63.309 -47.704 -42.487  1.00  0.00     0.293 HD
ENDBRANCH  11  25
ENDBRANCH   1   2
BRANCH   1  27
ATOM     27  C   UNL     1     -62.781 -42.453 -34.983  1.00  0.00     0.339 C 
ATOM     28  C   UNL     1     -61.825 -41.272 -34.720  1.00  0.00     0.214 C 
ATOM     29  O   UNL     1     -63.817 -42.536 -34.006  1.00  0.00    -0.332 OA
ATOM     30  C   UNL     1     -61.181 -41.478 -33.338  1.00  0.00     0.180 C 
ATOM     31  C   UNL     1     -63.324 -42.704 -32.681  1.00  0.00     0.179 C 
ATOM     32  C   UNL     1     -62.292 -41.608 -32.288  1.00  0.00     0.177 C 
BRANCH  28  33
ATOM     33  O   UNL     1     -60.857 -41.219 -35.745  1.00  0.00    -0.384 OA
ATOM     34  H   UNL     1     -61.272 -40.825 -36.561  1.00  0.00     0.211 HD
ENDBRANCH  28  33
BRANCH  30  35
ATOM     35  O   UNL     1     -60.365 -40.378 -33.013  1.00  0.00    -0.387 OA
ATOM     36  H   UNL     1     -59.604 -40.377 -33.648  1.00  0.00     0.211 HD
ENDBRANCH  30  35
BRANCH  31  37
ATOM     37  C   UNL     1     -62.882 -44.170 -32.399  1.00  0.00     0.191 C 
BRANCH  37  38
ATOM     38  O   UNL     1     -63.752 -44.815 -31.513  1.00  0.00    -0.394 OA
ATOM     39  H   UNL     1     -64.683 -44.697 -31.849  1.00  0.00     0.210 HD
ENDBRANCH  37  38
ENDBRANCH  31  37
BRANCH  32  40
ATOM     40  O   UNL     1     -62.962 -40.378 -32.141  1.00  0.00    -0.387 OA
ATOM     41  H   UNL     1     -62.275 -39.674 -32.005  1.00  0.00     0.211 HD
ENDBRANCH  32  40
ENDBRANCH   1  27
TORSDOF 12
ENDMDL
MODEL 3
REMARK VINA RESULT:    -6.999      2.359      7.186
REMARK INTER + INTRA:         -11.464
REMARK INTER:                 -10.108
REMARK INTRA:                  -1.357
REMARK UNBOUND:                -1.191
REMARK SMILES O=c1c(O[C@@H]2O[C@@H](CO)[C@H](O)[C@H](O)[C@H]2O)c(-c2ccc(O)c(O)c2)oc2cc(O)cc(O)c12
REMARK SMILES IDX 4 1 3 2 16 3 25 4 2 5 26 6 1 7 33 8 27 9 31 10 28 11 30 12
REMARK SMILES IDX 17 13 18 14 19 15 20 16 24 17 22 18 21 19 23 21 32 23 29 25
REMARK SMILES IDX 5 27 14 28 6 29 12 30 7 31 10 32 15 33 13 35 8 37 9 38 11 40
REMARK H PARENT 21 20 23 22 32 24 29 26 15 34 13 36 9 39 11 41
REMARK Flexibility Score: inf
ROOT
ATOM      1  O   UNL     1     -62.641 -42.597 -36.183  1.00  0.00    -0.454 OA
ENDROOT
BRANCH   1   2
ATOM      2  C   UNL     1     -61.637 -43.403 -35.613  1.00  0.00     0.214 A 
ATOM      3  C   UNL     1     -60.980 -44.343 -36.432  1.00  0.00     0.180 A 
ATOM      4  O   UNL     1     -59.998 -45.094 -35.938  1.00  0.00    -0.452 OA
ATOM      5  C   UNL     1     -61.254 -43.321 -34.258  1.00  0.00     0.239 A 
ATOM      6  C   UNL     1     -59.559 -44.989 -34.689  1.00  0.00     0.146 A 
ATOM      7  O   UNL     1     -61.896 -42.583 -33.463  1.00  0.00    -0.285 OA
ATOM      8  C   UNL     1     -60.164 -44.083 -33.790  1.00  0.00     0.111 A 
ATOM      9  C   UNL     1     -58.478 -45.775 -34.275  1.00  0.00     0.094 A 
ATOM     10  C   UNL     1     -59.637 -43.956 -32.480  1.00  0.00     0.134 A 
ATOM     11  C   UNL     1     -57.952 -45.632 -32.986  1.00  0.00     0.123 A 
ATOM     12  C   UNL     1     -58.526 -44.723 -32.096  1.00  0.00     0.093 A 
BRANCH   3  13
ATOM     13  C   UNL     1     -61.334 -44.513 -37.855  1.00  0.00     0.025 A 
ATOM     14  C   UNL     1     -62.110 -45.611 -38.251  1.00  0.00     0.016 A 
ATOM     15  C   UNL     1     -62.457 -45.783 -39.592  1.00  0.00     0.051 A 
ATOM     16  C   UNL     1     -62.012 -44.870 -40.562  1.00  0.00     0.157 A 
ATOM     17  C   UNL     1     -60.873 -43.607 -38.827  1.00  0.00     0.062 A 
ATOM     18  C   UNL     1     -61.210 -43.780 -40.174  1.00  0.00     0.158 A 
BRANCH  16  19
ATOM     19  O   UNL     1     -62.361 -45.042 -41.898  1.00  0.00    -0.504 OA
ATOM     20  H   UNL     1     -62.235 -45.930 -42.372  1.00  0.00     0.293 HD
ENDBRANCH  16  19
BRANCH  18  21
ATOM     21  O   UNL     1     -60.739 -42.861 -41.112  1.00  0.00    -0.504 OA
ATOM     22  H   UNL     1     -61.274 -42.615 -41.938  1.00  0.00     0.293 HD
ENDBRANCH  18  21
ENDBRANCH   3  13
BRANCH  10  23
ATOM     23  O   UNL     1     -60.199 -43.065 -31.564  1.00  0.00    -0.507 OA
ATOM     24  H   UNL     1     -61.154 -43.168 -31.235  1.00  0.00     0.293 HD
ENDBRANCH  10  23
BRANCH  11  25
ATOM     25  O   UNL     1     -56.860 -46.392 -32.576  1.00  0.00    -0.508 OA
ATOM     26  H   UNL     1     -56.304 -46.918 -33.241  1.00  0.00     0.293 HD
ENDBRANCH  11  25
ENDBRANCH   1   2
BRANCH   1  27
ATOM     27  C   UNL     1     -64.042 -42.886 -36.196  1.00  0.00     0.339 C 
ATOM     28  C   UNL     1     -64.548 -42.832 -37.652  1.00  0.00     0.214 C 
ATOM     29  O   UNL     1     -64.250 -44.165 -35.600  1.00  0.00    -0.332 OA
ATOM     30  C   UNL     1     -66.057 -43.132 -37.645  1.00  0.00     0.180 C 
ATOM     31  C   UNL     1     -65.620 -44.552 -35.567  1.00  0.00     0.179 C 
ATOM     32  C   UNL     1     -66.289 -44.490 -36.969  1.00  0.00     0.177 C 
BRANCH  28  33
ATOM     33  O   UNL     1     -64.270 -41.560 -38.195  1.00  0.00    -0.384 OA
ATOM     34  H   UNL     1     -63.912 -41.674 -39.118  1.00  0.00     0.211 HD
ENDBRANCH  28  33
BRANCH  30  35
ATOM     35  O   UNL     1     -66.548 -43.183 -38.964  1.00  0.00    -0.387 OA
ATOM     36  H   UNL     1     -65.766 -43.260 -39.567  1.00  0.00     0.211 HD
ENDBRANCH  30  35
BRANCH  31  37
ATOM     37  C   UNL     1     -66.402 -43.844 -34.421  1.00  0.00     0.191 C 
BRANCH  37  38
ATOM     38  O   UNL     1     -66.413 -44.606 -33.248  1.00  0.00    -0.394 OA
ATOM     39  H   UNL     1     -66.434 -45.569 -33.503  1.00  0.00     0.210 HD
ENDBRANCH  37  38
ENDBRANCH  31  37
BRANCH  32  40
ATOM     40  O   UNL     1     -65.769 -45.523 -37.772  1.00  0.00    -0.387 OA
ATOM     41  H   UNL     1     -64.860 -45.250 -38.063  1.00  0.00     0.211 HD
ENDBRANCH  32  40
ENDBRANCH   1  27
TORSDOF 12
ENDMDL
MODEL 4
REMARK VINA RESULT:    -6.923      1.717      5.244
REMARK INTER + INTRA:         -11.352
REMARK INTER:                 -10.085
REMARK INTRA:                  -1.268
REMARK UNBOUND:                -1.191
REMARK SMILES O=c1c(O[C@@H]2O[C@@H](CO)[C@H](O)[C@H](O)[C@H]2O)c(-c2ccc(O)c(O)c2)oc2cc(O)cc(O)c12
REMARK SMILES IDX 4 1 3 2 16 3 25 4 2 5 26 6 1 7 33 8 27 9 31 10 28 11 30 12
REMARK SMILES IDX 17 13 18 14 19 15 20 16 24 17 22 18 21 19 23 21 32 23 29 25
REMARK SMILES IDX 5 27 14 28 6 29 12 30 7 31 10 32 15 33 13 35 8 37 9 38 11 40
REMARK H PARENT 21 20 23 22 32 24 29 26 15 34 13 36 9 39 11 41
REMARK Flexibility Score: inf
ROOT
ATOM      1  O   UNL     1     -63.012 -43.376 -33.923  1.00  0.00    -0.454 OA
ENDROOT
BRANCH   1   2
ATOM      2  C   UNL     1     -62.263 -44.418 -34.501  1.00  0.00     0.214 A 
ATOM      3  C   UNL     1     -62.222 -44.521 -35.906  1.00  0.00     0.180 A 
ATOM      4  O   UNL     1     -61.491 -45.469 -36.489  1.00  0.00    -0.452 OA
ATOM      5  C   UNL     1     -61.549 -45.371 -33.744  1.00  0.00     0.239 A 
ATOM      6  C   UNL     1     -60.746 -46.334 -35.811  1.00  0.00     0.146 A 
ATOM      7  O   UNL     1     -61.656 -45.391 -32.490  1.00  0.00    -0.285 OA
ATOM      8  C   UNL     1     -60.731 -46.316 -34.399  1.00  0.00     0.111 A 
ATOM      9  C   UNL     1     -59.958 -47.255 -36.511  1.00  0.00     0.094 A 
ATOM     10  C   UNL     1     -59.884 -47.216 -33.706  1.00  0.00     0.134 A 
ATOM     11  C   UNL     1     -59.111 -48.129 -35.820  1.00  0.00     0.123 A 
ATOM     12  C   UNL     1     -59.071 -48.105 -34.426  1.00  0.00     0.093 A 
BRANCH   3  13
ATOM     13  C   UNL     1     -62.958 -43.581 -36.774  1.00  0.00     0.025 A 
ATOM     14  C   UNL     1     -62.261 -42.577 -37.459  1.00  0.00     0.016 A 
ATOM     15  C   UNL     1     -62.942 -41.684 -38.288  1.00  0.00     0.051 A 
ATOM     16  C   UNL     1     -64.336 -41.767 -38.425  1.00  0.00     0.157 A 
ATOM     17  C   UNL     1     -64.357 -43.656 -36.897  1.00  0.00     0.062 A 
ATOM     18  C   UNL     1     -65.047 -42.757 -37.718  1.00  0.00     0.158 A 
BRANCH  16  19
ATOM     19  O   UNL     1     -65.013 -40.877 -39.253  1.00  0.00    -0.504 OA
ATOM     20  H   UNL     1     -65.844 -40.387 -38.942  1.00  0.00     0.293 HD
ENDBRANCH  16  19
BRANCH  18  21
ATOM     21  O   UNL     1     -66.434 -42.861 -37.820  1.00  0.00    -0.504 OA
ATOM     22  H   UNL     1     -66.917 -42.740 -38.704  1.00  0.00     0.293 HD
ENDBRANCH  18  21
ENDBRANCH   3  13
BRANCH  10  23
ATOM     23  O   UNL     1     -59.833 -47.224 -32.311  1.00  0.00    -0.507 OA
ATOM     24  H   UNL     1     -60.605 -47.571 -31.750  1.00  0.00     0.293 HD
ENDBRANCH  10  23
BRANCH  11  25
ATOM     25  O   UNL     1     -58.305 -49.031 -36.511  1.00  0.00    -0.508 OA
ATOM     26  H   UNL     1     -57.807 -49.770 -36.028  1.00  0.00     0.293 HD
ENDBRANCH  11  25
ENDBRANCH   1   2
BRANCH   1  27
ATOM     27  C   UNL     1     -62.496 -42.114 -33.488  1.00  0.00     0.339 C 
ATOM     28  C   UNL     1     -62.460 -42.096 -31.946  1.00  0.00     0.214 C 
ATOM     29  O   UNL     1     -61.202 -41.928 -34.060  1.00  0.00    -0.332 OA
ATOM     30  C   UNL     1     -61.915 -40.729 -31.497  1.00  0.00     0.180 C 
ATOM     31  C   UNL     1     -60.596 -40.696 -33.685  1.00  0.00     0.179 C 
ATOM     32  C   UNL     1     -60.540 -40.507 -32.142  1.00  0.00     0.177 C 
BRANCH  28  33
ATOM     33  O   UNL     1     -63.758 -42.331 -31.447  1.00  0.00    -0.384 OA
ATOM     34  H   UNL     1     -64.111 -41.485 -31.056  1.00  0.00     0.211 HD
ENDBRANCH  28  33
BRANCH  30  35
ATOM     35  O   UNL     1     -61.778 -40.697 -30.096  1.00  0.00    -0.387 OA
ATOM     36  H   UNL     1     -62.344 -39.954 -29.762  1.00  0.00     0.211 HD
ENDBRANCH  30  35
BRANCH  31  37
ATOM     37  C   UNL     1     -61.170 -39.490 -34.485  1.00  0.00     0.191 C 
BRANCH  37  38
ATOM     38  O   UNL     1     -60.804 -38.265 -33.916  1.00  0.00    -0.394 OA
ATOM     39  H   UNL     1     -59.810 -38.236 -33.852  1.00  0.00     0.210 HD
ENDBRANCH  37  38
ENDBRANCH  31  37
BRANCH  32  40
ATOM     40  O   UNL     1     -59.604 -41.409 -31.602  1.00  0.00    -0.387 OA
ATOM     41  H   UNL     1     -59.672 -42.257 -32.113  1.00  0.00     0.211 HD
ENDBRANCH  32  40
ENDBRANCH   1  27
TORSDOF 12
ENDMDL
MODEL 5
REMARK VINA RESULT:    -6.768      2.174      6.750
REMARK INTER + INTRA:         -11.125
REMARK INTER:                  -9.603
REMARK INTRA:                  -1.522
REMARK UNBOUND:                -1.191
REMARK SMILES O=c1c(O[C@@H]2O[C@@H](CO)[C@H](O)[C@H](O)[C@H]2O)c(-c2ccc(O)c(O)c2)oc2cc(O)cc(O)c12
REMARK SMILES IDX 4 1 3 2 16 3 25 4 2 5 26 6 1 7 33 8 27 9 31 10 28 11 30 12
REMARK SMILES IDX 17 13 18 14 19 15 20 16 24 17 22 18 21 19 23 21 32 23 29 25
REMARK SMILES IDX 5 27 14 28 6 29 12 30 7 31 10 32 15 33 13 35 8 37 9 38 11 40
REMARK H PARENT 21 20 23 22 32 24 29 26 15 34 13 36 9 39 11 41
REMARK Flexibility Score: inf
ROOT
ATOM      1  O   UNL     1     -61.803 -45.448 -35.549  1.00  0.00    -0.454 OA
ENDROOT
BRANCH   1   2
ATOM      2  C   UNL     1     -60.535 -45.672 -34.979  1.00  0.00     0.214 A 
ATOM      3  C   UNL     1     -60.112 -44.838 -33.926  1.00  0.00     0.180 A 
ATOM      4  O   UNL     1     -58.937 -45.045 -33.335  1.00  0.00    -0.452 OA
ATOM      5  C   UNL     1     -59.662 -46.693 -35.409  1.00  0.00     0.239 A 
ATOM      6  C   UNL     1     -58.123 -46.043 -33.662  1.00  0.00     0.146 A 
ATOM      7  O   UNL     1     -59.946 -47.383 -36.424  1.00  0.00    -0.285 OA
ATOM      8  C   UNL     1     -58.458 -46.926 -34.712  1.00  0.00     0.111 A 
ATOM      9  C   UNL     1     -56.938 -46.224 -32.941  1.00  0.00     0.094 A 
ATOM     10  C   UNL     1     -57.595 -48.012 -35.001  1.00  0.00     0.134 A 
ATOM     11  C   UNL     1     -56.100 -47.309 -33.220  1.00  0.00     0.123 A 
ATOM     12  C   UNL     1     -56.430 -48.201 -34.240  1.00  0.00     0.093 A 
BRANCH   3  13
ATOM     13  C   UNL     1     -60.951 -43.730 -33.429  1.00  0.00     0.025 A 
ATOM     14  C   UNL     1     -60.714 -42.423 -33.877  1.00  0.00     0.016 A 
ATOM     15  C   UNL     1     -61.503 -41.366 -33.420  1.00  0.00     0.051 A 
ATOM     16  C   UNL     1     -62.526 -41.597 -32.488  1.00  0.00     0.157 A 
ATOM     17  C   UNL     1     -61.965 -43.961 -32.482  1.00  0.00     0.062 A 
ATOM     18  C   UNL     1     -62.753 -42.904 -32.013  1.00  0.00     0.158 A 
BRANCH  16  19
ATOM     19  O   UNL     1     -63.313 -40.542 -32.036  1.00  0.00    -0.504 OA
ATOM     20  H   UNL     1     -63.134 -40.087 -31.148  1.00  0.00     0.293 HD
ENDBRANCH  16  19
BRANCH  18  21
ATOM     21  O   UNL     1     -63.752 -43.168 -31.077  1.00  0.00    -0.504 OA
ATOM     22  H   UNL     1     -63.554 -43.231 -30.084  1.00  0.00     0.293 HD
ENDBRANCH  18  21
ENDBRANCH   3  13
BRANCH  10  23
ATOM     23  O   UNL     1     -57.893 -48.914 -36.024  1.00  0.00    -0.507 OA
ATOM     24  H   UNL     1     -58.728 -49.493 -35.999  1.00  0.00     0.293 HD
ENDBRANCH  10  23
BRANCH  11  25
ATOM     25  O   UNL     1     -54.930 -47.510 -32.490  1.00  0.00    -0.508 OA
ATOM     26  H   UNL     1     -54.028 -47.575 -32.947  1.00  0.00     0.293 HD
ENDBRANCH  11  25
ENDBRANCH   1   2
BRANCH   1  27
ATOM     27  C   UNL     1     -62.061 -44.744 -36.768  1.00  0.00     0.339 C 
ATOM     28  C   UNL     1     -62.900 -45.647 -37.695  1.00  0.00     0.214 C 
ATOM     29  O   UNL     1     -62.728 -43.522 -36.458  1.00  0.00    -0.332 OA
ATOM     30  C   UNL     1     -63.157 -44.881 -39.005  1.00  0.00     0.180 C 
ATOM     31  C   UNL     1     -63.035 -42.744 -37.609  1.00  0.00     0.179 C 
ATOM     32  C   UNL     1     -63.839 -43.547 -38.672  1.00  0.00     0.177 C 
BRANCH  28  33
ATOM     33  O   UNL     1     -62.206 -46.854 -37.924  1.00  0.00    -0.384 OA
ATOM     34  H   UNL     1     -62.285 -47.094 -38.888  1.00  0.00     0.211 HD
ENDBRANCH  28  33
BRANCH  30  35
ATOM     35  O   UNL     1     -63.997 -45.630 -39.850  1.00  0.00    -0.387 OA
ATOM     36  H   UNL     1     -63.535 -45.716 -40.723  1.00  0.00     0.211 HD
ENDBRANCH  30  35
BRANCH  31  37
ATOM     37  C   UNL     1     -61.792 -41.978 -38.150  1.00  0.00     0.191 C 
BRANCH  37  38
ATOM     38  O   UNL     1     -61.979 -41.546 -39.468  1.00  0.00    -0.394 OA
ATOM     39  H   UNL     1     -62.944 -41.333 -39.592  1.00  0.00     0.210 HD
ENDBRANCH  37  38
ENDBRANCH  31  37
BRANCH  32  40
ATOM     40  O   UNL     1     -65.139 -43.779 -38.186  1.00  0.00    -0.387 OA
ATOM     41  H   UNL     1     -65.524 -44.535 -38.701  1.00  0.00     0.211 HD
ENDBRANCH  32  40
ENDBRANCH   1  27
TORSDOF 12
ENDMDL
MODEL 6
REMARK VINA RESULT:    -6.712      1.629      2.482
REMARK INTER + INTRA:         -11.043
REMARK INTER:                  -9.735
REMARK INTRA:                  -1.308
REMARK UNBOUND:                -1.191
REMARK SMILES O=c1c(O[C@@H]2O[C@@H](CO)[C@H](O)[C@H](O)[C@H]2O)c(-c2ccc(O)c(O)c2)oc2cc(O)cc(O)c12
REMARK SMILES IDX 4 1 3 2 16 3 25 4 2 5 26 6 1 7 33 8 27 9 31 10 28 11 30 12
REMARK SMILES IDX 17 13 18 14 19 15 20 16 24 17 22 18 21 19 23 21 32 23 29 25
REMARK SMILES IDX 5 27 14 28 6 29 12 30 7 31 10 32 15 33 13 35 8 37 9 38 11 40
REMARK H PARENT 21 20 23 22 32 24 29 26 15 34 13 36 9 39 11 41
REMARK Flexibility Score: inf
ROOT
ATOM      1  O   UNL     1     -60.382 -43.006 -34.486  1.00  0.00    -0.454 OA
ENDROOT
BRANCH   1   2
ATOM      2  C   UNL     1     -60.662 -43.872 -35.561  1.00  0.00     0.214 A 
ATOM      3  C   UNL     1     -60.306 -45.230 -35.444  1.00  0.00     0.180 A 
ATOM      4  O   UNL     1     -60.592 -46.086 -36.423  1.00  0.00    -0.452 OA
ATOM      5  C   UNL     1     -61.281 -43.448 -36.756  1.00  0.00     0.239 A 
ATOM      6  C   UNL     1     -61.243 -45.738 -37.528  1.00  0.00     0.146 A 
ATOM      7  O   UNL     1     -61.505 -42.225 -36.952  1.00  0.00    -0.285 OA
ATOM      8  C   UNL     1     -61.630 -44.397 -37.739  1.00  0.00     0.111 A 
ATOM      9  C   UNL     1     -61.557 -46.720 -38.474  1.00  0.00     0.094 A 
ATOM     10  C   UNL     1     -62.370 -44.069 -38.902  1.00  0.00     0.134 A 
ATOM     11  C   UNL     1     -62.304 -46.391 -39.611  1.00  0.00     0.123 A 
ATOM     12  C   UNL     1     -62.712 -45.074 -39.820  1.00  0.00     0.093 A 
BRANCH   3  13
ATOM     13  C   UNL     1     -59.633 -45.754 -34.239  1.00  0.00     0.025 A 
ATOM     14  C   UNL     1     -60.396 -46.319 -33.208  1.00  0.00     0.016 A 
ATOM     15  C   UNL     1     -59.775 -46.824 -32.065  1.00  0.00     0.051 A 
ATOM     16  C   UNL     1     -58.380 -46.750 -31.925  1.00  0.00     0.157 A 
ATOM     17  C   UNL     1     -58.237 -45.664 -34.095  1.00  0.00     0.062 A 
ATOM     18  C   UNL     1     -57.610 -46.159 -32.946  1.00  0.00     0.158 A 
BRANCH  16  19
ATOM     19  O   UNL     1     -57.762 -47.255 -30.786  1.00  0.00    -0.504 OA
ATOM     20  H   UNL     1     -58.161 -47.129 -29.863  1.00  0.00     0.293 HD
ENDBRANCH  16  19
BRANCH  18  21
ATOM     21  O   UNL     1     -56.223 -46.056 -32.836  1.00  0.00    -0.504 OA
ATOM     22  H   UNL     1     -55.671 -45.524 -33.500  1.00  0.00     0.293 HD
ENDBRANCH  18  21
ENDBRANCH   3  13
BRANCH  10  23
ATOM     23  O   UNL     1     -62.782 -42.757 -39.144  1.00  0.00    -0.507 OA
ATOM     24  H   UNL     1     -63.352 -42.244 -38.478  1.00  0.00     0.293 HD
ENDBRANCH  10  23
BRANCH  11  25
ATOM     25  O   UNL     1     -62.643 -47.367 -40.545  1.00  0.00    -0.508 OA
ATOM     26  H   UNL     1     -62.887 -47.123 -41.498  1.00  0.00     0.293 HD
ENDBRANCH  11  25
ENDBRANCH   1   2
BRANCH   1  27
ATOM     27  C   UNL     1     -61.233 -42.763 -33.362  1.00  0.00     0.339 C 
ATOM     28  C   UNL     1     -60.409 -42.079 -32.253  1.00  0.00     0.214 C 
ATOM     29  O   UNL     1     -62.334 -41.961 -33.787  1.00  0.00    -0.332 OA
ATOM     30  C   UNL     1     -61.335 -41.837 -31.049  1.00  0.00     0.180 C 
ATOM     31  C   UNL     1     -63.245 -41.658 -32.737  1.00  0.00     0.179 C 
ATOM     32  C   UNL     1     -62.542 -41.009 -31.510  1.00  0.00     0.177 C 
BRANCH  28  33
ATOM     33  O   UNL     1     -59.313 -42.901 -31.913  1.00  0.00    -0.384 OA
ATOM     34  H   UNL     1     -59.069 -43.456 -32.704  1.00  0.00     0.211 HD
ENDBRANCH  28  33
BRANCH  30  35
ATOM     35  O   UNL     1     -60.649 -41.133 -30.041  1.00  0.00    -0.387 OA
ATOM     36  H   UNL     1     -59.942 -40.598 -30.485  1.00  0.00     0.211 HD
ENDBRANCH  30  35
BRANCH  31  37
ATOM     37  C   UNL     1     -64.187 -42.854 -32.411  1.00  0.00     0.191 C 
BRANCH  37  38
ATOM     38  O   UNL     1     -65.326 -42.444 -31.708  1.00  0.00    -0.394 OA
ATOM     39  H   UNL     1     -65.655 -43.217 -31.172  1.00  0.00     0.210 HD
ENDBRANCH  37  38
ENDBRANCH  31  37
BRANCH  32  40
ATOM     40  O   UNL     1     -62.128 -39.707 -31.853  1.00  0.00    -0.387 OA
ATOM     41  H   UNL     1     -62.826 -39.076 -31.538  1.00  0.00     0.211 HD
ENDBRANCH  32  40
ENDBRANCH   1  27
TORSDOF 12
ENDMDL
MODEL 7
REMARK VINA RESULT:    -6.674      2.447      5.160
REMARK INTER + INTRA:         -10.987
REMARK INTER:                  -9.874
REMARK INTRA:                  -1.113
REMARK UNBOUND:                -1.191
REMARK SMILES O=c1c(O[C@@H]2O[C@@H](CO)[C@H](O)[C@H](O)[C@H]2O)c(-c2ccc(O)c(O)c2)oc2cc(O)cc(O)c12
REMARK SMILES IDX 4 1 3 2 16 3 25 4 2 5 26 6 1 7 33 8 27 9 31 10 28 11 30 12
REMARK SMILES IDX 17 13 18 14 19 15 20 16 24 17 22 18 21 19 23 21 32 23 29 25
REMARK SMILES IDX 5 27 14 28 6 29 12 30 7 31 10 32 15 33 13 35 8 37 9 38 11 40
REMARK H PARENT 21 20 23 22 32 24 29 26 15 34 13 36 9 39 11 41
REMARK Flexibility Score: inf
ROOT
ATOM      1  O   UNL     1     -63.801 -43.532 -34.404  1.00  0.00    -0.454 OA
ENDROOT
BRANCH   1   2
ATOM      2  C   UNL     1     -63.192 -43.319 -35.654  1.00  0.00     0.214 A 
ATOM      3  C   UNL     1     -62.067 -42.473 -35.721  1.00  0.00     0.180 A 
ATOM      4  O   UNL     1     -61.439 -42.280 -36.880  1.00  0.00    -0.452 OA
ATOM      5  C   UNL     1     -63.652 -43.908 -36.851  1.00  0.00     0.239 A 
ATOM      6  C   UNL     1     -61.797 -42.879 -38.011  1.00  0.00     0.146 A 
ATOM      7  O   UNL     1     -64.722 -44.571 -36.858  1.00  0.00    -0.285 OA
ATOM      8  C   UNL     1     -62.920 -43.735 -38.044  1.00  0.00     0.111 A 
ATOM      9  C   UNL     1     -61.039 -42.666 -39.167  1.00  0.00     0.094 A 
ATOM     10  C   UNL     1     -63.243 -44.401 -39.253  1.00  0.00     0.134 A 
ATOM     11  C   UNL     1     -61.354 -43.341 -40.352  1.00  0.00     0.123 A 
ATOM     12  C   UNL     1     -62.446 -44.207 -40.392  1.00  0.00     0.093 A 
BRANCH   3  13
ATOM     13  C   UNL     1     -61.533 -41.796 -34.523  1.00  0.00     0.025 A 
ATOM     14  C   UNL     1     -61.690 -40.411 -34.380  1.00  0.00     0.016 A 
ATOM     15  C   UNL     1     -61.196 -39.757 -33.251  1.00  0.00     0.051 A 
ATOM     16  C   UNL     1     -60.514 -40.476 -32.257  1.00  0.00     0.157 A 
ATOM     17  C   UNL     1     -60.836 -42.517 -33.537  1.00  0.00     0.062 A 
ATOM     18  C   UNL     1     -60.330 -41.865 -32.407  1.00  0.00     0.158 A 
BRANCH  16  19
ATOM     19  O   UNL     1     -60.024 -39.823 -31.131  1.00  0.00    -0.504 OA
ATOM     20  H   UNL     1     -60.359 -40.042 -30.199  1.00  0.00     0.293 HD
ENDBRANCH  16  19
BRANCH  18  21
ATOM     21  O   UNL     1     -59.646 -42.610 -31.446  1.00  0.00    -0.504 OA
ATOM     22  H   UNL     1     -59.012 -42.177 -30.784  1.00  0.00     0.293 HD
ENDBRANCH  18  21
ENDBRANCH   3  13
BRANCH  10  23
ATOM     23  O   UNL     1     -64.338 -45.264 -39.326  1.00  0.00    -0.507 OA
ATOM     24  H   UNL     1     -64.894 -45.492 -38.507  1.00  0.00     0.293 HD
ENDBRANCH  10  23
BRANCH  11  25
ATOM     25  O   UNL     1     -60.588 -43.154 -41.500  1.00  0.00    -0.508 OA
ATOM     26  H   UNL     1     -60.752 -42.370 -42.122  1.00  0.00     0.293 HD
ENDBRANCH  11  25
ENDBRANCH   1   2
BRANCH   1  27
ATOM     27  C   UNL     1     -63.682 -44.713 -33.604  1.00  0.00     0.339 C 
ATOM     28  C   UNL     1     -65.071 -45.372 -33.480  1.00  0.00     0.214 C 
ATOM     29  O   UNL     1     -62.727 -45.582 -34.211  1.00  0.00    -0.332 OA
ATOM     30  C   UNL     1     -64.927 -46.631 -32.608  1.00  0.00     0.180 C 
ATOM     31  C   UNL     1     -62.535 -46.794 -33.491  1.00  0.00     0.179 C 
ATOM     32  C   UNL     1     -63.871 -47.550 -33.235  1.00  0.00     0.177 C 
BRANCH  28  33
ATOM     33  O   UNL     1     -65.977 -44.447 -32.918  1.00  0.00    -0.384 OA
ATOM     34  H   UNL     1     -66.898 -44.822 -32.977  1.00  0.00     0.211 HD
ENDBRANCH  28  33
BRANCH  30  35
ATOM     35  O   UNL     1     -66.154 -47.318 -32.539  1.00  0.00    -0.387 OA
ATOM     36  H   UNL     1     -66.008 -48.221 -32.920  1.00  0.00     0.211 HD
ENDBRANCH  30  35
BRANCH  31  37
ATOM     37  C   UNL     1     -61.628 -46.600 -32.240  1.00  0.00     0.191 C 
BRANCH  37  38
ATOM     38  O   UNL     1     -62.041 -47.397 -31.167  1.00  0.00    -0.394 OA
ATOM     39  H   UNL     1     -62.493 -46.811 -30.500  1.00  0.00     0.210 HD
ENDBRANCH  37  38
ENDBRANCH  31  37
BRANCH  32  40
ATOM     40  O   UNL     1     -64.347 -48.068 -34.455  1.00  0.00    -0.387 OA
ATOM     41  H   UNL     1     -63.773 -48.840 -34.700  1.00  0.00     0.211 HD
ENDBRANCH  32  40
ENDBRANCH   1  27
TORSDOF 12
ENDMDL
MODEL 8
REMARK VINA RESULT:    -6.671      2.674      5.501
REMARK INTER + INTRA:         -10.982
REMARK INTER:                  -9.931
REMARK INTRA:                  -1.052
REMARK UNBOUND:                -1.191
REMARK SMILES O=c1c(O[C@@H]2O[C@@H](CO)[C@H](O)[C@H](O)[C@H]2O)c(-c2ccc(O)c(O)c2)oc2cc(O)cc(O)c12
REMARK SMILES IDX 4 1 3 2 16 3 25 4 2 5 26 6 1 7 33 8 27 9 31 10 28 11 30 12
REMARK SMILES IDX 17 13 18 14 19 15 20 16 24 17 22 18 21 19 23 21 32 23 29 25
REMARK SMILES IDX 5 27 14 28 6 29 12 30 7 31 10 32 15 33 13 35 8 37 9 38 11 40
REMARK H PARENT 21 20 23 22 32 24 29 26 15 34 13 36 9 39 11 41
REMARK Flexibility Score: inf
ROOT
ATOM      1  O   UNL     1     -63.794 -44.694 -34.555  1.00  0.00    -0.454 OA
ENDROOT
BRANCH   1   2
ATOM      2  C   UNL     1     -63.206 -44.248 -35.754  1.00  0.00     0.214 A 
ATOM      3  C   UNL     1     -62.269 -43.198 -35.697  1.00  0.00     0.180 A 
ATOM      4  O   UNL     1     -61.662 -42.778 -36.805  1.00  0.00    -0.452 OA
ATOM      5  C   UNL     1     -63.509 -44.800 -37.017  1.00  0.00     0.239 A 
ATOM      6  C   UNL     1     -61.865 -43.325 -37.999  1.00  0.00     0.146 A 
ATOM      7  O   UNL     1     -64.428 -45.654 -37.130  1.00  0.00    -0.285 OA
ATOM      8  C   UNL     1     -62.795 -44.376 -38.156  1.00  0.00     0.111 A 
ATOM      9  C   UNL     1     -61.133 -42.860 -39.097  1.00  0.00     0.094 A 
ATOM     10  C   UNL     1     -62.949 -44.974 -39.432  1.00  0.00     0.134 A 
ATOM     11  C   UNL     1     -61.278 -43.468 -40.350  1.00  0.00     0.123 A 
ATOM     12  C   UNL     1     -62.177 -44.522 -40.514  1.00  0.00     0.093 A 
BRANCH   3  13
ATOM     13  C   UNL     1     -61.910 -42.547 -34.421  1.00  0.00     0.025 A 
ATOM     14  C   UNL     1     -60.622 -42.717 -33.893  1.00  0.00     0.016 A 
ATOM     15  C   UNL     1     -60.267 -42.104 -32.691  1.00  0.00     0.051 A 
ATOM     16  C   UNL     1     -61.202 -41.331 -31.985  1.00  0.00     0.157 A 
ATOM     17  C   UNL     1     -62.854 -41.788 -33.708  1.00  0.00     0.062 A 
ATOM     18  C   UNL     1     -62.505 -41.179 -32.497  1.00  0.00     0.158 A 
BRANCH  16  19
ATOM     19  O   UNL     1     -60.844 -40.719 -30.788  1.00  0.00    -0.504 OA
ATOM     20  H   UNL     1     -61.522 -40.549 -30.054  1.00  0.00     0.293 HD
ENDBRANCH  16  19
BRANCH  18  21
ATOM     21  O   UNL     1     -63.465 -40.429 -31.816  1.00  0.00    -0.504 OA
ATOM     22  H   UNL     1     -64.393 -40.275 -32.196  1.00  0.00     0.293 HD
ENDBRANCH  18  21
ENDBRANCH   3  13
BRANCH  10  23
ATOM     23  O   UNL     1     -63.850 -46.022 -39.629  1.00  0.00    -0.507 OA
ATOM     24  H   UNL     1     -64.719 -46.084 -39.107  1.00  0.00     0.293 HD
ENDBRANCH  10  23
BRANCH  11  25
ATOM     25  O   UNL     1     -60.535 -43.028 -41.442  1.00  0.00    -0.508 OA
ATOM     26  H   UNL     1     -59.576 -43.326 -41.582  1.00  0.00     0.293 HD
ENDBRANCH  11  25
ENDBRANCH   1   2
BRANCH   1  27
ATOM     27  C   UNL     1     -63.626 -45.989 -33.970  1.00  0.00     0.339 C 
ATOM     28  C   UNL     1     -63.517 -45.833 -32.439  1.00  0.00     0.214 C 
ATOM     29  O   UNL     1     -64.730 -46.809 -34.350  1.00  0.00    -0.332 OA
ATOM     30  C   UNL     1     -63.325 -47.232 -31.828  1.00  0.00     0.180 C 
ATOM     31  C   UNL     1     -64.661 -48.125 -33.814  1.00  0.00     0.179 C 
ATOM     32  C   UNL     1     -64.489 -48.129 -32.268  1.00  0.00     0.177 C 
BRANCH  28  33
ATOM     33  O   UNL     1     -62.438 -44.976 -32.134  1.00  0.00    -0.384 OA
ATOM     34  H   UNL     1     -62.378 -44.874 -31.144  1.00  0.00     0.211 HD
ENDBRANCH  28  33
BRANCH  30  35
ATOM     35  O   UNL     1     -63.309 -47.151 -30.423  1.00  0.00    -0.387 OA
ATOM     36  H   UNL     1     -64.189 -46.794 -30.139  1.00  0.00     0.211 HD
ENDBRANCH  30  35
BRANCH  31  37
ATOM     37  C   UNL     1     -63.665 -49.029 -34.599  1.00  0.00     0.191 C 
BRANCH  37  38
ATOM     38  O   UNL     1     -63.999 -49.117 -35.955  1.00  0.00    -0.394 OA
ATOM     39  H   UNL     1     -63.725 -48.267 -36.398  1.00  0.00     0.210 HD
ENDBRANCH  37  38
ENDBRANCH  31  37
BRANCH  32  40
ATOM     40  O   UNL     1     -65.687 -47.689 -31.671  1.00  0.00    -0.387 OA
ATOM     41  H   UNL     1     -65.952 -46.842 -32.116  1.00  0.00     0.211 HD
ENDBRANCH  32  40
ENDBRANCH   1  27
TORSDOF 12
ENDMDL
MODEL 9
REMARK VINA RESULT:    -6.667      2.827      7.526
REMARK INTER + INTRA:         -10.977
REMARK INTER:                  -9.511
REMARK INTRA:                  -1.465
REMARK UNBOUND:                -1.191
REMARK SMILES O=c1c(O[C@@H]2O[C@@H](CO)[C@H](O)[C@H](O)[C@H]2O)c(-c2ccc(O)c(O)c2)oc2cc(O)cc(O)c12
REMARK SMILES IDX 4 1 3 2 16 3 25 4 2 5 26 6 1 7 33 8 27 9 31 10 28 11 30 12
REMARK SMILES IDX 17 13 18 14 19 15 20 16 24 17 22 18 21 19 23 21 32 23 29 25
REMARK SMILES IDX 5 27 14 28 6 29 12 30 7 31 10 32 15 33 13 35 8 37 9 38 11 40
REMARK H PARENT 21 20 23 22 32 24 29 26 15 34 13 36 9 39 11 41
REMARK Flexibility Score: inf
ROOT
ATOM      1  O   UNL     1     -63.622 -44.043 -34.830  1.00  0.00    -0.454 OA
ENDROOT
BRANCH   1   2
ATOM      2  C   UNL     1     -62.649 -43.236 -34.209  1.00  0.00     0.214 A 
ATOM      3  C   UNL     1     -61.636 -42.667 -35.006  1.00  0.00     0.180 A 
ATOM      4  O   UNL     1     -60.723 -41.866 -34.462  1.00  0.00    -0.452 OA
ATOM      5  C   UNL     1     -62.634 -42.968 -32.824  1.00  0.00     0.239 A 
ATOM      6  C   UNL     1     -60.724 -41.529 -33.176  1.00  0.00     0.146 A 
ATOM      7  O   UNL     1     -63.445 -43.551 -32.058  1.00  0.00    -0.285 OA
ATOM      8  C   UNL     1     -61.693 -42.059 -32.297  1.00  0.00     0.111 A 
ATOM      9  C   UNL     1     -59.762 -40.628 -32.705  1.00  0.00     0.094 A 
ATOM     10  C   UNL     1     -61.699 -41.638 -30.943  1.00  0.00     0.134 A 
ATOM     11  C   UNL     1     -59.786 -40.204 -31.371  1.00  0.00     0.123 A 
ATOM     12  C   UNL     1     -60.753 -40.702 -30.498  1.00  0.00     0.093 A 
BRANCH   3  13
ATOM     13  C   UNL     1     -61.562 -42.915 -36.460  1.00  0.00     0.025 A 
ATOM     14  C   UNL     1     -60.916 -44.064 -36.936  1.00  0.00     0.016 A 
ATOM     15  C   UNL     1     -60.842 -44.315 -38.307  1.00  0.00     0.051 A 
ATOM     16  C   UNL     1     -61.393 -43.406 -39.224  1.00  0.00     0.157 A 
ATOM     17  C   UNL     1     -62.100 -41.995 -37.377  1.00  0.00     0.062 A 
ATOM     18  C   UNL     1     -62.020 -42.236 -38.753  1.00  0.00     0.158 A 
BRANCH  16  19
ATOM     19  O   UNL     1     -61.320 -43.659 -40.591  1.00  0.00    -0.504 OA
ATOM     20  H   UNL     1     -61.774 -43.058 -41.269  1.00  0.00     0.293 HD
ENDBRANCH  16  19
BRANCH  18  21
ATOM     21  O   UNL     1     -62.567 -41.305 -39.636  1.00  0.00    -0.504 OA
ATOM     22  H   UNL     1     -62.022 -40.533 -40.006  1.00  0.00     0.293 HD
ENDBRANCH  18  21
ENDBRANCH   3  13
BRANCH  10  23
ATOM     23  O   UNL     1     -62.647 -42.130 -30.043  1.00  0.00    -0.507 OA
ATOM     24  H   UNL     1     -63.496 -42.589 -30.360  1.00  0.00     0.293 HD
ENDBRANCH  10  23
BRANCH  11  25
ATOM     25  O   UNL     1     -58.848 -39.288 -30.901  1.00  0.00    -0.508 OA
ATOM     26  H   UNL     1     -57.855 -39.430 -31.042  1.00  0.00     0.293 HD
ENDBRANCH  11  25
ENDBRANCH   1   2
BRANCH   1  27
ATOM     27  C   UNL     1     -63.689 -45.471 -34.769  1.00  0.00     0.339 C 
ATOM     28  C   UNL     1     -65.080 -45.882 -34.244  1.00  0.00     0.214 C 
ATOM     29  O   UNL     1     -63.428 -45.996 -36.070  1.00  0.00    -0.332 OA
ATOM     30  C   UNL     1     -65.130 -47.418 -34.174  1.00  0.00     0.180 C 
ATOM     31  C   UNL     1     -63.475 -47.418 -36.120  1.00  0.00     0.179 C 
ATOM     32  C   UNL     1     -64.810 -47.988 -35.562  1.00  0.00     0.177 C 
BRANCH  28  33
ATOM     33  O   UNL     1     -65.293 -45.293 -32.980  1.00  0.00    -0.384 OA
ATOM     34  H   UNL     1     -64.873 -45.868 -32.282  1.00  0.00     0.211 HD
ENDBRANCH  28  33
BRANCH  30  35
ATOM     35  O   UNL     1     -66.414 -47.845 -33.784  1.00  0.00    -0.387 OA
ATOM     36  H   UNL     1     -67.019 -47.705 -34.557  1.00  0.00     0.211 HD
ENDBRANCH  30  35
BRANCH  31  37
ATOM     37  C   UNL     1     -62.181 -48.069 -35.550  1.00  0.00     0.191 C 
BRANCH  37  38
ATOM     38  O   UNL     1     -61.026 -47.526 -36.125  1.00  0.00    -0.394 OA
ATOM     39  H   UNL     1     -60.297 -47.557 -35.446  1.00  0.00     0.210 HD
ENDBRANCH  37  38
ENDBRANCH  31  37
BRANCH  32  40
ATOM     40  O   UNL     1     -65.851 -47.682 -36.460  1.00  0.00    -0.387 OA
ATOM     41  H   UNL     1     -66.124 -46.742 -36.296  1.00  0.00     0.211 HD
ENDBRANCH  32  40
ENDBRANCH   1  27
TORSDOF 12
ENDMDL
