MODEL 1
REMARK VINA RESULT:    -3.901      0.000      0.000
REMARK INTER + INTRA:          -4.015
REMARK INTER:                  -4.015
REMARK INTRA:                   0.000
REMARK UNBOUND:                 0.000
REMARK SMILES O=c1ccc2ccc(O)cc2o1
REMARK SMILES IDX 6 1 7 2 8 3 10 4 11 5 5 6 4 7 3 8 2 9 1 10 12 11 9 12
REMARK H PARENT 9 13
REMARK Flexibility Score: inf
ROOT
ATOM      1  C   UNL     1      -8.179  -4.468 -12.953  1.00  0.00     0.016 A 
ATOM      2  C   UNL     1      -6.999  -3.819 -13.329  1.00  0.00     0.047 A 
ATOM      3  C   UNL     1      -5.887  -4.559 -13.746  1.00  0.00     0.119 A 
ATOM      4  C   UNL     1      -5.954  -5.960 -13.789  1.00  0.00     0.094 A 
ATOM      5  C   UNL     1      -7.131  -6.618 -13.415  1.00  0.00     0.142 A 
ATOM      6  C   UNL     1      -8.251  -5.867 -12.995  1.00  0.00     0.018 A 
ATOM      7  C   UNL     1      -9.413  -6.553 -12.626  1.00  0.00     0.019 A 
ATOM      8  C   UNL     1      -9.432  -7.946 -12.685  1.00  0.00     0.094 A 
ATOM      9  C   UNL     1      -8.285  -8.624 -13.112  1.00  0.00     0.336 A 
ATOM     10  O   UNL     1      -8.283  -9.881 -13.172  1.00  0.00    -0.246 OA
ATOM     11  O   UNL     1      -7.192  -7.947 -13.456  1.00  0.00    -0.423 OA
ENDROOT
BRANCH   3  12
ATOM     12  O   UNL     1      -4.720  -3.895 -14.117  1.00  0.00    -0.508 OA
ATOM     13  H   UNL     1      -3.833  -4.088 -13.666  1.00  0.00     0.293 HD
ENDBRANCH   3  12
TORSDOF 1
ENDMDL
MODEL 2
REMARK VINA RESULT:    -3.869     24.930     25.676
REMARK INTER + INTRA:          -3.982
REMARK INTER:                  -3.982
REMARK INTRA:                   0.000
REMARK UNBOUND:                 0.000
REMARK SMILES O=c1ccc2ccc(O)cc2o1
REMARK SMILES IDX 6 1 7 2 8 3 10 4 11 5 5 6 4 7 3 8 2 9 1 10 12 11 9 12
REMARK H PARENT 9 13
REMARK Flexibility Score: inf
ROOT
ATOM      1  C   UNL     1       7.504   8.981   0.156  1.00  0.00     0.016 A 
ATOM      2  C   UNL     1       8.183   8.266   1.147  1.00  0.00     0.047 A 
ATOM      3  C   UNL     1       9.464   7.757   0.901  1.00  0.00     0.119 A 
ATOM      4  C   UNL     1      10.071   7.964  -0.347  1.00  0.00     0.094 A 
ATOM      5  C   UNL     1       9.399   8.678  -1.345  1.00  0.00     0.142 A 
ATOM      6  C   UNL     1       8.107   9.190  -1.092  1.00  0.00     0.018 A 
ATOM      7  C   UNL     1       7.460   9.899  -2.109  1.00  0.00     0.019 A 
ATOM      8  C   UNL     1       8.103  10.079  -3.333  1.00  0.00     0.094 A 
ATOM      9  C   UNL     1       9.383   9.544  -3.512  1.00  0.00     0.336 A 
ATOM     10  O   UNL     1       9.980   9.697  -4.610  1.00  0.00    -0.246 OA
ATOM     11  O   UNL     1       9.977   8.873  -2.528  1.00  0.00    -0.423 OA
ENDROOT
BRANCH   3  12
ATOM     12  O   UNL     1      10.125   7.048   1.901  1.00  0.00    -0.508 OA
ATOM     13  H   UNL     1       9.841   6.111   2.163  1.00  0.00     0.293 HD
ENDBRANCH   3  12
TORSDOF 1
ENDMDL
MODEL 3
REMARK VINA RESULT:    -3.814     15.816     15.925
REMARK INTER + INTRA:          -3.926
REMARK INTER:                  -3.926
REMARK INTRA:                   0.000
REMARK UNBOUND:                 0.000
REMARK SMILES O=c1ccc2ccc(O)cc2o1
REMARK SMILES IDX 6 1 7 2 8 3 10 4 11 5 5 6 4 7 3 8 2 9 1 10 12 11 9 12
REMARK H PARENT 9 13
REMARK Flexibility Score: inf
ROOT
ATOM      1  C   UNL     1      -9.155   9.341  -9.639  1.00  0.00     0.016 A 
ATOM      2  C   UNL     1      -8.072   9.603 -10.484  1.00  0.00     0.047 A 
ATOM      3  C   UNL     1      -6.768   9.298 -10.078  1.00  0.00     0.119 A 
ATOM      4  C   UNL     1      -6.543   8.726  -8.817  1.00  0.00     0.094 A 
ATOM      5  C   UNL     1      -7.620   8.461  -7.964  1.00  0.00     0.142 A 
ATOM      6  C   UNL     1      -8.934   8.770  -8.378  1.00  0.00     0.018 A 
ATOM      7  C   UNL     1      -9.991   8.494  -7.504  1.00  0.00     0.019 A 
ATOM      8  C   UNL     1      -9.718   7.926  -6.260  1.00  0.00     0.094 A 
ATOM      9  C   UNL     1      -8.391   7.646  -5.918  1.00  0.00     0.336 A 
ATOM     10  O   UNL     1      -8.124   7.132  -4.800  1.00  0.00    -0.246 OA
ATOM     11  O   UNL     1      -7.404   7.918  -6.768  1.00  0.00    -0.423 OA
ENDROOT
BRANCH   3  12
ATOM     12  O   UNL     1      -5.702   9.565 -10.935  1.00  0.00    -0.508 OA
ATOM     13  H   UNL     1      -5.850   9.938 -11.865  1.00  0.00     0.293 HD
ENDBRANCH   3  12
TORSDOF 1
ENDMDL
MODEL 4
REMARK VINA RESULT:    -3.655     15.783     16.302
REMARK INTER + INTRA:          -3.762
REMARK INTER:                  -3.762
REMARK INTRA:                   0.000
REMARK UNBOUND:                 0.000
REMARK SMILES O=c1ccc2ccc(O)cc2o1
REMARK SMILES IDX 6 1 7 2 8 3 10 4 11 5 5 6 4 7 3 8 2 9 1 10 12 11 9 12
REMARK H PARENT 9 13
REMARK Flexibility Score: inf
ROOT
ATOM      1  C   UNL     1      -9.833   8.414  -8.515  1.00  0.00     0.016 A 
ATOM      2  C   UNL     1      -9.682   7.903  -7.222  1.00  0.00     0.047 A 
ATOM      3  C   UNL     1      -8.415   7.842  -6.630  1.00  0.00     0.119 A 
ATOM      4  C   UNL     1      -7.290   8.295  -7.335  1.00  0.00     0.094 A 
ATOM      5  C   UNL     1      -7.432   8.808  -8.628  1.00  0.00     0.142 A 
ATOM      6  C   UNL     1      -8.712   8.868  -9.222  1.00  0.00     0.018 A 
ATOM      7  C   UNL     1      -8.823   9.385 -10.517  1.00  0.00     0.019 A 
ATOM      8  C   UNL     1      -7.676   9.824 -11.179  1.00  0.00     0.094 A 
ATOM      9  C   UNL     1      -6.440   9.734 -10.528  1.00  0.00     0.336 A 
ATOM     10  O   UNL     1      -5.394  10.125 -11.108  1.00  0.00    -0.246 OA
ATOM     11  O   UNL     1      -6.363   9.238  -9.295  1.00  0.00    -0.423 OA
ENDROOT
BRANCH   3  12
ATOM     12  O   UNL     1      -8.284   7.330  -5.340  1.00  0.00    -0.508 OA
ATOM     13  H   UNL     1      -7.799   6.458  -5.163  1.00  0.00     0.293 HD
ENDBRANCH   3  12
TORSDOF 1
ENDMDL
MODEL 5
REMARK VINA RESULT:    -3.318     15.691     16.049
REMARK INTER + INTRA:          -3.415
REMARK INTER:                  -3.415
REMARK INTRA:                   0.000
REMARK UNBOUND:                 0.000
REMARK SMILES O=c1ccc2ccc(O)cc2o1
REMARK SMILES IDX 6 1 7 2 8 3 10 4 11 5 5 6 4 7 3 8 2 9 1 10 12 11 9 12
REMARK H PARENT 9 13
REMARK Flexibility Score: inf
ROOT
ATOM      1  C   UNL     1      -6.461   9.747 -10.362  1.00  0.00     0.016 A 
ATOM      2  C   UNL     1      -6.997  10.064 -11.614  1.00  0.00     0.047 A 
ATOM      3  C   UNL     1      -8.343   9.801 -11.894  1.00  0.00     0.119 A 
ATOM      4  C   UNL     1      -9.161   9.217 -10.915  1.00  0.00     0.094 A 
ATOM      5  C   UNL     1      -8.633   8.896  -9.660  1.00  0.00     0.142 A 
ATOM      6  C   UNL     1      -7.275   9.163  -9.381  1.00  0.00     0.018 A 
ATOM      7  C   UNL     1      -6.775   8.831  -8.118  1.00  0.00     0.019 A 
ATOM      8  C   UNL     1      -7.626   8.251  -7.177  1.00  0.00     0.094 A 
ATOM      9  C   UNL     1      -8.962   8.016  -7.523  1.00  0.00     0.336 A 
ATOM     10  O   UNL     1      -9.745   7.495  -6.688  1.00  0.00    -0.246 OA
ATOM     11  O   UNL     1      -9.411   8.342  -8.733  1.00  0.00    -0.423 OA
ENDROOT
BRANCH   3  12
ATOM     12  O   UNL     1      -8.859  10.125 -13.147  1.00  0.00    -0.508 OA
ATOM     13  H   UNL     1      -9.857  10.182 -13.311  1.00  0.00     0.293 HD
ENDBRANCH   3  12
TORSDOF 1
ENDMDL
MODEL 6
REMARK VINA RESULT:    -3.291     15.691     16.352
REMARK INTER + INTRA:          -3.387
REMARK INTER:                  -3.387
REMARK INTRA:                   0.000
REMARK UNBOUND:                 0.000
REMARK SMILES O=c1ccc2ccc(O)cc2o1
REMARK SMILES IDX 6 1 7 2 8 3 10 4 11 5 5 6 4 7 3 8 2 9 1 10 12 11 9 12
REMARK H PARENT 9 13
REMARK Flexibility Score: inf
ROOT
ATOM      1  C   UNL     1      -6.755   8.829  -8.139  1.00  0.00     0.016 A 
ATOM      2  C   UNL     1      -7.643   8.271  -7.214  1.00  0.00     0.047 A 
ATOM      3  C   UNL     1      -8.983   8.059  -7.559  1.00  0.00     0.119 A 
ATOM      4  C   UNL     1      -9.440   8.408  -8.839  1.00  0.00     0.094 A 
ATOM      5  C   UNL     1      -8.559   8.968  -9.770  1.00  0.00     0.142 A 
ATOM      6  C   UNL     1      -7.208   9.179  -9.418  1.00  0.00     0.018 A 
ATOM      7  C   UNL     1      -6.351   9.740 -10.371  1.00  0.00     0.019 A 
ATOM      8  C   UNL     1      -6.851  10.071 -11.630  1.00  0.00     0.094 A 
ATOM      9  C   UNL     1      -8.201   9.833 -11.908  1.00  0.00     0.336 A 
ATOM     10  O   UNL     1      -8.671  10.124 -13.039  1.00  0.00    -0.246 OA
ATOM     11  O   UNL     1      -8.995   9.297 -10.984  1.00  0.00    -0.423 OA
ENDROOT
BRANCH   3  12
ATOM     12  O   UNL     1      -9.852   7.502  -6.624  1.00  0.00    -0.508 OA
ATOM     13  H   UNL     1     -10.634   6.921  -6.907  1.00  0.00     0.293 HD
ENDBRANCH   3  12
TORSDOF 1
ENDMDL
MODEL 7
REMARK VINA RESULT:    -3.151      2.331      4.550
REMARK INTER + INTRA:          -3.243
REMARK INTER:                  -3.243
REMARK INTRA:                   0.000
REMARK UNBOUND:                 0.000
REMARK SMILES O=c1ccc2ccc(O)cc2o1
REMARK SMILES IDX 6 1 7 2 8 3 10 4 11 5 5 6 4 7 3 8 2 9 1 10 12 11 9 12
REMARK H PARENT 9 13
REMARK Flexibility Score: inf
ROOT
ATOM      1  C   UNL     1      -8.517  -5.600 -12.642  1.00  0.00     0.016 A 
ATOM      2  C   UNL     1      -7.406  -6.364 -13.013  1.00  0.00     0.047 A 
ATOM      3  C   UNL     1      -6.362  -5.785 -13.746  1.00  0.00     0.119 A 
ATOM      4  C   UNL     1      -6.429  -4.432 -14.111  1.00  0.00     0.094 A 
ATOM      5  C   UNL     1      -7.537  -3.660 -13.744  1.00  0.00     0.142 A 
ATOM      6  C   UNL     1      -8.587  -4.248 -13.005  1.00  0.00     0.018 A 
ATOM      7  C   UNL     1      -9.682  -3.451 -12.653  1.00  0.00     0.019 A 
ATOM      8  C   UNL     1      -9.704  -2.111 -13.038  1.00  0.00     0.094 A 
ATOM      9  C   UNL     1      -8.627  -1.597 -13.769  1.00  0.00     0.336 A 
ATOM     10  O   UNL     1      -8.629  -0.389 -14.125  1.00  0.00    -0.246 OA
ATOM     11  O   UNL     1      -7.598  -2.377 -14.090  1.00  0.00    -0.423 OA
ENDROOT
BRANCH   3  12
ATOM     12  O   UNL     1      -5.263  -6.562 -14.106  1.00  0.00    -0.508 OA
ATOM     13  H   UNL     1      -4.315  -6.222 -13.996  1.00  0.00     0.293 HD
ENDBRANCH   3  12
TORSDOF 1
ENDMDL
MODEL 8
REMARK VINA RESULT:    -3.124     24.701     26.312
REMARK INTER + INTRA:          -3.216
REMARK INTER:                  -3.216
REMARK INTRA:                   0.000
REMARK UNBOUND:                 0.000
REMARK SMILES O=c1ccc2ccc(O)cc2o1
REMARK SMILES IDX 6 1 7 2 8 3 10 4 11 5 5 6 4 7 3 8 2 9 1 10 12 11 9 12
REMARK H PARENT 9 13
REMARK Flexibility Score: inf
ROOT
ATOM      1  C   UNL     1       9.532   8.607   1.507  1.00  0.00     0.016 A 
ATOM      2  C   UNL     1       8.954   8.998   2.718  1.00  0.00     0.047 A 
ATOM      3  C   UNL     1       7.762   9.733   2.728  1.00  0.00     0.119 A 
ATOM      4  C   UNL     1       7.144  10.081   1.518  1.00  0.00     0.094 A 
ATOM      5  C   UNL     1       7.716   9.694   0.301  1.00  0.00     0.142 A 
ATOM      6  C   UNL     1       8.918   8.952   0.296  1.00  0.00     0.018 A 
ATOM      7  C   UNL     1       9.466   8.580  -0.936  1.00  0.00     0.019 A 
ATOM      8  C   UNL     1       8.815   8.948  -2.113  1.00  0.00     0.094 A 
ATOM      9  C   UNL     1       7.627   9.683  -2.031  1.00  0.00     0.336 A 
ATOM     10  O   UNL     1       7.025  10.025  -3.082  1.00  0.00    -0.246 OA
ATOM     11  O   UNL     1       7.127  10.024  -0.846  1.00  0.00    -0.423 OA
ENDROOT
BRANCH   3  12
ATOM     12  O   UNL     1       7.201  10.113   3.945  1.00  0.00    -0.508 OA
ATOM     13  H   UNL     1       7.116   9.461   4.717  1.00  0.00     0.293 HD
ENDBRANCH   3  12
TORSDOF 1
ENDMDL
