MODEL 1
REMARK VINA RESULT:    -3.828      0.000      0.000
REMARK INTER + INTRA:          -9.378
REMARK INTER:                  -6.960
REMARK INTRA:                  -2.418
REMARK UNBOUND:                -2.418
REMARK SMILES CCCCCCCCCCCCCCCC(=O)[O-]
REMARK SMILES IDX 9 1 10 2 11 3 12 4 13 5 14 6 15 7 16 8 17 9 18 10 8 11 7 12
REMARK SMILES IDX 6 13 5 14 4 15 3 16 2 17 1 18
REMARK H PARENT
REMARK Flexibility Score: inf
ROOT
ATOM      1  C   UNL     1      31.604   8.284  28.742  1.00  0.00     0.000 C 
ENDROOT
BRANCH   1   2
ATOM      2  C   UNL     1      30.374   7.373  28.912  1.00  0.00     0.000 C 
BRANCH   2   3
ATOM      3  C   UNL     1      29.925   7.246  30.375  1.00  0.00     0.000 C 
BRANCH   3   4
ATOM      4  C   UNL     1      31.000   6.605  31.270  1.00  0.00     0.000 C 
BRANCH   4   5
ATOM      5  C   UNL     1      31.404   7.501  32.455  1.00  0.00     0.000 C 
BRANCH   5   6
ATOM      6  C   UNL     1      32.908   7.499  32.798  1.00  0.00     0.006 C 
BRANCH   6   7
ATOM      7  C   UNL     1      33.713   8.637  32.154  1.00  0.00     0.053 C 
BRANCH   7   8
ATOM      8  C   UNL     1      34.717   8.123  31.168  1.00  0.00     0.041 C 
ATOM      9  O   UNL     1      34.837   8.669  30.040  1.00  0.00    -0.550 OA
ATOM     10  O   UNL     1      35.544   7.059  31.509  1.00  0.00    -0.550 OA
ENDBRANCH   7   8
ENDBRANCH   6   7
ENDBRANCH   5   6
ENDBRANCH   4   5
ENDBRANCH   3   4
ENDBRANCH   2   3
ENDBRANCH   1   2
BRANCH   1  11
ATOM     11  C   UNL     1      31.298   9.518  27.865  1.00  0.00     0.000 C 
BRANCH  11  12
ATOM     12  C   UNL     1      29.803   9.687  27.543  1.00  0.00    -0.000 C 
BRANCH  12  13
ATOM     13  C   UNL     1      29.317  11.135  27.711  1.00  0.00    -0.000 C 
BRANCH  13  14
ATOM     14  C   UNL     1      28.341  11.302  28.887  1.00  0.00    -0.000 C 
BRANCH  14  15
ATOM     15  C   UNL     1      29.024  11.868  30.144  1.00  0.00    -0.000 C 
BRANCH  15  16
ATOM     16  C   UNL     1      29.353  10.779  31.177  1.00  0.00    -0.000 C 
BRANCH  16  17
ATOM     17  C   UNL     1      30.748  10.951  31.798  1.00  0.00    -0.003 C 
ATOM     18  C   UNL     1      31.723  11.562  30.797  1.00  0.00     0.004 C 
ENDBRANCH  16  17
ENDBRANCH  15  16
ENDBRANCH  14  15
ENDBRANCH  13  14
ENDBRANCH  12  13
ENDBRANCH  11  12
ENDBRANCH   1  11
TORSDOF 14
ENDMDL
MODEL 2
REMARK VINA RESULT:    -3.797      2.696      5.515
REMARK INTER + INTRA:          -9.322
REMARK INTER:                  -7.325
REMARK INTRA:                  -1.997
REMARK UNBOUND:                -2.418
REMARK SMILES CCCCCCCCCCCCCCCC(=O)[O-]
REMARK SMILES IDX 9 1 10 2 11 3 12 4 13 5 14 6 15 7 16 8 17 9 18 10 8 11 7 12
REMARK SMILES IDX 6 13 5 14 4 15 3 16 2 17 1 18
REMARK H PARENT
REMARK Flexibility Score: inf
ROOT
ATOM      1  C   UNL     1      30.281   7.410  28.975  1.00  0.00     0.000 C 
ENDROOT
BRANCH   1   2
ATOM      2  C   UNL     1      31.525   7.971  28.262  1.00  0.00     0.000 C 
BRANCH   2   3
ATOM      3  C   UNL     1      31.316   9.398  27.734  1.00  0.00     0.000 C 
BRANCH   3   4
ATOM      4  C   UNL     1      29.830   9.764  27.587  1.00  0.00     0.000 C 
BRANCH   4   5
ATOM      5  C   UNL     1      29.506  11.177  28.105  1.00  0.00     0.000 C 
BRANCH   5   6
ATOM      6  C   UNL     1      30.428  11.693  29.228  1.00  0.00     0.006 C 
BRANCH   6   7
ATOM      7  C   UNL     1      29.763  12.681  30.198  1.00  0.00     0.053 C 
BRANCH   7   8
ATOM      8  C   UNL     1      28.768  12.004  31.090  1.00  0.00     0.041 C 
ATOM      9  O   UNL     1      27.543  12.014  30.797  1.00  0.00    -0.550 OA
ATOM     10  O   UNL     1      29.198  11.334  32.228  1.00  0.00    -0.550 OA
ENDBRANCH   7   8
ENDBRANCH   6   7
ENDBRANCH   5   6
ENDBRANCH   4   5
ENDBRANCH   3   4
ENDBRANCH   2   3
ENDBRANCH   1   2
BRANCH   1  11
ATOM     11  C   UNL     1      30.584   6.984  30.427  1.00  0.00     0.000 C 
BRANCH  11  12
ATOM     12  C   UNL     1      31.890   7.579  30.981  1.00  0.00    -0.000 C 
BRANCH  12  13
ATOM     13  C   UNL     1      31.654   8.802  31.882  1.00  0.00    -0.000 C 
BRANCH  13  14
ATOM     14  C   UNL     1      32.602   9.968  31.562  1.00  0.00    -0.000 C 
BRANCH  14  15
ATOM     15  C   UNL     1      33.669   9.591  30.519  1.00  0.00    -0.000 C 
BRANCH  15  16
ATOM     16  C   UNL     1      35.054   9.369  31.147  1.00  0.00    -0.000 C 
BRANCH  16  17
ATOM     17  C   UNL     1      35.672   8.017  30.759  1.00  0.00    -0.003 C 
ATOM     18  C   UNL     1      35.568   7.016  31.907  1.00  0.00     0.004 C 
ENDBRANCH  16  17
ENDBRANCH  15  16
ENDBRANCH  14  15
ENDBRANCH  13  14
ENDBRANCH  12  13
ENDBRANCH  11  12
ENDBRANCH   1  11
TORSDOF 14
ENDMDL
MODEL 3
REMARK VINA RESULT:    -3.781      2.908      5.314
REMARK INTER + INTRA:          -9.294
REMARK INTER:                  -7.033
REMARK INTRA:                  -2.261
REMARK UNBOUND:                -2.418
REMARK SMILES CCCCCCCCCCCCCCCC(=O)[O-]
REMARK SMILES IDX 9 1 10 2 11 3 12 4 13 5 14 6 15 7 16 8 17 9 18 10 8 11 7 12
REMARK SMILES IDX 6 13 5 14 4 15 3 16 2 17 1 18
REMARK H PARENT
REMARK Flexibility Score: inf
ROOT
ATOM      1  C   UNL     1      31.020   7.632  32.174  1.00  0.00     0.000 C 
ENDROOT
BRANCH   1   2
ATOM      2  C   UNL     1      31.334   9.132  32.025  1.00  0.00     0.000 C 
BRANCH   2   3
ATOM      3  C   UNL     1      30.537  10.008  33.003  1.00  0.00     0.000 C 
BRANCH   3   4
ATOM      4  C   UNL     1      30.549  11.495  32.611  1.00  0.00     0.000 C 
BRANCH   4   5
ATOM      5  C   UNL     1      31.340  11.768  31.318  1.00  0.00     0.000 C 
BRANCH   5   6
ATOM      6  C   UNL     1      30.597  12.605  30.257  1.00  0.00     0.006 C 
BRANCH   6   7
ATOM      7  C   UNL     1      30.316  11.866  28.941  1.00  0.00     0.053 C 
BRANCH   7   8
ATOM      8  C   UNL     1      28.907  11.361  28.873  1.00  0.00     0.041 C 
ATOM      9  O   UNL     1      28.500  10.751  27.849  1.00  0.00    -0.550 OA
ATOM     10  O   UNL     1      28.054  11.536  29.955  1.00  0.00    -0.550 OA
ENDBRANCH   7   8
ENDBRANCH   6   7
ENDBRANCH   5   6
ENDBRANCH   4   5
ENDBRANCH   3   4
ENDBRANCH   2   3
ENDBRANCH   1   2
BRANCH   1  11
ATOM     11  C   UNL     1      30.759   6.953  30.813  1.00  0.00     0.000 C 
BRANCH  11  12
ATOM     12  C   UNL     1      30.264   7.924  29.728  1.00  0.00    -0.000 C 
BRANCH  12  13
ATOM     13  C   UNL     1      31.143   7.909  28.467  1.00  0.00    -0.000 C 
BRANCH  13  14
ATOM     14  C   UNL     1      32.259   8.965  28.508  1.00  0.00    -0.000 C 
BRANCH  14  15
ATOM     15  C   UNL     1      33.591   8.396  29.027  1.00  0.00    -0.000 C 
BRANCH  15  16
ATOM     16  C   UNL     1      34.290   9.343  30.015  1.00  0.00    -0.000 C 
BRANCH  16  17
ATOM     17  C   UNL     1      35.342   8.629  30.879  1.00  0.00    -0.003 C 
ATOM     18  C   UNL     1      34.706   7.520  31.712  1.00  0.00     0.004 C 
ENDBRANCH  16  17
ENDBRANCH  15  16
ENDBRANCH  14  15
ENDBRANCH  13  14
ENDBRANCH  12  13
ENDBRANCH  11  12
ENDBRANCH   1  11
TORSDOF 14
ENDMDL
MODEL 4
REMARK VINA RESULT:    -3.771      2.175      5.236
REMARK INTER + INTRA:          -9.274
REMARK INTER:                  -6.983
REMARK INTRA:                  -2.291
REMARK UNBOUND:                -2.418
REMARK SMILES CCCCCCCCCCCCCCCC(=O)[O-]
REMARK SMILES IDX 9 1 10 2 11 3 12 4 13 5 14 6 15 7 16 8 17 9 18 10 8 11 7 12
REMARK SMILES IDX 6 13 5 14 4 15 3 16 2 17 1 18
REMARK H PARENT
REMARK Flexibility Score: inf
ROOT
ATOM      1  C   UNL     1      32.185   8.527  28.119  1.00  0.00     0.000 C 
ENDROOT
BRANCH   1   2
ATOM      2  C   UNL     1      31.415   9.802  28.506  1.00  0.00     0.000 C 
BRANCH   2   3
ATOM      3  C   UNL     1      29.942   9.764  28.071  1.00  0.00     0.000 C 
BRANCH   3   4
ATOM      4  C   UNL     1      28.982  10.185  29.196  1.00  0.00     0.000 C 
BRANCH   4   5
ATOM      5  C   UNL     1      28.334  11.560  28.948  1.00  0.00     0.000 C 
BRANCH   5   6
ATOM      6  C   UNL     1      28.652  12.637  30.004  1.00  0.00     0.006 C 
BRANCH   6   7
ATOM      7  C   UNL     1      29.612  12.183  31.113  1.00  0.00     0.053 C 
BRANCH   7   8
ATOM      8  C   UNL     1      30.968  12.803  30.968  1.00  0.00     0.041 C 
ATOM      9  O   UNL     1      31.998  12.167  31.316  1.00  0.00    -0.550 OA
ATOM     10  O   UNL     1      31.096  14.071  30.416  1.00  0.00    -0.550 OA
ENDBRANCH   7   8
ENDBRANCH   6   7
ENDBRANCH   5   6
ENDBRANCH   4   5
ENDBRANCH   3   4
ENDBRANCH   2   3
ENDBRANCH   1   2
BRANCH   1  11
ATOM     11  C   UNL     1      33.543   8.422  28.846  1.00  0.00     0.000 C 
BRANCH  11  12
ATOM     12  C   UNL     1      33.588   9.197  30.175  1.00  0.00    -0.000 C 
BRANCH  12  13
ATOM     13  C   UNL     1      34.160   8.362  31.333  1.00  0.00    -0.000 C 
BRANCH  13  14
ATOM     14  C   UNL     1      33.067   7.663  32.157  1.00  0.00    -0.000 C 
BRANCH  14  15
ATOM     15  C   UNL     1      31.828   8.552  32.368  1.00  0.00    -0.000 C 
BRANCH  15  16
ATOM     16  C   UNL     1      30.601   8.044  31.593  1.00  0.00    -0.000 C 
BRANCH  16  17
ATOM     17  C   UNL     1      30.801   6.631  31.025  1.00  0.00    -0.003 C 
ATOM     18  C   UNL     1      29.749   6.312  29.967  1.00  0.00     0.004 C 
ENDBRANCH  16  17
ENDBRANCH  15  16
ENDBRANCH  14  15
ENDBRANCH  13  14
ENDBRANCH  12  13
ENDBRANCH  11  12
ENDBRANCH   1  11
TORSDOF 14
ENDMDL
MODEL 5
REMARK VINA RESULT:    -3.769      2.826      5.784
REMARK INTER + INTRA:          -9.271
REMARK INTER:                  -7.060
REMARK INTRA:                  -2.211
REMARK UNBOUND:                -2.418
REMARK SMILES CCCCCCCCCCCCCCCC(=O)[O-]
REMARK SMILES IDX 9 1 10 2 11 3 12 4 13 5 14 6 15 7 16 8 17 9 18 10 8 11 7 12
REMARK SMILES IDX 6 13 5 14 4 15 3 16 2 17 1 18
REMARK H PARENT
REMARK Flexibility Score: inf
ROOT
ATOM      1  C   UNL     1      32.086   7.759  31.098  1.00  0.00     0.000 C 
ENDROOT
BRANCH   1   2
ATOM      2  C   UNL     1      30.804   6.962  30.793  1.00  0.00     0.000 C 
BRANCH   2   3
ATOM      3  C   UNL     1      30.236   7.260  29.397  1.00  0.00     0.000 C 
BRANCH   3   4
ATOM      4  C   UNL     1      31.154   8.174  28.567  1.00  0.00     0.000 C 
BRANCH   4   5
ATOM      5  C   UNL     1      30.446   9.452  28.082  1.00  0.00     0.000 C 
BRANCH   5   6
ATOM      6  C   UNL     1      30.235  10.536  29.159  1.00  0.00     0.006 C 
BRANCH   6   7
ATOM      7  C   UNL     1      28.776  10.726  29.599  1.00  0.00     0.053 C 
BRANCH   7   8
ATOM      8  C   UNL     1      28.670  11.565  30.836  1.00  0.00     0.041 C 
ATOM      9  O   UNL     1      29.678  11.745  31.570  1.00  0.00    -0.550 OA
ATOM     10  O   UNL     1      27.465  12.175  31.160  1.00  0.00    -0.550 OA
ENDBRANCH   7   8
ENDBRANCH   6   7
ENDBRANCH   5   6
ENDBRANCH   4   5
ENDBRANCH   3   4
ENDBRANCH   2   3
ENDBRANCH   1   2
BRANCH   1  11
ATOM     11  C   UNL     1      31.859   8.836  32.180  1.00  0.00     0.000 C 
BRANCH  11  12
ATOM     12  C   UNL     1      32.798  10.048  32.047  1.00  0.00    -0.000 C 
BRANCH  12  13
ATOM     13  C   UNL     1      33.499  10.111  30.680  1.00  0.00    -0.000 C 
BRANCH  13  14
ATOM     14  C   UNL     1      35.012  10.354  30.800  1.00  0.00    -0.000 C 
BRANCH  14  15
ATOM     15  C   UNL     1      35.843   9.215  30.182  1.00  0.00    -0.000 C 
BRANCH  15  16
ATOM     16  C   UNL     1      36.573   8.376  31.243  1.00  0.00    -0.000 C 
BRANCH  16  17
ATOM     17  C   UNL     1      35.846   7.062  31.565  1.00  0.00    -0.003 C 
ATOM     18  C   UNL     1      35.188   7.121  32.941  1.00  0.00     0.004 C 
ENDBRANCH  16  17
ENDBRANCH  15  16
ENDBRANCH  14  15
ENDBRANCH  13  14
ENDBRANCH  12  13
ENDBRANCH  11  12
ENDBRANCH   1  11
TORSDOF 14
ENDMDL
MODEL 6
REMARK VINA RESULT:    -3.768      2.766      5.428
REMARK INTER + INTRA:          -9.269
REMARK INTER:                  -7.072
REMARK INTRA:                  -2.197
REMARK UNBOUND:                -2.418
REMARK SMILES CCCCCCCCCCCCCCCC(=O)[O-]
REMARK SMILES IDX 9 1 10 2 11 3 12 4 13 5 14 6 15 7 16 8 17 9 18 10 8 11 7 12
REMARK SMILES IDX 6 13 5 14 4 15 3 16 2 17 1 18
REMARK H PARENT
REMARK Flexibility Score: inf
ROOT
ATOM      1  C   UNL     1      32.845   8.591  32.200  1.00  0.00     0.000 C 
ENDROOT
BRANCH   1   2
ATOM      2  C   UNL     1      31.578   8.900  33.019  1.00  0.00     0.000 C 
BRANCH   2   3
ATOM      3  C   UNL     1      31.549  10.340  33.553  1.00  0.00     0.000 C 
BRANCH   3   4
ATOM      4  C   UNL     1      30.293  11.109  33.112  1.00  0.00     0.000 C 
BRANCH   4   5
ATOM      5  C   UNL     1      29.876  10.797  31.663  1.00  0.00     0.000 C 
BRANCH   5   6
ATOM      6  C   UNL     1      29.586  12.029  30.782  1.00  0.00     0.006 C 
BRANCH   6   7
ATOM      7  C   UNL     1      30.085  11.913  29.334  1.00  0.00     0.053 C 
BRANCH   7   8
ATOM      8  C   UNL     1      29.053  11.305  28.434  1.00  0.00     0.041 C 
ATOM      9  O   UNL     1      29.373  10.895  27.287  1.00  0.00    -0.550 OA
ATOM     10  O   UNL     1      27.744  11.163  28.875  1.00  0.00    -0.550 OA
ENDBRANCH   7   8
ENDBRANCH   6   7
ENDBRANCH   5   6
ENDBRANCH   4   5
ENDBRANCH   3   4
ENDBRANCH   2   3
ENDBRANCH   1   2
BRANCH   1  11
ATOM     11  C   UNL     1      33.450   9.860  31.563  1.00  0.00     0.000 C 
BRANCH  11  12
ATOM     12  C   UNL     1      34.188   9.591  30.241  1.00  0.00    -0.000 C 
BRANCH  12  13
ATOM     13  C   UNL     1      33.488   8.533  29.372  1.00  0.00    -0.000 C 
BRANCH  13  14
ATOM     14  C   UNL     1      32.215   9.067  28.696  1.00  0.00    -0.000 C 
BRANCH  14  15
ATOM     15  C   UNL     1      31.159   7.969  28.476  1.00  0.00    -0.000 C 
BRANCH  15  16
ATOM     16  C   UNL     1      30.202   7.825  29.671  1.00  0.00    -0.000 C 
BRANCH  16  17
ATOM     17  C   UNL     1      30.404   6.510  30.438  1.00  0.00    -0.003 C 
ATOM     18  C   UNL     1      29.571   5.386  29.830  1.00  0.00     0.004 C 
ENDBRANCH  16  17
ENDBRANCH  15  16
ENDBRANCH  14  15
ENDBRANCH  13  14
ENDBRANCH  12  13
ENDBRANCH  11  12
ENDBRANCH   1  11
TORSDOF 14
ENDMDL
MODEL 7
REMARK VINA RESULT:    -3.756      1.273      3.444
REMARK INTER + INTRA:          -9.247
REMARK INTER:                  -6.704
REMARK INTRA:                  -2.543
REMARK UNBOUND:                -2.418
REMARK SMILES CCCCCCCCCCCCCCCC(=O)[O-]
REMARK SMILES IDX 9 1 10 2 11 3 12 4 13 5 14 6 15 7 16 8 17 9 18 10 8 11 7 12
REMARK SMILES IDX 6 13 5 14 4 15 3 16 2 17 1 18
REMARK H PARENT
REMARK Flexibility Score: inf
ROOT
ATOM      1  C   UNL     1      30.604   6.943  31.003  1.00  0.00     0.000 C 
ENDROOT
BRANCH   1   2
ATOM      2  C   UNL     1      30.163   8.035  30.012  1.00  0.00     0.000 C 
BRANCH   2   3
ATOM      3  C   UNL     1      30.687   7.794  28.588  1.00  0.00     0.000 C 
BRANCH   3   4
ATOM      4  C   UNL     1      31.579   8.942  28.084  1.00  0.00     0.000 C 
BRANCH   4   5
ATOM      5  C   UNL     1      32.604   9.410  29.133  1.00  0.00     0.000 C 
BRANCH   5   6
ATOM      6  C   UNL     1      33.857   8.522  29.271  1.00  0.00     0.006 C 
BRANCH   6   7
ATOM      7  C   UNL     1      34.574   8.633  30.624  1.00  0.00     0.053 C 
BRANCH   7   8
ATOM      8  C   UNL     1      36.031   8.944  30.461  1.00  0.00     0.041 C 
ATOM      9  O   UNL     1      36.889   8.027  30.542  1.00  0.00    -0.550 OA
ATOM     10  O   UNL     1      36.437  10.244  30.186  1.00  0.00    -0.550 OA
ENDBRANCH   7   8
ENDBRANCH   6   7
ENDBRANCH   5   6
ENDBRANCH   4   5
ENDBRANCH   3   4
ENDBRANCH   2   3
ENDBRANCH   1   2
BRANCH   1  11
ATOM     11  C   UNL     1      31.558   7.490  32.086  1.00  0.00     0.000 C 
BRANCH  11  12
ATOM     12  C   UNL     1      30.981   8.684  32.866  1.00  0.00    -0.000 C 
BRANCH  12  13
ATOM     13  C   UNL     1      31.847   9.949  32.747  1.00  0.00    -0.000 C 
BRANCH  13  14
ATOM     14  C   UNL     1      31.152  11.072  31.962  1.00  0.00    -0.000 C 
BRANCH  14  15
ATOM     15  C   UNL     1      29.624  11.065  32.149  1.00  0.00    -0.000 C 
BRANCH  15  16
ATOM     16  C   UNL     1      28.888  11.791  31.012  1.00  0.00    -0.000 C 
BRANCH  16  17
ATOM     17  C   UNL     1      29.670  11.769  29.689  1.00  0.00    -0.003 C 
ATOM     18  C   UNL     1      28.768  11.368  28.526  1.00  0.00     0.004 C 
ENDBRANCH  16  17
ENDBRANCH  15  16
ENDBRANCH  14  15
ENDBRANCH  13  14
ENDBRANCH  12  13
ENDBRANCH  11  12
ENDBRANCH   1  11
TORSDOF 14
ENDMDL
MODEL 8
REMARK VINA RESULT:    -3.728      3.002      6.069
REMARK INTER + INTRA:          -9.197
REMARK INTER:                  -7.091
REMARK INTRA:                  -2.106
REMARK UNBOUND:                -2.418
REMARK SMILES CCCCCCCCCCCCCCCC(=O)[O-]
REMARK SMILES IDX 9 1 10 2 11 3 12 4 13 5 14 6 15 7 16 8 17 9 18 10 8 11 7 12
REMARK SMILES IDX 6 13 5 14 4 15 3 16 2 17 1 18
REMARK H PARENT
REMARK Flexibility Score: inf
ROOT
ATOM      1  C   UNL     1      32.783   8.514  31.959  1.00  0.00     0.000 C 
ENDROOT
BRANCH   1   2
ATOM      2  C   UNL     1      31.299   8.105  31.994  1.00  0.00     0.000 C 
BRANCH   2   3
ATOM      3  C   UNL     1      30.963   6.995  30.987  1.00  0.00     0.000 C 
BRANCH   3   4
ATOM      4  C   UNL     1      29.885   7.421  29.975  1.00  0.00     0.000 C 
BRANCH   4   5
ATOM      5  C   UNL     1      30.466   7.775  28.594  1.00  0.00     0.000 C 
BRANCH   5   6
ATOM      6  C   UNL     1      30.755   9.273  28.366  1.00  0.00     0.006 C 
BRANCH   6   7
ATOM      7  C   UNL     1      29.926  10.225  29.240  1.00  0.00     0.053 C 
BRANCH   7   8
ATOM      8  C   UNL     1      29.003  11.075  28.422  1.00  0.00     0.041 C 
ATOM      9  O   UNL     1      28.384  12.034  28.953  1.00  0.00    -0.550 OA
ATOM     10  O   UNL     1      28.851  10.826  27.063  1.00  0.00    -0.550 OA
ENDBRANCH   7   8
ENDBRANCH   6   7
ENDBRANCH   5   6
ENDBRANCH   4   5
ENDBRANCH   3   4
ENDBRANCH   2   3
ENDBRANCH   1   2
BRANCH   1  11
ATOM     11  C   UNL     1      33.479   8.072  30.654  1.00  0.00     0.000 C 
BRANCH  11  12
ATOM     12  C   UNL     1      34.187   9.222  29.916  1.00  0.00    -0.000 C 
BRANCH  12  13
ATOM     13  C   UNL     1      34.726  10.300  30.870  1.00  0.00    -0.000 C 
BRANCH  13  14
ATOM     14  C   UNL     1      36.241  10.516  30.728  1.00  0.00    -0.000 C 
BRANCH  14  15
ATOM     15  C   UNL     1      36.967   9.267  30.196  1.00  0.00    -0.000 C 
BRANCH  15  16
ATOM     16  C   UNL     1      37.672   8.477  31.309  1.00  0.00    -0.000 C 
BRANCH  16  17
ATOM     17  C   UNL     1      36.905   7.208  31.713  1.00  0.00    -0.003 C 
ATOM     18  C   UNL     1      36.194   7.398  33.050  1.00  0.00     0.004 C 
ENDBRANCH  16  17
ENDBRANCH  15  16
ENDBRANCH  14  15
ENDBRANCH  13  14
ENDBRANCH  12  13
ENDBRANCH  11  12
ENDBRANCH   1  11
TORSDOF 14
ENDMDL
MODEL 9
REMARK VINA RESULT:    -3.726      2.688      5.464
REMARK INTER + INTRA:          -9.194
REMARK INTER:                  -6.504
REMARK INTRA:                  -2.689
REMARK UNBOUND:                -2.418
REMARK SMILES CCCCCCCCCCCCCCCC(=O)[O-]
REMARK SMILES IDX 9 1 10 2 11 3 12 4 13 5 14 6 15 7 16 8 17 9 18 10 8 11 7 12
REMARK SMILES IDX 6 13 5 14 4 15 3 16 2 17 1 18
REMARK H PARENT
REMARK Flexibility Score: inf
ROOT
ATOM      1  C   UNL     1      31.822   9.173  33.189  1.00  0.00     0.000 C 
ENDROOT
BRANCH   1   2
ATOM      2  C   UNL     1      31.085   7.829  33.039  1.00  0.00     0.000 C 
BRANCH   2   3
ATOM      3  C   UNL     1      31.609   6.990  31.864  1.00  0.00     0.000 C 
BRANCH   3   4
ATOM      4  C   UNL     1      30.552   6.783  30.766  1.00  0.00     0.000 C 
BRANCH   4   5
ATOM      5  C   UNL     1      30.859   7.573  29.482  1.00  0.00     0.000 C 
BRANCH   5   6
ATOM      6  C   UNL     1      29.946   8.789  29.223  1.00  0.00     0.006 C 
BRANCH   6   7
ATOM      7  C   UNL     1      30.356   9.653  28.022  1.00  0.00     0.053 C 
BRANCH   7   8
ATOM      8  C   UNL     1      29.544  10.909  27.933  1.00  0.00     0.041 C 
ATOM      9  O   UNL     1      28.737  11.077  26.981  1.00  0.00    -0.550 OA
ATOM     10  O   UNL     1      29.655  11.880  28.921  1.00  0.00    -0.550 OA
ENDBRANCH   7   8
ENDBRANCH   6   7
ENDBRANCH   5   6
ENDBRANCH   4   5
ENDBRANCH   3   4
ENDBRANCH   2   3
ENDBRANCH   1   2
BRANCH   1  11
ATOM     11  C   UNL     1      31.129  10.309  32.407  1.00  0.00     0.000 C 
BRANCH  11  12
ATOM     12  C   UNL     1      32.016  10.932  31.316  1.00  0.00    -0.000 C 
BRANCH  12  13
ATOM     13  C   UNL     1      33.438  10.348  31.298  1.00  0.00    -0.000 C 
BRANCH  13  14
ATOM     14  C   UNL     1      33.746   9.572  30.007  1.00  0.00    -0.000 C 
BRANCH  14  15
ATOM     15  C   UNL     1      34.640   8.345  30.257  1.00  0.00    -0.000 C 
BRANCH  15  16
ATOM     16  C   UNL     1      35.290   8.363  31.649  1.00  0.00    -0.000 C 
BRANCH  16  17
ATOM     17  C   UNL     1      35.488   6.955  32.231  1.00  0.00    -0.003 C 
ATOM     18  C   UNL     1      34.836   6.832  33.605  1.00  0.00     0.004 C 
ENDBRANCH  16  17
ENDBRANCH  15  16
ENDBRANCH  14  15
ENDBRANCH  13  14
ENDBRANCH  12  13
ENDBRANCH  11  12
ENDBRANCH   1  11
TORSDOF 14
ENDMDL
