MODEL 1
REMARK VINA RESULT:    -2.779      0.000      0.000
REMARK INTER + INTRA:          -5.534
REMARK INTER:                  -4.404
REMARK INTRA:                  -1.131
REMARK UNBOUND:                -1.131
REMARK SMILES CCCCCCCCCCCC(=O)[O-]
REMARK SMILES IDX 7 1 8 2 9 3 10 4 11 5 12 6 13 7 14 8 6 9 5 10 4 11 3 12 2 13
REMARK SMILES IDX 1 14
REMARK H PARENT
REMARK Flexibility Score: inf
ROOT
ATOM      1  C   UNL     1     -10.386 -17.031  13.329  1.00  0.00     0.000 C 
ENDROOT
BRANCH   1   2
ATOM      2  C   UNL     1     -11.177 -16.699  14.605  1.00  0.00     0.000 C 
BRANCH   2   3
ATOM      3  C   UNL     1     -10.794 -17.603  15.788  1.00  0.00     0.000 C 
BRANCH   3   4
ATOM      4  C   UNL     1     -11.711 -18.830  15.914  1.00  0.00     0.006 C 
BRANCH   4   5
ATOM      5  C   UNL     1     -11.063 -20.112  15.372  1.00  0.00     0.053 C 
BRANCH   5   6
ATOM      6  C   UNL     1     -12.084 -21.197  15.242  1.00  0.00     0.041 C 
ATOM      7  O   UNL     1     -11.731 -22.366  14.940  1.00  0.00    -0.550 OA
ATOM      8  O   UNL     1     -13.433 -20.906  15.409  1.00  0.00    -0.550 OA
ENDBRANCH   5   6
ENDBRANCH   4   5
ENDBRANCH   3   4
ENDBRANCH   2   3
ENDBRANCH   1   2
BRANCH   1   9
ATOM      9  C   UNL     1      -8.930 -17.429  13.619  1.00  0.00     0.000 C 
BRANCH   9  10
ATOM     10  C   UNL     1      -8.582 -18.764  12.948  1.00  0.00    -0.000 C 
BRANCH  10  11
ATOM     11  C   UNL     1      -9.616 -19.123  11.869  1.00  0.00    -0.000 C 
BRANCH  11  12
ATOM     12  C   UNL     1      -8.986 -19.280  10.476  1.00  0.00    -0.000 C 
BRANCH  12  13
ATOM     13  C   UNL     1      -9.640 -18.370   9.425  1.00  0.00    -0.003 C 
ATOM     14  C   UNL     1      -9.456 -16.898   9.782  1.00  0.00     0.004 C 
ENDBRANCH  12  13
ENDBRANCH  11  12
ENDBRANCH  10  11
ENDBRANCH   9  10
ENDBRANCH   1   9
TORSDOF 10
ENDMDL
MODEL 2
REMARK VINA RESULT:    -2.724      3.098      5.049
REMARK INTER + INTRA:          -5.447
REMARK INTER:                  -4.249
REMARK INTRA:                  -1.199
REMARK UNBOUND:                -1.131
REMARK SMILES CCCCCCCCCCCC(=O)[O-]
REMARK SMILES IDX 7 1 8 2 9 3 10 4 11 5 12 6 13 7 14 8 6 9 5 10 4 11 3 12 2 13
REMARK SMILES IDX 1 14
REMARK H PARENT
REMARK Flexibility Score: inf
ROOT
ATOM      1  C   UNL     1     -10.943 -16.751  14.587  1.00  0.00     0.000 C 
ENDROOT
BRANCH   1   2
ATOM      2  C   UNL     1      -9.409 -16.850  14.545  1.00  0.00     0.000 C 
BRANCH   2   3
ATOM      3  C   UNL     1      -8.892 -17.453  13.228  1.00  0.00     0.000 C 
BRANCH   3   4
ATOM      4  C   UNL     1      -9.998 -17.592  12.169  1.00  0.00     0.006 C 
BRANCH   4   5
ATOM      5  C   UNL     1      -9.759 -18.771  11.215  1.00  0.00     0.053 C 
BRANCH   5   6
ATOM      6  C   UNL     1      -9.431 -18.272   9.844  1.00  0.00     0.041 C 
ATOM      7  O   UNL     1      -8.964 -19.057   8.978  1.00  0.00    -0.550 OA
ATOM      8  O   UNL     1      -9.597 -16.927   9.535  1.00  0.00    -0.550 OA
ENDBRANCH   5   6
ENDBRANCH   4   5
ENDBRANCH   3   4
ENDBRANCH   2   3
ENDBRANCH   1   2
BRANCH   1   9
ATOM      9  C   UNL     1     -11.568 -17.664  15.653  1.00  0.00     0.000 C 
BRANCH   9  10
ATOM     10  C   UNL     1     -10.628 -18.826  16.000  1.00  0.00    -0.000 C 
BRANCH  10  11
ATOM     11  C   UNL     1     -11.115 -20.136  15.362  1.00  0.00    -0.000 C 
BRANCH  11  12
ATOM     12  C   UNL     1     -10.090 -20.737  14.387  1.00  0.00    -0.000 C 
BRANCH  12  13
ATOM     13  C   UNL     1     -10.729 -21.696  13.373  1.00  0.00    -0.003 C 
ATOM     14  C   UNL     1     -12.082 -22.199  13.870  1.00  0.00     0.004 C 
ENDBRANCH  12  13
ENDBRANCH  11  12
ENDBRANCH  10  11
ENDBRANCH   9  10
ENDBRANCH   1   9
TORSDOF 10
ENDMDL
MODEL 3
REMARK VINA RESULT:    -2.672      2.039      3.688
REMARK INTER + INTRA:          -5.365
REMARK INTER:                  -3.961
REMARK INTRA:                  -1.404
REMARK UNBOUND:                -1.131
REMARK SMILES CCCCCCCCCCCC(=O)[O-]
REMARK SMILES IDX 7 1 8 2 9 3 10 4 11 5 12 6 13 7 14 8 6 9 5 10 4 11 3 12 2 13
REMARK SMILES IDX 1 14
REMARK H PARENT
REMARK Flexibility Score: inf
ROOT
ATOM      1  C   UNL     1     -10.028 -18.412  10.764  1.00  0.00     0.000 C 
ENDROOT
BRANCH   1   2
ATOM      2  C   UNL     1      -9.416 -17.493  11.834  1.00  0.00     0.000 C 
BRANCH   2   3
ATOM      3  C   UNL     1     -10.279 -17.410  13.104  1.00  0.00     0.000 C 
BRANCH   3   4
ATOM      4  C   UNL     1      -9.481 -16.936  14.329  1.00  0.00     0.006 C 
BRANCH   4   5
ATOM      5  C   UNL     1      -9.850 -17.699  15.608  1.00  0.00     0.053 C 
BRANCH   5   6
ATOM      6  C   UNL     1     -11.336 -17.775  15.759  1.00  0.00     0.041 C 
ATOM      7  O   UNL     1     -12.011 -16.725  15.917  1.00  0.00    -0.550 OA
ATOM      8  O   UNL     1     -11.972 -19.011  15.774  1.00  0.00    -0.550 OA
ENDBRANCH   5   6
ENDBRANCH   4   5
ENDBRANCH   3   4
ENDBRANCH   2   3
ENDBRANCH   1   2
BRANCH   1   9
ATOM      9  C   UNL     1      -8.970 -19.233  10.010  1.00  0.00     0.000 C 
BRANCH   9  10
ATOM     10  C   UNL     1      -7.875 -19.727  10.965  1.00  0.00    -0.000 C 
BRANCH  10  11
ATOM     11  C   UNL     1      -8.284 -21.048  11.634  1.00  0.00    -0.000 C 
BRANCH  11  12
ATOM     12  C   UNL     1      -8.545 -20.892  13.140  1.00  0.00    -0.000 C 
BRANCH  12  13
ATOM     13  C   UNL     1     -10.026 -21.072  13.505  1.00  0.00    -0.003 C 
ATOM     14  C   UNL     1     -10.792 -21.754  12.375  1.00  0.00     0.004 C 
ENDBRANCH  12  13
ENDBRANCH  11  12
ENDBRANCH  10  11
ENDBRANCH   9  10
ENDBRANCH   1   9
TORSDOF 10
ENDMDL
MODEL 4
REMARK VINA RESULT:    -2.633      1.795      3.950
REMARK INTER + INTRA:          -5.303
REMARK INTER:                  -4.148
REMARK INTRA:                  -1.156
REMARK UNBOUND:                -1.131
REMARK SMILES CCCCCCCCCCCC(=O)[O-]
REMARK SMILES IDX 7 1 8 2 9 3 10 4 11 5 12 6 13 7 14 8 6 9 5 10 4 11 3 12 2 13
REMARK SMILES IDX 1 14
REMARK H PARENT
REMARK Flexibility Score: inf
ROOT
ATOM      1  C   UNL     1      -9.756 -19.217  10.948  1.00  0.00     0.000 C 
ENDROOT
BRANCH   1   2
ATOM      2  C   UNL     1      -8.678 -20.120  11.570  1.00  0.00     0.000 C 
BRANCH   2   3
ATOM      3  C   UNL     1      -9.228 -21.495  11.986  1.00  0.00     0.000 C 
BRANCH   3   4
ATOM      4  C   UNL     1     -10.495 -21.387  12.850  1.00  0.00     0.006 C 
BRANCH   4   5
ATOM      5  C   UNL     1     -11.576 -22.399  12.445  1.00  0.00     0.053 C 
BRANCH   5   6
ATOM      6  C   UNL     1     -12.658 -22.446  13.476  1.00  0.00     0.041 C 
ATOM      7  O   UNL     1     -13.702 -23.118  13.270  1.00  0.00    -0.550 OA
ATOM      8  O   UNL     1     -12.535 -21.708  14.647  1.00  0.00    -0.550 OA
ENDBRANCH   5   6
ENDBRANCH   4   5
ENDBRANCH   3   4
ENDBRANCH   2   3
ENDBRANCH   1   2
BRANCH   1   9
ATOM      9  C   UNL     1      -9.763 -17.801  11.544  1.00  0.00     0.000 C 
BRANCH   9  10
ATOM     10  C   UNL     1      -8.585 -17.607  12.508  1.00  0.00    -0.000 C 
BRANCH  10  11
ATOM     11  C   UNL     1      -9.077 -17.150  13.891  1.00  0.00    -0.000 C 
BRANCH  11  12
ATOM     12  C   UNL     1      -9.510 -18.325  14.782  1.00  0.00    -0.000 C 
BRANCH  12  13
ATOM     13  C   UNL     1     -10.939 -18.163  15.320  1.00  0.00    -0.003 C 
ATOM     14  C   UNL     1     -11.488 -16.773  15.012  1.00  0.00     0.004 C 
ENDBRANCH  12  13
ENDBRANCH  11  12
ENDBRANCH  10  11
ENDBRANCH   9  10
ENDBRANCH   1   9
TORSDOF 10
ENDMDL
MODEL 5
REMARK VINA RESULT:    -2.550      1.845      4.808
REMARK INTER + INTRA:          -5.171
REMARK INTER:                  -4.257
REMARK INTRA:                  -0.914
REMARK UNBOUND:                -1.131
REMARK SMILES CCCCCCCCCCCC(=O)[O-]
REMARK SMILES IDX 7 1 8 2 9 3 10 4 11 5 12 6 13 7 14 8 6 9 5 10 4 11 3 12 2 13
REMARK SMILES IDX 1 14
REMARK H PARENT
REMARK Flexibility Score: inf
ROOT
ATOM      1  C   UNL     1      -9.382 -17.373  10.945  1.00  0.00     0.000 C 
ENDROOT
BRANCH   1   2
ATOM      2  C   UNL     1      -9.717 -18.628  10.121  1.00  0.00     0.000 C 
BRANCH   2   3
ATOM      3  C   UNL     1      -8.495 -19.536   9.905  1.00  0.00     0.000 C 
BRANCH   3   4
ATOM      4  C   UNL     1      -7.878 -20.019  11.228  1.00  0.00     0.006 C 
BRANCH   4   5
ATOM      5  C   UNL     1      -8.406 -21.393  11.662  1.00  0.00     0.053 C 
BRANCH   5   6
ATOM      6  C   UNL     1      -9.586 -21.235  12.567  1.00  0.00     0.041 C 
ATOM      7  O   UNL     1     -10.740 -21.534  12.162  1.00  0.00    -0.550 OA
ATOM      8  O   UNL     1      -9.418 -20.713  13.844  1.00  0.00    -0.550 OA
ENDBRANCH   5   6
ENDBRANCH   4   5
ENDBRANCH   3   4
ENDBRANCH   2   3
ENDBRANCH   1   2
BRANCH   1   9
ATOM      9  C   UNL     1     -10.048 -17.375  12.329  1.00  0.00     0.000 C 
BRANCH   9  10
ATOM     10  C   UNL     1      -8.999 -17.267  13.444  1.00  0.00    -0.000 C 
BRANCH  10  11
ATOM     11  C   UNL     1      -9.597 -16.615  14.700  1.00  0.00    -0.000 C 
BRANCH  11  12
ATOM     12  C   UNL     1     -11.133 -16.665  14.718  1.00  0.00    -0.000 C 
BRANCH  12  13
ATOM     13  C   UNL     1     -11.691 -17.251  16.023  1.00  0.00    -0.003 C 
ATOM     14  C   UNL     1     -11.651 -18.776  16.002  1.00  0.00     0.004 C 
ENDBRANCH  12  13
ENDBRANCH  11  12
ENDBRANCH  10  11
ENDBRANCH   9  10
ENDBRANCH   1   9
TORSDOF 10
ENDMDL
MODEL 6
REMARK VINA RESULT:    -2.475     13.014     16.410
REMARK INTER + INTRA:          -5.052
REMARK INTER:                  -4.325
REMARK INTRA:                  -0.728
REMARK UNBOUND:                -1.131
REMARK SMILES CCCCCCCCCCCC(=O)[O-]
REMARK SMILES IDX 7 1 8 2 9 3 10 4 11 5 12 6 13 7 14 8 6 9 5 10 4 11 3 12 2 13
REMARK SMILES IDX 1 14
REMARK H PARENT
REMARK Flexibility Score: inf
ROOT
ATOM      1  C   UNL     1      -8.834 -22.177  -3.665  1.00  0.00     0.000 C 
ENDROOT
BRANCH   1   2
ATOM      2  C   UNL     1      -8.451 -20.734  -4.034  1.00  0.00     0.000 C 
BRANCH   2   3
ATOM      3  C   UNL     1      -9.660 -19.784  -4.034  1.00  0.00     0.000 C 
BRANCH   3   4
ATOM      4  C   UNL     1      -9.254 -18.311  -3.868  1.00  0.00     0.006 C 
BRANCH   4   5
ATOM      5  C   UNL     1      -8.045 -18.131  -2.939  1.00  0.00     0.053 C 
BRANCH   5   6
ATOM      6  C   UNL     1      -8.483 -18.123  -1.509  1.00  0.00     0.041 C 
ATOM      7  O   UNL     1      -9.354 -17.303  -1.117  1.00  0.00    -0.550 OA
ATOM      8  O   UNL     1      -7.896 -18.992  -0.597  1.00  0.00    -0.550 OA
ENDBRANCH   5   6
ENDBRANCH   4   5
ENDBRANCH   3   4
ENDBRANCH   2   3
ENDBRANCH   1   2
BRANCH   1   9
ATOM      9  C   UNL     1     -10.346 -22.356  -3.459  1.00  0.00     0.000 C 
BRANCH   9  10
ATOM     10  C   UNL     1     -10.665 -22.690  -1.996  1.00  0.00    -0.000 C 
BRANCH  10  11
ATOM     11  C   UNL     1      -9.625 -22.068  -1.051  1.00  0.00    -0.000 C 
BRANCH  11  12
ATOM     12  C   UNL     1      -8.890 -23.121  -0.206  1.00  0.00    -0.000 C 
BRANCH  12  13
ATOM     13  C   UNL     1      -7.877 -22.498   0.765  1.00  0.00    -0.003 C 
ATOM     14  C   UNL     1      -8.264 -22.772   2.215  1.00  0.00     0.004 C 
ENDBRANCH  12  13
ENDBRANCH  11  12
ENDBRANCH  10  11
ENDBRANCH   9  10
ENDBRANCH   1   9
TORSDOF 10
ENDMDL
MODEL 7
REMARK VINA RESULT:    -2.421      1.489      3.646
REMARK INTER + INTRA:          -4.967
REMARK INTER:                  -4.075
REMARK INTRA:                  -0.892
REMARK UNBOUND:                -1.131
REMARK SMILES CCCCCCCCCCCC(=O)[O-]
REMARK SMILES IDX 7 1 8 2 9 3 10 4 11 5 12 6 13 7 14 8 6 9 5 10 4 11 3 12 2 13
REMARK SMILES IDX 1 14
REMARK H PARENT
REMARK Flexibility Score: inf
ROOT
ATOM      1  C   UNL     1      -9.036 -20.504  11.914  1.00  0.00     0.000 C 
ENDROOT
BRANCH   1   2
ATOM      2  C   UNL     1     -10.082 -21.269  12.741  1.00  0.00     0.000 C 
BRANCH   2   3
ATOM      3  C   UNL     1     -10.096 -20.840  14.217  1.00  0.00     0.000 C 
BRANCH   3   4
ATOM      4  C   UNL     1     -11.393 -21.244  14.937  1.00  0.00     0.006 C 
BRANCH   4   5
ATOM      5  C   UNL     1     -12.295 -22.139  14.075  1.00  0.00     0.053 C 
BRANCH   5   6
ATOM      6  C   UNL     1     -13.706 -22.084  14.568  1.00  0.00     0.041 C 
ATOM      7  O   UNL     1     -14.092 -21.120  15.279  1.00  0.00    -0.550 OA
ATOM      8  O   UNL     1     -14.583 -23.123  14.281  1.00  0.00    -0.550 OA
ENDBRANCH   5   6
ENDBRANCH   4   5
ENDBRANCH   3   4
ENDBRANCH   2   3
ENDBRANCH   1   2
BRANCH   1   9
ATOM      9  C   UNL     1      -9.668 -19.493  10.945  1.00  0.00     0.000 C 
BRANCH   9  10
ATOM     10  C   UNL     1      -9.098 -18.087  11.169  1.00  0.00    -0.000 C 
BRANCH  10  11
ATOM     11  C   UNL     1     -10.100 -17.201  11.926  1.00  0.00    -0.000 C 
BRANCH  11  12
ATOM     12  C   UNL     1      -9.969 -17.331  13.452  1.00  0.00    -0.000 C 
BRANCH  12  13
ATOM     13  C   UNL     1     -11.081 -16.588  14.206  1.00  0.00    -0.003 C 
ATOM     14  C   UNL     1     -11.433 -17.301  15.509  1.00  0.00     0.004 C 
ENDBRANCH  12  13
ENDBRANCH  11  12
ENDBRANCH  10  11
ENDBRANCH   9  10
ENDBRANCH   1   9
TORSDOF 10
ENDMDL
MODEL 8
REMARK VINA RESULT:    -2.250     15.688     17.269
REMARK INTER + INTRA:          -4.695
REMARK INTER:                  -4.253
REMARK INTRA:                  -0.443
REMARK UNBOUND:                -1.131
REMARK SMILES CCCCCCCCCCCC(=O)[O-]
REMARK SMILES IDX 7 1 8 2 9 3 10 4 11 5 12 6 13 7 14 8 6 9 5 10 4 11 3 12 2 13
REMARK SMILES IDX 1 14
REMARK H PARENT
REMARK Flexibility Score: inf
ROOT
ATOM      1  C   UNL     1      -9.601 -19.012  -1.810  1.00  0.00     0.000 C 
ENDROOT
BRANCH   1   2
ATOM      2  C   UNL     1      -9.003 -17.637  -1.471  1.00  0.00     0.000 C 
BRANCH   2   3
ATOM      3  C   UNL     1      -8.964 -16.694  -2.686  1.00  0.00     0.000 C 
BRANCH   3   4
ATOM      4  C   UNL     1      -7.875 -15.617  -2.561  1.00  0.00     0.006 C 
BRANCH   4   5
ATOM      5  C   UNL     1      -8.120 -14.418  -3.488  1.00  0.00     0.053 C 
BRANCH   5   6
ATOM      6  C   UNL     1      -8.063 -13.140  -2.713  1.00  0.00     0.041 C 
ATOM      7  O   UNL     1      -7.945 -13.163  -1.460  1.00  0.00    -0.550 OA
ATOM      8  O   UNL     1      -8.187 -11.922  -3.370  1.00  0.00    -0.550 OA
ENDBRANCH   5   6
ENDBRANCH   4   5
ENDBRANCH   3   4
ENDBRANCH   2   3
ENDBRANCH   1   2
BRANCH   1   9
ATOM      9  C   UNL     1      -8.565 -20.145  -1.740  1.00  0.00     0.000 C 
BRANCH   9  10
ATOM     10  C   UNL     1      -8.247 -20.685  -3.140  1.00  0.00    -0.000 C 
BRANCH  10  11
ATOM     11  C   UNL     1      -8.199 -22.221  -3.139  1.00  0.00    -0.000 C 
BRANCH  11  12
ATOM     12  C   UNL     1      -9.203 -22.845  -4.120  1.00  0.00    -0.000 C 
BRANCH  12  13
ATOM     13  C   UNL     1     -10.580 -23.087  -3.484  1.00  0.00    -0.003 C 
ATOM     14  C   UNL     1     -10.483 -23.122  -1.961  1.00  0.00     0.004 C 
ENDBRANCH  12  13
ENDBRANCH  11  12
ENDBRANCH  10  11
ENDBRANCH   9  10
ENDBRANCH   1   9
TORSDOF 10
ENDMDL
MODEL 9
REMARK VINA RESULT:    -2.220     14.978     16.695
REMARK INTER + INTRA:          -4.649
REMARK INTER:                  -3.996
REMARK INTRA:                  -0.653
REMARK UNBOUND:                -1.131
REMARK SMILES CCCCCCCCCCCC(=O)[O-]
REMARK SMILES IDX 7 1 8 2 9 3 10 4 11 5 12 6 13 7 14 8 6 9 5 10 4 11 3 12 2 13
REMARK SMILES IDX 1 14
REMARK H PARENT
REMARK Flexibility Score: inf
ROOT
ATOM      1  C   UNL     1      -9.838 -17.994  -1.112  1.00  0.00     0.000 C 
ENDROOT
BRANCH   1   2
ATOM      2  C   UNL     1     -10.066 -19.261  -1.953  1.00  0.00     0.000 C 
BRANCH   2   3
ATOM      3  C   UNL     1      -8.800 -19.707  -2.704  1.00  0.00     0.000 C 
BRANCH   3   4
ATOM      4  C   UNL     1      -9.117 -20.589  -3.922  1.00  0.00     0.006 C 
BRANCH   4   5
ATOM      5  C   UNL     1     -10.090 -21.729  -3.591  1.00  0.00     0.053 C 
BRANCH   5   6
ATOM      6  C   UNL     1      -9.457 -22.693  -2.638  1.00  0.00     0.041 C 
ATOM      7  O   UNL     1     -10.088 -23.087  -1.623  1.00  0.00    -0.550 OA
ATOM      8  O   UNL     1      -8.151 -23.120  -2.845  1.00  0.00    -0.550 OA
ENDBRANCH   5   6
ENDBRANCH   4   5
ENDBRANCH   3   4
ENDBRANCH   2   3
ENDBRANCH   1   2
BRANCH   1   9
ATOM      9  C   UNL     1      -8.426 -17.412  -1.285  1.00  0.00     0.000 C 
BRANCH   9  10
ATOM     10  C   UNL     1      -8.478 -16.040  -1.969  1.00  0.00    -0.000 C 
BRANCH  10  11
ATOM     11  C   UNL     1      -7.945 -16.122  -3.407  1.00  0.00    -0.000 C 
BRANCH  11  12
ATOM     12  C   UNL     1      -7.876 -14.747  -4.092  1.00  0.00    -0.000 C 
BRANCH  12  13
ATOM     13  C   UNL     1      -8.243 -13.596  -3.145  1.00  0.00    -0.003 C 
ATOM     14  C   UNL     1      -8.929 -12.461  -3.899  1.00  0.00     0.004 C 
ENDBRANCH  12  13
ENDBRANCH  11  12
ENDBRANCH  10  11
ENDBRANCH   9  10
ENDBRANCH   1   9
TORSDOF 10
ENDMDL
