MODEL 1
REMARK VINA RESULT:    -6.141      0.000      0.000
REMARK INTER + INTRA:          -7.700
REMARK INTER:                  -7.397
REMARK INTRA:                  -0.303
REMARK UNBOUND:                -0.303
REMARK SMILES O=c1c(O)c(-c2ccc(O)cc2O)oc2cc(O)cc(O)c12
REMARK SMILES IDX 5 1 3 2 2 3 1 4 22 5 20 6 19 7 17 8 16 9 15 10 14 11 6 12
REMARK SMILES IDX 8 13 7 14 9 15 11 16 12 17 10 18 13 20 4 22 21 24 18 26
REMARK H PARENT 10 19 13 21 4 23 21 25 18 27
REMARK Flexibility Score: inf
ROOT
ATOM      1  C   UNL     1      15.475  -7.488 -31.269  1.00  0.00     0.184 A 
ATOM      2  C   UNL     1      14.906  -7.162 -32.509  1.00  0.00     0.208 A 
ATOM      3  C   UNL     1      15.749  -6.784 -33.566  1.00  0.00     0.238 A 
ATOM      4  O   UNL     1      15.239  -6.546 -34.691  1.00  0.00    -0.285 OA
ATOM      5  C   UNL     1      17.149  -6.721 -33.361  1.00  0.00     0.111 A 
ATOM      6  C   UNL     1      18.095  -6.311 -34.348  1.00  0.00     0.134 A 
ATOM      7  C   UNL     1      19.465  -6.411 -34.076  1.00  0.00     0.093 A 
ATOM      8  C   UNL     1      19.921  -6.844 -32.829  1.00  0.00     0.123 A 
ATOM      9  C   UNL     1      19.005  -7.190 -31.838  1.00  0.00     0.094 A 
ATOM     10  C   UNL     1      17.633  -7.135 -32.092  1.00  0.00     0.146 A 
ATOM     11  O   UNL     1      16.794  -7.484 -31.124  1.00  0.00    -0.451 OA
ENDROOT
BRANCH   1  12
ATOM     12  C   UNL     1      14.643  -7.878 -30.110  1.00  0.00     0.063 A 
ATOM     13  C   UNL     1      13.972  -9.586 -28.516  1.00  0.00     0.047 A 
ATOM     14  C   UNL     1      14.741  -9.186 -29.612  1.00  0.00     0.020 A 
ATOM     15  C   UNL     1      13.106  -8.678 -27.896  1.00  0.00     0.119 A 
ATOM     16  C   UNL     1      13.019  -7.366 -28.371  1.00  0.00     0.093 A 
ATOM     17  C   UNL     1      13.791  -6.955 -29.467  1.00  0.00     0.130 A 
BRANCH  15  18
ATOM     18  O   UNL     1      12.333  -9.067 -26.804  1.00  0.00    -0.508 OA
ATOM     19  H   UNL     1      12.748  -9.244 -25.897  1.00  0.00     0.293 HD
ENDBRANCH  15  18
BRANCH  17  20
ATOM     20  O   UNL     1      13.731  -5.631 -29.901  1.00  0.00    -0.507 OA
ATOM     21  H   UNL     1      12.858  -5.115 -29.917  1.00  0.00     0.293 HD
ENDBRANCH  17  20
ENDBRANCH   1  12
BRANCH   2  22
ATOM     22  O   UNL     1      13.523  -7.252 -32.689  1.00  0.00    -0.502 OA
ATOM     23  H   UNL     1      12.977  -8.024 -32.327  1.00  0.00     0.293 HD
ENDBRANCH   2  22
BRANCH   6  24
ATOM     24  O   UNL     1      17.744  -5.778 -35.592  1.00  0.00    -0.507 OA
ATOM     25  H   UNL     1      17.123  -4.994 -35.726  1.00  0.00     0.293 HD
ENDBRANCH   6  24
BRANCH   8  26
ATOM     26  O   UNL     1      21.286  -6.926 -32.561  1.00  0.00    -0.508 OA
ATOM     27  H   UNL     1      21.802  -7.788 -32.695  1.00  0.00     0.293 HD
ENDBRANCH   8  26
TORSDOF 6
ENDMDL
MODEL 2
REMARK VINA RESULT:    -5.950      1.510      6.639
REMARK INTER + INTRA:          -7.471
REMARK INTER:                  -7.092
REMARK INTRA:                  -0.379
REMARK UNBOUND:                -0.303
REMARK SMILES O=c1c(O)c(-c2ccc(O)cc2O)oc2cc(O)cc(O)c12
REMARK SMILES IDX 5 1 3 2 2 3 1 4 22 5 20 6 19 7 17 8 16 9 15 10 14 11 6 12
REMARK SMILES IDX 8 13 7 14 9 15 11 16 12 17 10 18 13 20 4 22 21 24 18 26
REMARK H PARENT 10 19 13 21 4 23 21 25 18 27
REMARK Flexibility Score: inf
ROOT
ATOM      1  C   UNL     1      16.570  -6.849 -30.764  1.00  0.00     0.184 A 
ATOM      2  C   UNL     1      15.710  -5.742 -30.702  1.00  0.00     0.208 A 
ATOM      3  C   UNL     1      14.509  -5.853 -29.983  1.00  0.00     0.238 A 
ATOM      4  O   UNL     1      13.768  -4.842 -29.885  1.00  0.00    -0.285 OA
ATOM      5  C   UNL     1      14.178  -7.077 -29.351  1.00  0.00     0.111 A 
ATOM      6  C   UNL     1      12.970  -7.316 -28.631  1.00  0.00     0.134 A 
ATOM      7  C   UNL     1      12.805  -8.520 -27.937  1.00  0.00     0.093 A 
ATOM      8  C   UNL     1      13.779  -9.521 -27.992  1.00  0.00     0.123 A 
ATOM      9  C   UNL     1      14.936  -9.321 -28.741  1.00  0.00     0.094 A 
ATOM     10  C   UNL     1      15.145  -8.115 -29.414  1.00  0.00     0.146 A 
ATOM     11  O   UNL     1      16.267  -7.961 -30.108  1.00  0.00    -0.451 OA
ENDROOT
BRANCH   1  12
ATOM     12  C   UNL     1      17.842  -6.804 -31.517  1.00  0.00     0.063 A 
ATOM     13  C   UNL     1      20.263  -6.586 -31.494  1.00  0.00     0.047 A 
ATOM     14  C   UNL     1      19.043  -6.628 -30.813  1.00  0.00     0.020 A 
ATOM     15  C   UNL     1      20.297  -6.733 -32.886  1.00  0.00     0.119 A 
ATOM     16  C   UNL     1      19.107  -6.932 -33.592  1.00  0.00     0.093 A 
ATOM     17  C   UNL     1      17.879  -6.981 -32.917  1.00  0.00     0.130 A 
BRANCH  15  18
ATOM     18  O   UNL     1      21.507  -6.689 -33.575  1.00  0.00    -0.508 OA
ATOM     19  H   UNL     1      22.361  -6.379 -33.127  1.00  0.00     0.293 HD
ENDBRANCH  15  18
BRANCH  17  20
ATOM     20  O   UNL     1      16.705  -7.228 -33.627  1.00  0.00    -0.507 OA
ATOM     21  H   UNL     1      15.798  -6.950 -33.269  1.00  0.00     0.293 HD
ENDBRANCH  17  20
ENDBRANCH   1  12
BRANCH   2  22
ATOM     22  O   UNL     1      16.071  -4.541 -31.319  1.00  0.00    -0.502 OA
ATOM     23  H   UNL     1      16.947  -4.426 -31.814  1.00  0.00     0.293 HD
ENDBRANCH   2  22
BRANCH   6  24
ATOM     24  O   UNL     1      11.897  -6.421 -28.588  1.00  0.00    -0.507 OA
ATOM     25  H   UNL     1      11.930  -5.504 -28.169  1.00  0.00     0.293 HD
ENDBRANCH   6  24
BRANCH   8  26
ATOM     26  O   UNL     1      13.601 -10.724 -27.311  1.00  0.00    -0.508 OA
ATOM     27  H   UNL     1      14.035 -10.893 -26.411  1.00  0.00     0.293 HD
ENDBRANCH   8  26
TORSDOF 6
ENDMDL
MODEL 3
REMARK VINA RESULT:    -5.703      1.580      6.612
REMARK INTER + INTRA:          -7.172
REMARK INTER:                  -6.896
REMARK INTRA:                  -0.276
REMARK UNBOUND:                -0.303
REMARK SMILES O=c1c(O)c(-c2ccc(O)cc2O)oc2cc(O)cc(O)c12
REMARK SMILES IDX 5 1 3 2 2 3 1 4 22 5 20 6 19 7 17 8 16 9 15 10 14 11 6 12
REMARK SMILES IDX 8 13 7 14 9 15 11 16 12 17 10 18 13 20 4 22 21 24 18 26
REMARK H PARENT 10 19 13 21 4 23 21 25 18 27
REMARK Flexibility Score: inf
ROOT
ATOM      1  C   UNL     1      14.852  -7.564 -31.181  1.00  0.00     0.184 A 
ATOM      2  C   UNL     1      13.778  -6.788 -30.717  1.00  0.00     0.208 A 
ATOM      3  C   UNL     1      13.168  -7.129 -29.500  1.00  0.00     0.238 A 
ATOM      4  O   UNL     1      12.242  -6.399 -29.062  1.00  0.00    -0.285 OA
ATOM      5  C   UNL     1      13.630  -8.254 -28.772  1.00  0.00     0.111 A 
ATOM      6  C   UNL     1      13.060  -8.716 -27.549  1.00  0.00     0.134 A 
ATOM      7  C   UNL     1      13.679  -9.759 -26.849  1.00  0.00     0.093 A 
ATOM      8  C   UNL     1      14.809 -10.400 -27.363  1.00  0.00     0.123 A 
ATOM      9  C   UNL     1      15.338  -9.995 -28.586  1.00  0.00     0.094 A 
ATOM     10  C   UNL     1      14.764  -8.933 -29.290  1.00  0.00     0.146 A 
ATOM     11  O   UNL     1      15.306  -8.571 -30.447  1.00  0.00    -0.451 OA
ENDROOT
BRANCH   1  12
ATOM     12  C   UNL     1      15.528  -7.268 -32.462  1.00  0.00     0.063 A 
ATOM     13  C   UNL     1      15.366  -6.908 -34.861  1.00  0.00     0.047 A 
ATOM     14  C   UNL     1      14.759  -7.190 -33.634  1.00  0.00     0.020 A 
ATOM     15  C   UNL     1      16.746  -6.687 -34.929  1.00  0.00     0.119 A 
ATOM     16  C   UNL     1      17.516  -6.740 -33.763  1.00  0.00     0.093 A 
ATOM     17  C   UNL     1      16.915  -7.017 -32.526  1.00  0.00     0.130 A 
BRANCH  15  18
ATOM     18  O   UNL     1      17.362  -6.407 -36.147  1.00  0.00    -0.508 OA
ATOM     19  H   UNL     1      18.057  -7.028 -36.543  1.00  0.00     0.293 HD
ENDBRANCH  15  18
BRANCH  17  20
ATOM     20  O   UNL     1      17.686  -7.019 -31.364  1.00  0.00    -0.507 OA
ATOM     21  H   UNL     1      18.017  -6.158 -30.945  1.00  0.00     0.293 HD
ENDBRANCH  17  20
ENDBRANCH   1  12
BRANCH   2  22
ATOM     22  O   UNL     1      13.356  -5.673 -31.446  1.00  0.00    -0.502 OA
ATOM     23  H   UNL     1      13.984  -5.138 -32.033  1.00  0.00     0.293 HD
ENDBRANCH   2  22
BRANCH   6  24
ATOM     24  O   UNL     1      11.882  -8.207 -26.994  1.00  0.00    -0.507 OA
ATOM     25  H   UNL     1      11.267  -8.721 -26.381  1.00  0.00     0.293 HD
ENDBRANCH   6  24
BRANCH   8  26
ATOM     26  O   UNL     1      15.410 -11.448 -26.669  1.00  0.00    -0.508 OA
ATOM     27  H   UNL     1      16.415 -11.493 -26.542  1.00  0.00     0.293 HD
ENDBRANCH   8  26
TORSDOF 6
ENDMDL
MODEL 4
REMARK VINA RESULT:    -5.661      2.075      6.742
REMARK INTER + INTRA:          -7.122
REMARK INTER:                  -6.707
REMARK INTRA:                  -0.415
REMARK UNBOUND:                -0.303
REMARK SMILES O=c1c(O)c(-c2ccc(O)cc2O)oc2cc(O)cc(O)c12
REMARK SMILES IDX 5 1 3 2 2 3 1 4 22 5 20 6 19 7 17 8 16 9 15 10 14 11 6 12
REMARK SMILES IDX 8 13 7 14 9 15 11 16 12 17 10 18 13 20 4 22 21 24 18 26
REMARK H PARENT 10 19 13 21 4 23 21 25 18 27
REMARK Flexibility Score: inf
ROOT
ATOM      1  C   UNL     1      15.724  -6.625 -30.758  1.00  0.00     0.184 A 
ATOM      2  C   UNL     1      15.189  -7.610 -29.913  1.00  0.00     0.208 A 
ATOM      3  C   UNL     1      13.904  -7.423 -29.377  1.00  0.00     0.238 A 
ATOM      4  O   UNL     1      13.408  -8.333 -28.665  1.00  0.00    -0.285 OA
ATOM      5  C   UNL     1      13.181  -6.243 -29.681  1.00  0.00     0.111 A 
ATOM      6  C   UNL     1      11.890  -5.929 -29.162  1.00  0.00     0.134 A 
ATOM      7  C   UNL     1      11.213  -4.797 -29.632  1.00  0.00     0.093 A 
ATOM      8  C   UNL     1      11.809  -3.933 -30.553  1.00  0.00     0.123 A 
ATOM      9  C   UNL     1      13.093  -4.199 -31.021  1.00  0.00     0.094 A 
ATOM     10  C   UNL     1      13.779  -5.340 -30.599  1.00  0.00     0.146 A 
ATOM     11  O   UNL     1      14.998  -5.562 -31.078  1.00  0.00    -0.451 OA
ENDROOT
BRANCH   1  12
ATOM     12  C   UNL     1      17.076  -6.753 -31.341  1.00  0.00     0.063 A 
ATOM     13  C   UNL     1      19.486  -6.755 -31.019  1.00  0.00     0.047 A 
ATOM     14  C   UNL     1      18.194  -6.634 -30.500  1.00  0.00     0.020 A 
ATOM     15  C   UNL     1      19.676  -7.010 -32.382  1.00  0.00     0.119 A 
ATOM     16  C   UNL     1      18.568  -7.153 -33.222  1.00  0.00     0.093 A 
ATOM     17  C   UNL     1      17.267  -7.039 -32.710  1.00  0.00     0.130 A 
BRANCH  15  18
ATOM     18  O   UNL     1      20.960  -7.129 -32.910  1.00  0.00    -0.508 OA
ATOM     19  H   UNL     1      21.781  -6.906 -32.361  1.00  0.00     0.293 HD
ENDBRANCH  15  18
BRANCH  17  20
ATOM     20  O   UNL     1      16.171  -7.231 -33.549  1.00  0.00    -0.507 OA
ATOM     21  H   UNL     1      16.284  -7.517 -34.516  1.00  0.00     0.293 HD
ENDBRANCH  17  20
ENDBRANCH   1  12
BRANCH   2  22
ATOM     22  O   UNL     1      15.917  -8.773 -29.645  1.00  0.00    -0.502 OA
ATOM     23  H   UNL     1      16.813  -8.756 -29.173  1.00  0.00     0.293 HD
ENDBRANCH   2  22
BRANCH   6  24
ATOM     24  O   UNL     1      11.243  -6.675 -28.172  1.00  0.00    -0.507 OA
ATOM     25  H   UNL     1      11.138  -7.678 -28.186  1.00  0.00     0.293 HD
ENDBRANCH   6  24
BRANCH   8  26
ATOM     26  O   UNL     1      11.135  -2.800 -31.004  1.00  0.00    -0.508 OA
ATOM     27  H   UNL     1      10.140  -2.816 -31.196  1.00  0.00     0.293 HD
ENDBRANCH   8  26
TORSDOF 6
ENDMDL
MODEL 5
REMARK VINA RESULT:    -5.624      2.512      6.968
REMARK INTER + INTRA:          -7.078
REMARK INTER:                  -6.673
REMARK INTRA:                  -0.405
REMARK UNBOUND:                -0.303
REMARK SMILES O=c1c(O)c(-c2ccc(O)cc2O)oc2cc(O)cc(O)c12
REMARK SMILES IDX 5 1 3 2 2 3 1 4 22 5 20 6 19 7 17 8 16 9 15 10 14 11 6 12
REMARK SMILES IDX 8 13 7 14 9 15 11 16 12 17 10 18 13 20 4 22 21 24 18 26
REMARK H PARENT 10 19 13 21 4 23 21 25 18 27
REMARK Flexibility Score: inf
ROOT
ATOM      1  C   UNL     1      17.020  -5.459 -30.956  1.00  0.00     0.184 A 
ATOM      2  C   UNL     1      16.948  -4.562 -29.880  1.00  0.00     0.208 A 
ATOM      3  C   UNL     1      15.719  -4.382 -29.225  1.00  0.00     0.238 A 
ATOM      4  O   UNL     1      15.672  -3.618 -28.226  1.00  0.00    -0.285 OA
ATOM      5  C   UNL     1      14.575  -5.090 -29.669  1.00  0.00     0.111 A 
ATOM      6  C   UNL     1      13.271  -4.955 -29.107  1.00  0.00     0.134 A 
ATOM      7  C   UNL     1      12.241  -5.800 -29.539  1.00  0.00     0.093 A 
ATOM      8  C   UNL     1      12.454  -6.730 -30.560  1.00  0.00     0.123 A 
ATOM      9  C   UNL     1      13.709  -6.829 -31.156  1.00  0.00     0.094 A 
ATOM     10  C   UNL     1      14.765  -6.025 -30.721  1.00  0.00     0.146 A 
ATOM     11  O   UNL     1      15.949  -6.158 -31.309  1.00  0.00    -0.451 OA
ENDROOT
BRANCH   1  12
ATOM     12  C   UNL     1      18.279  -5.682 -31.699  1.00  0.00     0.063 A 
ATOM     13  C   UNL     1      20.267  -7.035 -32.059  1.00  0.00     0.047 A 
ATOM     14  C   UNL     1      19.073  -6.792 -31.373  1.00  0.00     0.020 A 
ATOM     15  C   UNL     1      20.672  -6.179 -33.088  1.00  0.00     0.119 A 
ATOM     16  C   UNL     1      19.876  -5.084 -33.435  1.00  0.00     0.093 A 
ATOM     17  C   UNL     1      18.674  -4.835 -32.756  1.00  0.00     0.130 A 
BRANCH  15  18
ATOM     18  O   UNL     1      21.862  -6.410 -33.776  1.00  0.00    -0.508 OA
ATOM     19  H   UNL     1      22.088  -7.323 -34.152  1.00  0.00     0.293 HD
ENDBRANCH  15  18
BRANCH  17  20
ATOM     20  O   UNL     1      17.865  -3.768 -33.144  1.00  0.00    -0.507 OA
ATOM     21  H   UNL     1      17.202  -3.853 -33.907  1.00  0.00     0.293 HD
ENDBRANCH  17  20
ENDBRANCH   1  12
BRANCH   2  22
ATOM     22  O   UNL     1      18.097  -3.891 -29.451  1.00  0.00    -0.502 OA
ATOM     23  H   UNL     1      18.863  -3.672 -30.076  1.00  0.00     0.293 HD
ENDBRANCH   2  22
BRANCH   6  24
ATOM     24  O   UNL     1      12.929  -3.997 -28.148  1.00  0.00    -0.507 OA
ATOM     25  H   UNL     1      13.476  -3.177 -27.934  1.00  0.00     0.293 HD
ENDBRANCH   6  24
BRANCH   8  26
ATOM     26  O   UNL     1      11.420  -7.557 -30.995  1.00  0.00    -0.508 OA
ATOM     27  H   UNL     1      11.480  -8.565 -30.917  1.00  0.00     0.293 HD
ENDBRANCH   8  26
TORSDOF 6
ENDMDL
MODEL 6
REMARK VINA RESULT:    -5.432      2.076      6.601
REMARK INTER + INTRA:          -6.846
REMARK INTER:                  -6.443
REMARK INTRA:                  -0.403
REMARK UNBOUND:                -0.303
REMARK SMILES O=c1c(O)c(-c2ccc(O)cc2O)oc2cc(O)cc(O)c12
REMARK SMILES IDX 5 1 3 2 2 3 1 4 22 5 20 6 19 7 17 8 16 9 15 10 14 11 6 12
REMARK SMILES IDX 8 13 7 14 9 15 11 16 12 17 10 18 13 20 4 22 21 24 18 26
REMARK H PARENT 10 19 13 21 4 23 21 25 18 27
REMARK Flexibility Score: inf
ROOT
ATOM      1  C   UNL     1      16.439  -6.767 -32.045  1.00  0.00     0.184 A 
ATOM      2  C   UNL     1      15.953  -6.184 -30.865  1.00  0.00     0.208 A 
ATOM      3  C   UNL     1      14.596  -6.339 -30.538  1.00  0.00     0.238 A 
ATOM      4  O   UNL     1      14.178  -5.861 -29.452  1.00  0.00    -0.285 OA
ATOM      5  C   UNL     1      13.742  -7.061 -31.406  1.00  0.00     0.111 A 
ATOM      6  C   UNL     1      12.343  -7.246 -31.196  1.00  0.00     0.134 A 
ATOM      7  C   UNL     1      11.621  -8.087 -32.052  1.00  0.00     0.093 A 
ATOM      8  C   UNL     1      12.235  -8.697 -33.149  1.00  0.00     0.123 A 
ATOM      9  C   UNL     1      13.588  -8.476 -33.397  1.00  0.00     0.094 A 
ATOM     10  C   UNL     1      14.342  -7.671 -32.540  1.00  0.00     0.146 A 
ATOM     11  O   UNL     1      15.631  -7.494 -32.806  1.00  0.00    -0.451 OA
ENDROOT
BRANCH   1  12
ATOM     12  C   UNL     1      17.853  -6.628 -32.455  1.00  0.00     0.063 A 
ATOM     13  C   UNL     1      20.187  -7.207 -32.097  1.00  0.00     0.047 A 
ATOM     14  C   UNL     1      18.842  -7.314 -31.733  1.00  0.00     0.020 A 
ATOM     15  C   UNL     1      20.557  -6.426 -33.197  1.00  0.00     0.119 A 
ATOM     16  C   UNL     1      19.577  -5.758 -33.937  1.00  0.00     0.093 A 
ATOM     17  C   UNL     1      18.224  -5.863 -33.582  1.00  0.00     0.130 A 
BRANCH  15  18
ATOM     18  O   UNL     1      21.896  -6.310 -33.568  1.00  0.00    -0.508 OA
ATOM     19  H   UNL     1      22.546  -7.077 -33.448  1.00  0.00     0.293 HD
ENDBRANCH  15  18
BRANCH  17  20
ATOM     20  O   UNL     1      17.251  -5.231 -34.356  1.00  0.00    -0.507 OA
ATOM     21  H   UNL     1      16.572  -4.600 -33.946  1.00  0.00     0.293 HD
ENDBRANCH  17  20
ENDBRANCH   1  12
BRANCH   2  22
ATOM     22  O   UNL     1      16.823  -5.493 -30.017  1.00  0.00    -0.502 OA
ATOM     23  H   UNL     1      17.781  -5.785 -29.865  1.00  0.00     0.293 HD
ENDBRANCH   2  22
BRANCH   6  24
ATOM     24  O   UNL     1      11.614  -6.611 -30.187  1.00  0.00    -0.507 OA
ATOM     25  H   UNL     1      10.764  -6.088 -30.334  1.00  0.00     0.293 HD
ENDBRANCH   6  24
BRANCH   8  26
ATOM     26  O   UNL     1      11.506  -9.521 -34.004  1.00  0.00    -0.508 OA
ATOM     27  H   UNL     1      10.690  -9.181 -34.499  1.00  0.00     0.293 HD
ENDBRANCH   8  26
TORSDOF 6
ENDMDL
MODEL 7
REMARK VINA RESULT:    -5.363      2.354      3.599
REMARK INTER + INTRA:          -6.763
REMARK INTER:                  -6.458
REMARK INTRA:                  -0.305
REMARK UNBOUND:                -0.303
REMARK SMILES O=c1c(O)c(-c2ccc(O)cc2O)oc2cc(O)cc(O)c12
REMARK SMILES IDX 5 1 3 2 2 3 1 4 22 5 20 6 19 7 17 8 16 9 15 10 14 11 6 12
REMARK SMILES IDX 8 13 7 14 9 15 11 16 12 17 10 18 13 20 4 22 21 24 18 26
REMARK H PARENT 10 19 13 21 4 23 21 25 18 27
REMARK Flexibility Score: inf
ROOT
ATOM      1  C   UNL     1      15.248  -7.212 -31.751  1.00  0.00     0.184 A 
ATOM      2  C   UNL     1      15.095  -6.123 -30.881  1.00  0.00     0.208 A 
ATOM      3  C   UNL     1      16.224  -5.360 -30.539  1.00  0.00     0.238 A 
ATOM      4  O   UNL     1      16.072  -4.352 -29.803  1.00  0.00    -0.285 OA
ATOM      5  C   UNL     1      17.493  -5.711 -31.060  1.00  0.00     0.111 A 
ATOM      6  C   UNL     1      18.711  -5.035 -30.750  1.00  0.00     0.134 A 
ATOM      7  C   UNL     1      19.887  -5.386 -31.424  1.00  0.00     0.093 A 
ATOM      8  C   UNL     1      19.902  -6.433 -32.349  1.00  0.00     0.123 A 
ATOM      9  C   UNL     1      18.731  -7.138 -32.615  1.00  0.00     0.094 A 
ATOM     10  C   UNL     1      17.534  -6.787 -31.986  1.00  0.00     0.146 A 
ATOM     11  O   UNL     1      16.437  -7.478 -32.277  1.00  0.00    -0.451 OA
ENDROOT
BRANCH   1  12
ATOM     12  C   UNL     1      14.104  -8.066 -32.138  1.00  0.00     0.063 A 
ATOM     13  C   UNL     1      12.604  -8.867 -33.875  1.00  0.00     0.047 A 
ATOM     14  C   UNL     1      13.680  -8.069 -33.476  1.00  0.00     0.020 A 
ATOM     15  C   UNL     1      11.950  -9.682 -32.945  1.00  0.00     0.119 A 
ATOM     16  C   UNL     1      12.381  -9.703 -31.615  1.00  0.00     0.093 A 
ATOM     17  C   UNL     1      13.462  -8.909 -31.206  1.00  0.00     0.130 A 
BRANCH  15  18
ATOM     18  O   UNL     1      10.875 -10.480 -33.332  1.00  0.00    -0.508 OA
ATOM     19  H   UNL     1      10.367 -10.304 -34.190  1.00  0.00     0.293 HD
ENDBRANCH  15  18
BRANCH  17  20
ATOM     20  O   UNL     1      13.913  -8.975 -29.888  1.00  0.00    -0.507 OA
ATOM     21  H   UNL     1      13.312  -9.292 -29.136  1.00  0.00     0.293 HD
ENDBRANCH  17  20
ENDBRANCH   1  12
BRANCH   2  22
ATOM     22  O   UNL     1      13.827  -5.788 -30.397  1.00  0.00    -0.502 OA
ATOM     23  H   UNL     1      12.975  -6.109 -30.839  1.00  0.00     0.293 HD
ENDBRANCH   2  22
BRANCH   6  24
ATOM     24  O   UNL     1      18.824  -4.038 -29.777  1.00  0.00    -0.507 OA
ATOM     25  H   UNL     1      19.697  -3.670 -29.431  1.00  0.00     0.293 HD
ENDBRANCH   6  24
BRANCH   8  26
ATOM     26  O   UNL     1      21.080  -6.786 -33.004  1.00  0.00    -0.508 OA
ATOM     27  H   UNL     1      21.153  -7.645 -33.537  1.00  0.00     0.293 HD
ENDBRANCH   8  26
TORSDOF 6
ENDMDL
MODEL 8
REMARK VINA RESULT:    -5.192      2.159      6.507
REMARK INTER + INTRA:          -6.557
REMARK INTER:                  -6.149
REMARK INTRA:                  -0.408
REMARK UNBOUND:                -0.303
REMARK SMILES O=c1c(O)c(-c2ccc(O)cc2O)oc2cc(O)cc(O)c12
REMARK SMILES IDX 5 1 3 2 2 3 1 4 22 5 20 6 19 7 17 8 16 9 15 10 14 11 6 12
REMARK SMILES IDX 8 13 7 14 9 15 11 16 12 17 10 18 13 20 4 22 21 24 18 26
REMARK H PARENT 10 19 13 21 4 23 21 25 18 27
REMARK Flexibility Score: inf
ROOT
ATOM      1  C   UNL     1      16.609  -6.112 -31.702  1.00  0.00     0.184 A 
ATOM      2  C   UNL     1      15.562  -6.798 -32.336  1.00  0.00     0.208 A 
ATOM      3  C   UNL     1      14.272  -6.727 -31.788  1.00  0.00     0.238 A 
ATOM      4  O   UNL     1      13.327  -7.298 -32.391  1.00  0.00    -0.285 OA
ATOM      5  C   UNL     1      14.051  -5.984 -30.603  1.00  0.00     0.111 A 
ATOM      6  C   UNL     1      12.793  -5.876 -29.937  1.00  0.00     0.134 A 
ATOM      7  C   UNL     1      12.662  -5.010 -28.845  1.00  0.00     0.093 A 
ATOM      8  C   UNL     1      13.759  -4.297 -28.355  1.00  0.00     0.123 A 
ATOM      9  C   UNL     1      15.004  -4.440 -28.961  1.00  0.00     0.094 A 
ATOM     10  C   UNL     1      15.159  -5.269 -30.075  1.00  0.00     0.146 A 
ATOM     11  O   UNL     1      16.361  -5.370 -30.630  1.00  0.00    -0.451 OA
ENDROOT
BRANCH   1  12
ATOM     12  C   UNL     1      17.994  -6.159 -32.218  1.00  0.00     0.063 A 
ATOM     13  C   UNL     1      20.174  -7.235 -32.220  1.00  0.00     0.047 A 
ATOM     14  C   UNL     1      18.860  -7.159 -31.750  1.00  0.00     0.020 A 
ATOM     15  C   UNL     1      20.633  -6.320 -33.174  1.00  0.00     0.119 A 
ATOM     16  C   UNL     1      19.770  -5.335 -33.663  1.00  0.00     0.093 A 
ATOM     17  C   UNL     1      18.449  -5.254 -33.201  1.00  0.00     0.130 A 
BRANCH  15  18
ATOM     18  O   UNL     1      21.942  -6.384 -33.648  1.00  0.00    -0.508 OA
ATOM     19  H   UNL     1      22.149  -6.682 -34.594  1.00  0.00     0.293 HD
ENDBRANCH  15  18
BRANCH  17  20
ATOM     20  O   UNL     1      17.584  -4.298 -33.732  1.00  0.00    -0.507 OA
ATOM     21  H   UNL     1      17.681  -3.313 -33.512  1.00  0.00     0.293 HD
ENDBRANCH  17  20
ENDBRANCH   1  12
BRANCH   2  22
ATOM     22  O   UNL     1      15.805  -7.508 -33.515  1.00  0.00    -0.502 OA
ATOM     23  H   UNL     1      16.325  -7.113 -34.290  1.00  0.00     0.293 HD
ENDBRANCH   2  22
BRANCH   6  24
ATOM     24  O   UNL     1      11.658  -6.612 -30.288  1.00  0.00    -0.507 OA
ATOM     25  H   UNL     1      11.551  -7.126 -31.149  1.00  0.00     0.293 HD
ENDBRANCH   6  24
BRANCH   8  26
ATOM     26  O   UNL     1      13.623  -3.448 -27.258  1.00  0.00    -0.508 OA
ATOM     27  H   UNL     1      14.426  -2.999 -26.833  1.00  0.00     0.293 HD
ENDBRANCH   8  26
TORSDOF 6
ENDMDL
