MODEL 1
REMARK VINA RESULT:    -7.853      0.000      0.000
REMARK INTER + INTRA:         -15.273
REMARK INTER:                 -12.903
REMARK INTRA:                  -2.370
REMARK UNBOUND:                -2.370
REMARK SMILES C[C@H]1O[C@H](OC[C@@H]2O[C@H](Oc3c(-c4ccc(O)c(O)c4)oc4cc(O)cc(O)c4c3=O)[C@H](O)[C@@H](O)[C@@H]2O)[C@H](O)[C@@H](O)[C@@H]1O
REMARK SMILES IDX 7 1 36 2 34 3 32 4 9 5 8 6 6 7 5 8 4 9 1 10 2 11 42 12 3 13
REMARK SMILES IDX 40 14 38 15 43 16 41 18 39 20 37 22 35 24 10 26 11 27 12 28
REMARK SMILES IDX 30 29 21 30 29 31 31 32 22 33 27 34 23 35 26 36 24 37 13 38
REMARK SMILES IDX 20 39 14 40 18 41 15 42 16 43 19 44 17 46 28 48 25 50 33 52
REMARK H PARENT 43 17 41 19 39 21 37 23 35 25 19 45 17 47 28 49 25 51 33 53
REMARK Flexibility Score: inf
ROOT
ATOM      1  C   UNL     1     168.588 171.927 189.712  1.00  0.00     0.180 C 
ATOM      2  C   UNL     1     170.033 172.109 190.280  1.00  0.00     0.177 C 
ATOM      3  C   UNL     1     170.953 170.900 189.985  1.00  0.00     0.180 C 
ATOM      4  C   UNL     1     170.745 170.714 188.457  1.00  0.00     0.214 C 
ATOM      5  C   UNL     1     169.437 170.033 188.238  1.00  0.00     0.339 C 
ATOM      6  O   UNL     1     168.368 170.680 188.897  1.00  0.00    -0.332 OA
ENDROOT
BRANCH   1   7
ATOM      7  C   UNL     1     167.592 171.718 190.871  1.00  0.00     0.198 C 
BRANCH   7   8
ATOM      8  O   UNL     1     167.351 173.013 191.571  1.00  0.00    -0.347 OA
BRANCH   8   9
ATOM      9  C   UNL     1     166.827 173.059 192.917  1.00  0.00     0.281 C 
ATOM     10  C   UNL     1     166.683 172.532 195.860  1.00  0.00     0.041 C 
ATOM     11  C   UNL     1     167.438 173.705 195.141  1.00  0.00     0.150 C 
ATOM     12  C   UNL     1     166.552 174.934 195.236  1.00  0.00     0.174 C 
ATOM     13  O   UNL     1     167.883 173.379 193.822  1.00  0.00    -0.344 OA
ATOM     14  C   UNL     1     165.361 174.832 194.296  1.00  0.00     0.179 C 
ATOM     15  C   UNL     1     165.631 174.046 192.912  1.00  0.00     0.202 C 
BRANCH  12  16
ATOM     16  O   UNL     1     167.241 176.124 194.835  1.00  0.00    -0.388 OA
ATOM     17  H   UNL     1     166.749 176.542 194.038  1.00  0.00     0.211 HD
ENDBRANCH  12  16
BRANCH  14  18
ATOM     18  O   UNL     1     164.290 174.343 194.971  1.00  0.00    -0.387 OA
ATOM     19  H   UNL     1     164.181 173.370 194.757  1.00  0.00     0.211 HD
ENDBRANCH  14  18
BRANCH  15  20
ATOM     20  O   UNL     1     165.717 174.937 191.805  1.00  0.00    -0.385 OA
ATOM     21  H   UNL     1     165.105 174.676 191.069  1.00  0.00     0.211 HD
ENDBRANCH  15  20
ENDBRANCH   8   9
ENDBRANCH   7   8
ENDBRANCH   1   7
BRANCH   2  22
ATOM     22  O   UNL     1     170.069 172.604 191.571  1.00  0.00    -0.387 OA
ATOM     23  H   UNL     1     169.819 171.784 192.093  1.00  0.00     0.211 HD
ENDBRANCH   2  22
BRANCH   3  24
ATOM     24  O   UNL     1     172.268 171.100 190.406  1.00  0.00    -0.387 OA
ATOM     25  H   UNL     1     172.312 171.175 191.427  1.00  0.00     0.211 HD
ENDBRANCH   3  24
BRANCH   5  26
ATOM     26  O   UNL     1     169.401 168.552 188.515  1.00  0.00    -0.454 OA
BRANCH  26  27
ATOM     27  C   UNL     1     168.926 167.480 187.711  1.00  0.00     0.214 A 
ATOM     28  C   UNL     1     167.549 167.145 187.233  1.00  0.00     0.180 A 
ATOM     29  C   UNL     1     170.019 166.772 187.083  1.00  0.00     0.239 A 
ATOM     30  O   UNL     1     167.425 166.086 186.455  1.00  0.00    -0.452 OA
ATOM     31  C   UNL     1     169.722 165.986 185.935  1.00  0.00     0.111 A 
ATOM     32  O   UNL     1     171.204 167.175 187.355  1.00  0.00    -0.285 OA
ATOM     33  C   UNL     1     168.458 165.426 185.907  1.00  0.00     0.146 A 
ATOM     34  C   UNL     1     170.616 165.805 184.775  1.00  0.00     0.134 A 
ATOM     35  C   UNL     1     168.128 164.467 185.017  1.00  0.00     0.094 A 
ATOM     36  C   UNL     1     170.081 165.089 183.673  1.00  0.00     0.093 A 
ATOM     37  C   UNL     1     168.974 164.287 183.852  1.00  0.00     0.123 A 
BRANCH  28  38
ATOM     38  C   UNL     1     166.197 167.816 187.595  1.00  0.00     0.025 A 
ATOM     39  C   UNL     1     165.919 168.290 188.905  1.00  0.00     0.062 A 
ATOM     40  C   UNL     1     165.637 168.718 186.687  1.00  0.00     0.016 A 
ATOM     41  C   UNL     1     164.866 169.298 189.148  1.00  0.00     0.158 A 
ATOM     42  C   UNL     1     164.338 169.114 186.864  1.00  0.00     0.051 A 
ATOM     43  C   UNL     1     164.054 169.679 188.070  1.00  0.00     0.157 A 
BRANCH  41  44
ATOM     44  O   UNL     1     164.754 170.009 190.349  1.00  0.00    -0.504 OA
ATOM     45  H   UNL     1     165.637 170.083 190.874  1.00  0.00     0.293 HD
ENDBRANCH  41  44
BRANCH  43  46
ATOM     46  O   UNL     1     163.151 170.732 188.088  1.00  0.00    -0.504 OA
ATOM     47  H   UNL     1     163.258 171.486 187.402  1.00  0.00     0.293 HD
ENDBRANCH  43  46
ENDBRANCH  28  38
BRANCH  34  48
ATOM     48  O   UNL     1     171.865 166.501 184.559  1.00  0.00    -0.507 OA
ATOM     49  H   UNL     1     172.634 166.129 183.989  1.00  0.00     0.293 HD
ENDBRANCH  34  48
BRANCH  37  50
ATOM     50  O   UNL     1     168.516 163.560 182.771  1.00  0.00    -0.508 OA
ATOM     51  H   UNL     1     168.294 164.037 181.873  1.00  0.00     0.293 HD
ENDBRANCH  37  50
ENDBRANCH  26  27
ENDBRANCH   5  26
BRANCH   4  52
ATOM     52  O   UNL     1     171.799 170.000 187.849  1.00  0.00    -0.384 OA
ATOM     53  H   UNL     1     171.426 169.640 187.016  1.00  0.00     0.211 HD
ENDBRANCH   4  52
TORSDOF 16
ENDMDL
MODEL 2
REMARK VINA RESULT:    -7.741      2.131      3.804
REMARK INTER + INTRA:         -15.090
REMARK INTER:                 -13.411
REMARK INTRA:                  -1.679
REMARK UNBOUND:                -2.370
REMARK SMILES C[C@H]1O[C@H](OC[C@@H]2O[C@H](Oc3c(-c4ccc(O)c(O)c4)oc4cc(O)cc(O)c4c3=O)[C@H](O)[C@@H](O)[C@@H]2O)[C@H](O)[C@@H](O)[C@@H]1O
REMARK SMILES IDX 7 1 36 2 34 3 32 4 9 5 8 6 6 7 5 8 4 9 1 10 2 11 42 12 3 13
REMARK SMILES IDX 40 14 38 15 43 16 41 18 39 20 37 22 35 24 10 26 11 27 12 28
REMARK SMILES IDX 30 29 21 30 29 31 31 32 22 33 27 34 23 35 26 36 24 37 13 38
REMARK SMILES IDX 20 39 14 40 18 41 15 42 16 43 19 44 17 46 28 48 25 50 33 52
REMARK H PARENT 43 17 41 19 39 21 37 23 35 25 19 45 17 47 28 49 25 51 33 53
REMARK Flexibility Score: inf
ROOT
ATOM      1  C   UNL     1     166.753 170.094 190.919  1.00  0.00     0.180 C 
ATOM      2  C   UNL     1     165.287 170.222 190.389  1.00  0.00     0.177 C 
ATOM      3  C   UNL     1     165.108 169.636 188.968  1.00  0.00     0.180 C 
ATOM      4  C   UNL     1     165.750 168.230 189.125  1.00  0.00     0.214 C 
ATOM      5  C   UNL     1     167.233 168.382 189.097  1.00  0.00     0.339 C 
ATOM      6  O   UNL     1     167.700 169.343 190.022  1.00  0.00    -0.332 OA
ENDROOT
BRANCH   1   7
ATOM      7  C   UNL     1     167.415 171.487 190.969  1.00  0.00     0.198 C 
BRANCH   7   8
ATOM      8  O   UNL     1     167.238 172.083 192.326  1.00  0.00    -0.347 OA
BRANCH   8   9
ATOM      9  C   UNL     1     167.013 173.499 192.506  1.00  0.00     0.281 C 
ATOM     10  C   UNL     1     166.313 176.315 191.772  1.00  0.00     0.041 C 
ATOM     11  C   UNL     1     165.327 175.176 192.215  1.00  0.00     0.150 C 
ATOM     12  C   UNL     1     165.020 175.398 193.685  1.00  0.00     0.174 C 
ATOM     13  O   UNL     1     165.782 173.862 191.883  1.00  0.00    -0.344 OA
ATOM     14  C   UNL     1     166.202 175.018 194.563  1.00  0.00     0.179 C 
ATOM     15  C   UNL     1     167.100 173.788 194.028  1.00  0.00     0.202 C 
BRANCH  12  16
ATOM     16  O   UNL     1     163.941 174.570 194.138  1.00  0.00    -0.388 OA
ATOM     17  H   UNL     1     163.249 174.483 193.386  1.00  0.00     0.211 HD
ENDBRANCH  12  16
BRANCH  14  18
ATOM     18  O   UNL     1     166.941 176.124 194.831  1.00  0.00    -0.387 OA
ATOM     19  H   UNL     1     166.561 176.905 194.333  1.00  0.00     0.211 HD
ENDBRANCH  14  18
BRANCH  15  20
ATOM     20  O   UNL     1     166.876 172.602 194.781  1.00  0.00    -0.385 OA
ATOM     21  H   UNL     1     167.648 172.379 195.363  1.00  0.00     0.211 HD
ENDBRANCH  15  20
ENDBRANCH   8   9
ENDBRANCH   7   8
ENDBRANCH   1   7
BRANCH   2  22
ATOM     22  O   UNL     1     164.716 171.460 190.617  1.00  0.00    -0.387 OA
ATOM     23  H   UNL     1     165.392 171.869 191.236  1.00  0.00     0.211 HD
ENDBRANCH   2  22
BRANCH   3  24
ATOM     24  O   UNL     1     163.784 169.661 188.531  1.00  0.00    -0.387 OA
ATOM     25  H   UNL     1     163.583 170.537 188.038  1.00  0.00     0.211 HD
ENDBRANCH   3  24
BRANCH   5  26
ATOM     26  O   UNL     1     167.854 168.614 187.745  1.00  0.00    -0.454 OA
BRANCH  26  27
ATOM     27  C   UNL     1     167.818 167.815 186.569  1.00  0.00     0.214 A 
ATOM     28  C   UNL     1     167.156 168.041 185.248  1.00  0.00     0.180 A 
ATOM     29  C   UNL     1     168.792 166.748 186.631  1.00  0.00     0.239 A 
ATOM     30  O   UNL     1     167.338 167.120 184.320  1.00  0.00    -0.452 OA
ATOM     31  C   UNL     1     169.192 166.148 185.405  1.00  0.00     0.111 A 
ATOM     32  O   UNL     1     169.490 166.660 187.702  1.00  0.00    -0.285 OA
ATOM     33  C   UNL     1     168.228 166.118 184.414  1.00  0.00     0.146 A 
ATOM     34  C   UNL     1     170.547 165.649 185.106  1.00  0.00     0.134 A 
ATOM     35  C   UNL     1     168.378 165.369 183.302  1.00  0.00     0.094 A 
ATOM     36  C   UNL     1     170.777 165.205 183.778  1.00  0.00     0.093 A 
ATOM     37  C   UNL     1     169.707 164.890 182.968  1.00  0.00     0.123 A 
BRANCH  28  38
ATOM     38  C   UNL     1     166.190 169.178 184.818  1.00  0.00     0.025 A 
ATOM     39  C   UNL     1     166.255 169.774 183.531  1.00  0.00     0.062 A 
ATOM     40  C   UNL     1     164.842 169.076 185.175  1.00  0.00     0.016 A 
ATOM     41  C   UNL     1     165.101 170.505 182.967  1.00  0.00     0.158 A 
ATOM     42  C   UNL     1     164.038 170.176 185.038  1.00  0.00     0.051 A 
ATOM     43  C   UNL     1     163.984 170.713 183.788  1.00  0.00     0.157 A 
BRANCH  41  44
ATOM     44  O   UNL     1     165.004 170.847 181.612  1.00  0.00    -0.504 OA
ATOM     45  H   UNL     1     164.721 170.066 181.004  1.00  0.00     0.293 HD
ENDBRANCH  41  44
BRANCH  43  46
ATOM     46  O   UNL     1     162.764 171.216 183.358  1.00  0.00    -0.504 OA
ATOM     47  H   UNL     1     161.964 170.578 183.288  1.00  0.00     0.293 HD
ENDBRANCH  43  46
ENDBRANCH  28  38
BRANCH  34  48
ATOM     48  O   UNL     1     171.710 165.812 185.952  1.00  0.00    -0.507 OA
ATOM     49  H   UNL     1     171.843 165.313 186.840  1.00  0.00     0.293 HD
ENDBRANCH  34  48
BRANCH  37  50
ATOM     50  O   UNL     1     169.970 164.406 181.702  1.00  0.00    -0.508 OA
ATOM     51  H   UNL     1     169.894 165.031 180.874  1.00  0.00     0.293 HD
ENDBRANCH  37  50
ENDBRANCH  26  27
ENDBRANCH   5  26
BRANCH   4  52
ATOM     52  O   UNL     1     165.313 167.321 188.140  1.00  0.00    -0.384 OA
ATOM     53  H   UNL     1     164.621 166.777 188.571  1.00  0.00     0.211 HD
ENDBRANCH   4  52
TORSDOF 16
ENDMDL
MODEL 3
REMARK VINA RESULT:    -7.734      2.020      9.784
REMARK INTER + INTRA:         -15.078
REMARK INTER:                 -11.533
REMARK INTRA:                  -3.546
REMARK UNBOUND:                -2.370
REMARK SMILES C[C@H]1O[C@H](OC[C@@H]2O[C@H](Oc3c(-c4ccc(O)c(O)c4)oc4cc(O)cc(O)c4c3=O)[C@H](O)[C@@H](O)[C@@H]2O)[C@H](O)[C@@H](O)[C@@H]1O
REMARK SMILES IDX 7 1 36 2 34 3 32 4 9 5 8 6 6 7 5 8 4 9 1 10 2 11 42 12 3 13
REMARK SMILES IDX 40 14 38 15 43 16 41 18 39 20 37 22 35 24 10 26 11 27 12 28
REMARK SMILES IDX 30 29 21 30 29 31 31 32 22 33 27 34 23 35 26 36 24 37 13 38
REMARK SMILES IDX 20 39 14 40 18 41 15 42 16 43 19 44 17 46 28 48 25 50 33 52
REMARK H PARENT 43 17 41 19 39 21 37 23 35 25 19 45 17 47 28 49 25 51 33 53
REMARK Flexibility Score: inf
ROOT
ATOM      1  C   UNL     1     166.174 171.145 186.539  1.00  0.00     0.180 C 
ATOM      2  C   UNL     1     165.465 170.094 187.455  1.00  0.00     0.177 C 
ATOM      3  C   UNL     1     165.105 170.657 188.850  1.00  0.00     0.180 C 
ATOM      4  C   UNL     1     164.370 171.974 188.477  1.00  0.00     0.214 C 
ATOM      5  C   UNL     1     165.390 172.995 188.102  1.00  0.00     0.339 C 
ATOM      6  O   UNL     1     166.290 172.530 187.117  1.00  0.00    -0.332 OA
ENDROOT
BRANCH   1   7
ATOM      7  C   UNL     1     167.658 170.763 186.355  1.00  0.00     0.198 C 
BRANCH   7   8
ATOM      8  O   UNL     1     167.849 170.100 185.032  1.00  0.00    -0.347 OA
BRANCH   8   9
ATOM      9  C   UNL     1     168.426 168.780 184.924  1.00  0.00     0.281 C 
ATOM     10  C   UNL     1     170.416 166.578 185.315  1.00  0.00     0.041 C 
ATOM     11  C   UNL     1     169.241 166.979 186.276  1.00  0.00     0.150 C 
ATOM     12  C   UNL     1     168.101 166.011 186.016  1.00  0.00     0.174 C 
ATOM     13  O   UNL     1     168.889 168.363 186.207  1.00  0.00    -0.344 OA
ATOM     14  C   UNL     1     167.412 166.308 184.693  1.00  0.00     0.179 C 
ATOM     15  C   UNL     1     167.359 167.864 184.269  1.00  0.00     0.202 C 
BRANCH  12  16
ATOM     16  O   UNL     1     167.069 166.120 187.004  1.00  0.00    -0.388 OA
ATOM     17  H   UNL     1     166.157 166.042 186.544  1.00  0.00     0.211 HD
ENDBRANCH  12  16
BRANCH  14  18
ATOM     18  O   UNL     1     167.940 165.521 183.721  1.00  0.00    -0.387 OA
ATOM     19  H   UNL     1     168.669 164.957 184.112  1.00  0.00     0.211 HD
ENDBRANCH  14  18
BRANCH  15  20
ATOM     20  O   UNL     1     166.056 168.413 184.430  1.00  0.00    -0.385 OA
ATOM     21  H   UNL     1     166.085 169.366 184.706  1.00  0.00     0.211 HD
ENDBRANCH  15  20
ENDBRANCH   8   9
ENDBRANCH   7   8
ENDBRANCH   1   7
BRANCH   2  22
ATOM     22  O   UNL     1     166.055 168.844 187.434  1.00  0.00    -0.387 OA
ATOM     23  H   UNL     1     166.103 168.642 188.416  1.00  0.00     0.211 HD
ENDBRANCH   2  22
BRANCH   3  24
ATOM     24  O   UNL     1     164.387 169.755 189.635  1.00  0.00    -0.387 OA
ATOM     25  H   UNL     1     164.291 168.855 189.152  1.00  0.00     0.211 HD
ENDBRANCH   3  24
BRANCH   5  26
ATOM     26  O   UNL     1     166.145 173.633 189.239  1.00  0.00    -0.454 OA
BRANCH  26  27
ATOM     27  C   UNL     1     166.206 173.277 190.615  1.00  0.00     0.214 A 
ATOM     28  C   UNL     1     167.127 172.360 191.353  1.00  0.00     0.180 A 
ATOM     29  C   UNL     1     165.384 174.154 191.419  1.00  0.00     0.239 A 
ATOM     30  O   UNL     1     166.957 172.261 192.658  1.00  0.00    -0.452 OA
ATOM     31  C   UNL     1     165.664 174.226 192.812  1.00  0.00     0.111 A 
ATOM     32  O   UNL     1     164.724 175.061 190.800  1.00  0.00    -0.285 OA
ATOM     33  C   UNL     1     166.163 173.069 193.380  1.00  0.00     0.146 A 
ATOM     34  C   UNL     1     165.539 175.440 193.641  1.00  0.00     0.134 A 
ATOM     35  C   UNL     1     166.239 172.913 194.718  1.00  0.00     0.094 A 
ATOM     36  C   UNL     1     165.993 175.337 194.982  1.00  0.00     0.093 A 
ATOM     37  C   UNL     1     166.148 174.094 195.556  1.00  0.00     0.123 A 
BRANCH  28  38
ATOM     38  C   UNL     1     168.224 171.415 190.793  1.00  0.00     0.025 A 
ATOM     39  C   UNL     1     167.985 170.032 190.575  1.00  0.00     0.062 A 
ATOM     40  C   UNL     1     169.034 171.878 189.753  1.00  0.00     0.016 A 
ATOM     41  C   UNL     1     168.831 169.244 189.654  1.00  0.00     0.158 A 
ATOM     42  C   UNL     1     170.161 171.170 189.427  1.00  0.00     0.051 A 
ATOM     43  C   UNL     1     169.961 169.864 189.101  1.00  0.00     0.157 A 
BRANCH  41  44
ATOM     44  O   UNL     1     168.466 167.978 189.179  1.00  0.00    -0.504 OA
ATOM     45  H   UNL     1     169.012 167.665 188.364  1.00  0.00     0.293 HD
ENDBRANCH  41  44
BRANCH  43  46
ATOM     46  O   UNL     1     170.747 169.327 188.091  1.00  0.00    -0.504 OA
ATOM     47  H   UNL     1     170.857 169.854 187.219  1.00  0.00     0.293 HD
ENDBRANCH  43  46
ENDBRANCH  28  38
BRANCH  34  48
ATOM     48  O   UNL     1     165.247 176.769 193.149  1.00  0.00    -0.507 OA
ATOM     49  H   UNL     1     165.687 177.621 193.515  1.00  0.00     0.293 HD
ENDBRANCH  34  48
BRANCH  37  50
ATOM     50  O   UNL     1     166.536 174.033 196.880  1.00  0.00    -0.508 OA
ATOM     51  H   UNL     1     165.822 174.013 197.637  1.00  0.00     0.293 HD
ENDBRANCH  37  50
ENDBRANCH  26  27
ENDBRANCH   5  26
BRANCH   4  52
ATOM     52  O   UNL     1     163.538 172.444 189.514  1.00  0.00    -0.384 OA
ATOM     53  H   UNL     1     163.044 171.658 189.832  1.00  0.00     0.211 HD
ENDBRANCH   4  52
TORSDOF 16
ENDMDL
MODEL 4
REMARK VINA RESULT:    -7.608      3.263      9.811
REMARK INTER + INTRA:         -14.870
REMARK INTER:                 -12.219
REMARK INTRA:                  -2.651
REMARK UNBOUND:                -2.370
REMARK SMILES C[C@H]1O[C@H](OC[C@@H]2O[C@H](Oc3c(-c4ccc(O)c(O)c4)oc4cc(O)cc(O)c4c3=O)[C@H](O)[C@@H](O)[C@@H]2O)[C@H](O)[C@@H](O)[C@@H]1O
REMARK SMILES IDX 7 1 36 2 34 3 32 4 9 5 8 6 6 7 5 8 4 9 1 10 2 11 42 12 3 13
REMARK SMILES IDX 40 14 38 15 43 16 41 18 39 20 37 22 35 24 10 26 11 27 12 28
REMARK SMILES IDX 30 29 21 30 29 31 31 32 22 33 27 34 23 35 26 36 24 37 13 38
REMARK SMILES IDX 20 39 14 40 18 41 15 42 16 43 19 44 17 46 28 48 25 50 33 52
REMARK H PARENT 43 17 41 19 39 21 37 23 35 25 19 45 17 47 28 49 25 51 33 53
REMARK Flexibility Score: inf
ROOT
ATOM      1  C   UNL     1     168.807 165.697 183.268  1.00  0.00     0.180 C 
ATOM      2  C   UNL     1     168.031 164.487 183.882  1.00  0.00     0.177 C 
ATOM      3  C   UNL     1     168.022 164.500 185.430  1.00  0.00     0.180 C 
ATOM      4  C   UNL     1     167.549 165.949 185.728  1.00  0.00     0.214 C 
ATOM      5  C   UNL     1     168.701 166.873 185.523  1.00  0.00     0.339 C 
ATOM      6  O   UNL     1     169.314 166.708 184.261  1.00  0.00    -0.332 OA
ENDROOT
BRANCH   1   7
ATOM      7  C   UNL     1     170.123 165.205 182.630  1.00  0.00     0.198 C 
BRANCH   7   8
ATOM      8  O   UNL     1     171.287 165.740 183.395  1.00  0.00    -0.347 OA
BRANCH   8   9
ATOM      9  C   UNL     1     172.538 166.058 182.745  1.00  0.00     0.281 C 
ATOM     10  C   UNL     1     174.894 165.706 180.933  1.00  0.00     0.041 C 
ATOM     11  C   UNL     1     173.498 166.324 180.566  1.00  0.00     0.150 C 
ATOM     12  C   UNL     1     173.652 167.833 180.606  1.00  0.00     0.174 C 
ATOM     13  O   UNL     1     172.418 165.804 181.346  1.00  0.00    -0.344 OA
ATOM     14  C   UNL     1     173.749 168.344 182.035  1.00  0.00     0.179 C 
ATOM     15  C   UNL     1     172.897 167.517 183.129  1.00  0.00     0.202 C 
BRANCH  12  16
ATOM     16  O   UNL     1     172.515 168.503 180.049  1.00  0.00    -0.388 OA
ATOM     17  H   UNL     1     171.681 168.249 180.588  1.00  0.00     0.211 HD
ENDBRANCH  12  16
BRANCH  14  18
ATOM     18  O   UNL     1     175.054 168.474 182.383  1.00  0.00    -0.387 OA
ATOM     19  H   UNL     1     175.523 167.601 182.240  1.00  0.00     0.211 HD
ENDBRANCH  14  18
BRANCH  15  20
ATOM     20  O   UNL     1     171.738 168.230 183.546  1.00  0.00    -0.385 OA
ATOM     21  H   UNL     1     171.092 168.357 182.803  1.00  0.00     0.211 HD
ENDBRANCH  15  20
ENDBRANCH   8   9
ENDBRANCH   7   8
ENDBRANCH   1   7
BRANCH   2  22
ATOM     22  O   UNL     1     168.318 163.275 183.283  1.00  0.00    -0.387 OA
ATOM     23  H   UNL     1     167.614 162.689 183.695  1.00  0.00     0.211 HD
ENDBRANCH   2  22
BRANCH   3  24
ATOM     24  O   UNL     1     167.250 163.477 185.980  1.00  0.00    -0.387 OA
ATOM     25  H   UNL     1     167.132 162.713 185.307  1.00  0.00     0.211 HD
ENDBRANCH   3  24
BRANCH   5  26
ATOM     26  O   UNL     1     169.743 166.893 186.611  1.00  0.00    -0.454 OA
BRANCH  26  27
ATOM     27  C   UNL     1     170.524 167.970 187.115  1.00  0.00     0.214 A 
ATOM     28  C   UNL     1     170.150 169.141 187.965  1.00  0.00     0.180 A 
ATOM     29  C   UNL     1     171.937 167.710 186.955  1.00  0.00     0.239 A 
ATOM     30  O   UNL     1     171.120 169.967 188.309  1.00  0.00    -0.452 OA
ATOM     31  C   UNL     1     172.839 168.444 187.775  1.00  0.00     0.111 A 
ATOM     32  O   UNL     1     172.265 166.614 186.380  1.00  0.00    -0.285 OA
ATOM     33  C   UNL     1     172.427 169.717 188.122  1.00  0.00     0.146 A 
ATOM     34  C   UNL     1     174.103 167.921 188.328  1.00  0.00     0.134 A 
ATOM     35  C   UNL     1     173.274 170.609 188.678  1.00  0.00     0.094 A 
ATOM     36  C   UNL     1     174.795 168.768 189.231  1.00  0.00     0.093 A 
ATOM     37  C   UNL     1     174.510 170.117 189.256  1.00  0.00     0.123 A 
BRANCH  28  38
ATOM     38  C   UNL     1     168.745 169.595 188.443  1.00  0.00     0.025 A 
ATOM     39  C   UNL     1     167.825 168.692 189.040  1.00  0.00     0.062 A 
ATOM     40  C   UNL     1     168.630 170.821 189.103  1.00  0.00     0.016 A 
ATOM     41  C   UNL     1     166.711 169.178 189.880  1.00  0.00     0.158 A 
ATOM     42  C   UNL     1     167.382 171.354 189.295  1.00  0.00     0.051 A 
ATOM     43  C   UNL     1     166.502 170.562 189.966  1.00  0.00     0.157 A 
BRANCH  41  44
ATOM     44  O   UNL     1     165.969 168.339 190.722  1.00  0.00    -0.504 OA
ATOM     45  H   UNL     1     165.301 168.839 191.325  1.00  0.00     0.293 HD
ENDBRANCH  41  44
BRANCH  43  46
ATOM     46  O   UNL     1     165.623 171.180 190.844  1.00  0.00    -0.504 OA
ATOM     47  H   UNL     1     165.015 170.595 191.427  1.00  0.00     0.293 HD
ENDBRANCH  43  46
ENDBRANCH  28  38
BRANCH  34  48
ATOM     48  O   UNL     1     174.555 166.549 188.240  1.00  0.00    -0.507 OA
ATOM     49  H   UNL     1     174.743 166.067 187.353  1.00  0.00     0.293 HD
ENDBRANCH  34  48
BRANCH  37  50
ATOM     50  O   UNL     1     175.244 170.920 190.106  1.00  0.00    -0.508 OA
ATOM     51  H   UNL     1     175.457 170.605 191.075  1.00  0.00     0.293 HD
ENDBRANCH  37  50
ENDBRANCH  26  27
ENDBRANCH   5  26
BRANCH   4  52
ATOM     52  O   UNL     1     167.010 166.088 187.024  1.00  0.00    -0.384 OA
ATOM     53  H   UNL     1     167.647 165.644 187.623  1.00  0.00     0.211 HD
ENDBRANCH   4  52
TORSDOF 16
ENDMDL
MODEL 5
REMARK VINA RESULT:    -7.607      1.937      5.090
REMARK INTER + INTRA:         -14.870
REMARK INTER:                 -13.173
REMARK INTRA:                  -1.697
REMARK UNBOUND:                -2.370
REMARK SMILES C[C@H]1O[C@H](OC[C@@H]2O[C@H](Oc3c(-c4ccc(O)c(O)c4)oc4cc(O)cc(O)c4c3=O)[C@H](O)[C@@H](O)[C@@H]2O)[C@H](O)[C@@H](O)[C@@H]1O
REMARK SMILES IDX 7 1 36 2 34 3 32 4 9 5 8 6 6 7 5 8 4 9 1 10 2 11 42 12 3 13
REMARK SMILES IDX 40 14 38 15 43 16 41 18 39 20 37 22 35 24 10 26 11 27 12 28
REMARK SMILES IDX 30 29 21 30 29 31 31 32 22 33 27 34 23 35 26 36 24 37 13 38
REMARK SMILES IDX 20 39 14 40 18 41 15 42 16 43 19 44 17 46 28 48 25 50 33 52
REMARK H PARENT 43 17 41 19 39 21 37 23 35 25 19 45 17 47 28 49 25 51 33 53
REMARK Flexibility Score: inf
ROOT
ATOM      1  C   UNL     1     166.583 169.902 190.744  1.00  0.00     0.180 C 
ATOM      2  C   UNL     1     165.267 169.824 189.903  1.00  0.00     0.177 C 
ATOM      3  C   UNL     1     165.500 169.296 188.467  1.00  0.00     0.180 C 
ATOM      4  C   UNL     1     166.318 168.003 188.738  1.00  0.00     0.214 C 
ATOM      5  C   UNL     1     167.725 168.390 189.044  1.00  0.00     0.339 C 
ATOM      6  O   UNL     1     167.814 169.361 190.066  1.00  0.00    -0.332 OA
ENDROOT
BRANCH   1   7
ATOM      7  C   UNL     1     166.977 171.377 190.965  1.00  0.00     0.198 C 
BRANCH   7   8
ATOM      8  O   UNL     1     166.270 171.916 192.164  1.00  0.00    -0.347 OA
BRANCH   8   9
ATOM      9  C   UNL     1     166.374 173.306 192.542  1.00  0.00     0.281 C 
ATOM     10  C   UNL     1     166.245 176.282 192.245  1.00  0.00     0.041 C 
ATOM     11  C   UNL     1     165.075 175.317 192.651  1.00  0.00     0.150 C 
ATOM     12  C   UNL     1     164.946 175.382 194.162  1.00  0.00     0.174 C 
ATOM     13  O   UNL     1     165.204 174.000 192.109  1.00  0.00    -0.344 OA
ATOM     14  C   UNL     1     166.086 174.645 194.848  1.00  0.00     0.179 C 
ATOM     15  C   UNL     1     166.648 173.349 194.068  1.00  0.00     0.202 C 
BRANCH  12  16
ATOM     16  O   UNL     1     163.754 174.735 194.626  1.00  0.00    -0.388 OA
ATOM     17  H   UNL     1     163.035 175.445 194.796  1.00  0.00     0.211 HD
ENDBRANCH  12  16
BRANCH  14  18
ATOM     18  O   UNL     1     167.068 175.526 195.167  1.00  0.00    -0.387 OA
ATOM     19  H   UNL     1     167.840 175.402 194.540  1.00  0.00     0.211 HD
ENDBRANCH  14  18
BRANCH  15  20
ATOM     20  O   UNL     1     166.235 172.137 194.689  1.00  0.00    -0.385 OA
ATOM     21  H   UNL     1     166.599 171.338 194.226  1.00  0.00     0.211 HD
ENDBRANCH  15  20
ENDBRANCH   8   9
ENDBRANCH   7   8
ENDBRANCH   1   7
BRANCH   2  22
ATOM     22  O   UNL     1     164.462 170.942 190.020  1.00  0.00    -0.387 OA
ATOM     23  H   UNL     1     163.857 170.660 190.770  1.00  0.00     0.211 HD
ENDBRANCH   2  22
BRANCH   3  24
ATOM     24  O   UNL     1     164.317 169.134 187.747  1.00  0.00    -0.387 OA
ATOM     25  H   UNL     1     163.829 170.031 187.648  1.00  0.00     0.211 HD
ENDBRANCH   3  24
BRANCH   5  26
ATOM     26  O   UNL     1     168.578 168.791 187.868  1.00  0.00    -0.454 OA
BRANCH  26  27
ATOM     27  C   UNL     1     169.766 168.204 187.353  1.00  0.00     0.214 A 
ATOM     28  C   UNL     1     169.971 167.157 186.306  1.00  0.00     0.180 A 
ATOM     29  C   UNL     1     170.937 168.946 187.765  1.00  0.00     0.239 A 
ATOM     30  O   UNL     1     171.218 166.839 186.011  1.00  0.00    -0.452 OA
ATOM     31  C   UNL     1     172.127 168.774 187.005  1.00  0.00     0.111 A 
ATOM     32  O   UNL     1     170.745 169.958 188.526  1.00  0.00    -0.285 OA
ATOM     33  C   UNL     1     172.293 167.527 186.431  1.00  0.00     0.146 A 
ATOM     34  C   UNL     1     173.121 169.830 186.731  1.00  0.00     0.134 A 
ATOM     35  C   UNL     1     173.472 167.142 185.900  1.00  0.00     0.094 A 
ATOM     36  C   UNL     1     174.173 169.490 185.843  1.00  0.00     0.093 A 
ATOM     37  C   UNL     1     174.456 168.164 185.594  1.00  0.00     0.123 A 
BRANCH  28  38
ATOM     38  C   UNL     1     168.915 166.300 185.558  1.00  0.00     0.025 A 
ATOM     39  C   UNL     1     168.864 166.237 184.140  1.00  0.00     0.062 A 
ATOM     40  C   UNL     1     168.618 165.027 186.054  1.00  0.00     0.016 A 
ATOM     41  C   UNL     1     168.191 165.120 183.447  1.00  0.00     0.158 A 
ATOM     42  C   UNL     1     167.517 164.371 185.572  1.00  0.00     0.051 A 
ATOM     43  C   UNL     1     167.484 164.189 184.223  1.00  0.00     0.157 A 
BRANCH  41  44
ATOM     44  O   UNL     1     168.365 164.852 182.083  1.00  0.00    -0.504 OA
ATOM     45  H   UNL     1     168.175 165.659 181.473  1.00  0.00     0.293 HD
ENDBRANCH  41  44
BRANCH  43  46
ATOM     46  O   UNL     1     166.955 162.998 183.749  1.00  0.00    -0.504 OA
ATOM     47  H   UNL     1     166.064 163.020 183.243  1.00  0.00     0.293 HD
ENDBRANCH  43  46
ENDBRANCH  28  38
BRANCH  34  48
ATOM     48  O   UNL     1     172.976 171.229 187.071  1.00  0.00    -0.507 OA
ATOM     49  H   UNL     1     172.350 171.874 186.575  1.00  0.00     0.293 HD
ENDBRANCH  34  48
BRANCH  37  50
ATOM     50  O   UNL     1     175.524 167.871 184.769  1.00  0.00    -0.508 OA
ATOM     51  H   UNL     1     175.380 167.749 183.746  1.00  0.00     0.293 HD
ENDBRANCH  37  50
ENDBRANCH  26  27
ENDBRANCH   5  26
BRANCH   4  52
ATOM     52  O   UNL     1     166.263 167.091 187.663  1.00  0.00    -0.384 OA
ATOM     53  H   UNL     1     165.773 167.554 186.951  1.00  0.00     0.211 HD
ENDBRANCH   4  52
TORSDOF 16
ENDMDL
MODEL 6
REMARK VINA RESULT:    -7.492      3.113      5.787
REMARK INTER + INTRA:         -14.680
REMARK INTER:                 -11.804
REMARK INTRA:                  -2.876
REMARK UNBOUND:                -2.370
REMARK SMILES C[C@H]1O[C@H](OC[C@@H]2O[C@H](Oc3c(-c4ccc(O)c(O)c4)oc4cc(O)cc(O)c4c3=O)[C@H](O)[C@@H](O)[C@@H]2O)[C@H](O)[C@@H](O)[C@@H]1O
REMARK SMILES IDX 7 1 36 2 34 3 32 4 9 5 8 6 6 7 5 8 4 9 1 10 2 11 42 12 3 13
REMARK SMILES IDX 40 14 38 15 43 16 41 18 39 20 37 22 35 24 10 26 11 27 12 28
REMARK SMILES IDX 30 29 21 30 29 31 31 32 22 33 27 34 23 35 26 36 24 37 13 38
REMARK SMILES IDX 20 39 14 40 18 41 15 42 16 43 19 44 17 46 28 48 25 50 33 52
REMARK H PARENT 43 17 41 19 39 21 37 23 35 25 19 45 17 47 28 49 25 51 33 53
REMARK Flexibility Score: inf
ROOT
ATOM      1  C   UNL     1     164.258 174.087 189.828  1.00  0.00     0.180 C 
ATOM      2  C   UNL     1     164.680 175.571 189.579  1.00  0.00     0.177 C 
ATOM      3  C   UNL     1     166.211 175.781 189.645  1.00  0.00     0.180 C 
ATOM      4  C   UNL     1     166.722 174.666 188.690  1.00  0.00     0.214 C 
ATOM      5  C   UNL     1     166.664 173.364 189.413  1.00  0.00     0.339 C 
ATOM      6  O   UNL     1     165.394 173.111 189.980  1.00  0.00    -0.332 OA
ENDROOT
BRANCH   1   7
ATOM      7  C   UNL     1     163.560 173.963 191.199  1.00  0.00     0.198 C 
BRANCH   7   8
ATOM      8  O   UNL     1     164.583 173.913 192.284  1.00  0.00    -0.347 OA
BRANCH   8   9
ATOM      9  C   UNL     1     164.563 174.848 193.386  1.00  0.00     0.281 C 
ATOM     10  C   UNL     1     163.513 176.274 195.799  1.00  0.00     0.041 C 
ATOM     11  C   UNL     1     164.319 174.927 195.767  1.00  0.00     0.150 C 
ATOM     12  C   UNL     1     165.762 175.262 196.098  1.00  0.00     0.174 C 
ATOM     13  O   UNL     1     164.131 174.174 194.567  1.00  0.00    -0.344 OA
ATOM     14  C   UNL     1     166.452 175.957 194.934  1.00  0.00     0.179 C 
ATOM     15  C   UNL     1     165.970 175.497 193.464  1.00  0.00     0.202 C 
BRANCH  12  16
ATOM     16  O   UNL     1     166.543 174.085 196.343  1.00  0.00    -0.388 OA
ATOM     17  H   UNL     1     167.308 174.045 195.662  1.00  0.00     0.211 HD
ENDBRANCH  12  16
BRANCH  14  18
ATOM     18  O   UNL     1     166.386 177.301 195.106  1.00  0.00    -0.387 OA
ATOM     19  H   UNL     1     167.314 177.670 195.183  1.00  0.00     0.211 HD
ENDBRANCH  14  18
BRANCH  15  20
ATOM     20  O   UNL     1     166.940 174.677 192.821  1.00  0.00    -0.385 OA
ATOM     21  H   UNL     1     167.728 174.510 193.400  1.00  0.00     0.211 HD
ENDBRANCH  15  20
ENDBRANCH   8   9
ENDBRANCH   7   8
ENDBRANCH   1   7
BRANCH   2  22
ATOM     22  O   UNL     1     163.907 176.494 190.259  1.00  0.00    -0.387 OA
ATOM     23  H   UNL     1     163.152 176.624 189.609  1.00  0.00     0.211 HD
ENDBRANCH   2  22
BRANCH   3  24
ATOM     24  O   UNL     1     166.598 177.084 189.328  1.00  0.00    -0.387 OA
ATOM     25  H   UNL     1     165.924 177.514 188.686  1.00  0.00     0.211 HD
ENDBRANCH   3  24
BRANCH   5  26
ATOM     26  O   UNL     1     167.748 173.115 190.430  1.00  0.00    -0.454 OA
BRANCH  26  27
ATOM     27  C   UNL     1     168.947 172.359 190.326  1.00  0.00     0.214 A 
ATOM     28  C   UNL     1     169.173 170.910 190.036  1.00  0.00     0.180 A 
ATOM     29  C   UNL     1     170.105 173.221 190.256  1.00  0.00     0.239 A 
ATOM     30  O   UNL     1     170.425 170.499 189.966  1.00  0.00    -0.452 OA
ATOM     31  C   UNL     1     171.303 172.673 189.718  1.00  0.00     0.111 A 
ATOM     32  O   UNL     1     169.896 174.482 190.327  1.00  0.00    -0.285 OA
ATOM     33  C   UNL     1     171.488 171.320 189.932  1.00  0.00     0.146 A 
ATOM     34  C   UNL     1     172.285 173.414 188.903  1.00  0.00     0.134 A 
ATOM     35  C   UNL     1     172.676 170.722 189.703  1.00  0.00     0.094 A 
ATOM     36  C   UNL     1     173.348 172.653 188.351  1.00  0.00     0.093 A 
ATOM     37  C   UNL     1     173.649 171.416 188.879  1.00  0.00     0.123 A 
BRANCH  28  38
ATOM     38  C   UNL     1     168.132 169.767 189.891  1.00  0.00     0.025 A 
ATOM     39  C   UNL     1     166.823 169.868 190.432  1.00  0.00     0.062 A 
ATOM     40  C   UNL     1     168.037 169.104 188.664  1.00  0.00     0.016 A 
ATOM     41  C   UNL     1     165.720 169.021 189.932  1.00  0.00     0.158 A 
ATOM     42  C   UNL     1     167.323 167.938 188.596  1.00  0.00     0.051 A 
ATOM     43  C   UNL     1     166.026 168.018 189.001  1.00  0.00     0.157 A 
BRANCH  41  44
ATOM     44  O   UNL     1     164.372 169.282 190.212  1.00  0.00    -0.504 OA
ATOM     45  H   UNL     1     164.210 170.185 190.678  1.00  0.00     0.293 HD
ENDBRANCH  41  44
BRANCH  43  46
ATOM     46  O   UNL     1     165.089 167.267 188.307  1.00  0.00    -0.504 OA
ATOM     47  H   UNL     1     165.363 166.347 187.946  1.00  0.00     0.293 HD
ENDBRANCH  43  46
ENDBRANCH  28  38
BRANCH  34  48
ATOM     48  O   UNL     1     172.121 174.764 188.410  1.00  0.00    -0.507 OA
ATOM     49  H   UNL     1     171.589 175.490 188.904  1.00  0.00     0.293 HD
ENDBRANCH  34  48
BRANCH  37  50
ATOM     50  O   UNL     1     174.726 170.730 188.355  1.00  0.00    -0.508 OA
ATOM     51  H   UNL     1     174.661 169.707 188.174  1.00  0.00     0.293 HD
ENDBRANCH  37  50
ENDBRANCH  26  27
ENDBRANCH   5  26
BRANCH   4  52
ATOM     52  O   UNL     1     168.021 174.921 188.204  1.00  0.00    -0.384 OA
ATOM     53  H   UNL     1     168.264 174.130 187.677  1.00  0.00     0.211 HD
ENDBRANCH   4  52
TORSDOF 16
ENDMDL
MODEL 7
REMARK VINA RESULT:    -7.471      3.837      9.775
REMARK INTER + INTRA:         -14.645
REMARK INTER:                 -10.740
REMARK INTRA:                  -3.905
REMARK UNBOUND:                -2.370
REMARK SMILES C[C@H]1O[C@H](OC[C@@H]2O[C@H](Oc3c(-c4ccc(O)c(O)c4)oc4cc(O)cc(O)c4c3=O)[C@H](O)[C@@H](O)[C@@H]2O)[C@H](O)[C@@H](O)[C@@H]1O
REMARK SMILES IDX 7 1 36 2 34 3 32 4 9 5 8 6 6 7 5 8 4 9 1 10 2 11 42 12 3 13
REMARK SMILES IDX 40 14 38 15 43 16 41 18 39 20 37 22 35 24 10 26 11 27 12 28
REMARK SMILES IDX 30 29 21 30 29 31 31 32 22 33 27 34 23 35 26 36 24 37 13 38
REMARK SMILES IDX 20 39 14 40 18 41 15 42 16 43 19 44 17 46 28 48 25 50 33 52
REMARK H PARENT 43 17 41 19 39 21 37 23 35 25 19 45 17 47 28 49 25 51 33 53
REMARK Flexibility Score: inf
ROOT
ATOM      1  C   UNL     1     163.216 174.231 187.461  1.00  0.00     0.180 C 
ATOM      2  C   UNL     1     162.113 173.459 188.257  1.00  0.00     0.177 C 
ATOM      3  C   UNL     1     161.892 174.024 189.680  1.00  0.00     0.180 C 
ATOM      4  C   UNL     1     161.714 175.540 189.391  1.00  0.00     0.214 C 
ATOM      5  C   UNL     1     163.058 176.135 189.143  1.00  0.00     0.339 C 
ATOM      6  O   UNL     1     163.790 175.435 188.158  1.00  0.00    -0.332 OA
ENDROOT
BRANCH   1   7
ATOM      7  C   UNL     1     164.467 173.342 187.302  1.00  0.00     0.198 C 
BRANCH   7   8
ATOM      8  O   UNL     1     164.862 172.782 188.628  1.00  0.00    -0.347 OA
BRANCH   8   9
ATOM      9  C   UNL     1     165.655 171.580 188.735  1.00  0.00     0.281 C 
ATOM     10  C   UNL     1     167.779 169.584 188.052  1.00  0.00     0.041 C 
ATOM     11  C   UNL     1     167.926 170.852 188.966  1.00  0.00     0.150 C 
ATOM     12  C   UNL     1     167.833 170.380 190.405  1.00  0.00     0.174 C 
ATOM     13  O   UNL     1     167.037 171.917 188.618  1.00  0.00    -0.344 OA
ATOM     14  C   UNL     1     166.405 170.008 190.775  1.00  0.00     0.179 C 
ATOM     15  C   UNL     1     165.250 170.877 190.058  1.00  0.00     0.202 C 
BRANCH  12  16
ATOM     16  O   UNL     1     168.200 171.409 191.332  1.00  0.00    -0.388 OA
ATOM     17  H   UNL     1     168.775 170.999 192.075  1.00  0.00     0.211 HD
ENDBRANCH  12  16
BRANCH  14  18
ATOM     18  O   UNL     1     166.228 168.672 190.612  1.00  0.00    -0.387 OA
ATOM     19  H   UNL     1     167.090 168.258 190.314  1.00  0.00     0.211 HD
ENDBRANCH  14  18
BRANCH  15  20
ATOM     20  O   UNL     1     164.648 171.803 190.956  1.00  0.00    -0.385 OA
ATOM     21  H   UNL     1     164.629 172.723 190.586  1.00  0.00     0.211 HD
ENDBRANCH  15  20
ENDBRANCH   8   9
ENDBRANCH   7   8
ENDBRANCH   1   7
BRANCH   2  22
ATOM     22  O   UNL     1     162.207 172.084 188.153  1.00  0.00    -0.387 OA
ATOM     23  H   UNL     1     163.137 171.932 188.500  1.00  0.00     0.211 HD
ENDBRANCH   2  22
BRANCH   3  24
ATOM     24  O   UNL     1     160.844 173.401 190.358  1.00  0.00    -0.387 OA
ATOM     25  H   UNL     1     160.117 173.102 189.700  1.00  0.00     0.211 HD
ENDBRANCH   3  24
BRANCH   5  26
ATOM     26  O   UNL     1     163.916 176.375 190.358  1.00  0.00    -0.454 OA
BRANCH  26  27
ATOM     27  C   UNL     1     164.664 175.460 191.149  1.00  0.00     0.214 A 
ATOM     28  C   UNL     1     166.048 174.920 190.984  1.00  0.00     0.180 A 
ATOM     29  C   UNL     1     164.032 175.238 192.430  1.00  0.00     0.239 A 
ATOM     30  O   UNL     1     166.489 174.101 191.919  1.00  0.00    -0.452 OA
ATOM     31  C   UNL     1     164.838 174.724 193.483  1.00  0.00     0.111 A 
ATOM     32  O   UNL     1     162.924 175.845 192.644  1.00  0.00    -0.285 OA
ATOM     33  C   UNL     1     165.867 173.888 193.091  1.00  0.00     0.146 A 
ATOM     34  C   UNL     1     164.702 175.078 194.909  1.00  0.00     0.134 A 
ATOM     35  C   UNL     1     166.549 173.137 193.982  1.00  0.00     0.094 A 
ATOM     36  C   UNL     1     165.689 174.557 195.785  1.00  0.00     0.093 A 
ATOM     37  C   UNL     1     166.456 173.483 195.388  1.00  0.00     0.123 A 
BRANCH  28  38
ATOM     38  C   UNL     1     167.038 175.111 189.803  1.00  0.00     0.025 A 
ATOM     39  C   UNL     1     167.011 176.265 188.976  1.00  0.00     0.062 A 
ATOM     40  C   UNL     1     168.376 174.751 189.991  1.00  0.00     0.016 A 
ATOM     41  C   UNL     1     168.186 176.660 188.172  1.00  0.00     0.158 A 
ATOM     42  C   UNL     1     169.197 174.665 188.898  1.00  0.00     0.051 A 
ATOM     43  C   UNL     1     169.286 175.791 188.140  1.00  0.00     0.157 A 
BRANCH  41  44
ATOM     44  O   UNL     1     168.318 177.925 187.586  1.00  0.00    -0.504 OA
ATOM     45  H   UNL     1     167.534 178.561 187.785  1.00  0.00     0.293 HD
ENDBRANCH  41  44
BRANCH  43  46
ATOM     46  O   UNL     1     170.522 176.095 187.586  1.00  0.00    -0.504 OA
ATOM     47  H   UNL     1     170.660 177.019 187.165  1.00  0.00     0.293 HD
ENDBRANCH  43  46
ENDBRANCH  28  38
BRANCH  34  48
ATOM     48  O   UNL     1     163.827 176.100 195.441  1.00  0.00    -0.507 OA
ATOM     49  H   UNL     1     163.277 176.740 194.857  1.00  0.00     0.293 HD
ENDBRANCH  34  48
BRANCH  37  50
ATOM     50  O   UNL     1     167.366 172.966 196.288  1.00  0.00    -0.508 OA
ATOM     51  H   UNL     1     167.719 171.993 196.180  1.00  0.00     0.293 HD
ENDBRANCH  37  50
ENDBRANCH  26  27
ENDBRANCH   5  26
BRANCH   4  52
ATOM     52  O   UNL     1     161.043 176.216 190.432  1.00  0.00    -0.384 OA
ATOM     53  H   UNL     1     160.477 175.540 190.863  1.00  0.00     0.211 HD
ENDBRANCH   4  52
TORSDOF 16
ENDMDL
MODEL 8
REMARK VINA RESULT:    -7.445      1.669      2.187
REMARK INTER + INTRA:         -14.602
REMARK INTER:                 -11.161
REMARK INTRA:                  -3.441
REMARK UNBOUND:                -2.370
REMARK SMILES C[C@H]1O[C@H](OC[C@@H]2O[C@H](Oc3c(-c4ccc(O)c(O)c4)oc4cc(O)cc(O)c4c3=O)[C@H](O)[C@@H](O)[C@@H]2O)[C@H](O)[C@@H](O)[C@@H]1O
REMARK SMILES IDX 7 1 36 2 34 3 32 4 9 5 8 6 6 7 5 8 4 9 1 10 2 11 42 12 3 13
REMARK SMILES IDX 40 14 38 15 43 16 41 18 39 20 37 22 35 24 10 26 11 27 12 28
REMARK SMILES IDX 30 29 21 30 29 31 31 32 22 33 27 34 23 35 26 36 24 37 13 38
REMARK SMILES IDX 20 39 14 40 18 41 15 42 16 43 19 44 17 46 28 48 25 50 33 52
REMARK H PARENT 43 17 41 19 39 21 37 23 35 25 19 45 17 47 28 49 25 51 33 53
REMARK Flexibility Score: inf
ROOT
ATOM      1  C   UNL     1     169.333 171.739 187.962  1.00  0.00     0.180 C 
ATOM      2  C   UNL     1     170.198 171.998 189.238  1.00  0.00     0.177 C 
ATOM      3  C   UNL     1     171.009 170.755 189.678  1.00  0.00     0.180 C 
ATOM      4  C   UNL     1     171.701 170.346 188.349  1.00  0.00     0.214 C 
ATOM      5  C   UNL     1     170.702 169.644 187.493  1.00  0.00     0.339 C 
ATOM      6  O   UNL     1     169.510 170.386 187.326  1.00  0.00    -0.332 OA
ENDROOT
BRANCH   1   7
ATOM      7  C   UNL     1     167.837 171.706 188.341  1.00  0.00     0.198 C 
BRANCH   7   8
ATOM      8  O   UNL     1     167.276 173.089 188.303  1.00  0.00    -0.347 OA
BRANCH   8   9
ATOM      9  C   UNL     1     166.455 173.601 189.377  1.00  0.00     0.281 C 
ATOM     10  C   UNL     1     164.335 173.610 191.490  1.00  0.00     0.041 C 
ATOM     11  C   UNL     1     165.820 173.124 191.636  1.00  0.00     0.150 C 
ATOM     12  C   UNL     1     166.596 174.248 192.297  1.00  0.00     0.174 C 
ATOM     13  O   UNL     1     166.385 172.630 190.420  1.00  0.00    -0.344 OA
ATOM     14  C   UNL     1     166.837 175.398 191.331  1.00  0.00     0.179 C 
ATOM     15  C   UNL     1     167.040 174.978 189.786  1.00  0.00     0.202 C 
BRANCH  12  16
ATOM     16  O   UNL     1     167.903 173.828 192.708  1.00  0.00    -0.388 OA
ATOM     17  H   UNL     1     168.558 174.607 192.585  1.00  0.00     0.211 HD
ENDBRANCH  12  16
BRANCH  14  18
ATOM     18  O   UNL     1     165.871 176.336 191.493  1.00  0.00    -0.387 OA
ATOM     19  H   UNL     1     166.230 177.089 192.048  1.00  0.00     0.211 HD
ENDBRANCH  14  18
BRANCH  15  20
ATOM     20  O   UNL     1     168.400 175.089 189.381  1.00  0.00    -0.385 OA
ATOM     21  H   UNL     1     168.787 175.972 189.616  1.00  0.00     0.211 HD
ENDBRANCH  15  20
ENDBRANCH   8   9
ENDBRANCH   7   8
ENDBRANCH   1   7
BRANCH   2  22
ATOM     22  O   UNL     1     169.530 172.677 190.240  1.00  0.00    -0.387 OA
ATOM     23  H   UNL     1     170.149 173.454 190.386  1.00  0.00     0.211 HD
ENDBRANCH   2  22
BRANCH   3  24
ATOM     24  O   UNL     1     171.855 171.009 190.757  1.00  0.00    -0.387 OA
ATOM     25  H   UNL     1     172.836 170.935 190.471  1.00  0.00     0.211 HD
ENDBRANCH   3  24
BRANCH   5  26
ATOM     26  O   UNL     1     170.381 168.221 187.869  1.00  0.00    -0.454 OA
BRANCH  26  27
ATOM     27  C   UNL     1     169.657 167.224 187.159  1.00  0.00     0.214 A 
ATOM     28  C   UNL     1     168.189 166.955 187.066  1.00  0.00     0.180 A 
ATOM     29  C   UNL     1     170.501 166.547 186.201  1.00  0.00     0.239 A 
ATOM     30  O   UNL     1     167.809 165.964 186.283  1.00  0.00    -0.452 OA
ATOM     31  C   UNL     1     169.864 165.860 185.131  1.00  0.00     0.111 A 
ATOM     32  O   UNL     1     171.731 166.904 186.156  1.00  0.00    -0.285 OA
ATOM     33  C   UNL     1     168.621 165.329 185.421  1.00  0.00     0.146 A 
ATOM     34  C   UNL     1     170.389 165.753 183.756  1.00  0.00     0.134 A 
ATOM     35  C   UNL     1     168.016 164.449 184.595  1.00  0.00     0.094 A 
ATOM     36  C   UNL     1     169.539 165.136 182.802  1.00  0.00     0.093 A 
ATOM     37  C   UNL     1     168.494 164.345 183.229  1.00  0.00     0.123 A 
BRANCH  28  38
ATOM     38  C   UNL     1     167.021 167.622 187.841  1.00  0.00     0.025 A 
ATOM     39  C   UNL     1     167.124 167.956 189.218  1.00  0.00     0.062 A 
ATOM     40  C   UNL     1     166.296 168.636 187.208  1.00  0.00     0.016 A 
ATOM     41  C   UNL     1     166.232 168.962 189.830  1.00  0.00     0.158 A 
ATOM     42  C   UNL     1     165.114 169.049 187.764  1.00  0.00     0.051 A 
ATOM     43  C   UNL     1     165.190 169.484 189.051  1.00  0.00     0.157 A 
BRANCH  41  44
ATOM     44  O   UNL     1     166.480 169.539 191.083  1.00  0.00    -0.504 OA
ATOM     45  H   UNL     1     166.651 170.554 191.048  1.00  0.00     0.293 HD
ENDBRANCH  41  44
BRANCH  43  46
ATOM     46  O   UNL     1     164.386 170.555 189.414  1.00  0.00    -0.504 OA
ATOM     47  H   UNL     1     164.587 171.049 190.290  1.00  0.00     0.293 HD
ENDBRANCH  43  46
ENDBRANCH  28  38
BRANCH  34  48
ATOM     48  O   UNL     1     171.557 166.439 183.247  1.00  0.00    -0.507 OA
ATOM     49  H   UNL     1     171.516 167.191 182.548  1.00  0.00     0.293 HD
ENDBRANCH  34  48
BRANCH  37  50
ATOM     50  O   UNL     1     167.723 163.715 182.273  1.00  0.00    -0.508 OA
ATOM     51  H   UNL     1     166.686 163.786 182.302  1.00  0.00     0.293 HD
ENDBRANCH  37  50
ENDBRANCH  26  27
ENDBRANCH   5  26
BRANCH   4  52
ATOM     52  O   UNL     1     172.844 169.546 188.556  1.00  0.00    -0.384 OA
ATOM     53  H   UNL     1     173.608 170.155 188.481  1.00  0.00     0.211 HD
ENDBRANCH   4  52
TORSDOF 16
ENDMDL
MODEL 9
REMARK VINA RESULT:    -7.409      3.244      9.614
REMARK INTER + INTRA:         -14.543
REMARK INTER:                 -11.060
REMARK INTRA:                  -3.483
REMARK UNBOUND:                -2.370
REMARK SMILES C[C@H]1O[C@H](OC[C@@H]2O[C@H](Oc3c(-c4ccc(O)c(O)c4)oc4cc(O)cc(O)c4c3=O)[C@H](O)[C@@H](O)[C@@H]2O)[C@H](O)[C@@H](O)[C@@H]1O
REMARK SMILES IDX 7 1 36 2 34 3 32 4 9 5 8 6 6 7 5 8 4 9 1 10 2 11 42 12 3 13
REMARK SMILES IDX 40 14 38 15 43 16 41 18 39 20 37 22 35 24 10 26 11 27 12 28
REMARK SMILES IDX 30 29 21 30 29 31 31 32 22 33 27 34 23 35 26 36 24 37 13 38
REMARK SMILES IDX 20 39 14 40 18 41 15 42 16 43 19 44 17 46 28 48 25 50 33 52
REMARK H PARENT 43 17 41 19 39 21 37 23 35 25 19 45 17 47 28 49 25 51 33 53
REMARK Flexibility Score: inf
ROOT
ATOM      1  C   UNL     1     165.857 168.371 189.584  1.00  0.00     0.180 C 
ATOM      2  C   UNL     1     167.376 168.534 189.255  1.00  0.00     0.177 C 
ATOM      3  C   UNL     1     167.856 170.002 189.336  1.00  0.00     0.180 C 
ATOM      4  C   UNL     1     167.321 170.430 190.731  1.00  0.00     0.214 C 
ATOM      5  C   UNL     1     165.860 170.699 190.614  1.00  0.00     0.339 C 
ATOM      6  O   UNL     1     165.153 169.628 190.021  1.00  0.00    -0.332 OA
ENDROOT
BRANCH   1   7
ATOM      7  C   UNL     1     165.078 168.013 188.301  1.00  0.00     0.198 C 
BRANCH   7   8
ATOM      8  O   UNL     1     164.360 169.218 187.792  1.00  0.00    -0.347 OA
BRANCH   8   9
ATOM      9  C   UNL     1     164.256 169.493 186.377  1.00  0.00     0.281 C 
ATOM     10  C   UNL     1     163.108 169.432 183.613  1.00  0.00     0.041 C 
ATOM     11  C   UNL     1     162.763 170.444 184.762  1.00  0.00     0.150 C 
ATOM     12  C   UNL     1     163.553 171.712 184.493  1.00  0.00     0.174 C 
ATOM     13  O   UNL     1     162.921 169.899 186.075  1.00  0.00    -0.344 OA
ATOM     14  C   UNL     1     165.029 171.523 184.804  1.00  0.00     0.179 C 
ATOM     15  C   UNL     1     165.361 170.523 186.026  1.00  0.00     0.202 C 
BRANCH  12  16
ATOM     16  O   UNL     1     163.132 172.794 185.333  1.00  0.00    -0.388 OA
ATOM     17  H   UNL     1     162.170 173.050 185.092  1.00  0.00     0.211 HD
ENDBRANCH  12  16
BRANCH  14  18
ATOM     18  O   UNL     1     165.693 171.193 183.667  1.00  0.00    -0.387 OA
ATOM     19  H   UNL     1     166.167 172.002 183.314  1.00  0.00     0.211 HD
ENDBRANCH  14  18
BRANCH  15  20
ATOM     20  O   UNL     1     165.781 171.229 187.189  1.00  0.00    -0.385 OA
ATOM     21  H   UNL     1     165.063 171.810 187.550  1.00  0.00     0.211 HD
ENDBRANCH  15  20
ENDBRANCH   8   9
ENDBRANCH   7   8
ENDBRANCH   1   7
BRANCH   2  22
ATOM     22  O   UNL     1     167.788 167.817 188.147  1.00  0.00    -0.387 OA
ATOM     23  H   UNL     1     167.524 168.443 187.408  1.00  0.00     0.211 HD
ENDBRANCH   2  22
BRANCH   3  24
ATOM     24  O   UNL     1     169.230 170.140 189.138  1.00  0.00    -0.387 OA
ATOM     25  H   UNL     1     169.749 169.775 189.943  1.00  0.00     0.211 HD
ENDBRANCH   3  24
BRANCH   5  26
ATOM     26  O   UNL     1     165.471 172.003 189.965  1.00  0.00    -0.454 OA
BRANCH  26  27
ATOM     27  C   UNL     1     164.580 173.019 190.408  1.00  0.00     0.214 A 
ATOM     28  C   UNL     1     164.652 173.947 191.577  1.00  0.00     0.180 A 
ATOM     29  C   UNL     1     163.591 173.324 189.399  1.00  0.00     0.239 A 
ATOM     30  O   UNL     1     163.675 174.824 191.709  1.00  0.00    -0.452 OA
ATOM     31  C   UNL     1     162.924 174.578 189.487  1.00  0.00     0.111 A 
ATOM     32  O   UNL     1     163.639 172.644 188.314  1.00  0.00    -0.285 OA
ATOM     33  C   UNL     1     162.748 175.069 190.767  1.00  0.00     0.146 A 
ATOM     34  C   UNL     1     162.498 175.397 188.336  1.00  0.00     0.134 A 
ATOM     35  C   UNL     1     161.924 176.108 191.020  1.00  0.00     0.094 A 
ATOM     36  C   UNL     1     161.966 176.677 188.637  1.00  0.00     0.093 A 
ATOM     37  C   UNL     1     161.514 176.948 189.910  1.00  0.00     0.123 A 
BRANCH  28  38
ATOM     38  C   UNL     1     165.680 173.980 192.740  1.00  0.00     0.025 A 
ATOM     39  C   UNL     1     165.831 175.115 193.580  1.00  0.00     0.062 A 
ATOM     40  C   UNL     1     165.824 172.839 193.534  1.00  0.00     0.016 A 
ATOM     41  C   UNL     1     166.452 175.003 194.916  1.00  0.00     0.158 A 
ATOM     42  C   UNL     1     166.894 172.756 194.385  1.00  0.00     0.051 A 
ATOM     43  C   UNL     1     167.012 173.771 195.283  1.00  0.00     0.157 A 
BRANCH  41  44
ATOM     44  O   UNL     1     166.356 176.007 195.888  1.00  0.00    -0.504 OA
ATOM     45  H   UNL     1     167.155 176.657 195.896  1.00  0.00     0.293 HD
ENDBRANCH  41  44
BRANCH  43  46
ATOM     46  O   UNL     1     167.465 173.452 196.555  1.00  0.00    -0.504 OA
ATOM     47  H   UNL     1     168.405 173.056 196.659  1.00  0.00     0.293 HD
ENDBRANCH  43  46
ENDBRANCH  28  38
BRANCH  34  48
ATOM     48  O   UNL     1     162.810 175.125 186.950  1.00  0.00    -0.507 OA
ATOM     49  H   UNL     1     163.767 175.057 186.584  1.00  0.00     0.293 HD
ENDBRANCH  34  48
BRANCH  37  50
ATOM     50  O   UNL     1     160.950 178.185 190.151  1.00  0.00    -0.508 OA
ATOM     51  H   UNL     1     159.942 178.352 189.949  1.00  0.00     0.293 HD
ENDBRANCH  37  50
ENDBRANCH  26  27
ENDBRANCH   5  26
BRANCH   4  52
ATOM     52  O   UNL     1     168.004 171.547 191.255  1.00  0.00    -0.384 OA
ATOM     53  H   UNL     1     167.659 172.321 190.762  1.00  0.00     0.211 HD
ENDBRANCH   4  52
TORSDOF 16
ENDMDL
