MODEL 1
REMARK VINA RESULT:    -5.223      0.000      0.000
REMARK INTER + INTRA:         -17.826
REMARK INTER:                 -13.161
REMARK INTRA:                  -4.665
REMARK UNBOUND:                -4.665
REMARK SMILES CCCCCCCCCCCCCCCCCCCCCCCCCCCC(=O)[O-]
REMARK SMILES IDX 15 1 16 2 17 3 18 4 19 5 20 6 21 7 22 8 23 9 24 10 25 11
REMARK SMILES IDX 26 12 27 13 28 14 29 15 30 16 14 17 13 18 12 19 11 20 10 21
REMARK SMILES IDX 9 22 8 23 7 24 6 25 5 26 4 27 3 28 2 29 1 30
REMARK H PARENT
REMARK Flexibility Score: inf
ROOT
ATOM      1  C   UNL     1       8.873  20.298  37.660  1.00  0.00     0.000 C 
ENDROOT
BRANCH   1   2
ATOM      2  C   UNL     1      10.379  20.156  37.940  1.00  0.00     0.000 C 
BRANCH   2   3
ATOM      3  C   UNL     1      10.740  18.813  38.598  1.00  0.00     0.000 C 
BRANCH   3   4
ATOM      4  C   UNL     1      11.301  17.786  37.598  1.00  0.00     0.000 C 
BRANCH   4   5
ATOM      5  C   UNL     1      11.940  18.385  36.329  1.00  0.00     0.000 C 
BRANCH   5   6
ATOM      6  C   UNL     1      12.466  17.360  35.310  1.00  0.00     0.000 C 
BRANCH   6   7
ATOM      7  C   UNL     1      13.899  16.893  35.617  1.00  0.00     0.000 C 
BRANCH   7   8
ATOM      8  C   UNL     1      13.940  15.653  36.532  1.00  0.00     0.000 C 
BRANCH   8   9
ATOM      9  C   UNL     1      14.625  15.873  37.894  1.00  0.00     0.000 C 
BRANCH   9  10
ATOM     10  C   UNL     1      15.349  17.228  37.992  1.00  0.00     0.000 C 
BRANCH  10  11
ATOM     11  C   UNL     1      14.644  18.205  38.946  1.00  0.00     0.000 C 
BRANCH  11  12
ATOM     12  C   UNL     1      14.908  19.678  38.598  1.00  0.00     0.006 C 
BRANCH  12  13
ATOM     13  C   UNL     1      14.449  20.600  39.731  1.00  0.00     0.053 C 
BRANCH  13  14
ATOM     14  C   UNL     1      15.485  21.643  40.012  1.00  0.00     0.041 C 
ATOM     15  O   UNL     1      16.118  21.629  41.100  1.00  0.00    -0.550 OA
ATOM     16  O   UNL     1      15.723  22.654  39.088  1.00  0.00    -0.550 OA
ENDBRANCH  13  14
ENDBRANCH  12  13
ENDBRANCH  11  12
ENDBRANCH  10  11
ENDBRANCH   9  10
ENDBRANCH   8   9
ENDBRANCH   7   8
ENDBRANCH   6   7
ENDBRANCH   5   6
ENDBRANCH   4   5
ENDBRANCH   3   4
ENDBRANCH   2   3
ENDBRANCH   1   2
BRANCH   1  17
ATOM     17  C   UNL     1       8.435  19.858  36.251  1.00  0.00     0.000 C 
BRANCH  17  18
ATOM     18  C   UNL     1       7.876  18.425  36.225  1.00  0.00     0.000 C 
BRANCH  18  19
ATOM     19  C   UNL     1       8.533  17.551  35.142  1.00  0.00     0.000 C 
BRANCH  19  20
ATOM     20  C   UNL     1       8.588  18.181  33.736  1.00  0.00     0.000 C 
BRANCH  20  21
ATOM     21  C   UNL     1       9.749  17.696  32.847  1.00  0.00     0.000 C 
BRANCH  21  22
ATOM     22  C   UNL     1      10.124  18.709  31.750  1.00  0.00    -0.000 C 
BRANCH  22  23
ATOM     23  C   UNL     1       9.270  18.542  30.478  1.00  0.00    -0.000 C 
BRANCH  23  24
ATOM     24  C   UNL     1       8.433  19.783  30.100  1.00  0.00    -0.000 C 
BRANCH  24  25
ATOM     25  C   UNL     1       8.249  20.826  31.222  1.00  0.00    -0.000 C 
BRANCH  25  26
ATOM     26  C   UNL     1       8.795  22.228  30.903  1.00  0.00    -0.000 C 
BRANCH  26  27
ATOM     27  C   UNL     1       9.755  22.746  31.987  1.00  0.00    -0.000 C 
BRANCH  27  28
ATOM     28  C   UNL     1       9.279  22.390  33.405  1.00  0.00    -0.000 C 
BRANCH  28  29
ATOM     29  C   UNL     1      10.432  21.921  34.305  1.00  0.00    -0.003 C 
ATOM     30  C   UNL     1      11.626  21.464  33.472  1.00  0.00     0.004 C 
ENDBRANCH  28  29
ENDBRANCH  27  28
ENDBRANCH  26  27
ENDBRANCH  25  26
ENDBRANCH  24  25
ENDBRANCH  23  24
ENDBRANCH  22  23
ENDBRANCH  21  22
ENDBRANCH  20  21
ENDBRANCH  19  20
ENDBRANCH  18  19
ENDBRANCH  17  18
ENDBRANCH   1  17
TORSDOF 26
ENDMDL
MODEL 2
REMARK VINA RESULT:    -5.189      2.512      5.035
REMARK INTER + INTRA:         -17.741
REMARK INTER:                 -12.304
REMARK INTRA:                  -5.437
REMARK UNBOUND:                -4.665
REMARK SMILES CCCCCCCCCCCCCCCCCCCCCCCCCCCC(=O)[O-]
REMARK SMILES IDX 15 1 16 2 17 3 18 4 19 5 20 6 21 7 22 8 23 9 24 10 25 11
REMARK SMILES IDX 26 12 27 13 28 14 29 15 30 16 14 17 13 18 12 19 11 20 10 21
REMARK SMILES IDX 9 22 8 23 7 24 6 25 5 26 4 27 3 28 2 29 1 30
REMARK H PARENT
REMARK Flexibility Score: inf
ROOT
ATOM      1  C   UNL     1       9.902  17.675  32.897  1.00  0.00     0.000 C 
ENDROOT
BRANCH   1   2
ATOM      2  C   UNL     1      10.789  18.759  33.533  1.00  0.00     0.000 C 
BRANCH   2   3
ATOM      3  C   UNL     1      10.199  19.325  34.837  1.00  0.00     0.000 C 
BRANCH   3   4
ATOM      4  C   UNL     1       9.643  18.232  35.767  1.00  0.00     0.000 C 
BRANCH   4   5
ATOM      5  C   UNL     1       8.218  18.482  36.299  1.00  0.00     0.000 C 
BRANCH   5   6
ATOM      6  C   UNL     1       8.118  19.463  37.480  1.00  0.00     0.000 C 
BRANCH   6   7
ATOM      7  C   UNL     1       8.990  19.048  38.677  1.00  0.00     0.000 C 
BRANCH   7   8
ATOM      8  C   UNL     1       9.696  20.243  39.346  1.00  0.00     0.000 C 
BRANCH   8   9
ATOM      9  C   UNL     1      11.230  20.253  39.207  1.00  0.00     0.000 C 
BRANCH   9  10
ATOM     10  C   UNL     1      11.705  20.645  37.796  1.00  0.00     0.000 C 
BRANCH  10  11
ATOM     11  C   UNL     1      13.228  20.841  37.720  1.00  0.00     0.000 C 
BRANCH  11  12
ATOM     12  C   UNL     1      13.996  19.515  37.598  1.00  0.00     0.006 C 
BRANCH  12  13
ATOM     13  C   UNL     1      13.370  18.616  36.528  1.00  0.00     0.053 C 
BRANCH  13  14
ATOM     14  C   UNL     1      13.139  17.240  37.069  1.00  0.00     0.041 C 
ATOM     15  O   UNL     1      12.692  16.332  36.321  1.00  0.00    -0.550 OA
ATOM     16  O   UNL     1      13.380  16.971  38.412  1.00  0.00    -0.550 OA
ENDBRANCH  13  14
ENDBRANCH  12  13
ENDBRANCH  11  12
ENDBRANCH  10  11
ENDBRANCH   9  10
ENDBRANCH   8   9
ENDBRANCH   7   8
ENDBRANCH   6   7
ENDBRANCH   5   6
ENDBRANCH   4   5
ENDBRANCH   3   4
ENDBRANCH   2   3
ENDBRANCH   1   2
BRANCH   1  17
ATOM     17  C   UNL     1       8.687  18.211  32.119  1.00  0.00     0.000 C 
BRANCH  17  18
ATOM     18  C   UNL     1       9.090  19.035  30.884  1.00  0.00     0.000 C 
BRANCH  18  19
ATOM     19  C   UNL     1       8.413  20.415  30.843  1.00  0.00     0.000 C 
BRANCH  19  20
ATOM     20  C   UNL     1       8.369  21.163  32.190  1.00  0.00     0.000 C 
BRANCH  20  21
ATOM     21  C   UNL     1       8.610  22.682  32.104  1.00  0.00     0.000 C 
BRANCH  21  22
ATOM     22  C   UNL     1      10.038  23.036  31.648  1.00  0.00    -0.000 C 
BRANCH  22  23
ATOM     23  C   UNL     1      11.113  22.230  32.403  1.00  0.00    -0.000 C 
BRANCH  23  24
ATOM     24  C   UNL     1      11.958  23.059  33.393  1.00  0.00    -0.000 C 
BRANCH  24  25
ATOM     25  C   UNL     1      11.631  22.843  34.886  1.00  0.00    -0.000 C 
BRANCH  25  26
ATOM     26  C   UNL     1      10.413  23.629  35.405  1.00  0.00    -0.000 C 
BRANCH  26  27
ATOM     27  C   UNL     1       9.280  22.707  35.883  1.00  0.00    -0.000 C 
BRANCH  27  28
ATOM     28  C   UNL     1       8.825  23.037  37.315  1.00  0.00    -0.000 C 
BRANCH  28  29
ATOM     29  C   UNL     1       9.867  23.865  38.080  1.00  0.00    -0.003 C 
ATOM     30  C   UNL     1       9.245  24.533  39.303  1.00  0.00     0.004 C 
ENDBRANCH  28  29
ENDBRANCH  27  28
ENDBRANCH  26  27
ENDBRANCH  25  26
ENDBRANCH  24  25
ENDBRANCH  23  24
ENDBRANCH  22  23
ENDBRANCH  21  22
ENDBRANCH  20  21
ENDBRANCH  19  20
ENDBRANCH  18  19
ENDBRANCH  17  18
ENDBRANCH   1  17
TORSDOF 26
ENDMDL
MODEL 3
REMARK VINA RESULT:    -5.153      2.722      4.519
REMARK INTER + INTRA:         -17.651
REMARK INTER:                 -12.420
REMARK INTRA:                  -5.232
REMARK UNBOUND:                -4.665
REMARK SMILES CCCCCCCCCCCCCCCCCCCCCCCCCCCC(=O)[O-]
REMARK SMILES IDX 15 1 16 2 17 3 18 4 19 5 20 6 21 7 22 8 23 9 24 10 25 11
REMARK SMILES IDX 26 12 27 13 28 14 29 15 30 16 14 17 13 18 12 19 11 20 10 21
REMARK SMILES IDX 9 22 8 23 7 24 6 25 5 26 4 27 3 28 2 29 1 30
REMARK H PARENT
REMARK Flexibility Score: inf
ROOT
ATOM      1  C   UNL     1       9.042  20.914  36.796  1.00  0.00     0.000 C 
ENDROOT
BRANCH   1   2
ATOM      2  C   UNL     1       8.942  22.356  37.323  1.00  0.00     0.000 C 
BRANCH   2   3
ATOM      3  C   UNL     1       9.762  23.355  36.488  1.00  0.00     0.000 C 
BRANCH   3   4
ATOM      4  C   UNL     1      10.468  24.418  37.349  1.00  0.00     0.000 C 
BRANCH   4   5
ATOM      5  C   UNL     1      10.149  24.363  38.856  1.00  0.00     0.000 C 
BRANCH   5   6
ATOM      6  C   UNL     1      11.263  23.785  39.745  1.00  0.00     0.000 C 
BRANCH   6   7
ATOM      7  C   UNL     1      12.471  23.282  38.938  1.00  0.00     0.000 C 
BRANCH   7   8
ATOM      8  C   UNL     1      12.551  21.744  38.874  1.00  0.00     0.000 C 
BRANCH   8   9
ATOM      9  C   UNL     1      12.681  21.158  37.456  1.00  0.00     0.000 C 
BRANCH   9  10
ATOM     10  C   UNL     1      13.563  19.898  37.403  1.00  0.00     0.000 C 
BRANCH  10  11
ATOM     11  C   UNL     1      13.976  19.409  38.801  1.00  0.00     0.000 C 
BRANCH  11  12
ATOM     12  C   UNL     1      14.720  18.065  38.769  1.00  0.00     0.006 C 
BRANCH  12  13
ATOM     13  C   UNL     1      13.773  16.924  38.386  1.00  0.00     0.053 C 
BRANCH  13  14
ATOM     14  C   UNL     1      14.471  15.936  37.506  1.00  0.00     0.041 C 
ATOM     15  O   UNL     1      14.882  14.844  37.980  1.00  0.00    -0.550 OA
ATOM     16  O   UNL     1      14.703  16.238  36.169  1.00  0.00    -0.550 OA
ENDBRANCH  13  14
ENDBRANCH  12  13
ENDBRANCH  11  12
ENDBRANCH  10  11
ENDBRANCH   9  10
ENDBRANCH   8   9
ENDBRANCH   7   8
ENDBRANCH   6   7
ENDBRANCH   5   6
ENDBRANCH   4   5
ENDBRANCH   3   4
ENDBRANCH   2   3
ENDBRANCH   1   2
BRANCH   1  17
ATOM     17  C   UNL     1       8.244  19.875  37.604  1.00  0.00     0.000 C 
BRANCH  17  18
ATOM     18  C   UNL     1       9.053  19.282  38.770  1.00  0.00     0.000 C 
BRANCH  18  19
ATOM     19  C   UNL     1      10.308  18.528  38.299  1.00  0.00     0.000 C 
BRANCH  19  20
ATOM     20  C   UNL     1      10.060  17.446  37.229  1.00  0.00     0.000 C 
BRANCH  20  21
ATOM     21  C   UNL     1      11.053  17.450  36.052  1.00  0.00     0.000 C 
BRANCH  21  22
ATOM     22  C   UNL     1      10.399  17.862  34.720  1.00  0.00    -0.000 C 
BRANCH  22  23
ATOM     23  C   UNL     1       8.872  17.655  34.725  1.00  0.00    -0.000 C 
BRANCH  23  24
ATOM     24  C   UNL     1       8.122  18.379  33.587  1.00  0.00    -0.000 C 
BRANCH  24  25
ATOM     25  C   UNL     1       8.858  18.422  32.231  1.00  0.00    -0.000 C 
BRANCH  25  26
ATOM     26  C   UNL     1       8.871  19.798  31.542  1.00  0.00    -0.000 C 
BRANCH  26  27
ATOM     27  C   UNL     1       8.872  20.960  32.549  1.00  0.00    -0.000 C 
BRANCH  27  28
ATOM     28  C   UNL     1      10.203  21.729  32.551  1.00  0.00    -0.000 C 
BRANCH  28  29
ATOM     29  C   UNL     1      11.117  21.307  33.711  1.00  0.00    -0.003 C 
ATOM     30  C   UNL     1      12.271  22.290  33.885  1.00  0.00     0.004 C 
ENDBRANCH  28  29
ENDBRANCH  27  28
ENDBRANCH  26  27
ENDBRANCH  25  26
ENDBRANCH  24  25
ENDBRANCH  23  24
ENDBRANCH  22  23
ENDBRANCH  21  22
ENDBRANCH  20  21
ENDBRANCH  19  20
ENDBRANCH  18  19
ENDBRANCH  17  18
ENDBRANCH   1  17
TORSDOF 26
ENDMDL
MODEL 4
REMARK VINA RESULT:    -5.139      2.122      7.226
REMARK INTER + INTRA:         -17.615
REMARK INTER:                 -13.612
REMARK INTRA:                  -4.003
REMARK UNBOUND:                -4.665
REMARK SMILES CCCCCCCCCCCCCCCCCCCCCCCCCCCC(=O)[O-]
REMARK SMILES IDX 15 1 16 2 17 3 18 4 19 5 20 6 21 7 22 8 23 9 24 10 25 11
REMARK SMILES IDX 26 12 27 13 28 14 29 15 30 16 14 17 13 18 12 19 11 20 10 21
REMARK SMILES IDX 9 22 8 23 7 24 6 25 5 26 4 27 3 28 2 29 1 30
REMARK H PARENT
REMARK Flexibility Score: inf
ROOT
ATOM      1  C   UNL     1       9.975  18.066  32.591  1.00  0.00     0.000 C 
ENDROOT
BRANCH   1   2
ATOM      2  C   UNL     1       9.794  17.367  31.232  1.00  0.00     0.000 C 
BRANCH   2   3
ATOM      3  C   UNL     1       9.401  18.342  30.108  1.00  0.00     0.000 C 
BRANCH   3   4
ATOM      4  C   UNL     1       8.637  19.575  30.623  1.00  0.00     0.000 C 
BRANCH   4   5
ATOM      5  C   UNL     1       8.134  20.541  29.532  1.00  0.00     0.000 C 
BRANCH   5   6
ATOM      6  C   UNL     1       8.013  22.014  29.960  1.00  0.00     0.000 C 
BRANCH   6   7
ATOM      7  C   UNL     1       8.460  22.252  31.412  1.00  0.00     0.000 C 
BRANCH   7   8
ATOM      8  C   UNL     1       9.680  23.187  31.517  1.00  0.00     0.000 C 
BRANCH   8   9
ATOM      9  C   UNL     1      10.871  22.616  32.309  1.00  0.00     0.000 C 
BRANCH   9  10
ATOM     10  C   UNL     1      10.488  21.413  33.189  1.00  0.00     0.000 C 
BRANCH  10  11
ATOM     11  C   UNL     1      11.589  21.045  34.196  1.00  0.00     0.000 C 
BRANCH  11  12
ATOM     12  C   UNL     1      11.841  22.147  35.237  1.00  0.00     0.006 C 
BRANCH  12  13
ATOM     13  C   UNL     1      10.599  22.378  36.103  1.00  0.00     0.053 C 
BRANCH  13  14
ATOM     14  C   UNL     1      10.383  23.841  36.331  1.00  0.00     0.041 C 
ATOM     15  O   UNL     1      10.028  24.584  35.379  1.00  0.00    -0.550 OA
ATOM     16  O   UNL     1      10.612  24.390  37.587  1.00  0.00    -0.550 OA
ENDBRANCH  13  14
ENDBRANCH  12  13
ENDBRANCH  11  12
ENDBRANCH  10  11
ENDBRANCH   9  10
ENDBRANCH   8   9
ENDBRANCH   7   8
ENDBRANCH   6   7
ENDBRANCH   5   6
ENDBRANCH   4   5
ENDBRANCH   3   4
ENDBRANCH   2   3
ENDBRANCH   1   2
BRANCH   1  17
ATOM     17  C   UNL     1       8.984  17.620  33.681  1.00  0.00     0.000 C 
BRANCH  17  18
ATOM     18  C   UNL     1       8.532  18.782  34.583  1.00  0.00     0.000 C 
BRANCH  18  19
ATOM     19  C   UNL     1       9.068  18.662  36.019  1.00  0.00     0.000 C 
BRANCH  19  20
ATOM     20  C   UNL     1       9.900  17.397  36.305  1.00  0.00     0.000 C 
BRANCH  20  21
ATOM     21  C   UNL     1      11.410  17.634  36.490  1.00  0.00     0.000 C 
BRANCH  21  22
ATOM     22  C   UNL     1      12.250  17.085  35.322  1.00  0.00    -0.000 C 
BRANCH  22  23
ATOM     23  C   UNL     1      13.761  17.103  35.624  1.00  0.00    -0.000 C 
BRANCH  23  24
ATOM     24  C   UNL     1      14.222  16.051  36.656  1.00  0.00    -0.000 C 
BRANCH  24  25
ATOM     25  C   UNL     1      15.154  16.578  37.767  1.00  0.00    -0.000 C 
BRANCH  25  26
ATOM     26  C   UNL     1      14.564  17.707  38.631  1.00  0.00    -0.000 C 
BRANCH  26  27
ATOM     27  C   UNL     1      15.389  19.001  38.550  1.00  0.00    -0.000 C 
BRANCH  27  28
ATOM     28  C   UNL     1      14.889  19.944  37.444  1.00  0.00    -0.000 C 
BRANCH  28  29
ATOM     29  C   UNL     1      15.959  20.203  36.372  1.00  0.00    -0.003 C 
ATOM     30  C   UNL     1      16.035  21.686  36.022  1.00  0.00     0.004 C 
ENDBRANCH  28  29
ENDBRANCH  27  28
ENDBRANCH  26  27
ENDBRANCH  25  26
ENDBRANCH  24  25
ENDBRANCH  23  24
ENDBRANCH  22  23
ENDBRANCH  21  22
ENDBRANCH  20  21
ENDBRANCH  19  20
ENDBRANCH  18  19
ENDBRANCH  17  18
ENDBRANCH   1  17
TORSDOF 26
ENDMDL
MODEL 5
REMARK VINA RESULT:    -5.133      2.835      6.499
REMARK INTER + INTRA:         -17.601
REMARK INTER:                 -11.885
REMARK INTRA:                  -5.716
REMARK UNBOUND:                -4.665
REMARK SMILES CCCCCCCCCCCCCCCCCCCCCCCCCCCC(=O)[O-]
REMARK SMILES IDX 15 1 16 2 17 3 18 4 19 5 20 6 21 7 22 8 23 9 24 10 25 11
REMARK SMILES IDX 26 12 27 13 28 14 29 15 30 16 14 17 13 18 12 19 11 20 10 21
REMARK SMILES IDX 9 22 8 23 7 24 6 25 5 26 4 27 3 28 2 29 1 30
REMARK H PARENT
REMARK Flexibility Score: inf
ROOT
ATOM      1  C   UNL     1       8.006  18.124  35.805  1.00  0.00     0.000 C 
ENDROOT
BRANCH   1   2
ATOM      2  C   UNL     1       8.286  19.475  36.487  1.00  0.00     0.000 C 
BRANCH   2   3
ATOM      3  C   UNL     1       8.480  19.347  38.008  1.00  0.00     0.000 C 
BRANCH   3   4
ATOM      4  C   UNL     1       9.700  18.489  38.387  1.00  0.00     0.000 C 
BRANCH   4   5
ATOM      5  C   UNL     1      10.843  19.246  39.093  1.00  0.00     0.000 C 
BRANCH   5   6
ATOM      6  C   UNL     1      11.684  20.163  38.188  1.00  0.00     0.000 C 
BRANCH   6   7
ATOM      7  C   UNL     1      11.891  21.565  38.785  1.00  0.00     0.000 C 
BRANCH   7   8
ATOM      8  C   UNL     1      10.580  22.201  39.288  1.00  0.00     0.000 C 
BRANCH   8   9
ATOM      9  C   UNL     1      10.075  23.393  38.454  1.00  0.00     0.000 C 
BRANCH   9  10
ATOM     10  C   UNL     1       9.149  22.972  37.299  1.00  0.00     0.000 C 
BRANCH  10  11
ATOM     11  C   UNL     1       9.732  23.319  35.920  1.00  0.00     0.000 C 
BRANCH  11  12
ATOM     12  C   UNL     1      10.619  22.203  35.347  1.00  0.00     0.006 C 
BRANCH  12  13
ATOM     13  C   UNL     1      11.840  22.787  34.630  1.00  0.00     0.053 C 
BRANCH  13  14
ATOM     14  C   UNL     1      11.426  23.489  33.375  1.00  0.00     0.041 C 
ATOM     15  O   UNL     1      10.957  22.833  32.409  1.00  0.00    -0.550 OA
ATOM     16  O   UNL     1      11.596  24.864  33.258  1.00  0.00    -0.550 OA
ENDBRANCH  13  14
ENDBRANCH  12  13
ENDBRANCH  11  12
ENDBRANCH  10  11
ENDBRANCH   9  10
ENDBRANCH   8   9
ENDBRANCH   7   8
ENDBRANCH   6   7
ENDBRANCH   5   6
ENDBRANCH   4   5
ENDBRANCH   3   4
ENDBRANCH   2   3
ENDBRANCH   1   2
BRANCH   1  17
ATOM     17  C   UNL     1       8.218  18.115  34.281  1.00  0.00     0.000 C 
BRANCH  17  18
ATOM     18  C   UNL     1       8.519  19.514  33.715  1.00  0.00     0.000 C 
BRANCH  18  19
ATOM     19  C   UNL     1       9.926  19.617  33.104  1.00  0.00     0.000 C 
BRANCH  19  20
ATOM     20  C   UNL     1      10.879  18.457  33.453  1.00  0.00     0.000 C 
BRANCH  20  21
ATOM     21  C   UNL     1      11.804  18.709  34.659  1.00  0.00     0.000 C 
BRANCH  21  22
ATOM     22  C   UNL     1      11.926  17.485  35.585  1.00  0.00    -0.000 C 
BRANCH  22  23
ATOM     23  C   UNL     1      13.362  16.929  35.638  1.00  0.00    -0.000 C 
BRANCH  23  24
ATOM     24  C   UNL     1      13.688  16.114  36.908  1.00  0.00    -0.000 C 
BRANCH  24  25
ATOM     25  C   UNL     1      13.644  16.905  38.233  1.00  0.00    -0.000 C 
BRANCH  25  26
ATOM     26  C   UNL     1      14.982  17.534  38.659  1.00  0.00    -0.000 C 
BRANCH  26  27
ATOM     27  C   UNL     1      15.156  18.964  38.122  1.00  0.00    -0.000 C 
BRANCH  27  28
ATOM     28  C   UNL     1      16.106  19.022  36.914  1.00  0.00    -0.000 C 
BRANCH  28  29
ATOM     29  C   UNL     1      16.054  20.379  36.198  1.00  0.00    -0.003 C 
ATOM     30  C   UNL     1      14.656  20.986  36.274  1.00  0.00     0.004 C 
ENDBRANCH  28  29
ENDBRANCH  27  28
ENDBRANCH  26  27
ENDBRANCH  25  26
ENDBRANCH  24  25
ENDBRANCH  23  24
ENDBRANCH  22  23
ENDBRANCH  21  22
ENDBRANCH  20  21
ENDBRANCH  19  20
ENDBRANCH  18  19
ENDBRANCH  17  18
ENDBRANCH   1  17
TORSDOF 26
ENDMDL
MODEL 6
REMARK VINA RESULT:    -5.128      2.389      4.495
REMARK INTER + INTRA:         -17.588
REMARK INTER:                 -13.118
REMARK INTRA:                  -4.470
REMARK UNBOUND:                -4.665
REMARK SMILES CCCCCCCCCCCCCCCCCCCCCCCCCCCC(=O)[O-]
REMARK SMILES IDX 15 1 16 2 17 3 18 4 19 5 20 6 21 7 22 8 23 9 24 10 25 11
REMARK SMILES IDX 26 12 27 13 28 14 29 15 30 16 14 17 13 18 12 19 11 20 10 21
REMARK SMILES IDX 9 22 8 23 7 24 6 25 5 26 4 27 3 28 2 29 1 30
REMARK H PARENT
REMARK Flexibility Score: inf
ROOT
ATOM      1  C   UNL     1       8.072  18.726  35.977  1.00  0.00     0.000 C 
ENDROOT
BRANCH   1   2
ATOM      2  C   UNL     1       8.687  17.333  35.762  1.00  0.00     0.000 C 
BRANCH   2   3
ATOM      3  C   UNL     1       9.410  17.201  34.410  1.00  0.00     0.000 C 
BRANCH   3   4
ATOM      4  C   UNL     1      10.929  17.432  34.517  1.00  0.00     0.000 C 
BRANCH   4   5
ATOM      5  C   UNL     1      11.413  18.833  34.093  1.00  0.00     0.000 C 
BRANCH   5   6
ATOM      6  C   UNL     1      11.625  19.832  35.243  1.00  0.00     0.000 C 
BRANCH   6   7
ATOM      7  C   UNL     1      12.036  19.151  36.559  1.00  0.00     0.000 C 
BRANCH   7   8
ATOM      8  C   UNL     1      12.685  20.126  37.560  1.00  0.00     0.000 C 
BRANCH   8   9
ATOM      9  C   UNL     1      14.197  20.346  37.368  1.00  0.00     0.000 C 
BRANCH   9  10
ATOM     10  C   UNL     1      15.056  19.314  38.121  1.00  0.00     0.000 C 
BRANCH  10  11
ATOM     11  C   UNL     1      16.132  18.679  37.226  1.00  0.00     0.000 C 
BRANCH  11  12
ATOM     12  C   UNL     1      15.553  18.034  35.957  1.00  0.00     0.006 C 
BRANCH  12  13
ATOM     13  C   UNL     1      15.751  16.516  35.974  1.00  0.00     0.053 C 
BRANCH  13  14
ATOM     14  C   UNL     1      14.790  15.872  36.923  1.00  0.00     0.041 C 
ATOM     15  O   UNL     1      13.550  16.012  36.760  1.00  0.00    -0.550 OA
ATOM     16  O   UNL     1      15.266  15.150  38.013  1.00  0.00    -0.550 OA
ENDBRANCH  13  14
ENDBRANCH  12  13
ENDBRANCH  11  12
ENDBRANCH  10  11
ENDBRANCH   9  10
ENDBRANCH   8   9
ENDBRANCH   7   8
ENDBRANCH   6   7
ENDBRANCH   5   6
ENDBRANCH   4   5
ENDBRANCH   3   4
ENDBRANCH   2   3
ENDBRANCH   1   2
BRANCH   1  17
ATOM     17  C   UNL     1       8.448  19.398  37.310  1.00  0.00     0.000 C 
BRANCH  17  18
ATOM     18  C   UNL     1       8.266  20.925  37.277  1.00  0.00     0.000 C 
BRANCH  18  19
ATOM     19  C   UNL     1       9.508  21.682  37.780  1.00  0.00     0.000 C 
BRANCH  19  20
ATOM     20  C   UNL     1       9.963  22.857  36.892  1.00  0.00     0.000 C 
BRANCH  20  21
ATOM     21  C   UNL     1       9.222  22.987  35.547  1.00  0.00     0.000 C 
BRANCH  21  22
ATOM     22  C   UNL     1       9.827  24.069  34.634  1.00  0.00    -0.000 C 
BRANCH  22  23
ATOM     23  C   UNL     1      11.089  23.580  33.898  1.00  0.00    -0.000 C 
BRANCH  23  24
ATOM     24  C   UNL     1      10.840  22.451  32.876  1.00  0.00    -0.000 C 
BRANCH  24  25
ATOM     25  C   UNL     1       9.870  22.799  31.727  1.00  0.00    -0.000 C 
BRANCH  25  26
ATOM     26  C   UNL     1       8.431  22.286  31.913  1.00  0.00    -0.000 C 
BRANCH  26  27
ATOM     27  C   UNL     1       8.376  20.771  32.167  1.00  0.00    -0.000 C 
BRANCH  27  28
ATOM     28  C   UNL     1       8.726  19.956  30.911  1.00  0.00    -0.000 C 
BRANCH  28  29
ATOM     29  C   UNL     1       8.954  18.470  31.227  1.00  0.00    -0.003 C 
ATOM     30  C   UNL     1       9.917  17.839  30.225  1.00  0.00     0.004 C 
ENDBRANCH  28  29
ENDBRANCH  27  28
ENDBRANCH  26  27
ENDBRANCH  25  26
ENDBRANCH  24  25
ENDBRANCH  23  24
ENDBRANCH  22  23
ENDBRANCH  21  22
ENDBRANCH  20  21
ENDBRANCH  19  20
ENDBRANCH  18  19
ENDBRANCH  17  18
ENDBRANCH   1  17
TORSDOF 26
ENDMDL
MODEL 7
REMARK VINA RESULT:    -5.123      2.647      6.634
REMARK INTER + INTRA:         -17.575
REMARK INTER:                 -12.336
REMARK INTRA:                  -5.239
REMARK UNBOUND:                -4.665
REMARK SMILES CCCCCCCCCCCCCCCCCCCCCCCCCCCC(=O)[O-]
REMARK SMILES IDX 15 1 16 2 17 3 18 4 19 5 20 6 21 7 22 8 23 9 24 10 25 11
REMARK SMILES IDX 26 12 27 13 28 14 29 15 30 16 14 17 13 18 12 19 11 20 10 21
REMARK SMILES IDX 9 22 8 23 7 24 6 25 5 26 4 27 3 28 2 29 1 30
REMARK H PARENT
REMARK Flexibility Score: inf
ROOT
ATOM      1  C   UNL     1      10.572  20.051  32.756  1.00  0.00     0.000 C 
ENDROOT
BRANCH   1   2
ATOM      2  C   UNL     1      10.123  19.077  31.652  1.00  0.00     0.000 C 
BRANCH   2   3
ATOM      3  C   UNL     1       9.520  17.777  32.213  1.00  0.00     0.000 C 
BRANCH   3   4
ATOM      4  C   UNL     1      10.104  17.387  33.583  1.00  0.00     0.000 C 
BRANCH   4   5
ATOM      5  C   UNL     1       9.065  17.130  34.693  1.00  0.00     0.000 C 
BRANCH   5   6
ATOM      6  C   UNL     1       8.021  18.243  34.888  1.00  0.00     0.000 C 
BRANCH   6   7
ATOM      7  C   UNL     1       8.483  19.331  35.870  1.00  0.00     0.000 C 
BRANCH   7   8
ATOM      8  C   UNL     1       9.036  18.753  37.187  1.00  0.00     0.000 C 
BRANCH   8   9
ATOM      9  C   UNL     1      10.446  19.241  37.570  1.00  0.00     0.000 C 
BRANCH   9  10
ATOM     10  C   UNL     1      11.217  19.846  36.384  1.00  0.00     0.000 C 
BRANCH  10  11
ATOM     11  C   UNL     1      12.408  18.976  35.950  1.00  0.00     0.000 C 
BRANCH  11  12
ATOM     12  C   UNL     1      12.336  17.543  36.503  1.00  0.00     0.006 C 
BRANCH  12  13
ATOM     13  C   UNL     1      13.503  16.697  35.985  1.00  0.00     0.053 C 
BRANCH  13  14
ATOM     14  C   UNL     1      14.284  16.126  37.126  1.00  0.00     0.041 C 
ATOM     15  O   UNL     1      15.361  15.510  36.910  1.00  0.00    -0.550 OA
ATOM     16  O   UNL     1      13.802  16.239  38.425  1.00  0.00    -0.550 OA
ENDBRANCH  13  14
ENDBRANCH  12  13
ENDBRANCH  11  12
ENDBRANCH  10  11
ENDBRANCH   9  10
ENDBRANCH   8   9
ENDBRANCH   7   8
ENDBRANCH   6   7
ENDBRANCH   5   6
ENDBRANCH   4   5
ENDBRANCH   3   4
ENDBRANCH   2   3
ENDBRANCH   1   2
BRANCH   1  17
ATOM     17  C   UNL     1      10.063  21.494  32.587  1.00  0.00     0.000 C 
BRANCH  17  18
ATOM     18  C   UNL     1       9.556  22.102  33.906  1.00  0.00     0.000 C 
BRANCH  18  19
ATOM     19  C   UNL     1      10.620  22.960  34.612  1.00  0.00     0.000 C 
BRANCH  19  20
ATOM     20  C   UNL     1      10.149  23.655  35.905  1.00  0.00     0.000 C 
BRANCH  20  21
ATOM     21  C   UNL     1       9.080  22.890  36.707  1.00  0.00     0.000 C 
BRANCH  21  22
ATOM     22  C   UNL     1       9.421  22.782  38.205  1.00  0.00    -0.000 C 
BRANCH  22  23
ATOM     23  C   UNL     1       9.557  24.162  38.878  1.00  0.00    -0.000 C 
BRANCH  23  24
ATOM     24  C   UNL     1      10.817  24.328  39.753  1.00  0.00    -0.000 C 
BRANCH  24  25
ATOM     25  C   UNL     1      12.160  24.300  38.992  1.00  0.00    -0.000 C 
BRANCH  25  26
ATOM     26  C   UNL     1      13.166  23.246  39.486  1.00  0.00    -0.000 C 
BRANCH  26  27
ATOM     27  C   UNL     1      12.849  21.838  38.955  1.00  0.00    -0.000 C 
BRANCH  27  28
ATOM     28  C   UNL     1      14.118  21.065  38.558  1.00  0.00    -0.000 C 
BRANCH  28  29
ATOM     29  C   UNL     1      14.161  19.661  39.179  1.00  0.00    -0.003 C 
ATOM     30  C   UNL     1      15.238  19.572  40.257  1.00  0.00     0.004 C 
ENDBRANCH  28  29
ENDBRANCH  27  28
ENDBRANCH  26  27
ENDBRANCH  25  26
ENDBRANCH  24  25
ENDBRANCH  23  24
ENDBRANCH  22  23
ENDBRANCH  21  22
ENDBRANCH  20  21
ENDBRANCH  19  20
ENDBRANCH  18  19
ENDBRANCH  17  18
ENDBRANCH   1  17
TORSDOF 26
ENDMDL
MODEL 8
REMARK VINA RESULT:    -5.107      2.403      4.990
REMARK INTER + INTRA:         -17.535
REMARK INTER:                 -12.364
REMARK INTRA:                  -5.171
REMARK UNBOUND:                -4.665
REMARK SMILES CCCCCCCCCCCCCCCCCCCCCCCCCCCC(=O)[O-]
REMARK SMILES IDX 15 1 16 2 17 3 18 4 19 5 20 6 21 7 22 8 23 9 24 10 25 11
REMARK SMILES IDX 26 12 27 13 28 14 29 15 30 16 14 17 13 18 12 19 11 20 10 21
REMARK SMILES IDX 9 22 8 23 7 24 6 25 5 26 4 27 3 28 2 29 1 30
REMARK H PARENT
REMARK Flexibility Score: inf
ROOT
ATOM      1  C   UNL     1       9.797  17.733  33.539  1.00  0.00     0.000 C 
ENDROOT
BRANCH   1   2
ATOM      2  C   UNL     1       9.201  16.998  34.752  1.00  0.00     0.000 C 
BRANCH   2   3
ATOM      3  C   UNL     1       9.354  17.789  36.063  1.00  0.00     0.000 C 
BRANCH   3   4
ATOM      4  C   UNL     1       8.242  18.835  36.266  1.00  0.00     0.000 C 
BRANCH   4   5
ATOM      5  C   UNL     1       8.067  19.337  37.713  1.00  0.00     0.000 C 
BRANCH   5   6
ATOM      6  C   UNL     1       8.644  20.733  38.001  1.00  0.00     0.000 C 
BRANCH   6   7
ATOM      7  C   UNL     1       9.737  20.717  39.083  1.00  0.00     0.000 C 
BRANCH   7   8
ATOM      8  C   UNL     1      10.284  19.303  39.359  1.00  0.00     0.000 C 
BRANCH   8   9
ATOM      9  C   UNL     1      11.817  19.172  39.279  1.00  0.00     0.000 C 
BRANCH   9  10
ATOM     10  C   UNL     1      12.276  18.028  38.359  1.00  0.00     0.000 C 
BRANCH  10  11
ATOM     11  C   UNL     1      13.463  18.428  37.468  1.00  0.00     0.000 C 
BRANCH  11  12
ATOM     12  C   UNL     1      13.456  17.717  36.106  1.00  0.00     0.006 C 
BRANCH  12  13
ATOM     13  C   UNL     1      13.376  16.197  36.282  1.00  0.00     0.053 C 
BRANCH  13  14
ATOM     14  C   UNL     1      14.661  15.665  36.835  1.00  0.00     0.041 C 
ATOM     15  O   UNL     1      14.648  14.856  37.799  1.00  0.00    -0.550 OA
ATOM     16  O   UNL     1      15.875  16.095  36.311  1.00  0.00    -0.550 OA
ENDBRANCH  13  14
ENDBRANCH  12  13
ENDBRANCH  11  12
ENDBRANCH  10  11
ENDBRANCH   9  10
ENDBRANCH   8   9
ENDBRANCH   7   8
ENDBRANCH   6   7
ENDBRANCH   5   6
ENDBRANCH   4   5
ENDBRANCH   3   4
ENDBRANCH   2   3
ENDBRANCH   1   2
BRANCH   1  17
ATOM     17  C   UNL     1       8.765  18.443  32.645  1.00  0.00     0.000 C 
BRANCH  17  18
ATOM     18  C   UNL     1       9.173  18.456  31.162  1.00  0.00     0.000 C 
BRANCH  18  19
ATOM     19  C   UNL     1       8.632  19.683  30.408  1.00  0.00     0.000 C 
BRANCH  19  20
ATOM     20  C   UNL     1       8.253  20.883  31.297  1.00  0.00     0.000 C 
BRANCH  20  21
ATOM     21  C   UNL     1       8.912  22.220  30.908  1.00  0.00     0.000 C 
BRANCH  21  22
ATOM     22  C   UNL     1       9.570  22.932  32.105  1.00  0.00    -0.000 C 
BRANCH  22  23
ATOM     23  C   UNL     1       8.706  22.862  33.379  1.00  0.00    -0.000 C 
BRANCH  23  24
ATOM     24  C   UNL     1       9.394  22.187  34.585  1.00  0.00    -0.000 C 
BRANCH  24  25
ATOM     25  C   UNL     1      10.602  21.290  34.241  1.00  0.00    -0.000 C 
BRANCH  25  26
ATOM     26  C   UNL     1      11.435  20.829  35.450  1.00  0.00    -0.000 C 
BRANCH  26  27
ATOM     27  C   UNL     1      11.705  21.970  36.446  1.00  0.00    -0.000 C 
BRANCH  27  28
ATOM     28  C   UNL     1      13.171  22.005  36.908  1.00  0.00    -0.000 C 
BRANCH  28  29
ATOM     29  C   UNL     1      14.154  21.946  35.730  1.00  0.00    -0.003 C 
ATOM     30  C   UNL     1      15.475  21.307  36.150  1.00  0.00     0.004 C 
ENDBRANCH  28  29
ENDBRANCH  27  28
ENDBRANCH  26  27
ENDBRANCH  25  26
ENDBRANCH  24  25
ENDBRANCH  23  24
ENDBRANCH  22  23
ENDBRANCH  21  22
ENDBRANCH  20  21
ENDBRANCH  19  20
ENDBRANCH  18  19
ENDBRANCH  17  18
ENDBRANCH   1  17
TORSDOF 26
ENDMDL
MODEL 9
REMARK VINA RESULT:    -5.097      2.284      4.897
REMARK INTER + INTRA:         -17.509
REMARK INTER:                 -12.246
REMARK INTRA:                  -5.263
REMARK UNBOUND:                -4.665
REMARK SMILES CCCCCCCCCCCCCCCCCCCCCCCCCCCC(=O)[O-]
REMARK SMILES IDX 15 1 16 2 17 3 18 4 19 5 20 6 21 7 22 8 23 9 24 10 25 11
REMARK SMILES IDX 26 12 27 13 28 14 29 15 30 16 14 17 13 18 12 19 11 20 10 21
REMARK SMILES IDX 9 22 8 23 7 24 6 25 5 26 4 27 3 28 2 29 1 30
REMARK H PARENT
REMARK Flexibility Score: inf
ROOT
ATOM      1  C   UNL     1       9.667  18.032  33.455  1.00  0.00     0.000 C 
ENDROOT
BRANCH   1   2
ATOM      2  C   UNL     1       9.158  16.996  34.472  1.00  0.00     0.000 C 
BRANCH   2   3
ATOM      3  C   UNL     1       9.152  17.529  35.915  1.00  0.00     0.000 C 
BRANCH   3   4
ATOM      4  C   UNL     1       8.123  18.652  36.136  1.00  0.00     0.000 C 
BRANCH   4   5
ATOM      5  C   UNL     1       8.258  19.417  37.467  1.00  0.00     0.000 C 
BRANCH   5   6
ATOM      6  C   UNL     1       8.763  20.865  37.347  1.00  0.00     0.000 C 
BRANCH   6   7
ATOM      7  C   UNL     1      10.078  21.104  38.108  1.00  0.00     0.000 C 
BRANCH   7   8
ATOM      8  C   UNL     1      11.077  19.941  37.957  1.00  0.00     0.000 C 
BRANCH   8   9
ATOM      9  C   UNL     1      12.559  20.359  37.909  1.00  0.00     0.000 C 
BRANCH   9  10
ATOM     10  C   UNL     1      13.228  20.053  36.557  1.00  0.00     0.000 C 
BRANCH  10  11
ATOM     11  C   UNL     1      12.415  19.064  35.708  1.00  0.00     0.000 C 
BRANCH  11  12
ATOM     12  C   UNL     1      13.239  17.850  35.248  1.00  0.00     0.006 C 
BRANCH  12  13
ATOM     13  C   UNL     1      12.804  16.581  35.987  1.00  0.00     0.053 C 
BRANCH  13  14
ATOM     14  C   UNL     1      13.735  16.291  37.122  1.00  0.00     0.041 C 
ATOM     15  O   UNL     1      13.497  16.752  38.270  1.00  0.00    -0.550 OA
ATOM     16  O   UNL     1      14.888  15.545  36.904  1.00  0.00    -0.550 OA
ENDBRANCH  13  14
ENDBRANCH  12  13
ENDBRANCH  11  12
ENDBRANCH  10  11
ENDBRANCH   9  10
ENDBRANCH   8   9
ENDBRANCH   7   8
ENDBRANCH   6   7
ENDBRANCH   5   6
ENDBRANCH   4   5
ENDBRANCH   3   4
ENDBRANCH   2   3
ENDBRANCH   1   2
BRANCH   1  17
ATOM     17  C   UNL     1       8.628  18.470  32.407  1.00  0.00     0.000 C 
BRANCH  17  18
ATOM     18  C   UNL     1       9.205  18.512  30.981  1.00  0.00     0.000 C 
BRANCH  18  19
ATOM     19  C   UNL     1       8.660  19.689  30.154  1.00  0.00     0.000 C 
BRANCH  19  20
ATOM     20  C   UNL     1       7.995  20.813  30.974  1.00  0.00     0.000 C 
BRANCH  20  21
ATOM     21  C   UNL     1       8.697  22.182  30.897  1.00  0.00     0.000 C 
BRANCH  21  22
ATOM     22  C   UNL     1       8.763  22.898  32.259  1.00  0.00    -0.000 C 
BRANCH  22  23
ATOM     23  C   UNL     1       8.942  21.915  33.432  1.00  0.00    -0.000 C 
BRANCH  23  24
ATOM     24  C   UNL     1      10.410  21.628  33.810  1.00  0.00    -0.000 C 
BRANCH  24  25
ATOM     25  C   UNL     1      11.000  22.534  34.912  1.00  0.00    -0.000 C 
BRANCH  25  26
ATOM     26  C   UNL     1      12.357  23.175  34.570  1.00  0.00    -0.000 C 
BRANCH  26  27
ATOM     27  C   UNL     1      12.790  22.895  33.121  1.00  0.00    -0.000 C 
BRANCH  27  28
ATOM     28  C   UNL     1      13.094  24.186  32.343  1.00  0.00    -0.000 C 
BRANCH  28  29
ATOM     29  C   UNL     1      11.962  24.562  31.375  1.00  0.00    -0.003 C 
ATOM     30  C   UNL     1      11.053  25.628  31.982  1.00  0.00     0.004 C 
ENDBRANCH  28  29
ENDBRANCH  27  28
ENDBRANCH  26  27
ENDBRANCH  25  26
ENDBRANCH  24  25
ENDBRANCH  23  24
ENDBRANCH  22  23
ENDBRANCH  21  22
ENDBRANCH  20  21
ENDBRANCH  19  20
ENDBRANCH  18  19
ENDBRANCH  17  18
ENDBRANCH   1  17
TORSDOF 26
ENDMDL
