MODEL 1
REMARK VINA RESULT:    -4.375      0.000      0.000
REMARK INTER + INTRA:         -12.232
REMARK INTER:                  -9.489
REMARK INTRA:                  -2.743
REMARK UNBOUND:                -2.743
REMARK SMILES CCCCCCCCCCCCCCCCCCCCCC(=O)[O-]
REMARK SMILES IDX 12 1 11 2 10 3 9 4 8 5 7 6 6 7 5 8 4 9 3 10 2 11 1 12 13 13
REMARK SMILES IDX 14 14 15 15 16 16 17 17 18 18 19 19 20 20 21 21 22 22 23 23
REMARK SMILES IDX 24 24
REMARK H PARENT
REMARK Flexibility Score: inf
ROOT
ATOM      1  C   UNL     1      21.866 -14.599   2.428  1.00  0.00     0.000 C 
ENDROOT
BRANCH   1   2
ATOM      2  C   UNL     1      21.992 -13.625   1.245  1.00  0.00     0.000 C 
BRANCH   2   3
ATOM      3  C   UNL     1      23.446 -13.202   0.982  1.00  0.00     0.000 C 
BRANCH   3   4
ATOM      4  C   UNL     1      23.650 -11.678   1.069  1.00  0.00    -0.000 C 
BRANCH   4   5
ATOM      5  C   UNL     1      24.446 -11.272   2.329  1.00  0.00    -0.000 C 
BRANCH   5   6
ATOM      6  C   UNL     1      24.673 -12.428   3.316  1.00  0.00    -0.000 C 
BRANCH   6   7
ATOM      7  C   UNL     1      25.832 -12.164   4.291  1.00  0.00    -0.000 C 
BRANCH   7   8
ATOM      8  C   UNL     1      25.469 -12.510   5.745  1.00  0.00    -0.000 C 
BRANCH   8   9
ATOM      9  C   UNL     1      25.356 -11.263   6.641  1.00  0.00    -0.000 C 
BRANCH   9  10
ATOM     10  C   UNL     1      24.440 -11.489   7.855  1.00  0.00    -0.000 C 
BRANCH  10  11
ATOM     11  C   UNL     1      24.446 -10.301   8.828  1.00  0.00    -0.003 C 
ATOM     12  C   UNL     1      23.967  -9.025   8.140  1.00  0.00     0.004 C 
ENDBRANCH  10  11
ENDBRANCH   9  10
ENDBRANCH   8   9
ENDBRANCH   7   8
ENDBRANCH   6   7
ENDBRANCH   5   6
ENDBRANCH   4   5
ENDBRANCH   3   4
ENDBRANCH   2   3
ENDBRANCH   1   2
BRANCH   1  13
ATOM     13  C   UNL     1      21.863 -16.076   1.990  1.00  0.00     0.000 C 
BRANCH  13  14
ATOM     14  C   UNL     1      23.096 -16.894   2.427  1.00  0.00     0.000 C 
BRANCH  14  15
ATOM     15  C   UNL     1      24.283 -16.061   2.942  1.00  0.00     0.000 C 
BRANCH  15  16
ATOM     16  C   UNL     1      24.359 -16.023   4.479  1.00  0.00     0.000 C 
BRANCH  16  17
ATOM     17  C   UNL     1      23.924 -17.351   5.119  1.00  0.00     0.000 C 
BRANCH  17  18
ATOM     18  C   UNL     1      22.854 -17.155   6.207  1.00  0.00     0.000 C 
BRANCH  18  19
ATOM     19  C   UNL     1      21.518 -16.637   5.645  1.00  0.00     0.000 C 
BRANCH  19  20
ATOM     20  C   UNL     1      20.997 -15.339   6.297  1.00  0.00     0.006 C 
BRANCH  20  21
ATOM     21  C   UNL     1      22.079 -14.486   6.979  1.00  0.00     0.053 C 
BRANCH  21  22
ATOM     22  C   UNL     1      21.726 -14.166   8.399  1.00  0.00     0.041 C 
ATOM     23  O   UNL     1      21.457 -12.984   8.736  1.00  0.00    -0.550 OA
ATOM     24  O   UNL     1      21.660 -15.183   9.343  1.00  0.00    -0.550 OA
ENDBRANCH  21  22
ENDBRANCH  20  21
ENDBRANCH  19  20
ENDBRANCH  18  19
ENDBRANCH  17  18
ENDBRANCH  16  17
ENDBRANCH  15  16
ENDBRANCH  14  15
ENDBRANCH  13  14
ENDBRANCH   1  13
TORSDOF 20
ENDMDL
MODEL 2
REMARK VINA RESULT:    -4.328      1.759      4.797
REMARK INTER + INTRA:         -12.130
REMARK INTER:                  -8.706
REMARK INTRA:                  -3.424
REMARK UNBOUND:                -2.743
REMARK SMILES CCCCCCCCCCCCCCCCCCCCCC(=O)[O-]
REMARK SMILES IDX 12 1 11 2 10 3 9 4 8 5 7 6 6 7 5 8 4 9 3 10 2 11 1 12 13 13
REMARK SMILES IDX 14 14 15 15 16 16 17 17 18 18 19 19 20 20 21 21 22 22 23 23
REMARK SMILES IDX 24 24
REMARK H PARENT
REMARK Flexibility Score: inf
ROOT
ATOM      1  C   UNL     1      23.164 -12.869   1.433  1.00  0.00     0.000 C 
ENDROOT
BRANCH   1   2
ATOM      2  C   UNL     1      22.079 -13.674   2.167  1.00  0.00     0.000 C 
BRANCH   2   3
ATOM      3  C   UNL     1      21.653 -14.933   1.396  1.00  0.00     0.000 C 
BRANCH   3   4
ATOM      4  C   UNL     1      21.477 -16.162   2.307  1.00  0.00    -0.000 C 
BRANCH   4   5
ATOM      5  C   UNL     1      22.688 -17.117   2.232  1.00  0.00    -0.000 C 
BRANCH   5   6
ATOM      6  C   UNL     1      23.789 -16.801   3.258  1.00  0.00    -0.000 C 
BRANCH   6   7
ATOM      7  C   UNL     1      23.306 -16.932   4.712  1.00  0.00    -0.000 C 
BRANCH   7   8
ATOM      8  C   UNL     1      23.845 -15.809   5.614  1.00  0.00    -0.000 C 
BRANCH   8   9
ATOM      9  C   UNL     1      22.988 -14.531   5.545  1.00  0.00    -0.000 C 
BRANCH   9  10
ATOM     10  C   UNL     1      21.497 -14.806   5.803  1.00  0.00    -0.000 C 
BRANCH  10  11
ATOM     11  C   UNL     1      21.162 -14.881   7.300  1.00  0.00    -0.003 C 
ATOM     12  C   UNL     1      21.811 -13.731   8.067  1.00  0.00     0.004 C 
ENDBRANCH  10  11
ENDBRANCH   9  10
ENDBRANCH   8   9
ENDBRANCH   7   8
ENDBRANCH   6   7
ENDBRANCH   5   6
ENDBRANCH   4   5
ENDBRANCH   3   4
ENDBRANCH   2   3
ENDBRANCH   1   2
BRANCH   1  13
ATOM     13  C   UNL     1      24.538 -12.950   2.122  1.00  0.00     0.000 C 
BRANCH  13  14
ATOM     14  C   UNL     1      25.447 -14.103   1.649  1.00  0.00     0.000 C 
BRANCH  14  15
ATOM     15  C   UNL     1      26.705 -14.335   2.504  1.00  0.00     0.000 C 
BRANCH  15  16
ATOM     16  C   UNL     1      26.483 -14.004   3.990  1.00  0.00     0.000 C 
BRANCH  16  17
ATOM     17  C   UNL     1      27.500 -12.979   4.519  1.00  0.00     0.000 C 
BRANCH  17  18
ATOM     18  C   UNL     1      26.827 -11.698   5.039  1.00  0.00     0.000 C 
BRANCH  18  19
ATOM     19  C   UNL     1      25.413 -11.948   5.593  1.00  0.00     0.000 C 
BRANCH  19  20
ATOM     20  C   UNL     1      25.258 -11.713   7.110  1.00  0.00     0.006 C 
BRANCH  20  21
ATOM     21  C   UNL     1      25.332 -10.240   7.542  1.00  0.00     0.053 C 
BRANCH  21  22
ATOM     22  C   UNL     1      24.071  -9.789   8.212  1.00  0.00     0.041 C 
ATOM     23  O   UNL     1      23.363 -10.609   8.851  1.00  0.00    -0.550 OA
ATOM     24  O   UNL     1      23.696  -8.452   8.158  1.00  0.00    -0.550 OA
ENDBRANCH  21  22
ENDBRANCH  20  21
ENDBRANCH  19  20
ENDBRANCH  18  19
ENDBRANCH  17  18
ENDBRANCH  16  17
ENDBRANCH  15  16
ENDBRANCH  14  15
ENDBRANCH  13  14
ENDBRANCH   1  13
TORSDOF 20
ENDMDL
MODEL 3
REMARK VINA RESULT:    -4.282      2.713      6.113
REMARK INTER + INTRA:         -12.031
REMARK INTER:                  -9.461
REMARK INTRA:                  -2.570
REMARK UNBOUND:                -2.743
REMARK SMILES CCCCCCCCCCCCCCCCCCCCCC(=O)[O-]
REMARK SMILES IDX 12 1 11 2 10 3 9 4 8 5 7 6 6 7 5 8 4 9 3 10 2 11 1 12 13 13
REMARK SMILES IDX 14 14 15 15 16 16 17 17 18 18 19 19 20 20 21 21 22 22 23 23
REMARK SMILES IDX 24 24
REMARK H PARENT
REMARK Flexibility Score: inf
ROOT
ATOM      1  C   UNL     1      25.097 -13.394   2.502  1.00  0.00     0.000 C 
ENDROOT
BRANCH   1   2
ATOM      2  C   UNL     1      24.348 -13.732   1.202  1.00  0.00     0.000 C 
BRANCH   2   3
ATOM      3  C   UNL     1      23.097 -12.864   0.998  1.00  0.00     0.000 C 
BRANCH   3   4
ATOM      4  C   UNL     1      21.788 -13.628   1.267  1.00  0.00    -0.000 C 
BRANCH   4   5
ATOM      5  C   UNL     1      22.009 -15.156   1.319  1.00  0.00    -0.000 C 
BRANCH   5   6
ATOM      6  C   UNL     1      21.467 -15.815   2.597  1.00  0.00    -0.000 C 
BRANCH   6   7
ATOM      7  C   UNL     1      22.471 -15.776   3.762  1.00  0.00    -0.000 C 
BRANCH   7   8
ATOM      8  C   UNL     1      22.261 -14.560   4.680  1.00  0.00    -0.000 C 
BRANCH   8   9
ATOM      9  C   UNL     1      22.261 -14.937   6.173  1.00  0.00    -0.000 C 
BRANCH   9  10
ATOM     10  C   UNL     1      21.652 -13.837   7.058  1.00  0.00    -0.000 C 
BRANCH  10  11
ATOM     11  C   UNL     1      21.586 -14.241   8.539  1.00  0.00    -0.003 C 
ATOM     12  C   UNL     1      21.764 -15.749   8.705  1.00  0.00     0.004 C 
ENDBRANCH  10  11
ENDBRANCH   9  10
ENDBRANCH   8   9
ENDBRANCH   7   8
ENDBRANCH   6   7
ENDBRANCH   5   6
ENDBRANCH   4   5
ENDBRANCH   3   4
ENDBRANCH   2   3
ENDBRANCH   1   2
BRANCH   1  13
ATOM     13  C   UNL     1      24.614 -12.081   3.146  1.00  0.00     0.000 C 
BRANCH  13  14
ATOM     14  C   UNL     1      25.394 -11.636   4.400  1.00  0.00     0.000 C 
BRANCH  14  15
ATOM     15  C   UNL     1      25.184 -12.515   5.646  1.00  0.00     0.000 C 
BRANCH  15  16
ATOM     16  C   UNL     1      25.677 -11.842   6.939  1.00  0.00     0.000 C 
BRANCH  16  17
ATOM     17  C   UNL     1      24.537 -11.169   7.720  1.00  0.00     0.000 C 
BRANCH  17  18
ATOM     18  C   UNL     1      24.774  -9.663   7.923  1.00  0.00     0.000 C 
BRANCH  18  19
ATOM     19  C   UNL     1      26.065  -9.165   7.251  1.00  0.00     0.000 C 
BRANCH  19  20
ATOM     20  C   UNL     1      25.972  -7.757   6.625  1.00  0.00     0.006 C 
BRANCH  20  21
ATOM     21  C   UNL     1      24.546  -7.308   6.268  1.00  0.00     0.053 C 
BRANCH  21  22
ATOM     22  C   UNL     1      24.100  -6.147   7.101  1.00  0.00     0.041 C 
ATOM     23  O   UNL     1      23.195  -6.295   7.964  1.00  0.00    -0.550 OA
ATOM     24  O   UNL     1      24.709  -4.908   6.949  1.00  0.00    -0.550 OA
ENDBRANCH  21  22
ENDBRANCH  20  21
ENDBRANCH  19  20
ENDBRANCH  18  19
ENDBRANCH  17  18
ENDBRANCH  16  17
ENDBRANCH  15  16
ENDBRANCH  14  15
ENDBRANCH  13  14
ENDBRANCH   1  13
TORSDOF 20
ENDMDL
MODEL 4
REMARK VINA RESULT:    -4.277      7.908     13.212
REMARK INTER + INTRA:         -12.019
REMARK INTER:                  -9.040
REMARK INTRA:                  -2.979
REMARK UNBOUND:                -2.743
REMARK SMILES CCCCCCCCCCCCCCCCCCCCCC(=O)[O-]
REMARK SMILES IDX 12 1 11 2 10 3 9 4 8 5 7 6 6 7 5 8 4 9 3 10 2 11 1 12 13 13
REMARK SMILES IDX 14 14 15 15 16 16 17 17 18 18 19 19 20 20 21 21 22 22 23 23
REMARK SMILES IDX 24 24
REMARK H PARENT
REMARK Flexibility Score: inf
ROOT
ATOM      1  C   UNL     1      28.897  -3.015  11.329  1.00  0.00     0.000 C 
ENDROOT
BRANCH   1   2
ATOM      2  C   UNL     1      29.745  -2.312  12.402  1.00  0.00     0.000 C 
BRANCH   2   3
ATOM      3  C   UNL     1      29.423  -0.814  12.520  1.00  0.00     0.000 C 
BRANCH   3   4
ATOM      4  C   UNL     1      30.021   0.019  11.371  1.00  0.00    -0.000 C 
BRANCH   4   5
ATOM      5  C   UNL     1      28.970   0.942  10.717  1.00  0.00    -0.000 C 
BRANCH   5   6
ATOM      6  C   UNL     1      28.073   0.227   9.694  1.00  0.00    -0.000 C 
BRANCH   6   7
ATOM      7  C   UNL     1      26.573   0.425   9.972  1.00  0.00    -0.000 C 
BRANCH   7   8
ATOM      8  C   UNL     1      26.051  -0.510  11.075  1.00  0.00    -0.000 C 
BRANCH   8   9
ATOM      9  C   UNL     1      24.566  -0.873  10.892  1.00  0.00    -0.000 C 
BRANCH   9  10
ATOM     10  C   UNL     1      24.351  -2.377  10.652  1.00  0.00    -0.000 C 
BRANCH  10  11
ATOM     11  C   UNL     1      22.956  -2.691  10.091  1.00  0.00    -0.003 C 
ATOM     12  C   UNL     1      22.285  -1.431   9.549  1.00  0.00     0.004 C 
ENDBRANCH  10  11
ENDBRANCH   9  10
ENDBRANCH   8   9
ENDBRANCH   7   8
ENDBRANCH   6   7
ENDBRANCH   5   6
ENDBRANCH   4   5
ENDBRANCH   3   4
ENDBRANCH   2   3
ENDBRANCH   1   2
BRANCH   1  13
ATOM     13  C   UNL     1      29.716  -3.992  10.465  1.00  0.00     0.000 C 
BRANCH  13  14
ATOM     14  C   UNL     1      29.172  -4.228   9.040  1.00  0.00     0.000 C 
BRANCH  14  15
ATOM     15  C   UNL     1      29.154  -2.983   8.136  1.00  0.00     0.000 C 
BRANCH  15  16
ATOM     16  C   UNL     1      27.919  -2.933   7.218  1.00  0.00     0.000 C 
BRANCH  16  17
ATOM     17  C   UNL     1      26.609  -2.781   8.008  1.00  0.00     0.000 C 
BRANCH  17  18
ATOM     18  C   UNL     1      25.516  -3.748   7.524  1.00  0.00     0.000 C 
BRANCH  18  19
ATOM     19  C   UNL     1      26.025  -4.744   6.466  1.00  0.00     0.000 C 
BRANCH  19  20
ATOM     20  C   UNL     1      25.954  -6.229   6.883  1.00  0.00     0.006 C 
BRANCH  20  21
ATOM     21  C   UNL     1      24.692  -6.967   6.410  1.00  0.00     0.053 C 
BRANCH  21  22
ATOM     22  C   UNL     1      23.722  -7.192   7.530  1.00  0.00     0.041 C 
ATOM     23  O   UNL     1      23.557  -8.345   8.005  1.00  0.00    -0.550 OA
ATOM     24  O   UNL     1      23.028  -6.118   8.073  1.00  0.00    -0.550 OA
ENDBRANCH  21  22
ENDBRANCH  20  21
ENDBRANCH  19  20
ENDBRANCH  18  19
ENDBRANCH  17  18
ENDBRANCH  16  17
ENDBRANCH  15  16
ENDBRANCH  14  15
ENDBRANCH  13  14
ENDBRANCH   1  13
TORSDOF 20
ENDMDL
MODEL 5
REMARK VINA RESULT:    -4.235      1.860      5.159
REMARK INTER + INTRA:         -11.929
REMARK INTER:                  -9.180
REMARK INTRA:                  -2.749
REMARK UNBOUND:                -2.743
REMARK SMILES CCCCCCCCCCCCCCCCCCCCCC(=O)[O-]
REMARK SMILES IDX 12 1 11 2 10 3 9 4 8 5 7 6 6 7 5 8 4 9 3 10 2 11 1 12 13 13
REMARK SMILES IDX 14 14 15 15 16 16 17 17 18 18 19 19 20 20 21 21 22 22 23 23
REMARK SMILES IDX 24 24
REMARK H PARENT
REMARK Flexibility Score: inf
ROOT
ATOM      1  C   UNL     1      24.496 -12.819   3.397  1.00  0.00     0.000 C 
ENDROOT
BRANCH   1   2
ATOM      2  C   UNL     1      24.561 -11.870   2.189  1.00  0.00     0.000 C 
BRANCH   2   3
ATOM      3  C   UNL     1      23.415 -12.104   1.192  1.00  0.00     0.000 C 
BRANCH   3   4
ATOM      4  C   UNL     1      23.105 -13.597   0.976  1.00  0.00    -0.000 C 
BRANCH   4   5
ATOM      5  C   UNL     1      21.688 -13.971   1.461  1.00  0.00    -0.000 C 
BRANCH   5   6
ATOM      6  C   UNL     1      21.468 -15.484   1.618  1.00  0.00    -0.000 C 
BRANCH   6   7
ATOM      7  C   UNL     1      22.155 -16.062   2.866  1.00  0.00    -0.000 C 
BRANCH   7   8
ATOM      8  C   UNL     1      21.824 -15.267   4.141  1.00  0.00    -0.000 C 
BRANCH   8   9
ATOM      9  C   UNL     1      21.185 -16.141   5.236  1.00  0.00    -0.000 C 
BRANCH   9  10
ATOM     10  C   UNL     1      21.604 -15.713   6.652  1.00  0.00    -0.000 C 
BRANCH  10  11
ATOM     11  C   UNL     1      22.422 -14.413   6.657  1.00  0.00    -0.003 C 
ATOM     12  C   UNL     1      21.946 -13.468   7.758  1.00  0.00     0.004 C 
ENDBRANCH  10  11
ENDBRANCH   9  10
ENDBRANCH   8   9
ENDBRANCH   7   8
ENDBRANCH   6   7
ENDBRANCH   5   6
ENDBRANCH   4   5
ENDBRANCH   3   4
ENDBRANCH   2   3
ENDBRANCH   1   2
BRANCH   1  13
ATOM     13  C   UNL     1      25.628 -13.863   3.398  1.00  0.00     0.000 C 
BRANCH  13  14
ATOM     14  C   UNL     1      26.667 -13.712   2.267  1.00  0.00     0.000 C 
BRANCH  14  15
ATOM     15  C   UNL     1      28.077 -13.302   2.728  1.00  0.00     0.000 C 
BRANCH  15  16
ATOM     16  C   UNL     1      28.088 -12.697   4.142  1.00  0.00     0.000 C 
BRANCH  16  17
ATOM     17  C   UNL     1      27.789 -11.189   4.135  1.00  0.00     0.000 C 
BRANCH  17  18
ATOM     18  C   UNL     1      27.199 -10.700   5.469  1.00  0.00     0.000 C 
BRANCH  18  19
ATOM     19  C   UNL     1      26.612 -11.843   6.317  1.00  0.00     0.000 C 
BRANCH  19  20
ATOM     20  C   UNL     1      25.434 -11.439   7.227  1.00  0.00     0.006 C 
BRANCH  20  21
ATOM     21  C   UNL     1      25.322  -9.930   7.498  1.00  0.00     0.053 C 
BRANCH  21  22
ATOM     22  C   UNL     1      24.083  -9.591   8.268  1.00  0.00     0.041 C 
ATOM     23  O   UNL     1      23.622  -8.420   8.247  1.00  0.00    -0.550 OA
ATOM     24  O   UNL     1      23.417 -10.579   8.982  1.00  0.00    -0.550 OA
ENDBRANCH  21  22
ENDBRANCH  20  21
ENDBRANCH  19  20
ENDBRANCH  18  19
ENDBRANCH  17  18
ENDBRANCH  16  17
ENDBRANCH  15  16
ENDBRANCH  14  15
ENDBRANCH  13  14
ENDBRANCH   1  13
TORSDOF 20
ENDMDL
MODEL 6
REMARK VINA RESULT:    -4.230      1.696      5.311
REMARK INTER + INTRA:         -11.918
REMARK INTER:                  -8.610
REMARK INTRA:                  -3.308
REMARK UNBOUND:                -2.743
REMARK SMILES CCCCCCCCCCCCCCCCCCCCCC(=O)[O-]
REMARK SMILES IDX 12 1 11 2 10 3 9 4 8 5 7 6 6 7 5 8 4 9 3 10 2 11 1 12 13 13
REMARK SMILES IDX 14 14 15 15 16 16 17 17 18 18 19 19 20 20 21 21 22 22 23 23
REMARK SMILES IDX 24 24
REMARK H PARENT
REMARK Flexibility Score: inf
ROOT
ATOM      1  C   UNL     1      23.024 -13.374   1.935  1.00  0.00     0.000 C 
ENDROOT
BRANCH   1   2
ATOM      2  C   UNL     1      21.591 -13.891   1.732  1.00  0.00     0.000 C 
BRANCH   2   3
ATOM      3  C   UNL     1      21.496 -15.422   1.827  1.00  0.00     0.000 C 
BRANCH   3   4
ATOM      4  C   UNL     1      22.780 -16.131   1.360  1.00  0.00    -0.000 C 
BRANCH   4   5
ATOM      5  C   UNL     1      23.027 -17.448   2.128  1.00  0.00    -0.000 C 
BRANCH   5   6
ATOM      6  C   UNL     1      23.958 -17.289   3.341  1.00  0.00    -0.000 C 
BRANCH   6   7
ATOM      7  C   UNL     1      24.985 -16.158   3.163  1.00  0.00    -0.000 C 
BRANCH   7   8
ATOM      8  C   UNL     1      25.163 -15.319   4.440  1.00  0.00    -0.000 C 
BRANCH   8   9
ATOM      9  C   UNL     1      24.049 -15.568   5.473  1.00  0.00    -0.000 C 
BRANCH   9  10
ATOM     10  C   UNL     1      22.878 -14.583   5.327  1.00  0.00    -0.000 C 
BRANCH  10  11
ATOM     11  C   UNL     1      21.625 -15.038   6.091  1.00  0.00    -0.003 C 
ATOM     12  C   UNL     1      20.980 -16.246   5.416  1.00  0.00     0.004 C 
ENDBRANCH  10  11
ENDBRANCH   9  10
ENDBRANCH   8   9
ENDBRANCH   7   8
ENDBRANCH   6   7
ENDBRANCH   5   6
ENDBRANCH   4   5
ENDBRANCH   3   4
ENDBRANCH   2   3
ENDBRANCH   1   2
BRANCH   1  13
ATOM     13  C   UNL     1      23.388 -12.226   0.975  1.00  0.00     0.000 C 
BRANCH  13  14
ATOM     14  C   UNL     1      24.776 -11.591   1.203  1.00  0.00     0.000 C 
BRANCH  14  15
ATOM     15  C   UNL     1      24.763 -10.246   1.950  1.00  0.00     0.000 C 
BRANCH  15  16
ATOM     16  C   UNL     1      25.627 -10.265   3.223  1.00  0.00     0.000 C 
BRANCH  16  17
ATOM     17  C   UNL     1      26.323 -11.619   3.437  1.00  0.00     0.000 C 
BRANCH  17  18
ATOM     18  C   UNL     1      26.687 -11.866   4.911  1.00  0.00     0.000 C 
BRANCH  18  19
ATOM     19  C   UNL     1      25.450 -12.017   5.815  1.00  0.00     0.000 C 
BRANCH  19  20
ATOM     20  C   UNL     1      25.578 -11.365   7.207  1.00  0.00     0.006 C 
BRANCH  20  21
ATOM     21  C   UNL     1      25.254  -9.862   7.243  1.00  0.00     0.053 C 
BRANCH  21  22
ATOM     22  C   UNL     1      24.126  -9.555   8.179  1.00  0.00     0.041 C 
ATOM     23  O   UNL     1      23.657 -10.454   8.924  1.00  0.00    -0.550 OA
ATOM     24  O   UNL     1      23.616  -8.266   8.251  1.00  0.00    -0.550 OA
ENDBRANCH  21  22
ENDBRANCH  20  21
ENDBRANCH  19  20
ENDBRANCH  18  19
ENDBRANCH  17  18
ENDBRANCH  16  17
ENDBRANCH  15  16
ENDBRANCH  14  15
ENDBRANCH  13  14
ENDBRANCH   1  13
TORSDOF 20
ENDMDL
MODEL 7
REMARK VINA RESULT:    -4.150      1.455      3.083
REMARK INTER + INTRA:         -11.744
REMARK INTER:                  -8.217
REMARK INTRA:                  -3.528
REMARK UNBOUND:                -2.743
REMARK SMILES CCCCCCCCCCCCCCCCCCCCCC(=O)[O-]
REMARK SMILES IDX 12 1 11 2 10 3 9 4 8 5 7 6 6 7 5 8 4 9 3 10 2 11 1 12 13 13
REMARK SMILES IDX 14 14 15 15 16 16 17 17 18 18 19 19 20 20 21 21 22 22 23 23
REMARK SMILES IDX 24 24
REMARK H PARENT
REMARK Flexibility Score: inf
ROOT
ATOM      1  C   UNL     1      23.152 -12.725   1.065  1.00  0.00     0.000 C 
ENDROOT
BRANCH   1   2
ATOM      2  C   UNL     1      23.921 -12.619   2.392  1.00  0.00     0.000 C 
BRANCH   2   3
ATOM      3  C   UNL     1      25.267 -13.360   2.356  1.00  0.00     0.000 C 
BRANCH   3   4
ATOM      4  C   UNL     1      25.796 -13.710   3.759  1.00  0.00    -0.000 C 
BRANCH   4   5
ATOM      5  C   UNL     1      24.789 -13.333   4.867  1.00  0.00    -0.000 C 
BRANCH   5   6
ATOM      6  C   UNL     1      25.321 -12.278   5.851  1.00  0.00    -0.000 C 
BRANCH   6   7
ATOM      7  C   UNL     1      26.810 -11.958   5.637  1.00  0.00    -0.000 C 
BRANCH   7   8
ATOM      8  C   UNL     1      27.096 -10.447   5.655  1.00  0.00    -0.000 C 
BRANCH   8   9
ATOM      9  C   UNL     1      25.822  -9.600   5.480  1.00  0.00    -0.000 C 
BRANCH   9  10
ATOM     10  C   UNL     1      25.888  -8.682   4.249  1.00  0.00    -0.000 C 
BRANCH  10  11
ATOM     11  C   UNL     1      25.341  -9.355   2.981  1.00  0.00    -0.003 C 
ATOM     12  C   UNL     1      26.470  -9.707   2.016  1.00  0.00     0.004 C 
ENDBRANCH  10  11
ENDBRANCH   9  10
ENDBRANCH   8   9
ENDBRANCH   7   8
ENDBRANCH   6   7
ENDBRANCH   5   6
ENDBRANCH   4   5
ENDBRANCH   3   4
ENDBRANCH   2   3
ENDBRANCH   1   2
BRANCH   1  13
ATOM     13  C   UNL     1      21.892 -13.605   1.172  1.00  0.00     0.000 C 
BRANCH  13  14
ATOM     14  C   UNL     1      21.789 -14.457   2.455  1.00  0.00     0.000 C 
BRANCH  14  15
ATOM     15  C   UNL     1      21.346 -15.914   2.236  1.00  0.00     0.000 C 
BRANCH  15  16
ATOM     16  C   UNL     1      22.532 -16.871   2.023  1.00  0.00     0.000 C 
BRANCH  16  17
ATOM     17  C   UNL     1      23.633 -16.681   3.079  1.00  0.00     0.000 C 
BRANCH  17  18
ATOM     18  C   UNL     1      23.307 -17.394   4.402  1.00  0.00     0.000 C 
BRANCH  18  19
ATOM     19  C   UNL     1      23.091 -16.416   5.571  1.00  0.00     0.000 C 
BRANCH  19  20
ATOM     20  C   UNL     1      21.682 -16.453   6.199  1.00  0.00     0.006 C 
BRANCH  20  21
ATOM     21  C   UNL     1      21.126 -15.080   6.609  1.00  0.00     0.053 C 
BRANCH  21  22
ATOM     22  C   UNL     1      21.793 -14.553   7.842  1.00  0.00     0.041 C 
ATOM     23  O   UNL     1      21.587 -15.097   8.958  1.00  0.00    -0.550 OA
ATOM     24  O   UNL     1      22.671 -13.480   7.752  1.00  0.00    -0.550 OA
ENDBRANCH  21  22
ENDBRANCH  20  21
ENDBRANCH  19  20
ENDBRANCH  18  19
ENDBRANCH  17  18
ENDBRANCH  16  17
ENDBRANCH  15  16
ENDBRANCH  14  15
ENDBRANCH  13  14
ENDBRANCH   1  13
TORSDOF 20
ENDMDL
MODEL 8
REMARK VINA RESULT:    -4.113      2.189      5.317
REMARK INTER + INTRA:         -11.664
REMARK INTER:                  -8.587
REMARK INTRA:                  -3.077
REMARK UNBOUND:                -2.743
REMARK SMILES CCCCCCCCCCCCCCCCCCCCCC(=O)[O-]
REMARK SMILES IDX 12 1 11 2 10 3 9 4 8 5 7 6 6 7 5 8 4 9 3 10 2 11 1 12 13 13
REMARK SMILES IDX 14 14 15 15 16 16 17 17 18 18 19 19 20 20 21 21 22 22 23 23
REMARK SMILES IDX 24 24
REMARK H PARENT
REMARK Flexibility Score: inf
ROOT
ATOM      1  C   UNL     1      23.111 -12.639   0.919  1.00  0.00     0.000 C 
ENDROOT
BRANCH   1   2
ATOM      2  C   UNL     1      21.931 -13.622   0.985  1.00  0.00     0.000 C 
BRANCH   2   3
ATOM      3  C   UNL     1      21.778 -14.269   2.371  1.00  0.00     0.000 C 
BRANCH   3   4
ATOM      4  C   UNL     1      21.677 -15.804   2.307  1.00  0.00    -0.000 C 
BRANCH   4   5
ATOM      5  C   UNL     1      22.773 -16.420   1.410  1.00  0.00    -0.000 C 
BRANCH   5   6
ATOM      6  C   UNL     1      24.118 -16.618   2.128  1.00  0.00    -0.000 C 
BRANCH   6   7
ATOM      7  C   UNL     1      23.961 -16.847   3.641  1.00  0.00    -0.000 C 
BRANCH   7   8
ATOM      8  C   UNL     1      24.690 -15.782   4.476  1.00  0.00    -0.000 C 
BRANCH   8   9
ATOM      9  C   UNL     1      23.928 -15.412   5.762  1.00  0.00    -0.000 C 
BRANCH   9  10
ATOM     10  C   UNL     1      22.564 -16.115   5.862  1.00  0.00    -0.000 C 
BRANCH  10  11
ATOM     11  C   UNL     1      21.420 -15.140   6.175  1.00  0.00    -0.003 C 
ATOM     12  C   UNL     1      21.919 -13.950   6.991  1.00  0.00     0.004 C 
ENDBRANCH  10  11
ENDBRANCH   9  10
ENDBRANCH   8   9
ENDBRANCH   7   8
ENDBRANCH   6   7
ENDBRANCH   5   6
ENDBRANCH   4   5
ENDBRANCH   3   4
ENDBRANCH   2   3
ENDBRANCH   1   2
BRANCH   1  13
ATOM     13  C   UNL     1      23.990 -12.672   2.184  1.00  0.00     0.000 C 
BRANCH  13  14
ATOM     14  C   UNL     1      25.463 -13.070   1.953  1.00  0.00     0.000 C 
BRANCH  14  15
ATOM     15  C   UNL     1      26.407 -12.787   3.134  1.00  0.00     0.000 C 
BRANCH  15  16
ATOM     16  C   UNL     1      25.911 -11.639   4.031  1.00  0.00     0.000 C 
BRANCH  16  17
ATOM     17  C   UNL     1      25.174 -12.149   5.280  1.00  0.00     0.000 C 
BRANCH  17  18
ATOM     18  C   UNL     1      25.829 -11.669   6.586  1.00  0.00     0.000 C 
BRANCH  18  19
ATOM     19  C   UNL     1      24.828 -11.554   7.749  1.00  0.00     0.000 C 
BRANCH  19  20
ATOM     20  C   UNL     1      24.586 -10.118   8.260  1.00  0.00     0.006 C 
BRANCH  20  21
ATOM     21  C   UNL     1      25.299  -9.022   7.453  1.00  0.00     0.053 C 
BRANCH  21  22
ATOM     22  C   UNL     1      24.413  -7.839   7.210  1.00  0.00     0.041 C 
ATOM     23  O   UNL     1      23.429  -7.619   7.963  1.00  0.00    -0.550 OA
ATOM     24  O   UNL     1      24.696  -6.962   6.172  1.00  0.00    -0.550 OA
ENDBRANCH  21  22
ENDBRANCH  20  21
ENDBRANCH  19  20
ENDBRANCH  18  19
ENDBRANCH  17  18
ENDBRANCH  16  17
ENDBRANCH  15  16
ENDBRANCH  14  15
ENDBRANCH  13  14
ENDBRANCH   1  13
TORSDOF 20
ENDMDL
MODEL 9
REMARK VINA RESULT:    -4.089      1.424      3.101
REMARK INTER + INTRA:         -11.611
REMARK INTER:                  -8.809
REMARK INTRA:                  -2.803
REMARK UNBOUND:                -2.743
REMARK SMILES CCCCCCCCCCCCCCCCCCCCCC(=O)[O-]
REMARK SMILES IDX 12 1 11 2 10 3 9 4 8 5 7 6 6 7 5 8 4 9 3 10 2 11 1 12 13 13
REMARK SMILES IDX 14 14 15 15 16 16 17 17 18 18 19 19 20 20 21 21 22 22 23 23
REMARK SMILES IDX 24 24
REMARK H PARENT
REMARK Flexibility Score: inf
ROOT
ATOM      1  C   UNL     1      24.214 -13.154   3.443  1.00  0.00     0.000 C 
ENDROOT
BRANCH   1   2
ATOM      2  C   UNL     1      25.401 -14.128   3.367  1.00  0.00     0.000 C 
BRANCH   2   3
ATOM      3  C   UNL     1      26.593 -13.675   4.226  1.00  0.00     0.000 C 
BRANCH   3   4
ATOM      4  C   UNL     1      27.668 -12.932   3.413  1.00  0.00    -0.000 C 
BRANCH   4   5
ATOM      5  C   UNL     1      28.000 -11.550   4.018  1.00  0.00    -0.000 C 
BRANCH   5   6
ATOM      6  C   UNL     1      27.121 -10.412   3.475  1.00  0.00    -0.000 C 
BRANCH   6   7
ATOM      7  C   UNL     1      25.977 -10.032   4.431  1.00  0.00    -0.000 C 
BRANCH   7   8
ATOM      8  C   UNL     1      26.442  -9.103   5.565  1.00  0.00    -0.000 C 
BRANCH   8   9
ATOM      9  C   UNL     1      26.211  -9.711   6.961  1.00  0.00    -0.000 C 
BRANCH   9  10
ATOM     10  C   UNL     1      25.685 -11.154   6.897  1.00  0.00    -0.000 C 
BRANCH  10  11
ATOM     11  C   UNL     1      24.578 -11.425   7.927  1.00  0.00    -0.003 C 
ATOM     12  C   UNL     1      24.139 -10.133   8.613  1.00  0.00     0.004 C 
ENDBRANCH  10  11
ENDBRANCH   9  10
ENDBRANCH   8   9
ENDBRANCH   7   8
ENDBRANCH   6   7
ENDBRANCH   5   6
ENDBRANCH   4   5
ENDBRANCH   3   4
ENDBRANCH   2   3
ENDBRANCH   1   2
BRANCH   1  13
ATOM     13  C   UNL     1      24.032 -12.332   2.153  1.00  0.00     0.000 C 
BRANCH  13  14
ATOM     14  C   UNL     1      22.996 -12.892   1.155  1.00  0.00     0.000 C 
BRANCH  14  15
ATOM     15  C   UNL     1      21.862 -13.717   1.788  1.00  0.00     0.000 C 
BRANCH  15  16
ATOM     16  C   UNL     1      21.848 -15.178   1.303  1.00  0.00     0.000 C 
BRANCH  16  17
ATOM     17  C   UNL     1      21.501 -16.165   2.429  1.00  0.00     0.000 C 
BRANCH  17  18
ATOM     18  C   UNL     1      21.589 -15.520   3.823  1.00  0.00     0.000 C 
BRANCH  18  19
ATOM     19  C   UNL     1      22.524 -16.284   4.777  1.00  0.00     0.000 C 
BRANCH  19  20
ATOM     20  C   UNL     1      21.927 -16.590   6.167  1.00  0.00     0.006 C 
BRANCH  20  21
ATOM     21  C   UNL     1      20.922 -15.544   6.676  1.00  0.00     0.053 C 
BRANCH  21  22
ATOM     22  C   UNL     1      21.434 -14.817   7.882  1.00  0.00     0.041 C 
ATOM     23  O   UNL     1      21.633 -15.437   8.959  1.00  0.00    -0.550 OA
ATOM     24  O   UNL     1      21.724 -13.461   7.804  1.00  0.00    -0.550 OA
ENDBRANCH  21  22
ENDBRANCH  20  21
ENDBRANCH  19  20
ENDBRANCH  18  19
ENDBRANCH  17  18
ENDBRANCH  16  17
ENDBRANCH  15  16
ENDBRANCH  14  15
ENDBRANCH  13  14
ENDBRANCH   1  13
TORSDOF 20
ENDMDL
