MODEL 1
REMARK VINA RESULT:    -3.369      0.000      0.000
REMARK INTER + INTRA:         -12.972
REMARK INTER:                  -8.489
REMARK INTRA:                  -4.483
REMARK UNBOUND:                -4.483
REMARK SMILES CCCCCCCCCCCCCCCCCCCCCCCCCCCC(=O)[O-]
REMARK SMILES IDX 15 1 16 2 17 3 18 4 19 5 20 6 21 7 22 8 23 9 24 10 25 11
REMARK SMILES IDX 26 12 27 13 28 14 29 15 30 16 14 17 13 18 12 19 11 20 10 21
REMARK SMILES IDX 9 22 8 23 7 24 6 25 5 26 4 27 3 28 2 29 1 30
REMARK H PARENT
REMARK Flexibility Score: inf
ROOT
ATOM      1  C   UNL     1     -13.200   9.043   8.084  1.00  0.00     0.000 C 
ENDROOT
BRANCH   1   2
ATOM      2  C   UNL     1     -14.185   8.116   8.812  1.00  0.00     0.000 C 
BRANCH   2   3
ATOM      3  C   UNL     1     -13.639   6.685   8.969  1.00  0.00     0.000 C 
BRANCH   3   4
ATOM      4  C   UNL     1     -12.235   6.525   8.347  1.00  0.00     0.000 C 
BRANCH   4   5
ATOM      5  C   UNL     1     -12.041   5.193   7.601  1.00  0.00     0.000 C 
BRANCH   5   6
ATOM      6  C   UNL     1     -10.658   4.549   7.791  1.00  0.00     0.000 C 
BRANCH   6   7
ATOM      7  C   UNL     1      -9.594   5.128   6.839  1.00  0.00     0.000 C 
BRANCH   7   8
ATOM      8  C   UNL     1     -10.217   5.987   5.721  1.00  0.00     0.000 C 
BRANCH   8   9
ATOM      9  C   UNL     1      -9.532   7.357   5.573  1.00  0.00     0.000 C 
BRANCH   9  10
ATOM     10  C   UNL     1      -8.725   7.737   6.831  1.00  0.00     0.000 C 
BRANCH  10  11
ATOM     11  C   UNL     1      -8.011   9.095   6.696  1.00  0.00     0.000 C 
BRANCH  11  12
ATOM     12  C   UNL     1      -6.963   9.158   5.565  1.00  0.00     0.006 C 
BRANCH  12  13
ATOM     13  C   UNL     1      -6.553  10.592   5.200  1.00  0.00     0.053 C 
BRANCH  13  14
ATOM     14  C   UNL     1      -5.314  10.988   5.942  1.00  0.00     0.041 C 
ATOM     15  O   UNL     1      -4.203  11.004   5.352  1.00  0.00    -0.550 OA
ATOM     16  O   UNL     1      -5.391  11.368   7.277  1.00  0.00    -0.550 OA
ENDBRANCH  13  14
ENDBRANCH  12  13
ENDBRANCH  11  12
ENDBRANCH  10  11
ENDBRANCH   9  10
ENDBRANCH   8   9
ENDBRANCH   7   8
ENDBRANCH   6   7
ENDBRANCH   5   6
ENDBRANCH   4   5
ENDBRANCH   3   4
ENDBRANCH   2   3
ENDBRANCH   1   2
BRANCH   1  17
ATOM     17  C   UNL     1     -13.803  10.429   7.793  1.00  0.00     0.000 C 
BRANCH  17  18
ATOM     18  C   UNL     1     -12.729  11.493   7.514  1.00  0.00     0.000 C 
BRANCH  18  19
ATOM     19  C   UNL     1     -11.343  10.882   7.239  1.00  0.00     0.000 C 
BRANCH  19  20
ATOM     20  C   UNL     1     -10.643  11.526   6.031  1.00  0.00     0.000 C 
BRANCH  20  21
ATOM     21  C   UNL     1     -11.159  10.984   4.687  1.00  0.00     0.000 C 
BRANCH  21  22
ATOM     22  C   UNL     1     -11.419  12.108   3.660  1.00  0.00    -0.000 C 
BRANCH  22  23
ATOM     23  C   UNL     1     -12.824  12.064   3.031  1.00  0.00    -0.000 C 
BRANCH  23  24
ATOM     24  C   UNL     1     -13.973  11.800   4.022  1.00  0.00    -0.000 C 
BRANCH  24  25
ATOM     25  C   UNL     1     -14.940  10.667   3.620  1.00  0.00    -0.000 C 
BRANCH  25  26
ATOM     26  C   UNL     1     -15.125   9.558   4.672  1.00  0.00    -0.000 C 
BRANCH  26  27
ATOM     27  C   UNL     1     -13.991   8.518   4.653  1.00  0.00    -0.000 C 
BRANCH  27  28
ATOM     28  C   UNL     1     -14.413   7.179   5.281  1.00  0.00    -0.000 C 
BRANCH  28  29
ATOM     29  C   UNL     1     -13.677   5.981   4.662  1.00  0.00    -0.003 C 
ATOM     30  C   UNL     1     -14.124   5.749   3.221  1.00  0.00     0.004 C 
ENDBRANCH  28  29
ENDBRANCH  27  28
ENDBRANCH  26  27
ENDBRANCH  25  26
ENDBRANCH  24  25
ENDBRANCH  23  24
ENDBRANCH  22  23
ENDBRANCH  21  22
ENDBRANCH  20  21
ENDBRANCH  19  20
ENDBRANCH  18  19
ENDBRANCH  17  18
ENDBRANCH   1  17
TORSDOF 26
ENDMDL
MODEL 2
REMARK VINA RESULT:    -3.350      2.597      6.720
REMARK INTER + INTRA:         -12.926
REMARK INTER:                 -10.110
REMARK INTRA:                  -2.816
REMARK UNBOUND:                -4.483
REMARK SMILES CCCCCCCCCCCCCCCCCCCCCCCCCCCC(=O)[O-]
REMARK SMILES IDX 15 1 16 2 17 3 18 4 19 5 20 6 21 7 22 8 23 9 24 10 25 11
REMARK SMILES IDX 26 12 27 13 28 14 29 15 30 16 14 17 13 18 12 19 11 20 10 21
REMARK SMILES IDX 9 22 8 23 7 24 6 25 5 26 4 27 3 28 2 29 1 30
REMARK H PARENT
REMARK Flexibility Score: inf
ROOT
ATOM      1  C   UNL     1     -11.502   3.547   6.369  1.00  0.00     0.000 C 
ENDROOT
BRANCH   1   2
ATOM      2  C   UNL     1     -10.849   3.735   7.748  1.00  0.00     0.000 C 
BRANCH   2   3
ATOM      3  C   UNL     1     -11.888   3.924   8.869  1.00  0.00     0.000 C 
BRANCH   3   4
ATOM      4  C   UNL     1     -13.117   4.730   8.395  1.00  0.00     0.000 C 
BRANCH   4   5
ATOM      5  C   UNL     1     -13.107   6.197   8.858  1.00  0.00     0.000 C 
BRANCH   5   6
ATOM      6  C   UNL     1     -12.583   7.195   7.811  1.00  0.00     0.000 C 
BRANCH   6   7
ATOM      7  C   UNL     1     -13.627   8.261   7.427  1.00  0.00     0.000 C 
BRANCH   7   8
ATOM      8  C   UNL     1     -13.491   9.541   8.274  1.00  0.00     0.000 C 
BRANCH   8   9
ATOM      9  C   UNL     1     -13.691  10.824   7.448  1.00  0.00     0.000 C 
BRANCH   9  10
ATOM     10  C   UNL     1     -14.544  10.571   6.188  1.00  0.00     0.000 C 
BRANCH  10  11
ATOM     11  C   UNL     1     -13.940  11.205   4.920  1.00  0.00     0.000 C 
BRANCH  11  12
ATOM     12  C   UNL     1     -13.705  10.217   3.760  1.00  0.00     0.006 C 
BRANCH  12  13
ATOM     13  C   UNL     1     -13.736  10.888   2.380  1.00  0.00     0.053 C 
BRANCH  13  14
ATOM     14  C   UNL     1     -12.360  11.314   1.972  1.00  0.00     0.041 C 
ATOM     15  O   UNL     1     -11.527  11.678   2.843  1.00  0.00    -0.550 OA
ATOM     16  O   UNL     1     -11.987  11.283   0.633  1.00  0.00    -0.550 OA
ENDBRANCH  13  14
ENDBRANCH  12  13
ENDBRANCH  11  12
ENDBRANCH  10  11
ENDBRANCH   9  10
ENDBRANCH   8   9
ENDBRANCH   7   8
ENDBRANCH   6   7
ENDBRANCH   5   6
ENDBRANCH   4   5
ENDBRANCH   3   4
ENDBRANCH   2   3
ENDBRANCH   1   2
BRANCH   1  17
ATOM     17  C   UNL     1     -11.061   4.622   5.360  1.00  0.00     0.000 C 
BRANCH  17  18
ATOM     18  C   UNL     1      -9.803   5.379   5.817  1.00  0.00     0.000 C 
BRANCH  18  19
ATOM     19  C   UNL     1     -10.053   6.885   6.013  1.00  0.00     0.000 C 
BRANCH  19  20
ATOM     20  C   UNL     1      -9.005   7.756   5.301  1.00  0.00     0.000 C 
BRANCH  20  21
ATOM     21  C   UNL     1      -8.916   9.176   5.884  1.00  0.00     0.000 C 
BRANCH  21  22
ATOM     22  C   UNL     1     -10.234   9.964   5.720  1.00  0.00    -0.000 C 
BRANCH  22  23
ATOM     23  C   UNL     1     -10.164  11.411   6.242  1.00  0.00    -0.000 C 
BRANCH  23  24
ATOM     24  C   UNL     1      -8.741  11.955   6.466  1.00  0.00    -0.000 C 
BRANCH  24  25
ATOM     25  C   UNL     1      -8.309  12.078   7.942  1.00  0.00    -0.000 C 
BRANCH  25  26
ATOM     26  C   UNL     1      -7.129  11.180   8.357  1.00  0.00    -0.000 C 
BRANCH  26  27
ATOM     27  C   UNL     1      -5.876  11.398   7.491  1.00  0.00    -0.000 C 
BRANCH  27  28
ATOM     28  C   UNL     1      -5.733  10.334   6.390  1.00  0.00    -0.000 C 
BRANCH  28  29
ATOM     29  C   UNL     1      -4.297  10.233   5.853  1.00  0.00    -0.003 C 
ATOM     30  C   UNL     1      -4.013  11.335   4.837  1.00  0.00     0.004 C 
ENDBRANCH  28  29
ENDBRANCH  27  28
ENDBRANCH  26  27
ENDBRANCH  25  26
ENDBRANCH  24  25
ENDBRANCH  23  24
ENDBRANCH  22  23
ENDBRANCH  21  22
ENDBRANCH  20  21
ENDBRANCH  19  20
ENDBRANCH  18  19
ENDBRANCH  17  18
ENDBRANCH   1  17
TORSDOF 26
ENDMDL
MODEL 3
REMARK VINA RESULT:    -3.152      1.273      3.418
REMARK INTER + INTRA:         -12.425
REMARK INTER:                  -9.362
REMARK INTRA:                  -3.064
REMARK UNBOUND:                -4.483
REMARK SMILES CCCCCCCCCCCCCCCCCCCCCCCCCCCC(=O)[O-]
REMARK SMILES IDX 15 1 16 2 17 3 18 4 19 5 20 6 21 7 22 8 23 9 24 10 25 11
REMARK SMILES IDX 26 12 27 13 28 14 29 15 30 16 14 17 13 18 12 19 11 20 10 21
REMARK SMILES IDX 9 22 8 23 7 24 6 25 5 26 4 27 3 28 2 29 1 30
REMARK H PARENT
REMARK Flexibility Score: inf
ROOT
ATOM      1  C   UNL     1     -13.093   7.081   6.736  1.00  0.00     0.000 C 
ENDROOT
BRANCH   1   2
ATOM      2  C   UNL     1     -13.396   7.316   8.224  1.00  0.00     0.000 C 
BRANCH   2   3
ATOM      3  C   UNL     1     -13.484   6.002   9.020  1.00  0.00     0.000 C 
BRANCH   3   4
ATOM      4  C   UNL     1     -12.149   5.225   9.013  1.00  0.00     0.000 C 
BRANCH   4   5
ATOM      5  C   UNL     1     -12.187   3.945   8.159  1.00  0.00     0.000 C 
BRANCH   5   6
ATOM      6  C   UNL     1     -11.165   3.911   7.011  1.00  0.00     0.000 C 
BRANCH   6   7
ATOM      7  C   UNL     1     -10.000   4.899   7.219  1.00  0.00     0.000 C 
BRANCH   7   8
ATOM      8  C   UNL     1      -9.965   5.994   6.134  1.00  0.00     0.000 C 
BRANCH   8   9
ATOM      9  C   UNL     1      -9.161   7.233   6.569  1.00  0.00     0.000 C 
BRANCH   9  10
ATOM     10  C   UNL     1      -8.462   7.914   5.375  1.00  0.00     0.000 C 
BRANCH  10  11
ATOM     11  C   UNL     1      -8.945   9.359   5.145  1.00  0.00     0.000 C 
BRANCH  11  12
ATOM     12  C   UNL     1      -8.025  10.445   5.742  1.00  0.00     0.006 C 
BRANCH  12  13
ATOM     13  C   UNL     1      -6.565   9.991   5.877  1.00  0.00     0.053 C 
BRANCH  13  14
ATOM     14  C   UNL     1      -5.791  10.958   6.717  1.00  0.00     0.041 C 
ATOM     15  O   UNL     1      -4.850  11.623   6.211  1.00  0.00    -0.550 OA
ATOM     16  O   UNL     1      -6.126  11.147   8.053  1.00  0.00    -0.550 OA
ENDBRANCH  13  14
ENDBRANCH  12  13
ENDBRANCH  11  12
ENDBRANCH  10  11
ENDBRANCH   9  10
ENDBRANCH   8   9
ENDBRANCH   7   8
ENDBRANCH   6   7
ENDBRANCH   5   6
ENDBRANCH   4   5
ENDBRANCH   3   4
ENDBRANCH   2   3
ENDBRANCH   1   2
BRANCH   1  17
ATOM     17  C   UNL     1     -14.305   7.382   5.836  1.00  0.00     0.000 C 
BRANCH  17  18
ATOM     18  C   UNL     1     -14.130   8.676   5.025  1.00  0.00     0.000 C 
BRANCH  18  19
ATOM     19  C   UNL     1     -14.887   9.869   5.636  1.00  0.00     0.000 C 
BRANCH  19  20
ATOM     20  C   UNL     1     -15.122   9.707   7.147  1.00  0.00     0.000 C 
BRANCH  20  21
ATOM     21  C   UNL     1     -14.792  10.983   7.940  1.00  0.00     0.000 C 
BRANCH  21  22
ATOM     22  C   UNL     1     -13.494  10.844   8.765  1.00  0.00    -0.000 C 
BRANCH  22  23
ATOM     23  C   UNL     1     -12.417  11.888   8.413  1.00  0.00    -0.000 C 
BRANCH  23  24
ATOM     24  C   UNL     1     -11.479  11.491   7.258  1.00  0.00    -0.000 C 
BRANCH  24  25
ATOM     25  C   UNL     1     -11.826  12.109   5.888  1.00  0.00    -0.000 C 
BRANCH  25  26
ATOM     26  C   UNL     1     -11.725  11.147   4.690  1.00  0.00    -0.000 C 
BRANCH  26  27
ATOM     27  C   UNL     1     -11.722  11.874   3.335  1.00  0.00    -0.000 C 
BRANCH  27  28
ATOM     28  C   UNL     1     -13.000  11.606   2.522  1.00  0.00    -0.000 C 
BRANCH  28  29
ATOM     29  C   UNL     1     -12.795  10.535   1.439  1.00  0.00    -0.003 C 
ATOM     30  C   UNL     1     -11.734  10.969   0.432  1.00  0.00     0.004 C 
ENDBRANCH  28  29
ENDBRANCH  27  28
ENDBRANCH  26  27
ENDBRANCH  25  26
ENDBRANCH  24  25
ENDBRANCH  23  24
ENDBRANCH  22  23
ENDBRANCH  21  22
ENDBRANCH  20  21
ENDBRANCH  19  20
ENDBRANCH  18  19
ENDBRANCH  17  18
ENDBRANCH   1  17
TORSDOF 26
ENDMDL
MODEL 4
REMARK VINA RESULT:    -3.049      1.580      4.647
REMARK INTER + INTRA:         -12.166
REMARK INTER:                  -8.855
REMARK INTRA:                  -3.311
REMARK UNBOUND:                -4.483
REMARK SMILES CCCCCCCCCCCCCCCCCCCCCCCCCCCC(=O)[O-]
REMARK SMILES IDX 15 1 16 2 17 3 18 4 19 5 20 6 21 7 22 8 23 9 24 10 25 11
REMARK SMILES IDX 26 12 27 13 28 14 29 15 30 16 14 17 13 18 12 19 11 20 10 21
REMARK SMILES IDX 9 22 8 23 7 24 6 25 5 26 4 27 3 28 2 29 1 30
REMARK H PARENT
REMARK Flexibility Score: inf
ROOT
ATOM      1  C   UNL     1     -12.151   4.529   6.062  1.00  0.00     0.000 C 
ENDROOT
BRANCH   1   2
ATOM      2  C   UNL     1     -10.634   4.733   6.203  1.00  0.00     0.000 C 
BRANCH   2   3
ATOM      3  C   UNL     1     -10.129   5.952   5.411  1.00  0.00     0.000 C 
BRANCH   3   4
ATOM      4  C   UNL     1      -9.161   6.826   6.238  1.00  0.00     0.000 C 
BRANCH   4   5
ATOM      5  C   UNL     1      -8.474   7.931   5.417  1.00  0.00     0.000 C 
BRANCH   5   6
ATOM      6  C   UNL     1      -8.490   9.321   6.074  1.00  0.00     0.000 C 
BRANCH   6   7
ATOM      7  C   UNL     1      -9.576  10.245   5.492  1.00  0.00     0.000 C 
BRANCH   7   8
ATOM      8  C   UNL     1      -9.737  11.541   6.311  1.00  0.00     0.000 C 
BRANCH   8   9
ATOM      9  C   UNL     1      -8.389  12.124   6.771  1.00  0.00     0.000 C 
BRANCH   9  10
ATOM     10  C   UNL     1      -8.252  12.119   8.307  1.00  0.00     0.000 C 
BRANCH  10  11
ATOM     11  C   UNL     1      -6.912  11.528   8.785  1.00  0.00     0.000 C 
BRANCH  11  12
ATOM     12  C   UNL     1      -5.725  11.776   7.831  1.00  0.00     0.006 C 
BRANCH  12  13
ATOM     13  C   UNL     1      -5.259  10.506   7.105  1.00  0.00     0.053 C 
BRANCH  13  14
ATOM     14  C   UNL     1      -4.973  10.799   5.665  1.00  0.00     0.041 C 
ATOM     15  O   UNL     1      -5.802  10.471   4.777  1.00  0.00    -0.550 OA
ATOM     16  O   UNL     1      -3.805  11.461   5.307  1.00  0.00    -0.550 OA
ENDBRANCH  13  14
ENDBRANCH  12  13
ENDBRANCH  11  12
ENDBRANCH  10  11
ENDBRANCH   9  10
ENDBRANCH   8   9
ENDBRANCH   7   8
ENDBRANCH   6   7
ENDBRANCH   5   6
ENDBRANCH   4   5
ENDBRANCH   3   4
ENDBRANCH   2   3
ENDBRANCH   1   2
BRANCH   1  17
ATOM     17  C   UNL     1     -12.906   4.813   7.372  1.00  0.00     0.000 C 
BRANCH  17  18
ATOM     18  C   UNL     1     -12.171   5.823   8.269  1.00  0.00     0.000 C 
BRANCH  18  19
ATOM     19  C   UNL     1     -13.109   6.897   8.849  1.00  0.00     0.000 C 
BRANCH  19  20
ATOM     20  C   UNL     1     -14.566   6.719   8.390  1.00  0.00     0.000 C 
BRANCH  20  21
ATOM     21  C   UNL     1     -15.071   7.898   7.542  1.00  0.00     0.000 C 
BRANCH  21  22
ATOM     22  C   UNL     1     -14.915   7.644   6.027  1.00  0.00    -0.000 C 
BRANCH  22  23
ATOM     23  C   UNL     1     -13.809   8.486   5.364  1.00  0.00    -0.000 C 
BRANCH  23  24
ATOM     24  C   UNL     1     -13.150   9.532   6.281  1.00  0.00    -0.000 C 
BRANCH  24  25
ATOM     25  C   UNL     1     -13.848  10.908   6.318  1.00  0.00    -0.000 C 
BRANCH  25  26
ATOM     26  C   UNL     1     -13.956  11.625   4.960  1.00  0.00    -0.000 C 
BRANCH  26  27
ATOM     27  C   UNL     1     -12.678  11.499   4.112  1.00  0.00    -0.000 C 
BRANCH  27  28
ATOM     28  C   UNL     1     -12.838  12.125   2.715  1.00  0.00    -0.000 C 
BRANCH  28  29
ATOM     29  C   UNL     1     -12.431  11.162   1.589  1.00  0.00    -0.003 C 
ATOM     30  C   UNL     1     -13.384   9.972   1.514  1.00  0.00     0.004 C 
ENDBRANCH  28  29
ENDBRANCH  27  28
ENDBRANCH  26  27
ENDBRANCH  25  26
ENDBRANCH  24  25
ENDBRANCH  23  24
ENDBRANCH  22  23
ENDBRANCH  21  22
ENDBRANCH  20  21
ENDBRANCH  19  20
ENDBRANCH  18  19
ENDBRANCH  17  18
ENDBRANCH   1  17
TORSDOF 26
ENDMDL
MODEL 5
REMARK VINA RESULT:    -3.025      2.442      6.700
REMARK INTER + INTRA:         -12.105
REMARK INTER:                  -9.688
REMARK INTRA:                  -2.417
REMARK UNBOUND:                -4.483
REMARK SMILES CCCCCCCCCCCCCCCCCCCCCCCCCCCC(=O)[O-]
REMARK SMILES IDX 15 1 16 2 17 3 18 4 19 5 20 6 21 7 22 8 23 9 24 10 25 11
REMARK SMILES IDX 26 12 27 13 28 14 29 15 30 16 14 17 13 18 12 19 11 20 10 21
REMARK SMILES IDX 9 22 8 23 7 24 6 25 5 26 4 27 3 28 2 29 1 30
REMARK H PARENT
REMARK Flexibility Score: inf
ROOT
ATOM      1  C   UNL     1      -9.370   7.802   6.094  1.00  0.00     0.000 C 
ENDROOT
BRANCH   1   2
ATOM      2  C   UNL     1      -8.400   8.763   5.389  1.00  0.00     0.000 C 
BRANCH   2   3
ATOM      3  C   UNL     1      -7.954   9.920   6.301  1.00  0.00     0.000 C 
BRANCH   3   4
ATOM      4  C   UNL     1      -8.097  11.295   5.612  1.00  0.00     0.000 C 
BRANCH   4   5
ATOM      5  C   UNL     1      -9.475  11.947   5.821  1.00  0.00     0.000 C 
BRANCH   5   6
ATOM      6  C   UNL     1     -10.232  11.458   7.067  1.00  0.00     0.000 C 
BRANCH   6   7
ATOM      7  C   UNL     1     -11.674  11.013   6.754  1.00  0.00     0.000 C 
BRANCH   7   8
ATOM      8  C   UNL     1     -12.722  11.966   7.360  1.00  0.00     0.000 C 
BRANCH   8   9
ATOM      9  C   UNL     1     -14.072  11.911   6.621  1.00  0.00     0.000 C 
BRANCH   9  10
ATOM     10  C   UNL     1     -13.907  12.125   5.103  1.00  0.00     0.000 C 
BRANCH  10  11
ATOM     11  C   UNL     1     -13.440  10.854   4.367  1.00  0.00     0.000 C 
BRANCH  11  12
ATOM     12  C   UNL     1     -14.168  10.582   3.034  1.00  0.00     0.006 C 
BRANCH  12  13
ATOM     13  C   UNL     1     -13.720  11.514   1.900  1.00  0.00     0.053 C 
BRANCH  13  14
ATOM     14  C   UNL     1     -12.239  11.417   1.696  1.00  0.00     0.041 C 
ATOM     15  O   UNL     1     -11.777  11.054   0.583  1.00  0.00    -0.550 OA
ATOM     16  O   UNL     1     -11.370  11.756   2.725  1.00  0.00    -0.550 OA
ENDBRANCH  13  14
ENDBRANCH  12  13
ENDBRANCH  11  12
ENDBRANCH  10  11
ENDBRANCH   9  10
ENDBRANCH   8   9
ENDBRANCH   7   8
ENDBRANCH   6   7
ENDBRANCH   5   6
ENDBRANCH   4   5
ENDBRANCH   3   4
ENDBRANCH   2   3
ENDBRANCH   1   2
BRANCH   1  17
ATOM     17  C   UNL     1      -8.650   6.590   6.711  1.00  0.00     0.000 C 
BRANCH  17  18
ATOM     18  C   UNL     1      -9.578   5.375   6.877  1.00  0.00     0.000 C 
BRANCH  18  19
ATOM     19  C   UNL     1     -10.145   5.249   8.303  1.00  0.00     0.000 C 
BRANCH  19  20
ATOM     20  C   UNL     1     -11.011   3.992   8.486  1.00  0.00     0.000 C 
BRANCH  20  21
ATOM     21  C   UNL     1     -12.493   4.321   8.733  1.00  0.00     0.000 C 
BRANCH  21  22
ATOM     22  C   UNL     1     -13.271   4.556   7.420  1.00  0.00    -0.000 C 
BRANCH  22  23
ATOM     23  C   UNL     1     -12.528   4.075   6.160  1.00  0.00    -0.000 C 
BRANCH  23  24
ATOM     24  C   UNL     1     -12.310   5.151   5.081  1.00  0.00    -0.000 C 
BRANCH  24  25
ATOM     25  C   UNL     1     -13.448   5.286   4.047  1.00  0.00    -0.000 C 
BRANCH  25  26
ATOM     26  C   UNL     1     -14.661   6.112   4.510  1.00  0.00    -0.000 C 
BRANCH  26  27
ATOM     27  C   UNL     1     -14.262   7.400   5.252  1.00  0.00    -0.000 C 
BRANCH  27  28
ATOM     28  C   UNL     1     -15.104   7.630   6.519  1.00  0.00    -0.000 C 
BRANCH  28  29
ATOM     29  C   UNL     1     -14.441   8.617   7.493  1.00  0.00    -0.003 C 
ATOM     30  C   UNL     1     -13.302   7.951   8.258  1.00  0.00     0.004 C 
ENDBRANCH  28  29
ENDBRANCH  27  28
ENDBRANCH  26  27
ENDBRANCH  25  26
ENDBRANCH  24  25
ENDBRANCH  23  24
ENDBRANCH  22  23
ENDBRANCH  21  22
ENDBRANCH  20  21
ENDBRANCH  19  20
ENDBRANCH  18  19
ENDBRANCH  17  18
ENDBRANCH   1  17
TORSDOF 26
ENDMDL
MODEL 6
REMARK VINA RESULT:    -3.011      2.713      5.963
REMARK INTER + INTRA:         -12.070
REMARK INTER:                  -8.825
REMARK INTRA:                  -3.245
REMARK UNBOUND:                -4.483
REMARK SMILES CCCCCCCCCCCCCCCCCCCCCCCCCCCC(=O)[O-]
REMARK SMILES IDX 15 1 16 2 17 3 18 4 19 5 20 6 21 7 22 8 23 9 24 10 25 11
REMARK SMILES IDX 26 12 27 13 28 14 29 15 30 16 14 17 13 18 12 19 11 20 10 21
REMARK SMILES IDX 9 22 8 23 7 24 6 25 5 26 4 27 3 28 2 29 1 30
REMARK H PARENT
REMARK Flexibility Score: inf
ROOT
ATOM      1  C   UNL     1     -13.017   4.966   8.945  1.00  0.00     0.000 C 
ENDROOT
BRANCH   1   2
ATOM      2  C   UNL     1     -11.860   4.112   8.402  1.00  0.00     0.000 C 
BRANCH   2   3
ATOM      3  C   UNL     1     -10.632   4.959   8.024  1.00  0.00     0.000 C 
BRANCH   3   4
ATOM      4  C   UNL     1     -10.234   4.780   6.542  1.00  0.00     0.000 C 
BRANCH   4   5
ATOM      5  C   UNL     1     -11.194   5.473   5.559  1.00  0.00     0.000 C 
BRANCH   5   6
ATOM      6  C   UNL     1     -12.384   4.609   5.110  1.00  0.00     0.000 C 
BRANCH   6   7
ATOM      7  C   UNL     1     -13.345   5.359   4.168  1.00  0.00     0.000 C 
BRANCH   7   8
ATOM      8  C   UNL     1     -14.437   6.125   4.941  1.00  0.00     0.000 C 
BRANCH   8   9
ATOM      9  C   UNL     1     -14.036   7.580   5.248  1.00  0.00     0.000 C 
BRANCH   9  10
ATOM     10  C   UNL     1     -14.356   8.527   4.075  1.00  0.00     0.000 C 
BRANCH  10  11
ATOM     11  C   UNL     1     -13.891   9.973   4.330  1.00  0.00     0.000 C 
BRANCH  11  12
ATOM     12  C   UNL     1     -14.298  10.980   3.234  1.00  0.00     0.006 C 
BRANCH  12  13
ATOM     13  C   UNL     1     -13.097  11.666   2.568  1.00  0.00     0.053 C 
BRANCH  13  14
ATOM     14  C   UNL     1     -12.605  10.856   1.409  1.00  0.00     0.041 C 
ATOM     15  O   UNL     1     -11.673  11.291   0.684  1.00  0.00    -0.550 OA
ATOM     16  O   UNL     1     -13.156   9.607   1.147  1.00  0.00    -0.550 OA
ENDBRANCH  13  14
ENDBRANCH  12  13
ENDBRANCH  11  12
ENDBRANCH  10  11
ENDBRANCH   9  10
ENDBRANCH   8   9
ENDBRANCH   7   8
ENDBRANCH   6   7
ENDBRANCH   5   6
ENDBRANCH   4   5
ENDBRANCH   3   4
ENDBRANCH   2   3
ENDBRANCH   1   2
BRANCH   1  17
ATOM     17  C   UNL     1     -12.977   6.411   8.418  1.00  0.00     0.000 C 
BRANCH  17  18
ATOM     18  C   UNL     1     -14.219   7.221   8.824  1.00  0.00     0.000 C 
BRANCH  18  19
ATOM     19  C   UNL     1     -13.901   8.702   9.099  1.00  0.00     0.000 C 
BRANCH  19  20
ATOM     20  C   UNL     1     -13.866   9.547   7.815  1.00  0.00     0.000 C 
BRANCH  20  21
ATOM     21  C   UNL     1     -12.684  10.531   7.782  1.00  0.00     0.000 C 
BRANCH  21  22
ATOM     22  C   UNL     1     -11.573  10.084   6.808  1.00  0.00    -0.000 C 
BRANCH  22  23
ATOM     23  C   UNL     1     -10.581  11.202   6.438  1.00  0.00    -0.000 C 
BRANCH  23  24
ATOM     24  C   UNL     1      -9.897  11.888   7.635  1.00  0.00    -0.000 C 
BRANCH  24  25
ATOM     25  C   UNL     1      -8.380  12.125   7.479  1.00  0.00    -0.000 C 
BRANCH  25  26
ATOM     26  C   UNL     1      -7.493  10.898   7.758  1.00  0.00    -0.000 C 
BRANCH  26  27
ATOM     27  C   UNL     1      -6.466  10.634   6.643  1.00  0.00    -0.000 C 
BRANCH  27  28
ATOM     28  C   UNL     1      -6.766   9.342   5.864  1.00  0.00    -0.000 C 
BRANCH  28  29
ATOM     29  C   UNL     1      -8.003   8.605   6.401  1.00  0.00    -0.003 C 
ATOM     30  C   UNL     1      -8.849   8.049   5.259  1.00  0.00     0.004 C 
ENDBRANCH  28  29
ENDBRANCH  27  28
ENDBRANCH  26  27
ENDBRANCH  25  26
ENDBRANCH  24  25
ENDBRANCH  23  24
ENDBRANCH  22  23
ENDBRANCH  21  22
ENDBRANCH  20  21
ENDBRANCH  19  20
ENDBRANCH  18  19
ENDBRANCH  17  18
ENDBRANCH   1  17
TORSDOF 26
ENDMDL
MODEL 7
REMARK VINA RESULT:    -2.883      1.506      4.054
REMARK INTER + INTRA:         -11.747
REMARK INTER:                  -8.402
REMARK INTRA:                  -3.345
REMARK UNBOUND:                -4.483
REMARK SMILES CCCCCCCCCCCCCCCCCCCCCCCCCCCC(=O)[O-]
REMARK SMILES IDX 15 1 16 2 17 3 18 4 19 5 20 6 21 7 22 8 23 9 24 10 25 11
REMARK SMILES IDX 26 12 27 13 28 14 29 15 30 16 14 17 13 18 12 19 11 20 10 21
REMARK SMILES IDX 9 22 8 23 7 24 6 25 5 26 4 27 3 28 2 29 1 30
REMARK H PARENT
REMARK Flexibility Score: inf
ROOT
ATOM      1  C   UNL     1     -13.083   5.205   5.634  1.00  0.00     0.000 C 
ENDROOT
BRANCH   1   2
ATOM      2  C   UNL     1     -12.510   4.153   6.596  1.00  0.00     0.000 C 
BRANCH   2   3
ATOM      3  C   UNL     1     -10.974   4.072   6.531  1.00  0.00     0.000 C 
BRANCH   3   4
ATOM      4  C   UNL     1     -10.299   5.337   7.104  1.00  0.00     0.000 C 
BRANCH   4   5
ATOM      5  C   UNL     1      -9.373   6.048   6.101  1.00  0.00     0.000 C 
BRANCH   5   6
ATOM      6  C   UNL     1      -9.423   7.584   6.161  1.00  0.00     0.000 C 
BRANCH   6   7
ATOM      7  C   UNL     1     -10.852   8.128   6.347  1.00  0.00     0.000 C 
BRANCH   7   8
ATOM      8  C   UNL     1     -10.986   9.588   5.873  1.00  0.00     0.000 C 
BRANCH   8   9
ATOM      9  C   UNL     1      -9.649  10.180   5.389  1.00  0.00     0.000 C 
BRANCH   9  10
ATOM     10  C   UNL     1      -9.579  11.704   5.611  1.00  0.00     0.000 C 
BRANCH  10  11
ATOM     11  C   UNL     1      -8.722  12.092   6.831  1.00  0.00     0.000 C 
BRANCH  11  12
ATOM     12  C   UNL     1      -7.582  11.103   7.154  1.00  0.00     0.006 C 
BRANCH  12  13
ATOM     13  C   UNL     1      -6.186  11.719   6.995  1.00  0.00     0.053 C 
BRANCH  13  14
ATOM     14  C   UNL     1      -5.305  10.821   6.183  1.00  0.00     0.041 C 
ATOM     15  O   UNL     1      -5.615   9.613   6.017  1.00  0.00    -0.550 OA
ATOM     16  O   UNL     1      -4.157  11.326   5.584  1.00  0.00    -0.550 OA
ENDBRANCH  13  14
ENDBRANCH  12  13
ENDBRANCH  11  12
ENDBRANCH  10  11
ENDBRANCH   9  10
ENDBRANCH   8   9
ENDBRANCH   7   8
ENDBRANCH   6   7
ENDBRANCH   5   6
ENDBRANCH   4   5
ENDBRANCH   3   4
ENDBRANCH   2   3
ENDBRANCH   1   2
BRANCH   1  17
ATOM     17  C   UNL     1     -13.710   6.399   6.374  1.00  0.00     0.000 C 
BRANCH  17  18
ATOM     18  C   UNL     1     -13.588   6.275   7.902  1.00  0.00     0.000 C 
BRANCH  18  19
ATOM     19  C   UNL     1     -14.707   7.021   8.652  1.00  0.00     0.000 C 
BRANCH  19  20
ATOM     20  C   UNL     1     -15.032   8.385   8.021  1.00  0.00     0.000 C 
BRANCH  20  21
ATOM     21  C   UNL     1     -14.841   9.555   9.001  1.00  0.00     0.000 C 
BRANCH  21  22
ATOM     22  C   UNL     1     -13.449  10.211   8.871  1.00  0.00    -0.000 C 
BRANCH  22  23
ATOM     23  C   UNL     1     -13.381  11.321   7.806  1.00  0.00    -0.000 C 
BRANCH  23  24
ATOM     24  C   UNL     1     -14.744  11.883   7.363  1.00  0.00    -0.000 C 
BRANCH  24  25
ATOM     25  C   UNL     1     -14.895  12.125   5.846  1.00  0.00    -0.000 C 
BRANCH  25  26
ATOM     26  C   UNL     1     -14.019  11.231   4.949  1.00  0.00    -0.000 C 
BRANCH  26  27
ATOM     27  C   UNL     1     -14.806  10.579   3.800  1.00  0.00    -0.000 C 
BRANCH  27  28
ATOM     28  C   UNL     1     -13.910  10.227   2.601  1.00  0.00    -0.000 C 
BRANCH  28  29
ATOM     29  C   UNL     1     -13.116  11.437   2.083  1.00  0.00    -0.003 C 
ATOM     30  C   UNL     1     -12.003  10.998   1.136  1.00  0.00     0.004 C 
ENDBRANCH  28  29
ENDBRANCH  27  28
ENDBRANCH  26  27
ENDBRANCH  25  26
ENDBRANCH  24  25
ENDBRANCH  23  24
ENDBRANCH  22  23
ENDBRANCH  21  22
ENDBRANCH  20  21
ENDBRANCH  19  20
ENDBRANCH  18  19
ENDBRANCH  17  18
ENDBRANCH   1  17
TORSDOF 26
ENDMDL
MODEL 8
REMARK VINA RESULT:    -2.878      1.925      5.034
REMARK INTER + INTRA:         -11.735
REMARK INTER:                  -8.614
REMARK INTRA:                  -3.120
REMARK UNBOUND:                -4.483
REMARK SMILES CCCCCCCCCCCCCCCCCCCCCCCCCCCC(=O)[O-]
REMARK SMILES IDX 15 1 16 2 17 3 18 4 19 5 20 6 21 7 22 8 23 9 24 10 25 11
REMARK SMILES IDX 26 12 27 13 28 14 29 15 30 16 14 17 13 18 12 19 11 20 10 21
REMARK SMILES IDX 9 22 8 23 7 24 6 25 5 26 4 27 3 28 2 29 1 30
REMARK H PARENT
REMARK Flexibility Score: inf
ROOT
ATOM      1  C   UNL     1     -12.123   6.873   8.429  1.00  0.00     0.000 C 
ENDROOT
BRANCH   1   2
ATOM      2  C   UNL     1     -13.634   7.155   8.400  1.00  0.00     0.000 C 
BRANCH   2   3
ATOM      3  C   UNL     1     -13.988   8.522   9.011  1.00  0.00     0.000 C 
BRANCH   3   4
ATOM      4  C   UNL     1     -13.904   9.664   7.975  1.00  0.00     0.000 C 
BRANCH   4   5
ATOM      5  C   UNL     1     -12.585  10.455   8.037  1.00  0.00     0.000 C 
BRANCH   5   6
ATOM      6  C   UNL     1     -11.852  10.582   6.691  1.00  0.00     0.000 C 
BRANCH   6   7
ATOM      7  C   UNL     1     -11.050  11.892   6.569  1.00  0.00     0.000 C 
BRANCH   7   8
ATOM      8  C   UNL     1      -9.835  11.921   7.517  1.00  0.00     0.000 C 
BRANCH   8   9
ATOM      9  C   UNL     1      -8.501  11.702   6.780  1.00  0.00     0.000 C 
BRANCH   9  10
ATOM     10  C   UNL     1      -7.557  10.767   7.562  1.00  0.00     0.000 C 
BRANCH  10  11
ATOM     11  C   UNL     1      -6.657   9.920   6.642  1.00  0.00     0.000 C 
BRANCH  11  12
ATOM     12  C   UNL     1      -7.267   9.607   5.260  1.00  0.00     0.006 C 
BRANCH  12  13
ATOM     13  C   UNL     1      -8.731   9.151   5.336  1.00  0.00     0.053 C 
BRANCH  13  14
ATOM     14  C   UNL     1      -8.811   7.697   5.684  1.00  0.00     0.041 C 
ATOM     15  O   UNL     1      -8.922   6.835   4.775  1.00  0.00    -0.550 OA
ATOM     16  O   UNL     1      -8.733   7.293   7.011  1.00  0.00    -0.550 OA
ENDBRANCH  13  14
ENDBRANCH  12  13
ENDBRANCH  11  12
ENDBRANCH  10  11
ENDBRANCH   9  10
ENDBRANCH   8   9
ENDBRANCH   7   8
ENDBRANCH   6   7
ENDBRANCH   5   6
ENDBRANCH   4   5
ENDBRANCH   3   4
ENDBRANCH   2   3
ENDBRANCH   1   2
BRANCH   1  17
ATOM     17  C   UNL     1     -11.788   5.542   9.125  1.00  0.00     0.000 C 
BRANCH  17  18
ATOM     18  C   UNL     1     -10.608   4.812   8.463  1.00  0.00     0.000 C 
BRANCH  18  19
ATOM     19  C   UNL     1     -10.769   4.681   6.937  1.00  0.00     0.000 C 
BRANCH  19  20
ATOM     20  C   UNL     1     -11.816   3.626   6.543  1.00  0.00     0.000 C 
BRANCH  20  21
ATOM     21  C   UNL     1     -12.995   4.224   5.757  1.00  0.00     0.000 C 
BRANCH  21  22
ATOM     22  C   UNL     1     -12.534   5.216   4.667  1.00  0.00    -0.000 C 
BRANCH  22  23
ATOM     23  C   UNL     1     -13.692   5.869   3.889  1.00  0.00    -0.000 C 
BRANCH  23  24
ATOM     24  C   UNL     1     -14.943   6.187   4.728  1.00  0.00    -0.000 C 
BRANCH  24  25
ATOM     25  C   UNL     1     -14.960   7.586   5.379  1.00  0.00    -0.000 C 
BRANCH  25  26
ATOM     26  C   UNL     1     -14.115   8.654   4.661  1.00  0.00    -0.000 C 
BRANCH  26  27
ATOM     27  C   UNL     1     -14.810  10.025   4.597  1.00  0.00    -0.000 C 
BRANCH  27  28
ATOM     28  C   UNL     1     -14.021  11.043   3.756  1.00  0.00    -0.000 C 
BRANCH  28  29
ATOM     29  C   UNL     1     -13.699  10.520   2.348  1.00  0.00    -0.003 C 
ATOM     30  C   UNL     1     -12.374  11.084   1.843  1.00  0.00     0.004 C 
ENDBRANCH  28  29
ENDBRANCH  27  28
ENDBRANCH  26  27
ENDBRANCH  25  26
ENDBRANCH  24  25
ENDBRANCH  23  24
ENDBRANCH  22  23
ENDBRANCH  21  22
ENDBRANCH  20  21
ENDBRANCH  19  20
ENDBRANCH  18  19
ENDBRANCH  17  18
ENDBRANCH   1  17
TORSDOF 26
ENDMDL
MODEL 9
REMARK VINA RESULT:    -2.820      2.970      5.646
REMARK INTER + INTRA:         -11.590
REMARK INTER:                  -9.173
REMARK INTRA:                  -2.417
REMARK UNBOUND:                -4.483
REMARK SMILES CCCCCCCCCCCCCCCCCCCCCCCCCCCC(=O)[O-]
REMARK SMILES IDX 15 1 16 2 17 3 18 4 19 5 20 6 21 7 22 8 23 9 24 10 25 11
REMARK SMILES IDX 26 12 27 13 28 14 29 15 30 16 14 17 13 18 12 19 11 20 10 21
REMARK SMILES IDX 9 22 8 23 7 24 6 25 5 26 4 27 3 28 2 29 1 30
REMARK H PARENT
REMARK Flexibility Score: inf
ROOT
ATOM      1  C   UNL     1      -9.281   6.921   5.705  1.00  0.00     0.000 C 
ENDROOT
BRANCH   1   2
ATOM      2  C   UNL     1     -10.400   6.461   6.651  1.00  0.00     0.000 C 
BRANCH   2   3
ATOM      3  C   UNL     1      -9.867   6.041   8.032  1.00  0.00     0.000 C 
BRANCH   3   4
ATOM      4  C   UNL     1     -10.744   4.954   8.691  1.00  0.00     0.000 C 
BRANCH   4   5
ATOM      5  C   UNL     1     -12.217   5.370   8.856  1.00  0.00     0.000 C 
BRANCH   5   6
ATOM      6  C   UNL     1     -12.502   6.850   8.553  1.00  0.00     0.000 C 
BRANCH   6   7
ATOM      7  C   UNL     1     -14.004   7.191   8.599  1.00  0.00     0.000 C 
BRANCH   7   8
ATOM      8  C   UNL     1     -14.635   7.234   7.193  1.00  0.00     0.000 C 
BRANCH   8   9
ATOM      9  C   UNL     1     -13.782   8.024   6.184  1.00  0.00     0.000 C 
BRANCH   9  10
ATOM     10  C   UNL     1     -14.073   7.604   4.729  1.00  0.00     0.000 C 
BRANCH  10  11
ATOM     11  C   UNL     1     -14.456   6.117   4.601  1.00  0.00     0.000 C 
BRANCH  11  12
ATOM     12  C   UNL     1     -13.265   5.166   4.361  1.00  0.00     0.006 C 
BRANCH  12  13
ATOM     13  C   UNL     1     -12.736   4.524   5.651  1.00  0.00     0.053 C 
BRANCH  13  14
ATOM     14  C   UNL     1     -11.580   3.621   5.352  1.00  0.00     0.041 C 
ATOM     15  O   UNL     1     -11.407   2.572   6.026  1.00  0.00    -0.550 OA
ATOM     16  O   UNL     1     -10.711   3.922   4.310  1.00  0.00    -0.550 OA
ENDBRANCH  13  14
ENDBRANCH  12  13
ENDBRANCH  11  12
ENDBRANCH  10  11
ENDBRANCH   9  10
ENDBRANCH   8   9
ENDBRANCH   7   8
ENDBRANCH   6   7
ENDBRANCH   5   6
ENDBRANCH   4   5
ENDBRANCH   3   4
ENDBRANCH   2   3
ENDBRANCH   1   2
BRANCH   1  17
ATOM     17  C   UNL     1      -8.394   8.012   6.331  1.00  0.00     0.000 C 
BRANCH  17  18
ATOM     18  C   UNL     1      -8.011   9.110   5.326  1.00  0.00     0.000 C 
BRANCH  18  19
ATOM     19  C   UNL     1      -7.084  10.178   5.935  1.00  0.00     0.000 C 
BRANCH  19  20
ATOM     20  C   UNL     1      -7.702  11.585   5.902  1.00  0.00     0.000 C 
BRANCH  20  21
ATOM     21  C   UNL     1      -8.768  11.792   6.992  1.00  0.00     0.000 C 
BRANCH  21  22
ATOM     22  C   UNL     1     -10.201  11.816   6.417  1.00  0.00    -0.000 C 
BRANCH  22  23
ATOM     23  C   UNL     1     -11.236  11.084   7.291  1.00  0.00    -0.000 C 
BRANCH  23  24
ATOM     24  C   UNL     1     -12.618  10.892   6.641  1.00  0.00    -0.000 C 
BRANCH  24  25
ATOM     25  C   UNL     1     -13.171  12.125   5.895  1.00  0.00    -0.000 C 
BRANCH  25  26
ATOM     26  C   UNL     1     -13.024  12.085   4.363  1.00  0.00    -0.000 C 
BRANCH  26  27
ATOM     27  C   UNL     1     -13.981  11.083   3.695  1.00  0.00    -0.000 C 
BRANCH  27  28
ATOM     28  C   UNL     1     -13.532  10.704   2.273  1.00  0.00    -0.000 C 
BRANCH  28  29
ATOM     29  C   UNL     1     -12.079  11.113   1.985  1.00  0.00    -0.003 C 
ATOM     30  C   UNL     1     -11.763  11.002   0.497  1.00  0.00     0.004 C 
ENDBRANCH  28  29
ENDBRANCH  27  28
ENDBRANCH  26  27
ENDBRANCH  25  26
ENDBRANCH  24  25
ENDBRANCH  23  24
ENDBRANCH  22  23
ENDBRANCH  21  22
ENDBRANCH  20  21
ENDBRANCH  19  20
ENDBRANCH  18  19
ENDBRANCH  17  18
ENDBRANCH   1  17
TORSDOF 26
ENDMDL
