MODEL 1
REMARK VINA RESULT:    -1.669      0.000      0.000
REMARK INTER + INTRA:          -1.458
REMARK INTER:                  -1.962
REMARK INTRA:                   0.504
REMARK UNBOUND:                 0.504
REMARK SMILES O=c1c(O)c(-c2ccc(O)cc2)oc2cc(O)cc(O)c12
REMARK SMILES IDX 5 1 3 2 2 3 1 4 21 5 19 6 18 7 16 8 15 9 14 10 13 11 6 12
REMARK SMILES IDX 7 13 8 14 9 15 12 16 11 17 10 18 4 20 20 22 17 24
REMARK H PARENT 10 19 4 21 20 23 17 25
REMARK Flexibility Score: inf
ROOT
ATOM      1  C   UNL     1      -1.523  -3.246   8.009  1.00  0.00     0.180 A 
ATOM      2  C   UNL     1      -0.130  -3.438   8.012  1.00  0.00     0.208 A 
ATOM      3  C   UNL     1       0.376  -4.747   7.937  1.00  0.00     0.238 A 
ATOM      4  O   UNL     1       1.622  -4.916   7.993  1.00  0.00    -0.285 OA
ATOM      5  C   UNL     1      -0.515  -5.842   7.844  1.00  0.00     0.111 A 
ATOM      6  C   UNL     1      -0.112  -7.207   7.723  1.00  0.00     0.134 A 
ATOM      7  C   UNL     1      -1.077  -8.219   7.772  1.00  0.00     0.093 A 
ATOM      8  C   UNL     1      -2.438  -7.913   7.870  1.00  0.00     0.123 A 
ATOM      9  C   UNL     1      -2.845  -6.583   7.929  1.00  0.00     0.094 A 
ATOM     10  C   UNL     1      -1.902  -5.551   7.920  1.00  0.00     0.146 A 
ATOM     11  O   UNL     1      -2.332  -4.297   7.989  1.00  0.00    -0.452 OA
ENDROOT
BRANCH   1  12
ATOM     12  C   UNL     1      -2.131  -1.897   8.060  1.00  0.00     0.021 A 
ATOM     13  C   UNL     1      -1.337  -0.736   8.095  1.00  0.00     0.016 A 
ATOM     14  C   UNL     1      -1.935   0.528   8.118  1.00  0.00     0.047 A 
ATOM     15  C   UNL     1      -3.331   0.649   8.094  1.00  0.00     0.115 A 
ATOM     16  C   UNL     1      -3.530  -1.766   8.016  1.00  0.00     0.016 A 
ATOM     17  C   UNL     1      -4.124  -0.501   8.040  1.00  0.00     0.047 A 
BRANCH  15  18
ATOM     18  O   UNL     1      -3.936   1.903   8.119  1.00  0.00    -0.508 OA
ATOM     19  H   UNL     1      -4.547   2.212   7.372  1.00  0.00     0.293 HD
ENDBRANCH  15  18
ENDBRANCH   1  12
BRANCH   2  20
ATOM     20  O   UNL     1       0.731  -2.343   8.125  1.00  0.00    -0.502 OA
ATOM     21  H   UNL     1       1.551  -2.233   7.540  1.00  0.00     0.293 HD
ENDBRANCH   2  20
BRANCH   6  22
ATOM     22  O   UNL     1       1.211  -7.615   7.527  1.00  0.00    -0.507 OA
ATOM     23  H   UNL     1       1.828  -7.933   8.259  1.00  0.00     0.293 HD
ENDBRANCH   6  22
BRANCH   8  24
ATOM     24  O   UNL     1      -3.393  -8.926   7.902  1.00  0.00    -0.508 OA
ATOM     25  H   UNL     1      -4.337  -8.774   7.567  1.00  0.00     0.293 HD
ENDBRANCH   8  24
TORSDOF 5
ENDMDL
MODEL 2
REMARK VINA RESULT:    -1.597      1.234      2.889
REMARK INTER + INTRA:          -1.374
REMARK INTER:                  -1.947
REMARK INTRA:                   0.573
REMARK UNBOUND:                 0.504
REMARK SMILES O=c1c(O)c(-c2ccc(O)cc2)oc2cc(O)cc(O)c12
REMARK SMILES IDX 5 1 3 2 2 3 1 4 21 5 19 6 18 7 16 8 15 9 14 10 13 11 6 12
REMARK SMILES IDX 7 13 8 14 9 15 12 16 11 17 10 18 4 20 20 22 17 24
REMARK H PARENT 10 19 4 21 20 23 17 25
REMARK Flexibility Score: inf
ROOT
ATOM      1  C   UNL     1      -1.754  -3.636   7.998  1.00  0.00     0.180 A 
ATOM      2  C   UNL     1      -2.811  -4.550   7.844  1.00  0.00     0.208 A 
ATOM      3  C   UNL     1      -2.524  -5.925   7.824  1.00  0.00     0.238 A 
ATOM      4  O   UNL     1      -3.467  -6.736   7.632  1.00  0.00    -0.285 OA
ATOM      5  C   UNL     1      -1.188  -6.368   7.974  1.00  0.00     0.111 A 
ATOM      6  C   UNL     1      -0.787  -7.738   8.009  1.00  0.00     0.134 A 
ATOM      7  C   UNL     1       0.576  -8.059   8.030  1.00  0.00     0.093 A 
ATOM      8  C   UNL     1       1.550  -7.058   8.084  1.00  0.00     0.123 A 
ATOM      9  C   UNL     1       1.167  -5.720   8.110  1.00  0.00     0.094 A 
ATOM     10  C   UNL     1      -0.184  -5.368   8.053  1.00  0.00     0.146 A 
ATOM     11  O   UNL     1      -0.505  -4.079   8.070  1.00  0.00    -0.452 OA
ENDROOT
BRANCH   1  12
ATOM     12  C   UNL     1      -1.980  -2.173   8.053  1.00  0.00     0.021 A 
ATOM     13  C   UNL     1      -0.904  -1.267   8.079  1.00  0.00     0.016 A 
ATOM     14  C   UNL     1      -1.142   0.111   8.106  1.00  0.00     0.047 A 
ATOM     15  C   UNL     1      -2.455   0.600   8.095  1.00  0.00     0.115 A 
ATOM     16  C   UNL     1      -3.293  -1.674   8.022  1.00  0.00     0.016 A 
ATOM     17  C   UNL     1      -3.527  -0.295   8.050  1.00  0.00     0.047 A 
BRANCH  15  18
ATOM     18  O   UNL     1      -2.703   1.971   8.124  1.00  0.00    -0.508 OA
ATOM     19  H   UNL     1      -3.380   2.373   8.760  1.00  0.00     0.293 HD
ENDBRANCH  15  18
ENDBRANCH   1  12
BRANCH   2  20
ATOM     20  O   UNL     1      -4.120  -4.091   7.675  1.00  0.00    -0.502 OA
ATOM     21  H   UNL     1      -4.835  -4.641   7.215  1.00  0.00     0.293 HD
ENDBRANCH   2  20
BRANCH   6  22
ATOM     22  O   UNL     1      -1.682  -8.811   8.052  1.00  0.00    -0.507 OA
ATOM     23  H   UNL     1      -1.509  -9.684   8.528  1.00  0.00     0.293 HD
ENDBRANCH   6  22
BRANCH   8  24
ATOM     24  O   UNL     1       2.903  -7.386   8.121  1.00  0.00    -0.508 OA
ATOM     25  H   UNL     1       3.293  -7.947   8.869  1.00  0.00     0.293 HD
ENDBRANCH   8  24
TORSDOF 5
ENDMDL
