MODEL 1
REMARK VINA RESULT:    -4.075      0.000      0.000
REMARK INTER + INTRA:          -8.457
REMARK INTER:                  -6.934
REMARK INTRA:                  -1.523
REMARK UNBOUND:                -1.523
REMARK SMILES CCCCCCCCCCCCCC(=O)[O-]
REMARK SMILES IDX 8 1 9 2 10 3 11 4 12 5 13 6 14 7 15 8 16 9 7 10 6 11 5 12
REMARK SMILES IDX 4 13 3 14 2 15 1 16
REMARK H PARENT
REMARK Flexibility Score: inf
ROOT
ATOM      1  C   UNL     1       7.028  30.268  18.292  1.00  0.00     0.000 C 
ENDROOT
BRANCH   1   2
ATOM      2  C   UNL     1       8.112  29.361  18.889  1.00  0.00     0.000 C 
BRANCH   2   3
ATOM      3  C   UNL     1       7.495  28.110  19.525  1.00  0.00     0.000 C 
BRANCH   3   4
ATOM      4  C   UNL     1       6.692  28.472  20.784  1.00  0.00     0.000 C 
BRANCH   4   5
ATOM      5  C   UNL     1       5.193  28.145  20.659  1.00  0.00     0.006 C 
BRANCH   5   6
ATOM      6  C   UNL     1       4.267  29.234  21.227  1.00  0.00     0.053 C 
BRANCH   6   7
ATOM      7  C   UNL     1       3.460  28.753  22.395  1.00  0.00     0.041 C 
ATOM      8  O   UNL     1       2.304  28.286  22.216  1.00  0.00    -0.550 OA
ATOM      9  O   UNL     1       3.968  28.852  23.684  1.00  0.00    -0.550 OA
ENDBRANCH   6   7
ENDBRANCH   5   6
ENDBRANCH   4   5
ENDBRANCH   3   4
ENDBRANCH   2   3
ENDBRANCH   1   2
BRANCH   1  10
ATOM     10  C   UNL     1       6.297  29.564  17.138  1.00  0.00     0.000 C 
BRANCH  10  11
ATOM     11  C   UNL     1       4.767  29.669  17.252  1.00  0.00    -0.000 C 
BRANCH  11  12
ATOM     12  C   UNL     1       4.274  31.127  17.272  1.00  0.00    -0.000 C 
BRANCH  12  13
ATOM     13  C   UNL     1       3.372  31.429  18.480  1.00  0.00    -0.000 C 
BRANCH  13  14
ATOM     14  C   UNL     1       3.994  32.457  19.440  1.00  0.00    -0.000 C 
BRANCH  14  15
ATOM     15  C   UNL     1       4.693  33.607  18.698  1.00  0.00    -0.003 C 
ATOM     16  C   UNL     1       5.227  34.684  19.642  1.00  0.00     0.004 C 
ENDBRANCH  14  15
ENDBRANCH  13  14
ENDBRANCH  12  13
ENDBRANCH  11  12
ENDBRANCH  10  11
ENDBRANCH   1  10
TORSDOF 12
ENDMDL
MODEL 2
REMARK VINA RESULT:    -4.061      2.461      3.341
REMARK INTER + INTRA:          -8.434
REMARK INTER:                  -6.992
REMARK INTRA:                  -1.442
REMARK UNBOUND:                -1.523
REMARK SMILES CCCCCCCCCCCCCC(=O)[O-]
REMARK SMILES IDX 8 1 9 2 10 3 11 4 12 5 13 6 14 7 15 8 16 9 7 10 6 11 5 12
REMARK SMILES IDX 4 13 3 14 2 15 1 16
REMARK H PARENT
REMARK Flexibility Score: inf
ROOT
ATOM      1  C   UNL     1       5.028  30.251  19.088  1.00  0.00     0.000 C 
ENDROOT
BRANCH   1   2
ATOM      2  C   UNL     1       4.055  30.648  20.205  1.00  0.00     0.000 C 
BRANCH   2   3
ATOM      3  C   UNL     1       3.856  29.497  21.198  1.00  0.00     0.000 C 
BRANCH   3   4
ATOM      4  C   UNL     1       4.562  28.223  20.711  1.00  0.00     0.000 C 
BRANCH   4   5
ATOM      5  C   UNL     1       5.587  27.676  21.722  1.00  0.00     0.006 C 
BRANCH   5   6
ATOM      6  C   UNL     1       6.993  28.286  21.577  1.00  0.00     0.053 C 
BRANCH   6   7
ATOM      7  C   UNL     1       7.700  27.817  20.341  1.00  0.00     0.041 C 
ATOM      8  O   UNL     1       7.698  26.595  20.036  1.00  0.00    -0.550 OA
ATOM      9  O   UNL     1       8.391  28.722  19.545  1.00  0.00    -0.550 OA
ENDBRANCH   6   7
ENDBRANCH   5   6
ENDBRANCH   4   5
ENDBRANCH   3   4
ENDBRANCH   2   3
ENDBRANCH   1   2
BRANCH   1  10
ATOM     10  C   UNL     1       4.581  30.833  17.738  1.00  0.00     0.000 C 
BRANCH  10  11
ATOM     11  C   UNL     1       3.076  30.653  17.482  1.00  0.00    -0.000 C 
BRANCH  11  12
ATOM     12  C   UNL     1       2.321  31.993  17.421  1.00  0.00    -0.000 C 
BRANCH  12  13
ATOM     13  C   UNL     1       3.260  33.205  17.541  1.00  0.00    -0.000 C 
BRANCH  13  14
ATOM     14  C   UNL     1       2.858  34.154  18.683  1.00  0.00    -0.000 C 
BRANCH  14  15
ATOM     15  C   UNL     1       4.026  35.033  19.157  1.00  0.00    -0.003 C 
ATOM     16  C   UNL     1       5.235  34.217  19.613  1.00  0.00     0.004 C 
ENDBRANCH  14  15
ENDBRANCH  13  14
ENDBRANCH  12  13
ENDBRANCH  11  12
ENDBRANCH  10  11
ENDBRANCH   1  10
TORSDOF 12
ENDMDL
MODEL 3
REMARK VINA RESULT:    -4.060      3.174      4.291
REMARK INTER + INTRA:          -8.430
REMARK INTER:                  -7.204
REMARK INTRA:                  -1.226
REMARK UNBOUND:                -1.523
REMARK SMILES CCCCCCCCCCCCCC(=O)[O-]
REMARK SMILES IDX 8 1 9 2 10 3 11 4 12 5 13 6 14 7 15 8 16 9 7 10 6 11 5 12
REMARK SMILES IDX 4 13 3 14 2 15 1 16
REMARK H PARENT
REMARK Flexibility Score: inf
ROOT
ATOM      1  C   UNL     1       3.860  29.753  19.784  1.00  0.00     0.000 C 
ENDROOT
BRANCH   1   2
ATOM      2  C   UNL     1       5.373  29.521  19.677  1.00  0.00     0.000 C 
BRANCH   2   3
ATOM      3  C   UNL     1       5.949  30.212  18.436  1.00  0.00     0.000 C 
BRANCH   3   4
ATOM      4  C   UNL     1       7.438  29.877  18.261  1.00  0.00     0.000 C 
BRANCH   4   5
ATOM      5  C   UNL     1       7.706  28.366  18.131  1.00  0.00     0.006 C 
BRANCH   5   6
ATOM      6  C   UNL     1       8.858  27.858  19.015  1.00  0.00     0.053 C 
BRANCH   6   7
ATOM      7  C   UNL     1       9.171  26.412  18.780  1.00  0.00     0.041 C 
ATOM      8  O   UNL     1      10.319  26.067  18.395  1.00  0.00    -0.550 OA
ATOM      9  O   UNL     1       8.186  25.446  18.951  1.00  0.00    -0.550 OA
ENDBRANCH   6   7
ENDBRANCH   5   6
ENDBRANCH   4   5
ENDBRANCH   3   4
ENDBRANCH   2   3
ENDBRANCH   1   2
BRANCH   1  10
ATOM     10  C   UNL     1       3.118  29.092  18.612  1.00  0.00     0.000 C 
BRANCH  10  11
ATOM     11  C   UNL     1       2.049  30.008  17.994  1.00  0.00    -0.000 C 
BRANCH  11  12
ATOM     12  C   UNL     1       2.655  31.095  17.087  1.00  0.00    -0.000 C 
BRANCH  12  13
ATOM     13  C   UNL     1       2.499  32.508  17.675  1.00  0.00    -0.000 C 
BRANCH  13  14
ATOM     14  C   UNL     1       3.840  33.253  17.785  1.00  0.00    -0.000 C 
BRANCH  14  15
ATOM     15  C   UNL     1       4.340  33.354  19.234  1.00  0.00    -0.003 C 
ATOM     16  C   UNL     1       5.106  34.648  19.509  1.00  0.00     0.004 C 
ENDBRANCH  14  15
ENDBRANCH  13  14
ENDBRANCH  12  13
ENDBRANCH  11  12
ENDBRANCH  10  11
ENDBRANCH   1  10
TORSDOF 12
ENDMDL
MODEL 4
REMARK VINA RESULT:    -4.046      2.831      5.075
REMARK INTER + INTRA:          -8.407
REMARK INTER:                  -6.780
REMARK INTRA:                  -1.627
REMARK UNBOUND:                -1.523
REMARK SMILES CCCCCCCCCCCCCC(=O)[O-]
REMARK SMILES IDX 8 1 9 2 10 3 11 4 12 5 13 6 14 7 15 8 16 9 7 10 6 11 5 12
REMARK SMILES IDX 4 13 3 14 2 15 1 16
REMARK H PARENT
REMARK Flexibility Score: inf
ROOT
ATOM      1  C   UNL     1       7.275  28.938  19.426  1.00  0.00     0.000 C 
ENDROOT
BRANCH   1   2
ATOM      2  C   UNL     1       7.074  29.901  18.249  1.00  0.00     0.000 C 
BRANCH   2   3
ATOM      3  C   UNL     1       5.752  29.619  17.526  1.00  0.00     0.000 C 
BRANCH   3   4
ATOM      4  C   UNL     1       4.988  30.921  17.247  1.00  0.00     0.000 C 
BRANCH   4   5
ATOM      5  C   UNL     1       3.796  31.139  18.198  1.00  0.00     0.006 C 
BRANCH   5   6
ATOM      6  C   UNL     1       3.834  32.481  18.949  1.00  0.00     0.053 C 
BRANCH   6   7
ATOM      7  C   UNL     1       2.859  33.478  18.398  1.00  0.00     0.041 C 
ATOM      8  O   UNL     1       2.834  34.653  18.848  1.00  0.00    -0.550 OA
ATOM      9  O   UNL     1       1.954  33.099  17.413  1.00  0.00    -0.550 OA
ENDBRANCH   6   7
ENDBRANCH   5   6
ENDBRANCH   4   5
ENDBRANCH   3   4
ENDBRANCH   2   3
ENDBRANCH   1   2
BRANCH   1  10
ATOM     10  C   UNL     1       5.942  28.305  19.852  1.00  0.00     0.000 C 
BRANCH  10  11
ATOM     11  C   UNL     1       5.558  28.647  21.301  1.00  0.00    -0.000 C 
BRANCH  11  12
ATOM     12  C   UNL     1       4.242  29.440  21.393  1.00  0.00    -0.000 C 
BRANCH  12  13
ATOM     13  C   UNL     1       3.191  28.741  22.271  1.00  0.00    -0.000 C 
BRANCH  13  14
ATOM     14  C   UNL     1       2.086  28.063  21.443  1.00  0.00    -0.000 C 
BRANCH  14  15
ATOM     15  C   UNL     1       2.069  28.541  19.982  1.00  0.00    -0.003 C 
ATOM     16  C   UNL     1       2.338  27.413  18.987  1.00  0.00     0.004 C 
ENDBRANCH  14  15
ENDBRANCH  13  14
ENDBRANCH  12  13
ENDBRANCH  11  12
ENDBRANCH  10  11
ENDBRANCH   1  10
TORSDOF 12
ENDMDL
MODEL 5
REMARK VINA RESULT:    -3.948      2.937      5.809
REMARK INTER + INTRA:          -8.241
REMARK INTER:                  -6.886
REMARK INTRA:                  -1.354
REMARK UNBOUND:                -1.523
REMARK SMILES CCCCCCCCCCCCCC(=O)[O-]
REMARK SMILES IDX 8 1 9 2 10 3 11 4 12 5 13 6 14 7 15 8 16 9 7 10 6 11 5 12
REMARK SMILES IDX 4 13 3 14 2 15 1 16
REMARK H PARENT
REMARK Flexibility Score: inf
ROOT
ATOM      1  C   UNL     1       3.941  30.204  20.325  1.00  0.00     0.000 C 
ENDROOT
BRANCH   1   2
ATOM      2  C   UNL     1       3.270  29.699  19.042  1.00  0.00     0.000 C 
BRANCH   2   3
ATOM      3  C   UNL     1       3.582  30.622  17.857  1.00  0.00     0.000 C 
BRANCH   3   4
ATOM      4  C   UNL     1       2.445  31.629  17.630  1.00  0.00     0.000 C 
BRANCH   4   5
ATOM      5  C   UNL     1       2.924  33.092  17.639  1.00  0.00     0.006 C 
BRANCH   5   6
ATOM      6  C   UNL     1       4.310  33.292  18.275  1.00  0.00     0.053 C 
BRANCH   6   7
ATOM      7  C   UNL     1       4.436  34.607  18.983  1.00  0.00     0.041 C 
ATOM      8  O   UNL     1       5.523  34.929  19.530  1.00  0.00    -0.550 OA
ATOM      9  O   UNL     1       3.344  35.461  19.069  1.00  0.00    -0.550 OA
ENDBRANCH   6   7
ENDBRANCH   5   6
ENDBRANCH   4   5
ENDBRANCH   3   4
ENDBRANCH   2   3
ENDBRANCH   1   2
BRANCH   1  10
ATOM     10  C   UNL     1       3.924  29.122  21.417  1.00  0.00     0.000 C 
BRANCH  10  11
ATOM     11  C   UNL     1       5.335  28.662  21.819  1.00  0.00    -0.000 C 
BRANCH  11  12
ATOM     12  C   UNL     1       5.945  27.673  20.810  1.00  0.00    -0.000 C 
BRANCH  12  13
ATOM     13  C   UNL     1       7.473  27.565  20.939  1.00  0.00    -0.000 C 
BRANCH  13  14
ATOM     14  C   UNL     1       8.216  28.371  19.860  1.00  0.00    -0.000 C 
BRANCH  14  15
ATOM     15  C   UNL     1       7.323  28.705  18.656  1.00  0.00    -0.003 C 
ATOM     16  C   UNL     1       7.205  30.207  18.402  1.00  0.00     0.004 C 
ENDBRANCH  14  15
ENDBRANCH  13  14
ENDBRANCH  12  13
ENDBRANCH  11  12
ENDBRANCH  10  11
ENDBRANCH   1  10
TORSDOF 12
ENDMDL
MODEL 6
REMARK VINA RESULT:    -3.937      7.261      9.653
REMARK INTER + INTRA:          -8.222
REMARK INTER:                  -5.943
REMARK INTRA:                  -2.279
REMARK UNBOUND:                -1.523
REMARK SMILES CCCCCCCCCCCCCC(=O)[O-]
REMARK SMILES IDX 8 1 9 2 10 3 11 4 12 5 13 6 14 7 15 8 16 9 7 10 6 11 5 12
REMARK SMILES IDX 4 13 3 14 2 15 1 16
REMARK H PARENT
REMARK Flexibility Score: inf
ROOT
ATOM      1  C   UNL     1       3.144  28.198  28.365  1.00  0.00     0.000 C 
ENDROOT
BRANCH   1   2
ATOM      2  C   UNL     1       3.220  29.652  27.882  1.00  0.00     0.000 C 
BRANCH   2   3
ATOM      3  C   UNL     1       4.205  29.795  26.716  1.00  0.00     0.000 C 
BRANCH   3   4
ATOM      4  C   UNL     1       5.236  30.899  26.998  1.00  0.00     0.000 C 
BRANCH   4   5
ATOM      5  C   UNL     1       6.668  30.506  26.593  1.00  0.00     0.006 C 
BRANCH   5   6
ATOM      6  C   UNL     1       6.765  29.141  25.888  1.00  0.00     0.053 C 
BRANCH   6   7
ATOM      7  C   UNL     1       8.152  28.575  25.917  1.00  0.00     0.041 C 
ATOM      8  O   UNL     1       9.077  29.194  26.506  1.00  0.00    -0.550 OA
ATOM      9  O   UNL     1       8.433  27.380  25.264  1.00  0.00    -0.550 OA
ENDBRANCH   6   7
ENDBRANCH   5   6
ENDBRANCH   4   5
ENDBRANCH   3   4
ENDBRANCH   2   3
ENDBRANCH   1   2
BRANCH   1  10
ATOM     10  C   UNL     1       3.830  27.251  27.368  1.00  0.00     0.000 C 
BRANCH  10  11
ATOM     11  C   UNL     1       4.546  26.079  28.058  1.00  0.00    -0.000 C 
BRANCH  11  12
ATOM     12  C   UNL     1       5.943  25.809  27.469  1.00  0.00    -0.000 C 
BRANCH  12  13
ATOM     13  C   UNL     1       7.075  26.158  28.450  1.00  0.00    -0.000 C 
BRANCH  13  14
ATOM     14  C   UNL     1       6.579  26.967  29.661  1.00  0.00    -0.000 C 
BRANCH  14  15
ATOM     15  C   UNL     1       6.983  28.448  29.584  1.00  0.00    -0.003 C 
ATOM     16  C   UNL     1       6.056  29.358  30.389  1.00  0.00     0.004 C 
ENDBRANCH  14  15
ENDBRANCH  13  14
ENDBRANCH  12  13
ENDBRANCH  11  12
ENDBRANCH  10  11
ENDBRANCH   1  10
TORSDOF 12
ENDMDL
MODEL 7
REMARK VINA RESULT:    -3.895      8.741     10.887
REMARK INTER + INTRA:          -8.150
REMARK INTER:                  -6.657
REMARK INTRA:                  -1.493
REMARK UNBOUND:                -1.523
REMARK SMILES CCCCCCCCCCCCCC(=O)[O-]
REMARK SMILES IDX 8 1 9 2 10 3 11 4 12 5 13 6 14 7 15 8 16 9 7 10 6 11 5 12
REMARK SMILES IDX 4 13 3 14 2 15 1 16
REMARK H PARENT
REMARK Flexibility Score: inf
ROOT
ATOM      1  C   UNL     1      11.504  31.243  30.581  1.00  0.00     0.000 C 
ENDROOT
BRANCH   1   2
ATOM      2  C   UNL     1      11.876  30.267  29.458  1.00  0.00     0.000 C 
BRANCH   2   3
ATOM      3  C   UNL     1      13.195  30.672  28.790  1.00  0.00     0.000 C 
BRANCH   3   4
ATOM      4  C   UNL     1      12.961  31.743  27.714  1.00  0.00     0.000 C 
BRANCH   4   5
ATOM      5  C   UNL     1      11.626  31.567  26.967  1.00  0.00     0.006 C 
BRANCH   5   6
ATOM      6  C   UNL     1      10.965  32.892  26.550  1.00  0.00     0.053 C 
BRANCH   6   7
ATOM      7  C   UNL     1      10.247  32.791  25.239  1.00  0.00     0.041 C 
ATOM      8  O   UNL     1       9.025  32.488  25.208  1.00  0.00    -0.550 OA
ATOM      9  O   UNL     1      10.934  32.996  24.048  1.00  0.00    -0.550 OA
ENDBRANCH   6   7
ENDBRANCH   5   6
ENDBRANCH   4   5
ENDBRANCH   3   4
ENDBRANCH   2   3
ENDBRANCH   1   2
BRANCH   1  10
ATOM     10  C   UNL     1      10.138  31.894  30.314  1.00  0.00     0.000 C 
BRANCH  10  11
ATOM     11  C   UNL     1       8.973  30.897  30.425  1.00  0.00    -0.000 C 
BRANCH  11  12
ATOM     12  C   UNL     1       8.313  30.604  29.066  1.00  0.00    -0.000 C 
BRANCH  12  13
ATOM     13  C   UNL     1       7.447  29.333  29.092  1.00  0.00    -0.000 C 
BRANCH  13  14
ATOM     14  C   UNL     1       7.948  28.257  28.114  1.00  0.00    -0.000 C 
BRANCH  14  15
ATOM     15  C   UNL     1       9.195  28.704  27.334  1.00  0.00    -0.003 C 
ATOM     16  C   UNL     1       8.894  29.032  25.872  1.00  0.00     0.004 C 
ENDBRANCH  14  15
ENDBRANCH  13  14
ENDBRANCH  12  13
ENDBRANCH  11  12
ENDBRANCH  10  11
ENDBRANCH   1  10
TORSDOF 12
ENDMDL
MODEL 8
REMARK VINA RESULT:    -3.851      7.777     10.008
REMARK INTER + INTRA:          -8.075
REMARK INTER:                  -6.185
REMARK INTRA:                  -1.891
REMARK UNBOUND:                -1.523
REMARK SMILES CCCCCCCCCCCCCC(=O)[O-]
REMARK SMILES IDX 8 1 9 2 10 3 11 4 12 5 13 6 14 7 15 8 16 9 7 10 6 11 5 12
REMARK SMILES IDX 4 13 3 14 2 15 1 16
REMARK H PARENT
REMARK Flexibility Score: inf
ROOT
ATOM      1  C   UNL     1       8.953  30.553  25.870  1.00  0.00     0.000 C 
ENDROOT
BRANCH   1   2
ATOM      2  C   UNL     1       9.449  31.963  25.524  1.00  0.00     0.000 C 
BRANCH   2   3
ATOM      3  C   UNL     1      10.963  31.971  25.286  1.00  0.00     0.000 C 
BRANCH   3   4
ATOM      4  C   UNL     1      11.665  30.927  26.167  1.00  0.00     0.000 C 
BRANCH   4   5
ATOM      5  C   UNL     1      12.355  31.541  27.398  1.00  0.00     0.006 C 
BRANCH   5   6
ATOM      6  C   UNL     1      11.722  31.130  28.739  1.00  0.00     0.053 C 
BRANCH   6   7
ATOM      7  C   UNL     1      10.981  32.255  29.396  1.00  0.00     0.041 C 
ATOM      8  O   UNL     1      10.814  32.260  30.644  1.00  0.00    -0.550 OA
ATOM      9  O   UNL     1      10.444  33.281  28.627  1.00  0.00    -0.550 OA
ENDBRANCH   6   7
ENDBRANCH   5   6
ENDBRANCH   4   5
ENDBRANCH   3   4
ENDBRANCH   2   3
ENDBRANCH   1   2
BRANCH   1  10
ATOM     10  C   UNL     1       8.093  30.569  27.143  1.00  0.00     0.000 C 
BRANCH  10  11
ATOM     11  C   UNL     1       8.480  29.462  28.136  1.00  0.00    -0.000 C 
BRANCH  11  12
ATOM     12  C   UNL     1       9.288  28.330  27.475  1.00  0.00    -0.000 C 
BRANCH  12  13
ATOM     13  C   UNL     1       8.547  26.983  27.500  1.00  0.00    -0.000 C 
BRANCH  13  14
ATOM     14  C   UNL     1       8.261  26.439  26.089  1.00  0.00    -0.000 C 
BRANCH  14  15
ATOM     15  C   UNL     1       7.298  27.337  25.297  1.00  0.00    -0.003 C 
ATOM     16  C   UNL     1       5.950  27.520  25.993  1.00  0.00     0.004 C 
ENDBRANCH  14  15
ENDBRANCH  13  14
ENDBRANCH  12  13
ENDBRANCH  11  12
ENDBRANCH  10  11
ENDBRANCH   1  10
TORSDOF 12
ENDMDL
MODEL 9
REMARK VINA RESULT:    -3.850      6.839      9.318
REMARK INTER + INTRA:          -8.074
REMARK INTER:                  -5.918
REMARK INTRA:                  -2.155
REMARK UNBOUND:                -1.523
REMARK SMILES CCCCCCCCCCCCCC(=O)[O-]
REMARK SMILES IDX 8 1 9 2 10 3 11 4 12 5 13 6 14 7 15 8 16 9 7 10 6 11 5 12
REMARK SMILES IDX 4 13 3 14 2 15 1 16
REMARK H PARENT
REMARK Flexibility Score: inf
ROOT
ATOM      1  C   UNL     1       6.253  26.112  28.037  1.00  0.00     0.000 C 
ENDROOT
BRANCH   1   2
ATOM      2  C   UNL     1       7.211  25.350  27.113  1.00  0.00     0.000 C 
BRANCH   2   3
ATOM      3  C   UNL     1       8.428  26.209  26.750  1.00  0.00     0.000 C 
BRANCH   3   4
ATOM      4  C   UNL     1       8.052  27.289  25.724  1.00  0.00     0.000 C 
BRANCH   4   5
ATOM      5  C   UNL     1       8.596  28.683  26.088  1.00  0.00     0.006 C 
BRANCH   5   6
ATOM      6  C   UNL     1       9.383  28.720  27.409  1.00  0.00     0.053 C 
BRANCH   6   7
ATOM      7  C   UNL     1      10.120  30.010  27.604  1.00  0.00     0.041 C 
ATOM      8  O   UNL     1      11.363  30.005  27.808  1.00  0.00    -0.550 OA
ATOM      9  O   UNL     1       9.431  31.217  27.597  1.00  0.00    -0.550 OA
ENDBRANCH   6   7
ENDBRANCH   5   6
ENDBRANCH   4   5
ENDBRANCH   3   4
ENDBRANCH   2   3
ENDBRANCH   1   2
BRANCH   1  10
ATOM     10  C   UNL     1       6.983  26.613  29.293  1.00  0.00     0.000 C 
BRANCH  10  11
ATOM     11  C   UNL     1       6.536  28.021  29.718  1.00  0.00    -0.000 C 
BRANCH  11  12
ATOM     12  C   UNL     1       5.575  28.668  28.705  1.00  0.00    -0.000 C 
BRANCH  12  13
ATOM     13  C   UNL     1       6.018  30.080  28.288  1.00  0.00    -0.000 C 
BRANCH  13  14
ATOM     14  C   UNL     1       5.420  30.513  26.938  1.00  0.00    -0.000 C 
BRANCH  14  15
ATOM     15  C   UNL     1       4.413  29.492  26.387  1.00  0.00    -0.003 C 
ATOM     16  C   UNL     1       4.793  28.974  25.000  1.00  0.00     0.004 C 
ENDBRANCH  14  15
ENDBRANCH  13  14
ENDBRANCH  12  13
ENDBRANCH  11  12
ENDBRANCH  10  11
ENDBRANCH   1  10
TORSDOF 12
ENDMDL
