MODEL 1
REMARK VINA RESULT:     1.378      0.000      0.000
REMARK INTER + INTRA:           1.492
REMARK INTER:                   1.619
REMARK INTRA:                  -0.127
REMARK UNBOUND:                -0.127
REMARK SMILES O=C([O-])C=Cc1ccc(O)c(O)c1
REMARK SMILES IDX 6 1 13 2 7 3 11 4 8 5 9 6 5 7 4 8 2 9 1 10 3 11 12 12 10 14
REMARK H PARENT 12 13 10 15
REMARK Flexibility Score: inf
ROOT
ATOM      1  C   UNL     1      -3.752  -0.955   2.418  1.00  0.00    -0.022 A 
ATOM      2  C   UNL     1      -3.837  -0.758   1.030  1.00  0.00     0.058 A 
ATOM      3  C   UNL     1      -4.632  -1.869   3.030  1.00  0.00     0.012 A 
ATOM      4  C   UNL     1      -4.762  -1.476   0.258  1.00  0.00     0.157 A 
ATOM      5  C   UNL     1      -5.555  -2.584   2.262  1.00  0.00     0.051 A 
ATOM      6  C   UNL     1      -5.623  -2.394   0.879  1.00  0.00     0.157 A 
ENDROOT
BRANCH   1   7
ATOM      7  C   UNL     1      -2.762  -0.161   3.189  1.00  0.00     0.010 C 
ATOM      8  C   UNL     1      -1.443  -0.185   2.955  1.00  0.00     0.025 C 
BRANCH   8   9
ATOM      9  C   UNL     1      -0.499   0.628   3.738  1.00  0.00     0.064 C 
ATOM     10  O   UNL     1       0.724   0.620   3.440  1.00  0.00    -0.545 OA
ATOM     11  O   UNL     1      -0.935   1.405   4.805  1.00  0.00    -0.545 OA
ENDBRANCH   8   9
ENDBRANCH   1   7
BRANCH   4  12
ATOM     12  O   UNL     1      -4.828  -1.277  -1.120  1.00  0.00    -0.504 OA
ATOM     13  H   UNL     1      -4.000  -1.079  -1.669  1.00  0.00     0.293 HD
ENDBRANCH   4  12
BRANCH   6  14
ATOM     14  O   UNL     1      -6.554  -3.125   0.139  1.00  0.00    -0.504 OA
ATOM     15  H   UNL     1      -6.304  -3.976  -0.350  1.00  0.00     0.293 HD
ENDBRANCH   6  14
TORSDOF 4
ENDMDL
MODEL 2
REMARK VINA RESULT:     3.728      1.333      5.728
REMARK INTER + INTRA:           4.254
REMARK INTER:                   4.387
REMARK INTRA:                  -0.133
REMARK UNBOUND:                -0.127
REMARK SMILES O=C([O-])C=Cc1ccc(O)c(O)c1
REMARK SMILES IDX 6 1 13 2 7 3 11 4 8 5 9 6 5 7 4 8 2 9 1 10 3 11 12 12 10 14
REMARK H PARENT 12 13 10 15
REMARK Flexibility Score: inf
ROOT
ATOM      1  C   UNL     1      -3.365  -0.401   2.250  1.00  0.00    -0.022 A 
ATOM      2  C   UNL     1      -2.126  -0.094   1.664  1.00  0.00     0.058 A 
ATOM      3  C   UNL     1      -3.515  -0.246   3.642  1.00  0.00     0.012 A 
ATOM      4  C   UNL     1      -1.062   0.384   2.444  1.00  0.00     0.157 A 
ATOM      5  C   UNL     1      -2.456   0.229   4.420  1.00  0.00     0.051 A 
ATOM      6  C   UNL     1      -1.230   0.547   3.828  1.00  0.00     0.157 A 
ENDROOT
BRANCH   1   7
ATOM      7  C   UNL     1      -4.454  -0.912   1.381  1.00  0.00     0.010 C 
ATOM      8  C   UNL     1      -4.278  -1.283   0.106  1.00  0.00     0.025 C 
BRANCH   8   9
ATOM      9  C   UNL     1      -5.386  -1.797  -0.716  1.00  0.00     0.064 C 
ATOM     10  O   UNL     1      -6.319  -1.023  -1.054  1.00  0.00    -0.545 OA
ATOM     11  O   UNL     1      -5.419  -3.125  -1.125  1.00  0.00    -0.545 OA
ENDBRANCH   8   9
ENDBRANCH   1   7
BRANCH   4  12
ATOM     12  O   UNL     1       0.160   0.694   1.847  1.00  0.00    -0.504 OA
ATOM     13  H   UNL     1       0.307   0.586   0.851  1.00  0.00     0.293 HD
ENDBRANCH   4  12
BRANCH   6  14
ATOM     14  O   UNL     1      -0.192   1.020   4.630  1.00  0.00    -0.504 OA
ATOM     15  H   UNL     1       0.781   0.912   4.371  1.00  0.00     0.293 HD
ENDBRANCH   6  14
TORSDOF 4
ENDMDL
MODEL 3
REMARK VINA RESULT:     4.204      0.971      1.880
REMARK INTER + INTRA:           4.814
REMARK INTER:                   4.950
REMARK INTRA:                  -0.135
REMARK UNBOUND:                -0.127
REMARK SMILES O=C([O-])C=Cc1ccc(O)c(O)c1
REMARK SMILES IDX 6 1 13 2 7 3 11 4 8 5 9 6 5 7 4 8 2 9 1 10 3 11 12 12 10 14
REMARK H PARENT 12 13 10 15
REMARK Flexibility Score: inf
ROOT
ATOM      1  C   UNL     1      -3.815  -0.853   1.672  1.00  0.00    -0.022 A 
ATOM      2  C   UNL     1      -4.904  -1.630   2.100  1.00  0.00     0.058 A 
ATOM      3  C   UNL     1      -3.486  -0.839   0.302  1.00  0.00     0.012 A 
ATOM      4  C   UNL     1      -5.670  -2.360   1.180  1.00  0.00     0.157 A 
ATOM      5  C   UNL     1      -4.249  -1.567  -0.615  1.00  0.00     0.051 A 
ATOM      6  C   UNL     1      -5.341  -2.326  -0.184  1.00  0.00     0.157 A 
ENDROOT
BRANCH   1   7
ATOM      7  C   UNL     1      -3.030  -0.108   2.689  1.00  0.00     0.010 C 
ATOM      8  C   UNL     1      -1.692  -0.121   2.753  1.00  0.00     0.025 C 
BRANCH   8   9
ATOM      9  C   UNL     1      -0.955   0.643   3.772  1.00  0.00     0.064 C 
ATOM     10  O   UNL     1       0.304   0.640   3.761  1.00  0.00    -0.545 OA
ATOM     11  O   UNL     1      -1.626   1.370   4.748  1.00  0.00    -0.545 OA
ENDBRANCH   8   9
ENDBRANCH   1   7
BRANCH   4  12
ATOM     12  O   UNL     1      -6.755  -3.119   1.618  1.00  0.00    -0.504 OA
ATOM     13  H   UNL     1      -6.893  -4.075   1.313  1.00  0.00     0.293 HD
ENDBRANCH   4  12
BRANCH   6  14
ATOM     14  O   UNL     1      -6.084  -3.040  -1.125  1.00  0.00    -0.504 OA
ATOM     15  H   UNL     1      -5.749  -3.906  -1.530  1.00  0.00     0.293 HD
ENDBRANCH   6  14
TORSDOF 4
ENDMDL
