MODEL 1
REMARK VINA RESULT:    -3.582      0.000      0.000
REMARK INTER + INTRA:         -11.023
REMARK INTER:                  -7.769
REMARK INTRA:                  -3.254
REMARK UNBOUND:                -3.254
REMARK SMILES CCCCCCCCCCCCCCCCCCCCCC(=O)[O-]
REMARK SMILES IDX 12 1 11 2 10 3 9 4 8 5 7 6 6 7 5 8 4 9 3 10 2 11 1 12 13 13
REMARK SMILES IDX 14 14 15 15 16 16 17 17 18 18 19 19 20 20 21 21 22 22 23 23
REMARK SMILES IDX 24 24
REMARK H PARENT
REMARK Flexibility Score: inf
ROOT
ATOM      1  C   UNL     1      44.947  30.044  91.779  1.00  0.00     0.000 C 
ENDROOT
BRANCH   1   2
ATOM      2  C   UNL     1      43.423  29.839  91.809  1.00  0.00     0.000 C 
BRANCH   2   3
ATOM      3  C   UNL     1      42.966  28.397  92.110  1.00  0.00     0.000 C 
BRANCH   3   4
ATOM      4  C   UNL     1      42.224  27.691  90.957  1.00  0.00    -0.000 C 
BRANCH   4   5
ATOM      5  C   UNL     1      43.134  27.080  89.876  1.00  0.00    -0.000 C 
BRANCH   5   6
ATOM      6  C   UNL     1      43.064  27.832  88.539  1.00  0.00    -0.000 C 
BRANCH   6   7
ATOM      7  C   UNL     1      44.310  28.707  88.336  1.00  0.00    -0.000 C 
BRANCH   7   8
ATOM      8  C   UNL     1      43.994  30.038  87.635  1.00  0.00    -0.000 C 
BRANCH   8   9
ATOM      9  C   UNL     1      42.929  30.860  88.381  1.00  0.00    -0.000 C 
BRANCH   9  10
ATOM     10  C   UNL     1      41.719  31.215  87.496  1.00  0.00    -0.000 C 
BRANCH  10  11
ATOM     11  C   UNL     1      40.384  30.591  87.938  1.00  0.00    -0.003 C 
ATOM     12  C   UNL     1      40.347  30.247  89.427  1.00  0.00     0.004 C 
ENDBRANCH  10  11
ENDBRANCH   9  10
ENDBRANCH   8   9
ENDBRANCH   7   8
ENDBRANCH   6   7
ENDBRANCH   5   6
ENDBRANCH   4   5
ENDBRANCH   3   4
ENDBRANCH   2   3
ENDBRANCH   1   2
BRANCH   1  13
ATOM     13  C   UNL     1      45.347  31.491  91.455  1.00  0.00     0.000 C 
BRANCH  13  14
ATOM     14  C   UNL     1      46.026  31.580  90.082  1.00  0.00     0.000 C 
BRANCH  14  15
ATOM     15  C   UNL     1      47.490  31.123  90.163  1.00  0.00     0.000 C 
BRANCH  15  16
ATOM     16  C   UNL     1      47.768  29.848  89.344  1.00  0.00     0.000 C 
BRANCH  16  17
ATOM     17  C   UNL     1      48.510  30.076  88.013  1.00  0.00     0.000 C 
BRANCH  17  18
ATOM     18  C   UNL     1      47.644  30.655  86.878  1.00  0.00     0.000 C 
BRANCH  18  19
ATOM     19  C   UNL     1      48.268  31.892  86.190  1.00  0.00     0.000 C 
BRANCH  19  20
ATOM     20  C   UNL     1      48.513  33.074  87.145  1.00  0.00     0.006 C 
BRANCH  20  21
ATOM     21  C   UNL     1      49.956  33.591  87.079  1.00  0.00     0.053 C 
BRANCH  21  22
ATOM     22  C   UNL     1      49.972  35.085  86.991  1.00  0.00     0.041 C 
ATOM     23  O   UNL     1      48.946  35.707  86.611  1.00  0.00    -0.550 OA
ATOM     24  O   UNL     1      51.137  35.786  87.278  1.00  0.00    -0.550 OA
ENDBRANCH  21  22
ENDBRANCH  20  21
ENDBRANCH  19  20
ENDBRANCH  18  19
ENDBRANCH  17  18
ENDBRANCH  16  17
ENDBRANCH  15  16
ENDBRANCH  14  15
ENDBRANCH  13  14
ENDBRANCH   1  13
TORSDOF 20
ENDMDL
MODEL 2
REMARK VINA RESULT:    -3.558      3.761      7.184
REMARK INTER + INTRA:         -10.971
REMARK INTER:                  -6.875
REMARK INTRA:                  -4.096
REMARK UNBOUND:                -3.254
REMARK SMILES CCCCCCCCCCCCCCCCCCCCCC(=O)[O-]
REMARK SMILES IDX 12 1 11 2 10 3 9 4 8 5 7 6 6 7 5 8 4 9 3 10 2 11 1 12 13 13
REMARK SMILES IDX 14 14 15 15 16 16 17 17 18 18 19 19 20 20 21 21 22 22 23 23
REMARK SMILES IDX 24 24
REMARK H PARENT
REMARK Flexibility Score: inf
ROOT
ATOM      1  C   UNL     1      45.049  31.305  90.616  1.00  0.00     0.000 C 
ENDROOT
BRANCH   1   2
ATOM      2  C   UNL     1      44.356  30.782  91.886  1.00  0.00     0.000 C 
BRANCH   2   3
ATOM      3  C   UNL     1      43.100  29.923  91.634  1.00  0.00     0.000 C 
BRANCH   3   4
ATOM      4  C   UNL     1      43.295  28.405  91.827  1.00  0.00    -0.000 C 
BRANCH   4   5
ATOM      5  C   UNL     1      43.495  27.606  90.526  1.00  0.00    -0.000 C 
BRANCH   5   6
ATOM      6  C   UNL     1      44.971  27.483  90.120  1.00  0.00    -0.000 C 
BRANCH   6   7
ATOM      7  C   UNL     1      45.878  27.425  91.359  1.00  0.00    -0.000 C 
BRANCH   7   8
ATOM      8  C   UNL     1      47.223  28.137  91.145  1.00  0.00    -0.000 C 
BRANCH   8   9
ATOM      9  C   UNL     1      47.358  28.733  89.733  1.00  0.00    -0.000 C 
BRANCH   9  10
ATOM     10  C   UNL     1      48.243  29.993  89.697  1.00  0.00    -0.000 C 
BRANCH  10  11
ATOM     11  C   UNL     1      48.423  30.623  88.304  1.00  0.00    -0.003 C 
ATOM     12  C   UNL     1      47.763  31.996  88.178  1.00  0.00     0.004 C 
ENDBRANCH  10  11
ENDBRANCH   9  10
ENDBRANCH   8   9
ENDBRANCH   7   8
ENDBRANCH   6   7
ENDBRANCH   5   6
ENDBRANCH   4   5
ENDBRANCH   3   4
ENDBRANCH   2   3
ENDBRANCH   1   2
BRANCH   1  13
ATOM     13  C   UNL     1      44.071  31.520  89.451  1.00  0.00     0.000 C 
BRANCH  13  14
ATOM     14  C   UNL     1      44.355  30.542  88.305  1.00  0.00     0.000 C 
BRANCH  14  15
ATOM     15  C   UNL     1      43.063  30.181  87.557  1.00  0.00     0.000 C 
BRANCH  15  16
ATOM     16  C   UNL     1      42.001  31.295  87.619  1.00  0.00     0.000 C 
BRANCH  16  17
ATOM     17  C   UNL     1      40.576  30.821  87.965  1.00  0.00     0.000 C 
BRANCH  17  18
ATOM     18  C   UNL     1      40.427  30.178  89.357  1.00  0.00     0.000 C 
BRANCH  18  19
ATOM     19  C   UNL     1      40.122  28.663  89.312  1.00  0.00     0.000 C 
BRANCH  19  20
ATOM     20  C   UNL     1      39.194  28.251  88.155  1.00  0.00     0.006 C 
BRANCH  20  21
ATOM     21  C   UNL     1      39.693  27.000  87.420  1.00  0.00     0.053 C 
BRANCH  21  22
ATOM     22  C   UNL     1      40.908  27.321  86.608  1.00  0.00     0.041 C 
ATOM     23  O   UNL     1      42.018  26.801  86.896  1.00  0.00    -0.550 OA
ATOM     24  O   UNL     1      40.826  28.236  85.565  1.00  0.00    -0.550 OA
ENDBRANCH  21  22
ENDBRANCH  20  21
ENDBRANCH  19  20
ENDBRANCH  18  19
ENDBRANCH  17  18
ENDBRANCH  16  17
ENDBRANCH  15  16
ENDBRANCH  14  15
ENDBRANCH  13  14
ENDBRANCH   1  13
TORSDOF 20
ENDMDL
MODEL 3
REMARK VINA RESULT:    -3.539      1.170      2.414
REMARK INTER + INTRA:         -10.932
REMARK INTER:                  -7.921
REMARK INTRA:                  -3.011
REMARK UNBOUND:                -3.254
REMARK SMILES CCCCCCCCCCCCCCCCCCCCCC(=O)[O-]
REMARK SMILES IDX 12 1 11 2 10 3 9 4 8 5 7 6 6 7 5 8 4 9 3 10 2 11 1 12 13 13
REMARK SMILES IDX 14 14 15 15 16 16 17 17 18 18 19 19 20 20 21 21 22 22 23 23
REMARK SMILES IDX 24 24
REMARK H PARENT
REMARK Flexibility Score: inf
ROOT
ATOM      1  C   UNL     1      44.876  29.970  91.802  1.00  0.00     0.000 C 
ENDROOT
BRANCH   1   2
ATOM      2  C   UNL     1      43.831  28.863  91.576  1.00  0.00     0.000 C 
BRANCH   2   3
ATOM      3  C   UNL     1      42.519  29.334  90.916  1.00  0.00     0.000 C 
BRANCH   3   4
ATOM      4  C   UNL     1      41.615  28.205  90.378  1.00  0.00    -0.000 C 
BRANCH   4   5
ATOM      5  C   UNL     1      40.399  28.680  89.562  1.00  0.00    -0.000 C 
BRANCH   5   6
ATOM      6  C   UNL     1      40.259  30.209  89.532  1.00  0.00    -0.000 C 
BRANCH   6   7
ATOM      7  C   UNL     1      40.301  30.736  88.089  1.00  0.00    -0.000 C 
BRANCH   7   8
ATOM      8  C   UNL     1      41.713  31.155  87.650  1.00  0.00    -0.000 C 
BRANCH   8   9
ATOM      9  C   UNL     1      42.261  30.279  86.510  1.00  0.00    -0.000 C 
BRANCH   9  10
ATOM     10  C   UNL     1      43.003  29.029  87.019  1.00  0.00    -0.000 C 
BRANCH  10  11
ATOM     11  C   UNL     1      44.379  29.302  87.652  1.00  0.00    -0.003 C 
ATOM     12  C   UNL     1      45.028  28.049  88.239  1.00  0.00     0.004 C 
ENDBRANCH  10  11
ENDBRANCH   9  10
ENDBRANCH   8   9
ENDBRANCH   7   8
ENDBRANCH   6   7
ENDBRANCH   5   6
ENDBRANCH   4   5
ENDBRANCH   3   4
ENDBRANCH   2   3
ENDBRANCH   1   2
BRANCH   1  13
ATOM     13  C   UNL     1      44.687  31.168  90.859  1.00  0.00     0.000 C 
BRANCH  13  14
ATOM     14  C   UNL     1      46.011  31.560  90.194  1.00  0.00     0.000 C 
BRANCH  14  15
ATOM     15  C   UNL     1      47.044  30.430  90.315  1.00  0.00     0.000 C 
BRANCH  15  16
ATOM     16  C   UNL     1      47.914  30.272  89.054  1.00  0.00     0.000 C 
BRANCH  16  17
ATOM     17  C   UNL     1      49.364  30.778  89.195  1.00  0.00     0.000 C 
BRANCH  17  18
ATOM     18  C   UNL     1      49.722  31.979  88.299  1.00  0.00     0.000 C 
BRANCH  18  19
ATOM     19  C   UNL     1      48.513  32.562  87.531  1.00  0.00     0.000 C 
BRANCH  19  20
ATOM     20  C   UNL     1      48.894  33.252  86.208  1.00  0.00     0.006 C 
BRANCH  20  21
ATOM     21  C   UNL     1      49.029  34.773  86.358  1.00  0.00     0.053 C 
BRANCH  21  22
ATOM     22  C   UNL     1      50.472  35.165  86.428  1.00  0.00     0.041 C 
ATOM     23  O   UNL     1      51.305  34.652  85.635  1.00  0.00    -0.550 OA
ATOM     24  O   UNL     1      50.905  36.057  87.402  1.00  0.00    -0.550 OA
ENDBRANCH  21  22
ENDBRANCH  20  21
ENDBRANCH  19  20
ENDBRANCH  18  19
ENDBRANCH  17  18
ENDBRANCH  16  17
ENDBRANCH  15  16
ENDBRANCH  14  15
ENDBRANCH  13  14
ENDBRANCH   1  13
TORSDOF 20
ENDMDL
MODEL 4
REMARK VINA RESULT:    -3.467      1.713      2.832
REMARK INTER + INTRA:         -10.775
REMARK INTER:                  -8.252
REMARK INTRA:                  -2.523
REMARK UNBOUND:                -3.254
REMARK SMILES CCCCCCCCCCCCCCCCCCCCCC(=O)[O-]
REMARK SMILES IDX 12 1 11 2 10 3 9 4 8 5 7 6 6 7 5 8 4 9 3 10 2 11 1 12 13 13
REMARK SMILES IDX 14 14 15 15 16 16 17 17 18 18 19 19 20 20 21 21 22 22 23 23
REMARK SMILES IDX 24 24
REMARK H PARENT
REMARK Flexibility Score: inf
ROOT
ATOM      1  C   UNL     1      47.172  28.749  89.637  1.00  0.00     0.000 C 
ENDROOT
BRANCH   1   2
ATOM      2  C   UNL     1      46.929  28.033  90.977  1.00  0.00     0.000 C 
BRANCH   2   3
ATOM      3  C   UNL     1      45.668  28.491  91.739  1.00  0.00     0.000 C 
BRANCH   3   4
ATOM      4  C   UNL     1      44.476  28.898  90.848  1.00  0.00    -0.000 C 
BRANCH   4   5
ATOM      5  C   UNL     1      43.861  30.271  91.173  1.00  0.00    -0.000 C 
BRANCH   5   6
ATOM      6  C   UNL     1      44.029  31.287  90.034  1.00  0.00    -0.000 C 
BRANCH   6   7
ATOM      7  C   UNL     1      43.755  30.633  88.671  1.00  0.00    -0.000 C 
BRANCH   7   8
ATOM      8  C   UNL     1      42.649  31.350  87.879  1.00  0.00    -0.000 C 
BRANCH   8   9
ATOM      9  C   UNL     1      41.507  30.404  87.471  1.00  0.00    -0.000 C 
BRANCH   9  10
ATOM     10  C   UNL     1      40.243  30.586  88.331  1.00  0.00    -0.000 C 
BRANCH  10  11
ATOM     11  C   UNL     1      40.326  29.984  89.745  1.00  0.00    -0.003 C 
ATOM     12  C   UNL     1      40.842  28.546  89.755  1.00  0.00     0.004 C 
ENDBRANCH  10  11
ENDBRANCH   9  10
ENDBRANCH   8   9
ENDBRANCH   7   8
ENDBRANCH   6   7
ENDBRANCH   5   6
ENDBRANCH   4   5
ENDBRANCH   3   4
ENDBRANCH   2   3
ENDBRANCH   1   2
BRANCH   1  13
ATOM     13  C   UNL     1      48.281  29.809  89.721  1.00  0.00     0.000 C 
BRANCH  13  14
ATOM     14  C   UNL     1      47.697  31.195  90.019  1.00  0.00     0.000 C 
BRANCH  14  15
ATOM     15  C   UNL     1      47.205  31.873  88.733  1.00  0.00     0.000 C 
BRANCH  15  16
ATOM     16  C   UNL     1      48.029  31.480  87.492  1.00  0.00     0.000 C 
BRANCH  16  17
ATOM     17  C   UNL     1      49.328  32.285  87.290  1.00  0.00     0.000 C 
BRANCH  17  18
ATOM     18  C   UNL     1      49.233  33.422  86.255  1.00  0.00     0.000 C 
BRANCH  18  19
ATOM     19  C   UNL     1      49.110  34.828  86.886  1.00  0.00     0.000 C 
BRANCH  19  20
ATOM     20  C   UNL     1      50.448  35.584  86.980  1.00  0.00     0.006 C 
BRANCH  20  21
ATOM     21  C   UNL     1      51.564  34.903  86.176  1.00  0.00     0.053 C 
BRANCH  21  22
ATOM     22  C   UNL     1      52.653  34.435  87.089  1.00  0.00     0.041 C 
ATOM     23  O   UNL     1      52.368  33.816  88.148  1.00  0.00    -0.550 OA
ATOM     24  O   UNL     1      53.980  34.726  86.796  1.00  0.00    -0.550 OA
ENDBRANCH  21  22
ENDBRANCH  20  21
ENDBRANCH  19  20
ENDBRANCH  18  19
ENDBRANCH  17  18
ENDBRANCH  16  17
ENDBRANCH  15  16
ENDBRANCH  14  15
ENDBRANCH  13  14
ENDBRANCH   1  13
TORSDOF 20
ENDMDL
MODEL 5
REMARK VINA RESULT:    -3.437     14.790     16.710
REMARK INTER + INTRA:         -10.710
REMARK INTER:                  -6.458
REMARK INTRA:                  -4.252
REMARK UNBOUND:                -3.254
REMARK SMILES CCCCCCCCCCCCCCCCCCCCCC(=O)[O-]
REMARK SMILES IDX 12 1 11 2 10 3 9 4 8 5 7 6 6 7 5 8 4 9 3 10 2 11 1 12 13 13
REMARK SMILES IDX 14 14 15 15 16 16 17 17 18 18 19 19 20 20 21 21 22 22 23 23
REMARK SMILES IDX 24 24
REMARK H PARENT
REMARK Flexibility Score: inf
ROOT
ATOM      1  C   UNL     1      46.959  23.167  74.136  1.00  0.00     0.000 C 
ENDROOT
BRANCH   1   2
ATOM      2  C   UNL     1      45.982  23.691  75.203  1.00  0.00     0.000 C 
BRANCH   2   3
ATOM      3  C   UNL     1      44.660  22.905  75.315  1.00  0.00     0.000 C 
BRANCH   3   4
ATOM      4  C   UNL     1      43.924  22.669  73.979  1.00  0.00    -0.000 C 
BRANCH   4   5
ATOM      5  C   UNL     1      43.190  21.320  73.872  1.00  0.00    -0.000 C 
BRANCH   5   6
ATOM      6  C   UNL     1      41.663  21.472  73.809  1.00  0.00    -0.000 C 
BRANCH   6   7
ATOM      7  C   UNL     1      41.250  22.941  73.990  1.00  0.00    -0.000 C 
BRANCH   7   8
ATOM      8  C   UNL     1      40.302  23.149  75.182  1.00  0.00    -0.000 C 
BRANCH   8   9
ATOM      9  C   UNL     1      41.053  23.277  76.519  1.00  0.00    -0.000 C 
BRANCH   9  10
ATOM     10  C   UNL     1      40.888  22.037  77.417  1.00  0.00    -0.000 C 
BRANCH  10  11
ATOM     11  C   UNL     1      42.125  21.124  77.500  1.00  0.00    -0.003 C 
ATOM     12  C   UNL     1      42.178  20.302  78.788  1.00  0.00     0.004 C 
ENDBRANCH  10  11
ENDBRANCH   9  10
ENDBRANCH   8   9
ENDBRANCH   7   8
ENDBRANCH   6   7
ENDBRANCH   5   6
ENDBRANCH   4   5
ENDBRANCH   3   4
ENDBRANCH   2   3
ENDBRANCH   1   2
BRANCH   1  13
ATOM     13  C   UNL     1      48.220  22.534  74.744  1.00  0.00     0.000 C 
BRANCH  13  14
ATOM     14  C   UNL     1      48.364  21.069  74.313  1.00  0.00     0.000 C 
BRANCH  14  15
ATOM     15  C   UNL     1      47.244  20.669  73.341  1.00  0.00     0.000 C 
BRANCH  15  16
ATOM     16  C   UNL     1      46.372  19.515  73.870  1.00  0.00     0.000 C 
BRANCH  16  17
ATOM     17  C   UNL     1      46.578  19.169  75.357  1.00  0.00     0.000 C 
BRANCH  17  18
ATOM     18  C   UNL     1      45.410  19.561  76.282  1.00  0.00     0.000 C 
BRANCH  18  19
ATOM     19  C   UNL     1      45.772  19.532  77.785  1.00  0.00     0.000 C 
BRANCH  19  20
ATOM     20  C   UNL     1      45.825  20.926  78.437  1.00  0.00     0.006 C 
BRANCH  20  21
ATOM     21  C   UNL     1      47.139  21.661  78.141  1.00  0.00     0.053 C 
BRANCH  21  22
ATOM     22  C   UNL     1      48.307  20.850  78.604  1.00  0.00     0.041 C 
ATOM     23  O   UNL     1      48.484  20.640  79.833  1.00  0.00    -0.550 OA
ATOM     24  O   UNL     1      49.230  20.369  77.682  1.00  0.00    -0.550 OA
ENDBRANCH  21  22
ENDBRANCH  20  21
ENDBRANCH  19  20
ENDBRANCH  18  19
ENDBRANCH  17  18
ENDBRANCH  16  17
ENDBRANCH  15  16
ENDBRANCH  14  15
ENDBRANCH  13  14
ENDBRANCH   1  13
TORSDOF 20
ENDMDL
MODEL 6
REMARK VINA RESULT:    -3.431      2.609      3.643
REMARK INTER + INTRA:         -10.696
REMARK INTER:                  -7.250
REMARK INTRA:                  -3.447
REMARK UNBOUND:                -3.254
REMARK SMILES CCCCCCCCCCCCCCCCCCCCCC(=O)[O-]
REMARK SMILES IDX 12 1 11 2 10 3 9 4 8 5 7 6 6 7 5 8 4 9 3 10 2 11 1 12 13 13
REMARK SMILES IDX 14 14 15 15 16 16 17 17 18 18 19 19 20 20 21 21 22 22 23 23
REMARK SMILES IDX 24 24
REMARK H PARENT
REMARK Flexibility Score: inf
ROOT
ATOM      1  C   UNL     1      43.933  28.219  91.495  1.00  0.00     0.000 C 
ENDROOT
BRANCH   1   2
ATOM      2  C   UNL     1      43.385  29.504  92.140  1.00  0.00     0.000 C 
BRANCH   2   3
ATOM      3  C   UNL     1      44.460  30.510  92.599  1.00  0.00     0.000 C 
BRANCH   3   4
ATOM      4  C   UNL     1      44.733  31.669  91.617  1.00  0.00    -0.000 C 
BRANCH   4   5
ATOM      5  C   UNL     1      45.867  31.412  90.608  1.00  0.00    -0.000 C 
BRANCH   5   6
ATOM      6  C   UNL     1      45.365  31.302  89.160  1.00  0.00    -0.000 C 
BRANCH   6   7
ATOM      7  C   UNL     1      43.829  31.291  89.111  1.00  0.00    -0.000 C 
BRANCH   7   8
ATOM      8  C   UNL     1      43.279  30.582  87.864  1.00  0.00    -0.000 C 
BRANCH   8   9
ATOM      9  C   UNL     1      42.012  31.257  87.311  1.00  0.00    -0.000 C 
BRANCH   9  10
ATOM     10  C   UNL     1      40.750  30.919  88.125  1.00  0.00    -0.000 C 
BRANCH  10  11
ATOM     11  C   UNL     1      40.411  29.420  88.208  1.00  0.00    -0.003 C 
ATOM     12  C   UNL     1      40.553  28.850  89.620  1.00  0.00     0.004 C 
ENDBRANCH  10  11
ENDBRANCH   9  10
ENDBRANCH   8   9
ENDBRANCH   7   8
ENDBRANCH   6   7
ENDBRANCH   5   6
ENDBRANCH   4   5
ENDBRANCH   3   4
ENDBRANCH   2   3
ENDBRANCH   1   2
BRANCH   1  13
ATOM     13  C   UNL     1      45.344  27.862  91.986  1.00  0.00     0.000 C 
BRANCH  13  14
ATOM     14  C   UNL     1      46.340  27.826  90.820  1.00  0.00     0.000 C 
BRANCH  14  15
ATOM     15  C   UNL     1      45.613  27.629  89.482  1.00  0.00     0.000 C 
BRANCH  15  16
ATOM     16  C   UNL     1      46.513  27.902  88.262  1.00  0.00     0.000 C 
BRANCH  16  17
ATOM     17  C   UNL     1      47.896  28.497  88.591  1.00  0.00     0.000 C 
BRANCH  17  18
ATOM     18  C   UNL     1      48.278  29.745  87.773  1.00  0.00     0.000 C 
BRANCH  18  19
ATOM     19  C   UNL     1      49.233  30.706  88.517  1.00  0.00     0.000 C 
BRANCH  19  20
ATOM     20  C   UNL     1      49.918  30.075  89.743  1.00  0.00     0.006 C 
BRANCH  20  21
ATOM     21  C   UNL     1      49.715  30.903  91.018  1.00  0.00     0.053 C 
BRANCH  21  22
ATOM     22  C   UNL     1      51.003  31.536  91.441  1.00  0.00     0.041 C 
ATOM     23  O   UNL     1      52.068  31.275  90.822  1.00  0.00    -0.550 OA
ATOM     24  O   UNL     1      51.037  32.373  92.550  1.00  0.00    -0.550 OA
ENDBRANCH  21  22
ENDBRANCH  20  21
ENDBRANCH  19  20
ENDBRANCH  18  19
ENDBRANCH  17  18
ENDBRANCH  16  17
ENDBRANCH  15  16
ENDBRANCH  14  15
ENDBRANCH  13  14
ENDBRANCH   1  13
TORSDOF 20
ENDMDL
MODEL 7
REMARK VINA RESULT:    -3.404      2.825      5.837
REMARK INTER + INTRA:         -10.637
REMARK INTER:                  -7.778
REMARK INTRA:                  -2.859
REMARK UNBOUND:                -3.254
REMARK SMILES CCCCCCCCCCCCCCCCCCCCCC(=O)[O-]
REMARK SMILES IDX 12 1 11 2 10 3 9 4 8 5 7 6 6 7 5 8 4 9 3 10 2 11 1 12 13 13
REMARK SMILES IDX 14 14 15 15 16 16 17 17 18 18 19 19 20 20 21 21 22 22 23 23
REMARK SMILES IDX 24 24
REMARK H PARENT
REMARK Flexibility Score: inf
ROOT
ATOM      1  C   UNL     1      48.989  34.805  86.554  1.00  0.00     0.000 C 
ENDROOT
BRANCH   1   2
ATOM      2  C   UNL     1      48.849  33.560  87.449  1.00  0.00     0.000 C 
BRANCH   2   3
ATOM      3  C   UNL     1      48.237  32.327  86.754  1.00  0.00     0.000 C 
BRANCH   3   4
ATOM      4  C   UNL     1      47.792  31.195  87.703  1.00  0.00    -0.000 C 
BRANCH   4   5
ATOM      5  C   UNL     1      47.323  31.660  89.094  1.00  0.00    -0.000 C 
BRANCH   5   6
ATOM      6  C   UNL     1      47.352  30.537  90.141  1.00  0.00    -0.000 C 
BRANCH   6   7
ATOM      7  C   UNL     1      45.943  29.974  90.381  1.00  0.00    -0.000 C 
BRANCH   7   8
ATOM      8  C   UNL     1      44.909  31.069  90.686  1.00  0.00    -0.000 C 
BRANCH   8   9
ATOM      9  C   UNL     1      43.599  30.880  89.902  1.00  0.00    -0.000 C 
BRANCH   9  10
ATOM     10  C   UNL     1      43.809  30.893  88.376  1.00  0.00    -0.000 C 
BRANCH  10  11
ATOM     11  C   UNL     1      42.578  30.483  87.547  1.00  0.00    -0.003 C 
ATOM     12  C   UNL     1      41.255  30.754  88.263  1.00  0.00     0.004 C 
ENDBRANCH  10  11
ENDBRANCH   9  10
ENDBRANCH   8   9
ENDBRANCH   7   8
ENDBRANCH   6   7
ENDBRANCH   5   6
ENDBRANCH   4   5
ENDBRANCH   3   4
ENDBRANCH   2   3
ENDBRANCH   1   2
BRANCH   1  13
ATOM     13  C   UNL     1      50.412  34.984  86.004  1.00  0.00     0.000 C 
BRANCH  13  14
ATOM     14  C   UNL     1      51.395  35.342  87.125  1.00  0.00     0.000 C 
BRANCH  14  15
ATOM     15  C   UNL     1      52.812  34.852  86.791  1.00  0.00     0.000 C 
BRANCH  15  16
ATOM     16  C   UNL     1      52.834  33.793  85.673  1.00  0.00     0.000 C 
BRANCH  16  17
ATOM     17  C   UNL     1      53.093  32.349  86.147  1.00  0.00     0.000 C 
BRANCH  17  18
ATOM     18  C   UNL     1      51.846  31.599  86.653  1.00  0.00     0.000 C 
BRANCH  18  19
ATOM     19  C   UNL     1      51.982  31.077  88.102  1.00  0.00     0.000 C 
BRANCH  19  20
ATOM     20  C   UNL     1      51.695  32.142  89.175  1.00  0.00     0.006 C 
BRANCH  20  21
ATOM     21  C   UNL     1      50.905  31.579  90.364  1.00  0.00     0.053 C 
BRANCH  21  22
ATOM     22  C   UNL     1      51.642  31.823  91.643  1.00  0.00     0.041 C 
ATOM     23  O   UNL     1      52.864  31.535  91.734  1.00  0.00    -0.550 OA
ATOM     24  O   UNL     1      50.966  32.320  92.752  1.00  0.00    -0.550 OA
ENDBRANCH  21  22
ENDBRANCH  20  21
ENDBRANCH  19  20
ENDBRANCH  18  19
ENDBRANCH  17  18
ENDBRANCH  16  17
ENDBRANCH  15  16
ENDBRANCH  14  15
ENDBRANCH  13  14
ENDBRANCH   1  13
TORSDOF 20
ENDMDL
MODEL 8
REMARK VINA RESULT:    -3.373      2.262      3.501
REMARK INTER + INTRA:         -10.570
REMARK INTER:                  -7.056
REMARK INTRA:                  -3.514
REMARK UNBOUND:                -3.254
REMARK SMILES CCCCCCCCCCCCCCCCCCCCCC(=O)[O-]
REMARK SMILES IDX 12 1 11 2 10 3 9 4 8 5 7 6 6 7 5 8 4 9 3 10 2 11 1 12 13 13
REMARK SMILES IDX 14 14 15 15 16 16 17 17 18 18 19 19 20 20 21 21 22 22 23 23
REMARK SMILES IDX 24 24
REMARK H PARENT
REMARK Flexibility Score: inf
ROOT
ATOM      1  C   UNL     1      43.236  29.391  91.091  1.00  0.00     0.000 C 
ENDROOT
BRANCH   1   2
ATOM      2  C   UNL     1      43.602  27.956  90.671  1.00  0.00     0.000 C 
BRANCH   2   3
ATOM      3  C   UNL     1      43.506  27.678  89.157  1.00  0.00     0.000 C 
BRANCH   3   4
ATOM      4  C   UNL     1      43.762  28.899  88.249  1.00  0.00    -0.000 C 
BRANCH   4   5
ATOM      5  C   UNL     1      43.084  28.834  86.868  1.00  0.00    -0.000 C 
BRANCH   5   6
ATOM      6  C   UNL     1      42.374  30.142  86.489  1.00  0.00    -0.000 C 
BRANCH   6   7
ATOM      7  C   UNL     1      42.089  30.994  87.735  1.00  0.00    -0.000 C 
BRANCH   7   8
ATOM      8  C   UNL     1      40.605  30.989  88.133  1.00  0.00    -0.000 C 
BRANCH   8   9
ATOM      9  C   UNL     1      40.307  30.024  89.293  1.00  0.00    -0.000 C 
BRANCH   9  10
ATOM     10  C   UNL     1      39.854  28.633  88.812  1.00  0.00    -0.000 C 
BRANCH  10  11
ATOM     11  C   UNL     1      39.062  28.626  87.492  1.00  0.00    -0.003 C 
ATOM     12  C   UNL     1      39.580  27.597  86.487  1.00  0.00     0.004 C 
ENDBRANCH  10  11
ENDBRANCH   9  10
ENDBRANCH   8   9
ENDBRANCH   7   8
ENDBRANCH   6   7
ENDBRANCH   5   6
ENDBRANCH   4   5
ENDBRANCH   3   4
ENDBRANCH   2   3
ENDBRANCH   1   2
BRANCH   1  13
ATOM     13  C   UNL     1      44.061  29.889  92.286  1.00  0.00     0.000 C 
BRANCH  13  14
ATOM     14  C   UNL     1      44.553  31.324  92.057  1.00  0.00     0.000 C 
BRANCH  14  15
ATOM     15  C   UNL     1      44.865  31.568  90.573  1.00  0.00     0.000 C 
BRANCH  15  16
ATOM     16  C   UNL     1      46.373  31.535  90.262  1.00  0.00     0.000 C 
BRANCH  16  17
ATOM     17  C   UNL     1      46.835  30.345  89.398  1.00  0.00     0.000 C 
BRANCH  17  18
ATOM     18  C   UNL     1      47.167  29.062  90.184  1.00  0.00     0.000 C 
BRANCH  18  19
ATOM     19  C   UNL     1      48.651  28.959  90.605  1.00  0.00     0.000 C 
BRANCH  19  20
ATOM     20  C   UNL     1      49.609  29.756  89.701  1.00  0.00     0.006 C 
BRANCH  20  21
ATOM     21  C   UNL     1      50.315  30.892  90.454  1.00  0.00     0.053 C 
BRANCH  21  22
ATOM     22  C   UNL     1      51.319  31.560  89.568  1.00  0.00     0.041 C 
ATOM     23  O   UNL     1      50.937  32.320  88.640  1.00  0.00    -0.550 OA
ATOM     24  O   UNL     1      52.675  31.303  89.735  1.00  0.00    -0.550 OA
ENDBRANCH  21  22
ENDBRANCH  20  21
ENDBRANCH  19  20
ENDBRANCH  18  19
ENDBRANCH  17  18
ENDBRANCH  16  17
ENDBRANCH  15  16
ENDBRANCH  14  15
ENDBRANCH  13  14
ENDBRANCH   1  13
TORSDOF 20
ENDMDL
MODEL 9
REMARK VINA RESULT:    -3.360      4.637      8.058
REMARK INTER + INTRA:         -10.543
REMARK INTER:                  -6.999
REMARK INTRA:                  -3.544
REMARK UNBOUND:                -3.254
REMARK SMILES CCCCCCCCCCCCCCCCCCCCCC(=O)[O-]
REMARK SMILES IDX 12 1 11 2 10 3 9 4 8 5 7 6 6 7 5 8 4 9 3 10 2 11 1 12 13 13
REMARK SMILES IDX 14 14 15 15 16 16 17 17 18 18 19 19 20 20 21 21 22 22 23 23
REMARK SMILES IDX 24 24
REMARK H PARENT
REMARK Flexibility Score: inf
ROOT
ATOM      1  C   UNL     1      44.863  31.617  91.702  1.00  0.00     0.000 C 
ENDROOT
BRANCH   1   2
ATOM      2  C   UNL     1      45.360  31.258  90.291  1.00  0.00     0.000 C 
BRANCH   2   3
ATOM      3  C   UNL     1      44.336  31.494  89.162  1.00  0.00     0.000 C 
BRANCH   3   4
ATOM      4  C   UNL     1      44.244  30.365  88.115  1.00  0.00    -0.000 C 
BRANCH   4   5
ATOM      5  C   UNL     1      45.579  29.669  87.792  1.00  0.00    -0.000 C 
BRANCH   5   6
ATOM      6  C   UNL     1      45.585  28.181  88.173  1.00  0.00    -0.000 C 
BRANCH   6   7
ATOM      7  C   UNL     1      46.731  27.868  89.146  1.00  0.00    -0.000 C 
BRANCH   7   8
ATOM      8  C   UNL     1      47.988  28.711  88.876  1.00  0.00    -0.000 C 
BRANCH   8   9
ATOM      9  C   UNL     1      48.483  29.452  90.130  1.00  0.00    -0.000 C 
BRANCH   9  10
ATOM     10  C   UNL     1      48.918  30.900  89.836  1.00  0.00    -0.000 C 
BRANCH  10  11
ATOM     11  C   UNL     1      49.036  31.254  88.342  1.00  0.00    -0.003 C 
ATOM     12  C   UNL     1      48.060  32.347  87.906  1.00  0.00     0.004 C 
ENDBRANCH  10  11
ENDBRANCH   9  10
ENDBRANCH   8   9
ENDBRANCH   7   8
ENDBRANCH   6   7
ENDBRANCH   5   6
ENDBRANCH   4   5
ENDBRANCH   3   4
ENDBRANCH   2   3
ENDBRANCH   1   2
BRANCH   1  13
ATOM     13  C   UNL     1      44.175  30.438  92.408  1.00  0.00     0.000 C 
BRANCH  13  14
ATOM     14  C   UNL     1      44.674  29.098  91.854  1.00  0.00     0.000 C 
BRANCH  14  15
ATOM     15  C   UNL     1      43.514  28.281  91.265  1.00  0.00     0.000 C 
BRANCH  15  16
ATOM     16  C   UNL     1      42.209  29.090  91.142  1.00  0.00     0.000 C 
BRANCH  16  17
ATOM     17  C   UNL     1      41.439  28.891  89.822  1.00  0.00     0.000 C 
BRANCH  17  18
ATOM     18  C   UNL     1      40.825  30.173  89.229  1.00  0.00     0.000 C 
BRANCH  18  19
ATOM     19  C   UNL     1      39.608  29.911  88.312  1.00  0.00     0.000 C 
BRANCH  19  20
ATOM     20  C   UNL     1      39.389  28.423  87.981  1.00  0.00     0.006 C 
BRANCH  20  21
ATOM     21  C   UNL     1      38.445  28.221  86.788  1.00  0.00     0.053 C 
BRANCH  21  22
ATOM     22  C   UNL     1      37.026  28.460  87.199  1.00  0.00     0.041 C 
ATOM     23  O   UNL     1      36.357  29.377  86.656  1.00  0.00    -0.550 OA
ATOM     24  O   UNL     1      36.460  27.703  88.218  1.00  0.00    -0.550 OA
ENDBRANCH  21  22
ENDBRANCH  20  21
ENDBRANCH  19  20
ENDBRANCH  18  19
ENDBRANCH  17  18
ENDBRANCH  16  17
ENDBRANCH  15  16
ENDBRANCH  14  15
ENDBRANCH  13  14
ENDBRANCH   1  13
TORSDOF 20
ENDMDL
