MODEL 1
REMARK VINA RESULT:    -1.544      0.000      0.000
REMARK INTER + INTRA:          -2.896
REMARK INTER:                  -2.447
REMARK INTRA:                  -0.448
REMARK UNBOUND:                -0.448
REMARK SMILES CCCCCCCCCCCC(=O)[O-]
REMARK SMILES IDX 7 1 8 2 9 3 10 4 11 5 12 6 13 7 14 8 6 9 5 10 4 11 3 12 2 13
REMARK SMILES IDX 1 14
REMARK H PARENT
REMARK Flexibility Score: inf
ROOT
ATOM      1  C   UNL     1      -7.709  50.997  -5.503  1.00  0.00     0.000 C 
ENDROOT
BRANCH   1   2
ATOM      2  C   UNL     1      -8.247  51.594  -6.813  1.00  0.00     0.000 C 
BRANCH   2   3
ATOM      3  C   UNL     1      -7.468  51.108  -8.048  1.00  0.00     0.000 C 
BRANCH   3   4
ATOM      4  C   UNL     1      -6.197  51.936  -8.313  1.00  0.00     0.006 C 
BRANCH   4   5
ATOM      5  C   UNL     1      -5.018  51.121  -8.868  1.00  0.00     0.053 C 
BRANCH   5   6
ATOM      6  C   UNL     1      -3.790  51.264  -8.024  1.00  0.00     0.041 C 
ATOM      7  O   UNL     1      -3.838  51.019  -6.789  1.00  0.00    -0.550 OA
ATOM      8  O   UNL     1      -2.583  51.633  -8.605  1.00  0.00    -0.550 OA
ENDBRANCH   5   6
ENDBRANCH   4   5
ENDBRANCH   3   4
ENDBRANCH   2   3
ENDBRANCH   1   2
BRANCH   1   9
ATOM      9  C   UNL     1      -7.948  51.915  -4.295  1.00  0.00     0.000 C 
BRANCH   9  10
ATOM     10  C   UNL     1      -9.124  51.411  -3.445  1.00  0.00    -0.000 C 
BRANCH  10  11
ATOM     11  C   UNL     1      -8.973  51.747  -1.950  1.00  0.00    -0.000 C 
BRANCH  11  12
ATOM     12  C   UNL     1      -7.762  51.098  -1.256  1.00  0.00    -0.000 C 
BRANCH  12  13
ATOM     13  C   UNL     1      -6.832  52.124  -0.592  1.00  0.00    -0.003 C 
ATOM     14  C   UNL     1      -5.965  51.467   0.478  1.00  0.00     0.004 C 
ENDBRANCH  12  13
ENDBRANCH  11  12
ENDBRANCH  10  11
ENDBRANCH   9  10
ENDBRANCH   1   9
TORSDOF 10
ENDMDL
MODEL 2
REMARK VINA RESULT:    -1.139      3.162      6.744
REMARK INTER + INTRA:          -2.254
REMARK INTER:                  -1.846
REMARK INTRA:                  -0.408
REMARK UNBOUND:                -0.448
REMARK SMILES CCCCCCCCCCCC(=O)[O-]
REMARK SMILES IDX 7 1 8 2 9 3 10 4 11 5 12 6 13 7 14 8 6 9 5 10 4 11 3 12 2 13
REMARK SMILES IDX 1 14
REMARK H PARENT
REMARK Flexibility Score: inf
ROOT
ATOM      1  C   UNL     1      -9.093  50.826  -2.587  1.00  0.00     0.000 C 
ENDROOT
BRANCH   1   2
ATOM      2  C   UNL     1      -8.143  50.384  -1.463  1.00  0.00     0.000 C 
BRANCH   2   3
ATOM      3  C   UNL     1      -7.435  51.571  -0.787  1.00  0.00     0.000 C 
BRANCH   3   4
ATOM      4  C   UNL     1      -6.225  51.138   0.062  1.00  0.00     0.006 C 
BRANCH   4   5
ATOM      5  C   UNL     1      -5.048  52.125   0.031  1.00  0.00     0.053 C 
BRANCH   5   6
ATOM      6  C   UNL     1      -3.728  51.429   0.154  1.00  0.00     0.041 C 
ATOM      7  O   UNL     1      -2.656  52.074   0.010  1.00  0.00    -0.550 OA
ATOM      8  O   UNL     1      -3.680  50.076   0.463  1.00  0.00    -0.550 OA
ENDBRANCH   5   6
ENDBRANCH   4   5
ENDBRANCH   3   4
ENDBRANCH   2   3
ENDBRANCH   1   2
BRANCH   1   9
ATOM      9  C   UNL     1      -8.445  50.734  -3.977  1.00  0.00     0.000 C 
BRANCH   9  10
ATOM     10  C   UNL     1      -8.009  52.122  -4.472  1.00  0.00    -0.000 C 
BRANCH  10  11
ATOM     11  C   UNL     1      -6.671  52.094  -5.234  1.00  0.00    -0.000 C 
BRANCH  11  12
ATOM     12  C   UNL     1      -6.794  52.125  -6.769  1.00  0.00    -0.000 C 
BRANCH  12  13
ATOM     13  C   UNL     1      -5.453  51.904  -7.481  1.00  0.00    -0.003 C 
ATOM     14  C   UNL     1      -5.665  51.403  -8.907  1.00  0.00     0.004 C 
ENDBRANCH  12  13
ENDBRANCH  11  12
ENDBRANCH  10  11
ENDBRANCH   9  10
ENDBRANCH   1   9
TORSDOF 10
ENDMDL
MODEL 3
REMARK VINA RESULT:    -1.042      2.267      4.388
REMARK INTER + INTRA:          -2.100
REMARK INTER:                  -1.841
REMARK INTRA:                  -0.259
REMARK UNBOUND:                -0.448
REMARK SMILES CCCCCCCCCCCC(=O)[O-]
REMARK SMILES IDX 7 1 8 2 9 3 10 4 11 5 12 6 13 7 14 8 6 9 5 10 4 11 3 12 2 13
REMARK SMILES IDX 1 14
REMARK H PARENT
REMARK Flexibility Score: inf
ROOT
ATOM      1  C   UNL     1      -7.758  50.046  -1.449  1.00  0.00     0.000 C 
ENDROOT
BRANCH   1   2
ATOM      2  C   UNL     1      -8.499  49.993  -2.795  1.00  0.00     0.000 C 
BRANCH   2   3
ATOM      3  C   UNL     1      -9.122  51.345  -3.181  1.00  0.00     0.000 C 
BRANCH   3   4
ATOM      4  C   UNL     1      -8.292  52.104  -4.233  1.00  0.00     0.006 C 
BRANCH   4   5
ATOM      5  C   UNL     1      -8.790  51.925  -5.677  1.00  0.00     0.053 C 
BRANCH   5   6
ATOM      6  C   UNL     1      -7.659  51.839  -6.654  1.00  0.00     0.041 C 
ATOM      7  O   UNL     1      -6.472  52.004  -6.266  1.00  0.00    -0.550 OA
ATOM      8  O   UNL     1      -7.912  51.541  -7.987  1.00  0.00    -0.550 OA
ENDBRANCH   5   6
ENDBRANCH   4   5
ENDBRANCH   3   4
ENDBRANCH   2   3
ENDBRANCH   1   2
BRANCH   1   9
ATOM      9  C   UNL     1      -7.425  51.482  -1.017  1.00  0.00     0.000 C 
BRANCH   9  10
ATOM     10  C   UNL     1      -6.496  51.486   0.207  1.00  0.00    -0.000 C 
BRANCH  10  11
ATOM     11  C   UNL     1      -5.124  52.123  -0.082  1.00  0.00    -0.000 C 
BRANCH  11  12
ATOM     12  C   UNL     1      -3.916  51.343   0.466  1.00  0.00    -0.000 C 
BRANCH  12  13
ATOM     13  C   UNL     1      -2.599  51.710  -0.234  1.00  0.00    -0.003 C 
ATOM     14  C   UNL     1      -1.420  51.615   0.730  1.00  0.00     0.004 C 
ENDBRANCH  12  13
ENDBRANCH  11  12
ENDBRANCH  10  11
ENDBRANCH   9  10
ENDBRANCH   1   9
TORSDOF 10
ENDMDL
MODEL 4
REMARK VINA RESULT:    -0.712      1.306      2.266
REMARK INTER + INTRA:          -1.577
REMARK INTER:                  -1.074
REMARK INTRA:                  -0.503
REMARK UNBOUND:                -0.448
REMARK SMILES CCCCCCCCCCCC(=O)[O-]
REMARK SMILES IDX 7 1 8 2 9 3 10 4 11 5 12 6 13 7 14 8 6 9 5 10 4 11 3 12 2 13
REMARK SMILES IDX 1 14
REMARK H PARENT
REMARK Flexibility Score: inf
ROOT
ATOM      1  C   UNL     1      -8.400  49.954  -3.699  1.00  0.00     0.000 C 
ENDROOT
BRANCH   1   2
ATOM      2  C   UNL     1      -8.971  51.290  -4.200  1.00  0.00     0.000 C 
BRANCH   2   3
ATOM      3  C   UNL     1      -8.857  51.445  -5.727  1.00  0.00     0.000 C 
BRANCH   3   4
ATOM      4  C   UNL     1      -7.545  52.125  -6.159  1.00  0.00     0.006 C 
BRANCH   4   5
ATOM      5  C   UNL     1      -7.079  51.752  -7.576  1.00  0.00     0.053 C 
BRANCH   5   6
ATOM      6  C   UNL     1      -5.597  51.894  -7.736  1.00  0.00     0.041 C 
ATOM      7  O   UNL     1      -4.839  51.785  -6.736  1.00  0.00    -0.550 OA
ATOM      8  O   UNL     1      -5.050  52.112  -8.994  1.00  0.00    -0.550 OA
ENDBRANCH   5   6
ENDBRANCH   4   5
ENDBRANCH   3   4
ENDBRANCH   2   3
ENDBRANCH   1   2
BRANCH   1   9
ATOM      9  C   UNL     1      -7.803  50.061  -2.287  1.00  0.00     0.000 C 
BRANCH   9  10
ATOM     10  C   UNL     1      -8.448  51.214  -1.503  1.00  0.00    -0.000 C 
BRANCH  10  11
ATOM     11  C   UNL     1      -7.422  52.060  -0.725  1.00  0.00    -0.000 C 
BRANCH  11  12
ATOM     12  C   UNL     1      -6.511  51.265   0.227  1.00  0.00    -0.000 C 
BRANCH  12  13
ATOM     13  C   UNL     1      -5.367  52.109   0.805  1.00  0.00    -0.003 C 
ATOM     14  C   UNL     1      -4.050  51.809   0.096  1.00  0.00     0.004 C 
ENDBRANCH  12  13
ENDBRANCH  11  12
ENDBRANCH  10  11
ENDBRANCH   9  10
ENDBRANCH   1   9
TORSDOF 10
ENDMDL
MODEL 5
REMARK VINA RESULT:     0.121      3.412      7.193
REMARK INTER + INTRA:          -0.256
REMARK INTER:                  -0.685
REMARK INTRA:                   0.429
REMARK UNBOUND:                -0.448
REMARK SMILES CCCCCCCCCCCC(=O)[O-]
REMARK SMILES IDX 7 1 8 2 9 3 10 4 11 5 12 6 13 7 14 8 6 9 5 10 4 11 3 12 2 13
REMARK SMILES IDX 1 14
REMARK H PARENT
REMARK Flexibility Score: inf
ROOT
ATOM      1  C   UNL     1      -8.366  51.127  -4.470  1.00  0.00     0.000 C 
ENDROOT
BRANCH   1   2
ATOM      2  C   UNL     1      -7.982  52.008  -3.271  1.00  0.00     0.000 C 
BRANCH   2   3
ATOM      3  C   UNL     1      -9.103  52.101  -2.222  1.00  0.00     0.000 C 
BRANCH   3   4
ATOM      4  C   UNL     1      -8.579  51.980  -0.779  1.00  0.00     0.006 C 
BRANCH   4   5
ATOM      5  C   UNL     1      -7.457  50.944  -0.601  1.00  0.00     0.053 C 
BRANCH   5   6
ATOM      6  C   UNL     1      -7.888  49.572  -1.016  1.00  0.00     0.041 C 
ATOM      7  O   UNL     1      -7.146  48.580  -0.790  1.00  0.00    -0.550 OA
ATOM      8  O   UNL     1      -9.125  49.383  -1.620  1.00  0.00    -0.550 OA
ENDBRANCH   5   6
ENDBRANCH   4   5
ENDBRANCH   3   4
ENDBRANCH   2   3
ENDBRANCH   1   2
BRANCH   1   9
ATOM      9  C   UNL     1      -8.442  51.919  -5.784  1.00  0.00     0.000 C 
BRANCH   9  10
ATOM     10  C   UNL     1      -7.088  51.908  -6.511  1.00  0.00    -0.000 C 
BRANCH  10  11
ATOM     11  C   UNL     1      -7.220  52.125  -8.030  1.00  0.00    -0.000 C 
BRANCH  11  12
ATOM     12  C   UNL     1      -6.834  50.913  -8.897  1.00  0.00    -0.000 C 
BRANCH  12  13
ATOM     13  C   UNL     1      -5.996  51.297 -10.124  1.00  0.00    -0.003 C 
ATOM     14  C   UNL     1      -4.511  51.058  -9.872  1.00  0.00     0.004 C 
ENDBRANCH  12  13
ENDBRANCH  11  12
ENDBRANCH  10  11
ENDBRANCH   9  10
ENDBRANCH   1   9
TORSDOF 10
ENDMDL
MODEL 6
REMARK VINA RESULT:     0.462      6.065      7.705
REMARK INTER + INTRA:           0.284
REMARK INTER:                   0.619
REMARK INTRA:                  -0.336
REMARK UNBOUND:                -0.448
REMARK SMILES CCCCCCCCCCCC(=O)[O-]
REMARK SMILES IDX 7 1 8 2 9 3 10 4 11 5 12 6 13 7 14 8 6 9 5 10 4 11 3 12 2 13
REMARK SMILES IDX 1 14
REMARK H PARENT
REMARK Flexibility Score: inf
ROOT
ATOM      1  C   UNL     1      -7.125  47.269  -2.045  1.00  0.00     0.000 C 
ENDROOT
BRANCH   1   2
ATOM      2  C   UNL     1      -6.834  46.032  -1.181  1.00  0.00     0.000 C 
BRANCH   2   3
ATOM      3  C   UNL     1      -6.999  44.715  -1.960  1.00  0.00     0.000 C 
BRANCH   3   4
ATOM      4  C   UNL     1      -5.651  44.105  -2.389  1.00  0.00     0.006 C 
BRANCH   4   5
ATOM      5  C   UNL     1      -5.305  42.784  -1.684  1.00  0.00     0.053 C 
BRANCH   5   6
ATOM      6  C   UNL     1      -3.993  42.857  -0.966  1.00  0.00     0.041 C 
ATOM      7  O   UNL     1      -3.836  42.253   0.128  1.00  0.00    -0.550 OA
ATOM      8  O   UNL     1      -2.934  43.563  -1.521  1.00  0.00    -0.550 OA
ENDBRANCH   5   6
ENDBRANCH   4   5
ENDBRANCH   3   4
ENDBRANCH   2   3
ENDBRANCH   1   2
BRANCH   1   9
ATOM      9  C   UNL     1      -7.436  48.516  -1.203  1.00  0.00     0.000 C 
BRANCH   9  10
ATOM     10  C   UNL     1      -8.344  49.487  -1.972  1.00  0.00    -0.000 C 
BRANCH  10  11
ATOM     11  C   UNL     1      -8.250  50.935  -1.456  1.00  0.00    -0.000 C 
BRANCH  11  12
ATOM     12  C   UNL     1      -8.429  52.023  -2.531  1.00  0.00    -0.000 C 
BRANCH  12  13
ATOM     13  C   UNL     1      -9.109  51.500  -3.804  1.00  0.00    -0.003 C 
ATOM     14  C   UNL     1      -8.223  51.715  -5.027  1.00  0.00     0.004 C 
ENDBRANCH  12  13
ENDBRANCH  11  12
ENDBRANCH  10  11
ENDBRANCH   9  10
ENDBRANCH   1   9
TORSDOF 10
ENDMDL
MODEL 7
REMARK VINA RESULT:     0.781      3.593      6.651
REMARK INTER + INTRA:           0.790
REMARK INTER:                   1.125
REMARK INTRA:                  -0.335
REMARK UNBOUND:                -0.448
REMARK SMILES CCCCCCCCCCCC(=O)[O-]
REMARK SMILES IDX 7 1 8 2 9 3 10 4 11 5 12 6 13 7 14 8 6 9 5 10 4 11 3 12 2 13
REMARK SMILES IDX 1 14
REMARK H PARENT
REMARK Flexibility Score: inf
ROOT
ATOM      1  C   UNL     1      -5.956  49.738   0.055  1.00  0.00     0.000 C 
ENDROOT
BRANCH   1   2
ATOM      2  C   UNL     1      -6.061  51.185   0.563  1.00  0.00     0.000 C 
BRANCH   2   3
ATOM      3  C   UNL     1      -5.050  52.125  -0.117  1.00  0.00     0.000 C 
BRANCH   3   4
ATOM      4  C   UNL     1      -3.677  52.125   0.580  1.00  0.00     0.006 C 
BRANCH   4   5
ATOM      5  C   UNL     1      -2.672  51.121  -0.008  1.00  0.00     0.053 C 
BRANCH   5   6
ATOM      6  C   UNL     1      -1.328  51.739  -0.237  1.00  0.00     0.041 C 
ATOM      7  O   UNL     1      -0.993  52.115  -1.392  1.00  0.00    -0.550 OA
ATOM      8  O   UNL     1      -0.460  51.934   0.829  1.00  0.00    -0.550 OA
ENDBRANCH   5   6
ENDBRANCH   4   5
ENDBRANCH   3   4
ENDBRANCH   2   3
ENDBRANCH   1   2
BRANCH   1   9
ATOM      9  C   UNL     1      -7.330  49.115  -0.236  1.00  0.00     0.000 C 
BRANCH   9  10
ATOM     10  C   UNL     1      -7.915  49.662  -1.547  1.00  0.00    -0.000 C 
BRANCH  10  11
ATOM     11  C   UNL     1      -8.573  51.045  -1.380  1.00  0.00    -0.000 C 
BRANCH  11  12
ATOM     12  C   UNL     1      -8.869  51.788  -2.696  1.00  0.00    -0.000 C 
BRANCH  12  13
ATOM     13  C   UNL     1      -7.775  51.588  -3.755  1.00  0.00    -0.003 C 
ATOM     14  C   UNL     1      -8.334  51.773  -5.162  1.00  0.00     0.004 C 
ENDBRANCH  12  13
ENDBRANCH  11  12
ENDBRANCH  10  11
ENDBRANCH   9  10
ENDBRANCH   1   9
TORSDOF 10
ENDMDL
