MODEL 1
REMARK VINA RESULT:    17.689      0.000      0.000
REMARK INTER + INTRA:          21.635
REMARK INTER:                  21.309
REMARK INTRA:                   0.326
REMARK UNBOUND:                 0.326
REMARK SMILES O=c1c(O)c(-c2ccc(O)cc2O)oc2cc(O)cc(O)c12
REMARK SMILES IDX 5 1 3 2 2 3 1 4 22 5 20 6 19 7 17 8 16 9 15 10 14 11 6 12
REMARK SMILES IDX 8 13 7 14 9 15 11 16 12 17 10 18 13 20 4 22 21 24 18 26
REMARK H PARENT 10 19 13 21 4 23 21 25 18 27
REMARK Flexibility Score: inf
ROOT
ATOM      1  C   UNL     1      13.923   7.438 128.419  1.00  0.00     0.184 A 
ATOM      2  C   UNL     1      13.510   6.504 129.383  1.00  0.00     0.208 A 
ATOM      3  C   UNL     1      13.972   6.636 130.702  1.00  0.00     0.238 A 
ATOM      4  O   UNL     1      13.644   5.764 131.548  1.00  0.00    -0.285 OA
ATOM      5  C   UNL     1      14.824   7.714 131.044  1.00  0.00     0.111 A 
ATOM      6  C   UNL     1      15.320   7.969 132.359  1.00  0.00     0.134 A 
ATOM      7  C   UNL     1      16.259   8.989 132.556  1.00  0.00     0.093 A 
ATOM      8  C   UNL     1      16.671   9.805 131.498  1.00  0.00     0.123 A 
ATOM      9  C   UNL     1      16.147   9.602 130.224  1.00  0.00     0.094 A 
ATOM     10  C   UNL     1      15.237   8.568 129.989  1.00  0.00     0.146 A 
ATOM     11  O   UNL     1      14.771   8.401 128.756  1.00  0.00    -0.451 OA
ENDROOT
BRANCH   1  12
ATOM     12  C   UNL     1      13.456   7.371 127.015  1.00  0.00     0.063 A 
ATOM     13  C   UNL     1      12.525   6.097 125.161  1.00  0.00     0.047 A 
ATOM     14  C   UNL     1      12.992   6.157 126.476  1.00  0.00     0.020 A 
ATOM     15  C   UNL     1      12.504   7.250 124.369  1.00  0.00     0.119 A 
ATOM     16  C   UNL     1      12.949   8.465 124.899  1.00  0.00     0.093 A 
ATOM     17  C   UNL     1      13.422   8.532 126.218  1.00  0.00     0.130 A 
BRANCH  15  18
ATOM     18  O   UNL     1      12.040   7.202 123.056  1.00  0.00    -0.508 OA
ATOM     19  H   UNL     1      11.497   7.960 122.658  1.00  0.00     0.293 HD
ENDBRANCH  15  18
BRANCH  17  20
ATOM     20  O   UNL     1      13.871   9.750 126.732  1.00  0.00    -0.507 OA
ATOM     21  H   UNL     1      13.946  10.577 126.151  1.00  0.00     0.293 HD
ENDBRANCH  17  20
ENDBRANCH   1  12
BRANCH   2  22
ATOM     22  O   UNL     1      12.679   5.441 129.018  1.00  0.00    -0.502 OA
ATOM     23  H   UNL     1      11.695   5.566 128.814  1.00  0.00     0.293 HD
ENDBRANCH   2  22
BRANCH   6  24
ATOM     24  O   UNL     1      14.907   7.273 133.498  1.00  0.00    -0.507 OA
ATOM     25  H   UNL     1      14.320   7.656 134.224  1.00  0.00     0.293 HD
ENDBRANCH   6  24
BRANCH   8  26
ATOM     26  O   UNL     1      17.593  10.827 131.707  1.00  0.00    -0.508 OA
ATOM     27  H   UNL     1      18.336  10.740 132.391  1.00  0.00     0.293 HD
ENDBRANCH   8  26
TORSDOF 6
ENDMDL
MODEL 2
REMARK VINA RESULT:    18.440      3.947      7.714
REMARK INTER + INTRA:          22.539
REMARK INTER:                  22.797
REMARK INTRA:                  -0.257
REMARK UNBOUND:                 0.326
REMARK SMILES O=c1c(O)c(-c2ccc(O)cc2O)oc2cc(O)cc(O)c12
REMARK SMILES IDX 5 1 3 2 2 3 1 4 22 5 20 6 19 7 17 8 16 9 15 10 14 11 6 12
REMARK SMILES IDX 8 13 7 14 9 15 11 16 12 17 10 18 13 20 4 22 21 24 18 26
REMARK H PARENT 10 19 13 21 4 23 21 25 18 27
REMARK Flexibility Score: inf
ROOT
ATOM      1  C   UNL     1      18.305   7.403 131.808  1.00  0.00     0.184 A 
ATOM      2  C   UNL     1      17.888   8.744 131.822  1.00  0.00     0.208 A 
ATOM      3  C   UNL     1      16.519   9.034 131.699  1.00  0.00     0.238 A 
ATOM      4  O   UNL     1      16.158  10.238 131.657  1.00  0.00    -0.285 OA
ATOM      5  C   UNL     1      15.584   7.977 131.583  1.00  0.00     0.111 A 
ATOM      6  C   UNL     1      14.170   8.152 131.493  1.00  0.00     0.134 A 
ATOM      7  C   UNL     1      13.351   7.042 131.252  1.00  0.00     0.093 A 
ATOM      8  C   UNL     1      13.888   5.755 131.164  1.00  0.00     0.123 A 
ATOM      9  C   UNL     1      15.260   5.567 131.310  1.00  0.00     0.094 A 
ATOM     10  C   UNL     1      16.107   6.659 131.514  1.00  0.00     0.146 A 
ATOM     11  O   UNL     1      17.411   6.437 131.636  1.00  0.00    -0.451 OA
ENDROOT
BRANCH   1  12
ATOM     12  C   UNL     1      19.729   7.026 131.957  1.00  0.00     0.063 A 
ATOM     13  C   UNL     1      21.782   6.124 131.008  1.00  0.00     0.047 A 
ATOM     14  C   UNL     1      20.431   6.455 130.880  1.00  0.00     0.020 A 
ATOM     15  C   UNL     1      22.455   6.369 132.211  1.00  0.00     0.119 A 
ATOM     16  C   UNL     1      21.770   6.950 133.283  1.00  0.00     0.093 A 
ATOM     17  C   UNL     1      20.413   7.282 133.162  1.00  0.00     0.130 A 
BRANCH  15  18
ATOM     18  O   UNL     1      23.802   6.043 132.351  1.00  0.00    -0.508 OA
ATOM     19  H   UNL     1      24.173   5.687 133.224  1.00  0.00     0.293 HD
ENDBRANCH  15  18
BRANCH  17  20
ATOM     20  O   UNL     1      19.741   7.855 134.243  1.00  0.00    -0.507 OA
ATOM     21  H   UNL     1      18.871   7.469 134.593  1.00  0.00     0.293 HD
ENDBRANCH  17  20
ENDBRANCH   1  12
BRANCH   2  22
ATOM     22  O   UNL     1      18.830   9.770 131.924  1.00  0.00    -0.502 OA
ATOM     23  H   UNL     1      18.640  10.717 131.616  1.00  0.00     0.293 HD
ENDBRANCH   2  22
BRANCH   6  24
ATOM     24  O   UNL     1      13.523   9.380 131.657  1.00  0.00    -0.507 OA
ATOM     25  H   UNL     1      13.571   9.948 132.489  1.00  0.00     0.293 HD
ENDBRANCH   6  24
BRANCH   8  26
ATOM     26  O   UNL     1      13.064   4.655 130.940  1.00  0.00    -0.508 OA
ATOM     27  H   UNL     1      12.193   4.740 130.429  1.00  0.00     0.293 HD
ENDBRANCH   8  26
TORSDOF 6
ENDMDL
MODEL 3
REMARK VINA RESULT:    18.790      3.133      4.848
REMARK INTER + INTRA:          22.961
REMARK INTER:                  23.218
REMARK INTRA:                  -0.257
REMARK UNBOUND:                 0.326
REMARK SMILES O=c1c(O)c(-c2ccc(O)cc2O)oc2cc(O)cc(O)c12
REMARK SMILES IDX 5 1 3 2 2 3 1 4 22 5 20 6 19 7 17 8 16 9 15 10 14 11 6 12
REMARK SMILES IDX 8 13 7 14 9 15 11 16 12 17 10 18 13 20 4 22 21 24 18 26
REMARK H PARENT 10 19 13 21 4 23 21 25 18 27
REMARK Flexibility Score: inf
ROOT
ATOM      1  C   UNL     1      15.434   6.660 131.374  1.00  0.00     0.184 A 
ATOM      2  C   UNL     1      15.161   7.981 131.766  1.00  0.00     0.208 A 
ATOM      3  C   UNL     1      16.231   8.841 132.060  1.00  0.00     0.238 A 
ATOM      4  O   UNL     1      15.977  10.005 132.464  1.00  0.00    -0.285 OA
ATOM      5  C   UNL     1      17.562   8.374 131.939  1.00  0.00     0.111 A 
ATOM      6  C   UNL     1      18.724   9.170 132.172  1.00  0.00     0.134 A 
ATOM      7  C   UNL     1      19.989   8.569 132.147  1.00  0.00     0.093 A 
ATOM      8  C   UNL     1      20.138   7.215 131.832  1.00  0.00     0.123 A 
ATOM      9  C   UNL     1      19.014   6.445 131.544  1.00  0.00     0.094 A 
ATOM     10  C   UNL     1      17.737   7.007 131.598  1.00  0.00     0.146 A 
ATOM     11  O   UNL     1      16.691   6.234 131.328  1.00  0.00    -0.451 OA
ENDROOT
BRANCH   1  12
ATOM     12  C   UNL     1      14.355   5.708 131.027  1.00  0.00     0.063 A 
ATOM     13  C   UNL     1      13.059   3.711 131.539  1.00  0.00     0.047 A 
ATOM     14  C   UNL     1      14.095   4.596 131.849  1.00  0.00     0.020 A 
ATOM     15  C   UNL     1      12.261   3.930 130.410  1.00  0.00     0.119 A 
ATOM     16  C   UNL     1      12.502   5.040 129.595  1.00  0.00     0.093 A 
ATOM     17  C   UNL     1      13.541   5.931 129.898  1.00  0.00     0.130 A 
BRANCH  15  18
ATOM     18  O   UNL     1      11.225   3.055 130.091  1.00  0.00    -0.508 OA
ATOM     19  H   UNL     1      10.590   2.706 130.800  1.00  0.00     0.293 HD
ENDBRANCH  15  18
BRANCH  17  20
ATOM     20  O   UNL     1      13.775   7.031 129.071  1.00  0.00    -0.507 OA
ATOM     21  H   UNL     1      13.503   7.030 128.095  1.00  0.00     0.293 HD
ENDBRANCH  17  20
ENDBRANCH   1  12
BRANCH   2  22
ATOM     22  O   UNL     1      13.838   8.414 131.892  1.00  0.00    -0.502 OA
ATOM     23  H   UNL     1      13.253   8.617 131.089  1.00  0.00     0.293 HD
ENDBRANCH   2  22
BRANCH   6  24
ATOM     24  O   UNL     1      18.693  10.548 132.405  1.00  0.00    -0.507 OA
ATOM     25  H   UNL     1      18.068  11.008 133.048  1.00  0.00     0.293 HD
ENDBRANCH   6  24
BRANCH   8  26
ATOM     26  O   UNL     1      21.401   6.629 131.794  1.00  0.00    -0.508 OA
ATOM     27  H   UNL     1      21.659   5.972 131.067  1.00  0.00     0.293 HD
ENDBRANCH   8  26
TORSDOF 6
ENDMDL
MODEL 4
REMARK VINA RESULT:    19.876      1.686      3.397
REMARK INTER + INTRA:          24.268
REMARK INTER:                  24.690
REMARK INTRA:                  -0.422
REMARK UNBOUND:                 0.326
REMARK SMILES O=c1c(O)c(-c2ccc(O)cc2O)oc2cc(O)cc(O)c12
REMARK SMILES IDX 5 1 3 2 2 3 1 4 22 5 20 6 19 7 17 8 16 9 15 10 14 11 6 12
REMARK SMILES IDX 8 13 7 14 9 15 11 16 12 17 10 18 13 20 4 22 21 24 18 26
REMARK H PARENT 10 19 13 21 4 23 21 25 18 27
REMARK Flexibility Score: inf
ROOT
ATOM      1  C   UNL     1      13.630   7.263 127.521  1.00  0.00     0.184 A 
ATOM      2  C   UNL     1      14.092   8.448 128.116  1.00  0.00     0.208 A 
ATOM      3  C   UNL     1      14.454   8.434 129.473  1.00  0.00     0.238 A 
ATOM      4  O   UNL     1      14.814   9.511 130.014  1.00  0.00    -0.285 OA
ATOM      5  C   UNL     1      14.369   7.229 130.211  1.00  0.00     0.111 A 
ATOM      6  C   UNL     1      14.747   7.089 131.580  1.00  0.00     0.134 A 
ATOM      7  C   UNL     1      14.500   5.881 132.245  1.00  0.00     0.093 A 
ATOM      8  C   UNL     1      13.947   4.788 131.572  1.00  0.00     0.123 A 
ATOM      9  C   UNL     1      13.630   4.896 130.221  1.00  0.00     0.094 A 
ATOM     10  C   UNL     1      13.831   6.100 129.540  1.00  0.00     0.146 A 
ATOM     11  O   UNL     1      13.503   6.164 128.254  1.00  0.00    -0.451 OA
ENDROOT
BRANCH   1  12
ATOM     12  C   UNL     1      13.254   7.202 126.090  1.00  0.00     0.063 A 
ATOM     13  C   UNL     1      11.725   7.779 124.285  1.00  0.00     0.047 A 
ATOM     14  C   UNL     1      12.068   7.811 125.639  1.00  0.00     0.020 A 
ATOM     15  C   UNL     1      12.566   7.148 123.361  1.00  0.00     0.119 A 
ATOM     16  C   UNL     1      13.753   6.553 123.797  1.00  0.00     0.093 A 
ATOM     17  C   UNL     1      14.103   6.579 125.154  1.00  0.00     0.130 A 
BRANCH  15  18
ATOM     18  O   UNL     1      12.233   7.110 122.008  1.00  0.00    -0.508 OA
ATOM     19  H   UNL     1      11.628   6.390 121.632  1.00  0.00     0.293 HD
ENDBRANCH  15  18
BRANCH  17  20
ATOM     20  O   UNL     1      15.288   5.973 125.576  1.00  0.00    -0.507 OA
ATOM     21  H   UNL     1      15.634   5.124 125.145  1.00  0.00     0.293 HD
ENDBRANCH  17  20
ENDBRANCH   1  12
BRANCH   2  22
ATOM     22  O   UNL     1      14.155   9.629 127.371  1.00  0.00    -0.502 OA
ATOM     23  H   UNL     1      15.031  10.087 127.151  1.00  0.00     0.293 HD
ENDBRANCH   2  22
BRANCH   6  24
ATOM     24  O   UNL     1      15.388   8.087 132.320  1.00  0.00    -0.507 OA
ATOM     25  H   UNL     1      15.560   8.046 133.313  1.00  0.00     0.293 HD
ENDBRANCH   6  24
BRANCH   8  26
ATOM     26  O   UNL     1      13.719   3.585 132.237  1.00  0.00    -0.508 OA
ATOM     27  H   UNL     1      12.796   3.330 132.570  1.00  0.00     0.293 HD
ENDBRANCH   8  26
TORSDOF 6
ENDMDL
MODEL 5
REMARK VINA RESULT:    20.173      2.262      3.571
REMARK INTER + INTRA:          24.627
REMARK INTER:                  25.061
REMARK INTRA:                  -0.434
REMARK UNBOUND:                 0.326
REMARK SMILES O=c1c(O)c(-c2ccc(O)cc2O)oc2cc(O)cc(O)c12
REMARK SMILES IDX 5 1 3 2 2 3 1 4 22 5 20 6 19 7 17 8 16 9 15 10 14 11 6 12
REMARK SMILES IDX 8 13 7 14 9 15 11 16 12 17 10 18 13 20 4 22 21 24 18 26
REMARK H PARENT 10 19 13 21 4 23 21 25 18 27
REMARK Flexibility Score: inf
ROOT
ATOM      1  C   UNL     1      15.166   8.098 130.545  1.00  0.00     0.184 A 
ATOM      2  C   UNL     1      14.629   8.820 131.622  1.00  0.00     0.208 A 
ATOM      3  C   UNL     1      15.457   9.135 132.712  1.00  0.00     0.238 A 
ATOM      4  O   UNL     1      14.955   9.734 133.698  1.00  0.00    -0.285 OA
ATOM      5  C   UNL     1      16.816   8.740 132.701  1.00  0.00     0.111 A 
ATOM      6  C   UNL     1      17.756   9.039 133.733  1.00  0.00     0.134 A 
ATOM      7  C   UNL     1      19.042   8.488 133.677  1.00  0.00     0.093 A 
ATOM      8  C   UNL     1      19.442   7.701 132.593  1.00  0.00     0.123 A 
ATOM      9  C   UNL     1      18.551   7.453 131.552  1.00  0.00     0.094 A 
ATOM     10  C   UNL     1      17.250   7.958 131.598  1.00  0.00     0.146 A 
ATOM     11  O   UNL     1      16.428   7.688 130.590  1.00  0.00    -0.451 OA
ENDROOT
BRANCH   1  12
ATOM     12  C   UNL     1      14.356   7.753 129.354  1.00  0.00     0.063 A 
ATOM     13  C   UNL     1      13.528   8.310 127.133  1.00  0.00     0.047 A 
ATOM     14  C   UNL     1      14.268   8.645 128.269  1.00  0.00     0.020 A 
ATOM     15  C   UNL     1      12.873   7.075 127.059  1.00  0.00     0.119 A 
ATOM     16  C   UNL     1      12.966   6.175 128.125  1.00  0.00     0.093 A 
ATOM     17  C   UNL     1      13.705   6.505 129.270  1.00  0.00     0.130 A 
BRANCH  15  18
ATOM     18  O   UNL     1      12.132   6.731 125.931  1.00  0.00    -0.508 OA
ATOM     19  H   UNL     1      11.122   6.809 125.917  1.00  0.00     0.293 HD
ENDBRANCH  15  18
BRANCH  17  20
ATOM     20  O   UNL     1      13.783   5.600 130.330  1.00  0.00    -0.507 OA
ATOM     21  H   UNL     1      14.278   4.721 130.243  1.00  0.00     0.293 HD
ENDBRANCH  17  20
ENDBRANCH   1  12
BRANCH   2  22
ATOM     22  O   UNL     1      13.281   9.188 131.617  1.00  0.00    -0.502 OA
ATOM     23  H   UNL     1      12.684   9.079 132.429  1.00  0.00     0.293 HD
ENDBRANCH   2  22
BRANCH   6  24
ATOM     24  O   UNL     1      17.488   9.887 134.812  1.00  0.00    -0.507 OA
ATOM     25  H   UNL     1      16.568  10.202 135.080  1.00  0.00     0.293 HD
ENDBRANCH   6  24
BRANCH   8  26
ATOM     26  O   UNL     1      20.728   7.169 132.538  1.00  0.00    -0.508 OA
ATOM     27  H   UNL     1      20.945   6.261 132.933  1.00  0.00     0.293 HD
ENDBRANCH   8  26
TORSDOF 6
ENDMDL
MODEL 6
REMARK VINA RESULT:    20.289      5.206     10.124
REMARK INTER + INTRA:          24.766
REMARK INTER:                  24.311
REMARK INTRA:                   0.456
REMARK UNBOUND:                 0.326
REMARK SMILES O=c1c(O)c(-c2ccc(O)cc2O)oc2cc(O)cc(O)c12
REMARK SMILES IDX 5 1 3 2 2 3 1 4 22 5 20 6 19 7 17 8 16 9 15 10 14 11 6 12
REMARK SMILES IDX 8 13 7 14 9 15 11 16 12 17 10 18 13 20 4 22 21 24 18 26
REMARK H PARENT 10 19 13 21 4 23 21 25 18 27
REMARK Flexibility Score: inf
ROOT
ATOM      1  C   UNL     1      19.567   7.818 135.055  1.00  0.00     0.184 A 
ATOM      2  C   UNL     1      20.303   7.500 133.903  1.00  0.00     0.208 A 
ATOM      3  C   UNL     1      19.766   7.808 132.643  1.00  0.00     0.238 A 
ATOM      4  O   UNL     1      20.405   7.470 131.614  1.00  0.00    -0.285 OA
ATOM      5  C   UNL     1      18.507   8.451 132.553  1.00  0.00     0.111 A 
ATOM      6  C   UNL     1      17.884   8.846 131.331  1.00  0.00     0.134 A 
ATOM      7  C   UNL     1      16.581   9.358 131.354  1.00  0.00     0.093 A 
ATOM      8  C   UNL     1      15.903   9.549 132.562  1.00  0.00     0.123 A 
ATOM      9  C   UNL     1      16.525   9.221 133.763  1.00  0.00     0.094 A 
ATOM     10  C   UNL     1      17.810   8.674 133.770  1.00  0.00     0.146 A 
ATOM     11  O   UNL     1      18.363   8.365 134.937  1.00  0.00    -0.451 OA
ENDROOT
BRANCH   1  12
ATOM     12  C   UNL     1      20.085   7.542 136.415  1.00  0.00     0.063 A 
ATOM     13  C   UNL     1      21.668   6.413 137.880  1.00  0.00     0.047 A 
ATOM     14  C   UNL     1      21.160   6.654 136.601  1.00  0.00     0.020 A 
ATOM     15  C   UNL     1      21.117   7.063 138.990  1.00  0.00     0.119 A 
ATOM     16  C   UNL     1      20.057   7.958 138.814  1.00  0.00     0.093 A 
ATOM     17  C   UNL     1      19.540   8.204 137.534  1.00  0.00     0.130 A 
BRANCH  15  18
ATOM     18  O   UNL     1      21.616   6.831 140.270  1.00  0.00    -0.508 OA
ATOM     19  H   UNL     1      21.684   5.894 140.649  1.00  0.00     0.293 HD
ENDBRANCH  15  18
BRANCH  17  20
ATOM     20  O   UNL     1      18.477   9.094 137.375  1.00  0.00    -0.507 OA
ATOM     21  H   UNL     1      18.443   9.976 137.872  1.00  0.00     0.293 HD
ENDBRANCH  17  20
ENDBRANCH   1  12
BRANCH   2  22
ATOM     22  O   UNL     1      21.538   6.854 134.016  1.00  0.00    -0.502 OA
ATOM     23  H   UNL     1      21.719   6.147 134.719  1.00  0.00     0.293 HD
ENDBRANCH   2  22
BRANCH   6  24
ATOM     24  O   UNL     1      18.507   8.783 130.081  1.00  0.00    -0.507 OA
ATOM     25  H   UNL     1      18.742   9.585 129.515  1.00  0.00     0.293 HD
ENDBRANCH   6  24
BRANCH   8  26
ATOM     26  O   UNL     1      14.612  10.073 132.577  1.00  0.00    -0.508 OA
ATOM     27  H   UNL     1      14.423  11.024 132.282  1.00  0.00     0.293 HD
ENDBRANCH   8  26
TORSDOF 6
ENDMDL
