MODEL 1
REMARK VINA RESULT:    17.041      0.000      0.000
REMARK INTER + INTRA:          42.275
REMARK INTER:                  42.942
REMARK INTRA:                  -0.667
REMARK UNBOUND:                -0.667
REMARK SMILES CCCCCCCCCCCCCCCCCCCCCCCCCCCC(=O)[O-]
REMARK SMILES IDX 15 1 16 2 17 3 18 4 19 5 20 6 21 7 22 8 23 9 24 10 25 11
REMARK SMILES IDX 26 12 27 13 28 14 29 15 30 16 14 17 13 18 12 19 11 20 10 21
REMARK SMILES IDX 9 22 8 23 7 24 6 25 5 26 4 27 3 28 2 29 1 30
REMARK H PARENT
REMARK Flexibility Score: inf
ROOT
ATOM      1  C   UNL     1      -5.739  14.042 -15.646  1.00  0.00     0.000 C 
ENDROOT
BRANCH   1   2
ATOM      2  C   UNL     1      -5.988  13.579 -17.091  1.00  0.00     0.000 C 
BRANCH   2   3
ATOM      3  C   UNL     1      -6.323  12.084 -17.250  1.00  0.00     0.000 C 
BRANCH   3   4
ATOM      4  C   UNL     1      -6.563  11.644 -18.708  1.00  0.00     0.000 C 
BRANCH   4   5
ATOM      5  C   UNL     1      -7.912  10.923 -18.899  1.00  0.00     0.000 C 
BRANCH   5   6
ATOM      6  C   UNL     1      -8.109   9.757 -17.916  1.00  0.00     0.000 C 
BRANCH   6   7
ATOM      7  C   UNL     1      -7.967   8.379 -18.587  1.00  0.00     0.000 C 
BRANCH   7   8
ATOM      8  C   UNL     1      -7.118   7.409 -17.750  1.00  0.00     0.000 C 
BRANCH   8   9
ATOM      9  C   UNL     1      -6.792   6.110 -18.505  1.00  0.00     0.000 C 
BRANCH   9  10
ATOM     10  C   UNL     1      -7.447   6.072 -19.896  1.00  0.00     0.000 C 
BRANCH  10  11
ATOM     11  C   UNL     1      -7.927   4.664 -20.278  1.00  0.00     0.000 C 
BRANCH  11  12
ATOM     12  C   UNL     1      -9.074   4.731 -21.296  1.00  0.00     0.006 C 
BRANCH  12  13
ATOM     13  C   UNL     1      -8.641   4.154 -22.648  1.00  0.00     0.053 C 
BRANCH  13  14
ATOM     14  C   UNL     1      -7.149   4.103 -22.750  1.00  0.00     0.041 C 
ATOM     15  O   UNL     1      -6.480   5.169 -22.810  1.00  0.00    -0.550 OA
ATOM     16  O   UNL     1      -6.495   2.877 -22.780  1.00  0.00    -0.550 OA
ENDBRANCH  13  14
ENDBRANCH  12  13
ENDBRANCH  11  12
ENDBRANCH  10  11
ENDBRANCH   9  10
ENDBRANCH   8   9
ENDBRANCH   7   8
ENDBRANCH   6   7
ENDBRANCH   5   6
ENDBRANCH   4   5
ENDBRANCH   3   4
ENDBRANCH   2   3
ENDBRANCH   1   2
BRANCH   1  17
ATOM     17  C   UNL     1      -7.038  14.207 -14.844  1.00  0.00     0.000 C 
BRANCH  17  18
ATOM     18  C   UNL     1      -7.284  15.681 -14.488  1.00  0.00     0.000 C 
BRANCH  18  19
ATOM     19  C   UNL     1      -8.777  15.992 -14.285  1.00  0.00     0.000 C 
BRANCH  19  20
ATOM     20  C   UNL     1      -9.038  17.492 -14.056  1.00  0.00     0.000 C 
BRANCH  20  21
ATOM     21  C   UNL     1     -10.503  17.795 -13.704  1.00  0.00     0.000 C 
BRANCH  21  22
ATOM     22  C   UNL     1     -11.053  19.022 -14.448  1.00  0.00    -0.000 C 
BRANCH  22  23
ATOM     23  C   UNL     1     -11.881  19.942 -13.537  1.00  0.00    -0.000 C 
BRANCH  23  24
ATOM     24  C   UNL     1     -12.961  19.183 -12.744  1.00  0.00    -0.000 C 
BRANCH  24  25
ATOM     25  C   UNL     1     -12.681  19.194 -11.225  1.00  0.00    -0.000 C 
BRANCH  25  26
ATOM     26  C   UNL     1     -13.934  19.468 -10.376  1.00  0.00    -0.000 C 
BRANCH  26  27
ATOM     27  C   UNL     1     -13.903  18.749  -9.018  1.00  0.00    -0.000 C 
BRANCH  27  28
ATOM     28  C   UNL     1     -12.668  19.141  -8.178  1.00  0.00    -0.000 C 
BRANCH  28  29
ATOM     29  C   UNL     1     -12.827  20.485  -7.444  1.00  0.00    -0.003 C 
ATOM     30  C   UNL     1     -11.907  21.576  -7.988  1.00  0.00     0.004 C 
ENDBRANCH  28  29
ENDBRANCH  27  28
ENDBRANCH  26  27
ENDBRANCH  25  26
ENDBRANCH  24  25
ENDBRANCH  23  24
ENDBRANCH  22  23
ENDBRANCH  21  22
ENDBRANCH  20  21
ENDBRANCH  19  20
ENDBRANCH  18  19
ENDBRANCH  17  18
ENDBRANCH   1  17
TORSDOF 26
ENDMDL
MODEL 2
REMARK VINA RESULT:    17.084      6.033     15.123
REMARK INTER + INTRA:          42.385
REMARK INTER:                  44.026
REMARK INTRA:                  -1.640
REMARK UNBOUND:                -0.667
REMARK SMILES CCCCCCCCCCCCCCCCCCCCCCCCCCCC(=O)[O-]
REMARK SMILES IDX 15 1 16 2 17 3 18 4 19 5 20 6 21 7 22 8 23 9 24 10 25 11
REMARK SMILES IDX 26 12 27 13 28 14 29 15 30 16 14 17 13 18 12 19 11 20 10 21
REMARK SMILES IDX 9 22 8 23 7 24 6 25 5 26 4 27 3 28 2 29 1 30
REMARK H PARENT
REMARK Flexibility Score: inf
ROOT
ATOM      1  C   UNL     1      -7.068  14.496 -14.549  1.00  0.00     0.000 C 
ENDROOT
BRANCH   1   2
ATOM      2  C   UNL     1      -8.222  15.437 -14.168  1.00  0.00     0.000 C 
BRANCH   2   3
ATOM      3  C   UNL     1      -8.069  16.890 -14.657  1.00  0.00     0.000 C 
BRANCH   3   4
ATOM      4  C   UNL     1      -8.727  17.937 -13.735  1.00  0.00     0.000 C 
BRANCH   4   5
ATOM      5  C   UNL     1     -10.266  17.880 -13.772  1.00  0.00     0.000 C 
BRANCH   5   6
ATOM      6  C   UNL     1     -10.889  19.074 -14.515  1.00  0.00     0.000 C 
BRANCH   6   7
ATOM      7  C   UNL     1     -11.836  19.902 -13.628  1.00  0.00     0.000 C 
BRANCH   7   8
ATOM      8  C   UNL     1     -12.951  19.043 -13.008  1.00  0.00     0.000 C 
BRANCH   8   9
ATOM      9  C   UNL     1     -13.028  19.194 -11.480  1.00  0.00     0.000 C 
BRANCH   9  10
ATOM     10  C   UNL     1     -12.603  17.909 -10.751  1.00  0.00     0.000 C 
BRANCH  10  11
ATOM     11  C   UNL     1     -12.864  17.982  -9.239  1.00  0.00     0.000 C 
BRANCH  11  12
ATOM     12  C   UNL     1     -13.560  19.298  -8.864  1.00  0.00     0.006 C 
BRANCH  12  13
ATOM     13  C   UNL     1     -13.167  19.743  -7.451  1.00  0.00     0.053 C 
BRANCH  13  14
ATOM     14  C   UNL     1     -12.336  20.986  -7.497  1.00  0.00     0.041 C 
ATOM     15  O   UNL     1     -11.988  21.475  -8.606  1.00  0.00    -0.550 OA
ATOM     16  O   UNL     1     -11.943  21.606  -6.318  1.00  0.00    -0.550 OA
ENDBRANCH  13  14
ENDBRANCH  12  13
ENDBRANCH  11  12
ENDBRANCH  10  11
ENDBRANCH   9  10
ENDBRANCH   8   9
ENDBRANCH   7   8
ENDBRANCH   6   7
ENDBRANCH   5   6
ENDBRANCH   4   5
ENDBRANCH   3   4
ENDBRANCH   2   3
ENDBRANCH   1   2
BRANCH   1  17
ATOM     17  C   UNL     1      -6.695  14.586 -16.036  1.00  0.00     0.000 C 
BRANCH  17  18
ATOM     18  C   UNL     1      -5.244  14.139 -16.270  1.00  0.00     0.000 C 
BRANCH  18  19
ATOM     19  C   UNL     1      -5.158  12.826 -17.066  1.00  0.00     0.000 C 
BRANCH  19  20
ATOM     20  C   UNL     1      -6.547  12.267 -17.429  1.00  0.00     0.000 C 
BRANCH  20  21
ATOM     21  C   UNL     1      -6.964  11.087 -16.538  1.00  0.00     0.000 C 
BRANCH  21  22
ATOM     22  C   UNL     1      -8.148  10.295 -17.116  1.00  0.00    -0.000 C 
BRANCH  22  23
ATOM     23  C   UNL     1      -7.918   9.869 -18.574  1.00  0.00    -0.000 C 
BRANCH  23  24
ATOM     24  C   UNL     1      -8.191   8.372 -18.809  1.00  0.00    -0.000 C 
BRANCH  24  25
ATOM     25  C   UNL     1      -7.268   7.472 -17.959  1.00  0.00    -0.000 C 
BRANCH  25  26
ATOM     26  C   UNL     1      -7.161   6.033 -18.489  1.00  0.00    -0.000 C 
BRANCH  26  27
ATOM     27  C   UNL     1      -7.708   5.880 -19.917  1.00  0.00    -0.000 C 
BRANCH  27  28
ATOM     28  C   UNL     1      -8.598   4.628 -20.070  1.00  0.00    -0.000 C 
BRANCH  28  29
ATOM     29  C   UNL     1      -8.547   4.008 -21.479  1.00  0.00    -0.003 C 
ATOM     30  C   UNL     1      -7.122   3.832 -22.001  1.00  0.00     0.004 C 
ENDBRANCH  28  29
ENDBRANCH  27  28
ENDBRANCH  26  27
ENDBRANCH  25  26
ENDBRANCH  24  25
ENDBRANCH  23  24
ENDBRANCH  22  23
ENDBRANCH  21  22
ENDBRANCH  20  21
ENDBRANCH  19  20
ENDBRANCH  18  19
ENDBRANCH  17  18
ENDBRANCH   1  17
TORSDOF 26
ENDMDL
MODEL 3
REMARK VINA RESULT:    17.124      6.168     15.411
REMARK INTER + INTRA:          42.485
REMARK INTER:                  42.905
REMARK INTRA:                  -0.420
REMARK UNBOUND:                -0.667
REMARK SMILES CCCCCCCCCCCCCCCCCCCCCCCCCCCC(=O)[O-]
REMARK SMILES IDX 15 1 16 2 17 3 18 4 19 5 20 6 21 7 22 8 23 9 24 10 25 11
REMARK SMILES IDX 26 12 27 13 28 14 29 15 30 16 14 17 13 18 12 19 11 20 10 21
REMARK SMILES IDX 9 22 8 23 7 24 6 25 5 26 4 27 3 28 2 29 1 30
REMARK H PARENT
REMARK Flexibility Score: inf
ROOT
ATOM      1  C   UNL     1      -6.409  14.228 -15.331  1.00  0.00     0.000 C 
ENDROOT
BRANCH   1   2
ATOM      2  C   UNL     1      -7.381  15.406 -15.505  1.00  0.00     0.000 C 
BRANCH   2   3
ATOM      3  C   UNL     1      -8.319  15.662 -14.310  1.00  0.00     0.000 C 
BRANCH   3   4
ATOM      4  C   UNL     1      -8.102  17.025 -13.621  1.00  0.00     0.000 C 
BRANCH   4   5
ATOM      5  C   UNL     1      -8.979  18.141 -14.221  1.00  0.00     0.000 C 
BRANCH   5   6
ATOM      6  C   UNL     1     -10.479  17.923 -13.965  1.00  0.00     0.000 C 
BRANCH   6   7
ATOM      7  C   UNL     1     -11.295  19.226 -14.044  1.00  0.00     0.000 C 
BRANCH   7   8
ATOM      8  C   UNL     1     -12.691  19.077 -13.416  1.00  0.00     0.000 C 
BRANCH   8   9
ATOM      9  C   UNL     1     -12.678  19.302 -11.895  1.00  0.00     0.000 C 
BRANCH   9  10
ATOM     10  C   UNL     1     -13.222  18.086 -11.128  1.00  0.00     0.000 C 
BRANCH  10  11
ATOM     11  C   UNL     1     -12.581  17.936  -9.739  1.00  0.00     0.000 C 
BRANCH  11  12
ATOM     12  C   UNL     1     -13.234  18.888  -8.728  1.00  0.00     0.006 C 
BRANCH  12  13
ATOM     13  C   UNL     1     -12.809  20.338  -8.986  1.00  0.00     0.053 C 
BRANCH  13  14
ATOM     14  C   UNL     1     -12.295  20.972  -7.732  1.00  0.00     0.041 C 
ATOM     15  O   UNL     1     -11.222  21.632  -7.748  1.00  0.00    -0.550 OA
ATOM     16  O   UNL     1     -13.000  20.835  -6.543  1.00  0.00    -0.550 OA
ENDBRANCH  13  14
ENDBRANCH  12  13
ENDBRANCH  11  12
ENDBRANCH  10  11
ENDBRANCH   9  10
ENDBRANCH   8   9
ENDBRANCH   7   8
ENDBRANCH   6   7
ENDBRANCH   5   6
ENDBRANCH   4   5
ENDBRANCH   3   4
ENDBRANCH   2   3
ENDBRANCH   1   2
BRANCH   1  17
ATOM     17  C   UNL     1      -5.338  14.174 -16.431  1.00  0.00     0.000 C 
BRANCH  17  18
ATOM     18  C   UNL     1      -5.244  12.767 -17.041  1.00  0.00     0.000 C 
BRANCH  18  19
ATOM     19  C   UNL     1      -6.576  12.001 -16.952  1.00  0.00     0.000 C 
BRANCH  19  20
ATOM     20  C   UNL     1      -7.040  11.471 -18.321  1.00  0.00     0.000 C 
BRANCH  20  21
ATOM     21  C   UNL     1      -8.216  10.487 -18.211  1.00  0.00     0.000 C 
BRANCH  21  22
ATOM     22  C   UNL     1      -7.771   9.070 -17.816  1.00  0.00    -0.000 C 
BRANCH  22  23
ATOM     23  C   UNL     1      -8.188   8.012 -18.850  1.00  0.00    -0.000 C 
BRANCH  23  24
ATOM     24  C   UNL     1      -7.170   6.864 -18.974  1.00  0.00    -0.000 C 
BRANCH  24  25
ATOM     25  C   UNL     1      -7.850   5.477 -18.943  1.00  0.00    -0.000 C 
BRANCH  25  26
ATOM     26  C   UNL     1      -8.322   4.998 -20.325  1.00  0.00    -0.000 C 
BRANCH  26  27
ATOM     27  C   UNL     1      -7.186   4.398 -21.169  1.00  0.00    -0.000 C 
BRANCH  27  28
ATOM     28  C   UNL     1      -7.681   3.901 -22.545  1.00  0.00    -0.000 C 
BRANCH  28  29
ATOM     29  C   UNL     1      -9.155   4.244 -22.826  1.00  0.00    -0.003 C 
ATOM     30  C   UNL     1      -9.377   5.726 -23.125  1.00  0.00     0.004 C 
ENDBRANCH  28  29
ENDBRANCH  27  28
ENDBRANCH  26  27
ENDBRANCH  25  26
ENDBRANCH  24  25
ENDBRANCH  23  24
ENDBRANCH  22  23
ENDBRANCH  21  22
ENDBRANCH  20  21
ENDBRANCH  19  20
ENDBRANCH  18  19
ENDBRANCH  17  18
ENDBRANCH   1  17
TORSDOF 26
ENDMDL
MODEL 4
REMARK VINA RESULT:    17.678      5.841     15.005
REMARK INTER + INTRA:          43.881
REMARK INTER:                  44.773
REMARK INTRA:                  -0.893
REMARK UNBOUND:                -0.667
REMARK SMILES CCCCCCCCCCCCCCCCCCCCCCCCCCCC(=O)[O-]
REMARK SMILES IDX 15 1 16 2 17 3 18 4 19 5 20 6 21 7 22 8 23 9 24 10 25 11
REMARK SMILES IDX 26 12 27 13 28 14 29 15 30 16 14 17 13 18 12 19 11 20 10 21
REMARK SMILES IDX 9 22 8 23 7 24 6 25 5 26 4 27 3 28 2 29 1 30
REMARK H PARENT
REMARK Flexibility Score: inf
ROOT
ATOM      1  C   UNL     1      -4.135  13.913 -16.582  1.00  0.00     0.000 C 
ENDROOT
BRANCH   1   2
ATOM      2  C   UNL     1      -5.129  13.994 -15.412  1.00  0.00     0.000 C 
BRANCH   2   3
ATOM      3  C   UNL     1      -6.540  14.485 -15.786  1.00  0.00     0.000 C 
BRANCH   3   4
ATOM      4  C   UNL     1      -7.352  15.033 -14.594  1.00  0.00     0.000 C 
BRANCH   4   5
ATOM      5  C   UNL     1      -7.717  16.522 -14.756  1.00  0.00     0.000 C 
BRANCH   5   6
ATOM      6  C   UNL     1      -8.538  17.066 -13.576  1.00  0.00     0.000 C 
BRANCH   6   7
ATOM      7  C   UNL     1      -9.355  18.318 -13.944  1.00  0.00     0.000 C 
BRANCH   7   8
ATOM      8  C   UNL     1     -10.869  18.048 -13.930  1.00  0.00     0.000 C 
BRANCH   8   9
ATOM      9  C   UNL     1     -11.688  19.266 -14.387  1.00  0.00     0.000 C 
BRANCH   9  10
ATOM     10  C   UNL     1     -12.516  19.869 -13.241  1.00  0.00     0.000 C 
BRANCH  10  11
ATOM     11  C   UNL     1     -12.788  18.853 -12.120  1.00  0.00     0.000 C 
BRANCH  11  12
ATOM     12  C   UNL     1     -13.337  19.551 -10.868  1.00  0.00     0.006 C 
BRANCH  12  13
ATOM     13  C   UNL     1     -12.635  19.039  -9.605  1.00  0.00     0.053 C 
BRANCH  13  14
ATOM     14  C   UNL     1     -13.479  19.282  -8.393  1.00  0.00     0.041 C 
ATOM     15  O   UNL     1     -14.671  18.872  -8.358  1.00  0.00    -0.550 OA
ATOM     16  O   UNL     1     -12.953  19.962  -7.302  1.00  0.00    -0.550 OA
ENDBRANCH  13  14
ENDBRANCH  12  13
ENDBRANCH  11  12
ENDBRANCH  10  11
ENDBRANCH   9  10
ENDBRANCH   8   9
ENDBRANCH   7   8
ENDBRANCH   6   7
ENDBRANCH   5   6
ENDBRANCH   4   5
ENDBRANCH   3   4
ENDBRANCH   2   3
ENDBRANCH   1   2
BRANCH   1  17
ATOM     17  C   UNL     1      -4.299  12.631 -17.412  1.00  0.00     0.000 C 
BRANCH  17  18
ATOM     18  C   UNL     1      -5.783  12.311 -17.647  1.00  0.00     0.000 C 
BRANCH  18  19
ATOM     19  C   UNL     1      -6.045  11.755 -19.057  1.00  0.00     0.000 C 
BRANCH  19  20
ATOM     20  C   UNL     1      -7.437  11.111 -19.186  1.00  0.00     0.000 C 
BRANCH  20  21
ATOM     21  C   UNL     1      -7.821  10.272 -17.956  1.00  0.00     0.000 C 
BRANCH  21  22
ATOM     22  C   UNL     1      -8.539   8.965 -18.329  1.00  0.00    -0.000 C 
BRANCH  22  23
ATOM     23  C   UNL     1      -7.691   8.065 -19.240  1.00  0.00    -0.000 C 
BRANCH  23  24
ATOM     24  C   UNL     1      -7.260   6.756 -18.555  1.00  0.00    -0.000 C 
BRANCH  24  25
ATOM     25  C   UNL     1      -7.254   5.562 -19.535  1.00  0.00    -0.000 C 
BRANCH  25  26
ATOM     26  C   UNL     1      -8.654   4.987 -19.805  1.00  0.00    -0.000 C 
BRANCH  26  27
ATOM     27  C   UNL     1      -8.764   4.302 -21.176  1.00  0.00    -0.000 C 
BRANCH  27  28
ATOM     28  C   UNL     1      -7.439   3.632 -21.601  1.00  0.00    -0.000 C 
BRANCH  28  29
ATOM     29  C   UNL     1      -7.001   3.994 -23.032  1.00  0.00    -0.003 C 
ATOM     30  C   UNL     1      -6.173   5.276 -23.096  1.00  0.00     0.004 C 
ENDBRANCH  28  29
ENDBRANCH  27  28
ENDBRANCH  26  27
ENDBRANCH  25  26
ENDBRANCH  24  25
ENDBRANCH  23  24
ENDBRANCH  22  23
ENDBRANCH  21  22
ENDBRANCH  20  21
ENDBRANCH  19  20
ENDBRANCH  18  19
ENDBRANCH  17  18
ENDBRANCH   1  17
TORSDOF 26
ENDMDL
MODEL 5
REMARK VINA RESULT:    17.742      1.185      1.970
REMARK INTER + INTRA:          44.043
REMARK INTER:                  45.571
REMARK INTRA:                  -1.528
REMARK UNBOUND:                -0.667
REMARK SMILES CCCCCCCCCCCCCCCCCCCCCCCCCCCC(=O)[O-]
REMARK SMILES IDX 15 1 16 2 17 3 18 4 19 5 20 6 21 7 22 8 23 9 24 10 25 11
REMARK SMILES IDX 26 12 27 13 28 14 29 15 30 16 14 17 13 18 12 19 11 20 10 21
REMARK SMILES IDX 9 22 8 23 7 24 6 25 5 26 4 27 3 28 2 29 1 30
REMARK H PARENT
REMARK Flexibility Score: inf
ROOT
ATOM      1  C   UNL     1      -6.971  15.372 -15.442  1.00  0.00     0.000 C 
ENDROOT
BRANCH   1   2
ATOM      2  C   UNL     1      -6.083  14.136 -15.230  1.00  0.00     0.000 C 
BRANCH   2   3
ATOM      3  C   UNL     1      -5.277  13.691 -16.464  1.00  0.00     0.000 C 
BRANCH   3   4
ATOM      4  C   UNL     1      -6.143  13.366 -17.698  1.00  0.00     0.000 C 
BRANCH   4   5
ATOM      5  C   UNL     1      -6.384  11.854 -17.875  1.00  0.00     0.000 C 
BRANCH   5   6
ATOM      6  C   UNL     1      -7.326  11.271 -16.808  1.00  0.00     0.000 C 
BRANCH   6   7
ATOM      7  C   UNL     1      -7.844   9.868 -17.169  1.00  0.00     0.000 C 
BRANCH   7   8
ATOM      8  C   UNL     1      -8.541   9.841 -18.540  1.00  0.00     0.000 C 
BRANCH   8   9
ATOM      9  C   UNL     1      -8.066   8.671 -19.418  1.00  0.00     0.000 C 
BRANCH   9  10
ATOM     10  C   UNL     1      -8.059   7.339 -18.650  1.00  0.00     0.000 C 
BRANCH  10  11
ATOM     11  C   UNL     1      -7.362   6.217 -19.434  1.00  0.00     0.000 C 
BRANCH  11  12
ATOM     12  C   UNL     1      -8.302   5.021 -19.635  1.00  0.00     0.006 C 
BRANCH  12  13
ATOM     13  C   UNL     1      -7.964   4.268 -20.927  1.00  0.00     0.053 C 
BRANCH  13  14
ATOM     14  C   UNL     1      -8.824   4.739 -22.056  1.00  0.00     0.041 C 
ATOM     15  O   UNL     1      -9.179   5.947 -22.123  1.00  0.00    -0.550 OA
ATOM     16  O   UNL     1      -9.236   3.846 -23.038  1.00  0.00    -0.550 OA
ENDBRANCH  13  14
ENDBRANCH  12  13
ENDBRANCH  11  12
ENDBRANCH  10  11
ENDBRANCH   9  10
ENDBRANCH   8   9
ENDBRANCH   7   8
ENDBRANCH   6   7
ENDBRANCH   5   6
ENDBRANCH   4   5
ENDBRANCH   3   4
ENDBRANCH   2   3
ENDBRANCH   1   2
BRANCH   1  17
ATOM     17  C   UNL     1      -7.972  15.588 -14.297  1.00  0.00     0.000 C 
BRANCH  17  18
ATOM     18  C   UNL     1      -8.250  17.083 -14.081  1.00  0.00     0.000 C 
BRANCH  18  19
ATOM     19  C   UNL     1      -9.687  17.347 -13.598  1.00  0.00     0.000 C 
BRANCH  19  20
ATOM     20  C   UNL     1     -10.281  18.634 -14.199  1.00  0.00     0.000 C 
BRANCH  20  21
ATOM     21  C   UNL     1     -11.811  18.701 -14.065  1.00  0.00     0.000 C 
BRANCH  21  22
ATOM     22  C   UNL     1     -12.290  19.977 -13.353  1.00  0.00    -0.000 C 
BRANCH  22  23
ATOM     23  C   UNL     1     -12.401  19.796 -11.831  1.00  0.00    -0.000 C 
BRANCH  23  24
ATOM     24  C   UNL     1     -13.399  18.695 -11.430  1.00  0.00    -0.000 C 
BRANCH  24  25
ATOM     25  C   UNL     1     -12.769  17.662 -10.470  1.00  0.00    -0.000 C 
BRANCH  25  26
ATOM     26  C   UNL     1     -12.475  18.229  -9.071  1.00  0.00    -0.000 C 
BRANCH  26  27
ATOM     27  C   UNL     1     -13.649  19.034  -8.494  1.00  0.00    -0.000 C 
BRANCH  27  28
ATOM     28  C   UNL     1     -13.193  20.037  -7.412  1.00  0.00    -0.000 C 
BRANCH  28  29
ATOM     29  C   UNL     1     -12.509  21.290  -7.987  1.00  0.00    -0.003 C 
ATOM     30  C   UNL     1     -10.999  21.303  -7.761  1.00  0.00     0.004 C 
ENDBRANCH  28  29
ENDBRANCH  27  28
ENDBRANCH  26  27
ENDBRANCH  25  26
ENDBRANCH  24  25
ENDBRANCH  23  24
ENDBRANCH  22  23
ENDBRANCH  21  22
ENDBRANCH  20  21
ENDBRANCH  19  20
ENDBRANCH  18  19
ENDBRANCH  17  18
ENDBRANCH   1  17
TORSDOF 26
ENDMDL
