MODEL 1
REMARK VINA RESULT:    -7.870      0.000      0.000
REMARK INTER + INTRA:         -11.534
REMARK INTER:                 -10.400
REMARK INTRA:                  -1.134
REMARK UNBOUND:                -1.134
REMARK SMILES CC[C@H](C=C[C@H](C)[C@@H]1CC[C@H]2C3=CC[C@@H]4C[C@@H](O)CC[C@]4(C)[C@H]3CC[C@]21C)C(C)C
REMARK SMILES IDX 6 1 7 2 5 3 4 4 3 5 2 6 1 7 28 8 29 9 30 10 8 11 9 12 26 13
REMARK SMILES IDX 10 14 11 15 25 16 27 17 12 18 24 19 23 20 13 21 21 22 14 23
REMARK SMILES IDX 15 24 20 25 22 26 16 27 19 28 17 29 18 30
REMARK H PARENT 18 31
REMARK Flexibility Score: inf
ROOT
ATOM      1  C   UNL     1       2.297  18.409  47.600  1.00  0.00     0.012 C 
ATOM      2  C   UNL     1       2.059  19.917  47.419  1.00  0.00     0.012 C 
ENDROOT
BRANCH   1   3
ATOM      3  C   UNL     1       0.966  17.688  47.527  1.00  0.00    -0.028 C 
ATOM      4  C   UNL     1      -0.156  18.335  47.169  1.00  0.00    -0.027 C 
BRANCH   4   5
ATOM      5  C   UNL     1      -1.496  17.628  47.114  1.00  0.00     0.014 C 
BRANCH   5   6
ATOM      6  C   UNL     1      -1.290  16.232  46.464  1.00  0.00     0.004 C 
ATOM      7  C   UNL     1      -1.137  16.260  44.943  1.00  0.00     0.004 C 
ENDBRANCH   5   6
BRANCH   5   8
ATOM      8  C   UNL     1      -2.152  17.629  48.536  1.00  0.00    -0.011 C 
ATOM      9  C   UNL     1      -1.644  16.493  49.437  1.00  0.00     0.008 C 
ATOM     10  C   UNL     1      -2.059  18.983  49.256  1.00  0.00     0.008 C 
ENDBRANCH   5   8
ENDBRANCH   4   5
ENDBRANCH   1   3
BRANCH   1  11
ATOM     11  C   UNL     1       3.389  17.894  46.602  1.00  0.00     0.002 C 
ATOM     12  C   UNL     1       3.077  16.574  45.898  1.00  0.00     0.005 C 
ATOM     13  C   UNL     1       4.869  17.778  47.109  1.00  0.00    -0.023 C 
ATOM     14  C   UNL     1       4.393  16.179  45.258  1.00  0.00     0.009 C 
ATOM     15  C   UNL     1       5.474  16.607  46.255  1.00  0.00     0.021 C 
ATOM     16  C   UNL     1       5.615  19.136  46.923  1.00  0.00     0.008 C 
ATOM     17  C   UNL     1       4.960  17.396  48.610  1.00  0.00     0.012 C 
ATOM     18  C   UNL     1       6.796  16.895  45.549  1.00  0.00    -0.067 C 
ATOM     19  C   UNL     1       6.151  19.329  45.503  1.00  0.00     0.009 C 
ATOM     20  C   UNL     1       7.262  18.302  45.213  1.00  0.00     0.021 C 
ATOM     21  C   UNL     1       7.618  15.875  45.247  1.00  0.00    -0.027 C 
ATOM     22  C   UNL     1       7.885  18.377  43.755  1.00  0.00    -0.023 C 
ATOM     23  C   UNL     1       8.971  16.159  44.673  1.00  0.00     0.031 C 
ATOM     24  C   UNL     1       8.869  17.146  43.491  1.00  0.00     0.002 C 
ATOM     25  C   UNL     1       8.651  19.729  43.611  1.00  0.00     0.010 C 
ATOM     26  C   UNL     1       6.760  18.337  42.684  1.00  0.00     0.012 C 
ATOM     27  C   UNL     1      10.293  17.572  43.071  1.00  0.00     0.036 C 
ATOM     28  C   UNL     1       9.446  19.857  42.298  1.00  0.00     0.032 C 
ATOM     29  C   UNL     1      10.266  18.600  41.931  1.00  0.00     0.114 C 
BRANCH  29  30
ATOM     30  O   UNL     1       9.739  18.015  40.767  1.00  0.00    -0.393 OA
ATOM     31  H   UNL     1       9.737  18.718  40.065  1.00  0.00     0.210 HD
ENDBRANCH  29  30
ENDBRANCH   1  11
TORSDOF 6
ENDMDL
MODEL 2
REMARK VINA RESULT:    -7.786      3.306      9.397
REMARK INTER + INTRA:         -11.423
REMARK INTER:                 -10.331
REMARK INTRA:                  -1.092
REMARK UNBOUND:                -1.134
REMARK SMILES CC[C@H](C=C[C@H](C)[C@@H]1CC[C@H]2C3=CC[C@@H]4C[C@@H](O)CC[C@]4(C)[C@H]3CC[C@]21C)C(C)C
REMARK SMILES IDX 6 1 7 2 5 3 4 4 3 5 2 6 1 7 28 8 29 9 30 10 8 11 9 12 26 13
REMARK SMILES IDX 10 14 11 15 25 16 27 17 12 18 24 19 23 20 13 21 21 22 14 23
REMARK SMILES IDX 15 24 20 25 22 26 16 27 19 28 17 29 18 30
REMARK H PARENT 18 31
REMARK Flexibility Score: inf
ROOT
ATOM      1  C   UNL     1       5.961  18.686  45.011  1.00  0.00     0.012 C 
ATOM      2  C   UNL     1       5.805  17.254  44.472  1.00  0.00     0.012 C 
ENDROOT
BRANCH   1   3
ATOM      3  C   UNL     1       6.670  19.530  43.969  1.00  0.00    -0.028 C 
ATOM      4  C   UNL     1       6.566  19.248  42.659  1.00  0.00    -0.027 C 
BRANCH   4   5
ATOM      5  C   UNL     1       7.288  20.073  41.612  1.00  0.00     0.014 C 
BRANCH   5   6
ATOM      6  C   UNL     1       8.578  19.316  41.191  1.00  0.00     0.004 C 
ATOM      7  C   UNL     1       9.830  19.721  41.969  1.00  0.00     0.004 C 
ENDBRANCH   5   6
BRANCH   5   8
ATOM      8  C   UNL     1       6.299  20.435  40.453  1.00  0.00    -0.011 C 
ATOM      9  C   UNL     1       5.285  21.522  40.841  1.00  0.00     0.008 C 
ATOM     10  C   UNL     1       6.999  20.785  39.132  1.00  0.00     0.008 C 
ENDBRANCH   5   8
ENDBRANCH   4   5
ENDBRANCH   1   3
BRANCH   1  11
ATOM     11  C   UNL     1       4.583  19.250  45.498  1.00  0.00     0.002 C 
ATOM     12  C   UNL     1       4.282  20.697  45.110  1.00  0.00     0.005 C 
ATOM     13  C   UNL     1       4.222  19.124  47.019  1.00  0.00    -0.023 C 
ATOM     14  C   UNL     1       3.072  21.058  45.950  1.00  0.00     0.009 C 
ATOM     15  C   UNL     1       3.286  20.355  47.293  1.00  0.00     0.021 C 
ATOM     16  C   UNL     1       3.541  17.749  47.304  1.00  0.00     0.008 C 
ATOM     17  C   UNL     1       5.464  19.229  47.942  1.00  0.00     0.012 C 
ATOM     18  C   UNL     1       1.957  20.059  47.981  1.00  0.00    -0.067 C 
ATOM     19  C   UNL     1       2.045  17.749  46.981  1.00  0.00     0.009 C 
ATOM     20  C   UNL     1       1.296  18.690  47.944  1.00  0.00     0.021 C 
ATOM     21  C   UNL     1       1.354  21.025  48.694  1.00  0.00    -0.027 C 
ATOM     22  C   UNL     1      -0.267  18.804  47.696  1.00  0.00    -0.023 C 
ATOM     23  C   UNL     1       0.118  20.706  49.478  1.00  0.00     0.031 C 
ATOM     24  C   UNL     1      -0.907  19.953  48.602  1.00  0.00     0.002 C 
ATOM     25  C   UNL     1      -0.923  17.425  48.019  1.00  0.00     0.010 C 
ATOM     26  C   UNL     1      -0.554  19.144  46.207  1.00  0.00     0.012 C 
ATOM     27  C   UNL     1      -2.064  19.462  49.500  1.00  0.00     0.036 C 
ATOM     28  C   UNL     1      -2.462  17.444  47.980  1.00  0.00     0.032 C 
ATOM     29  C   UNL     1      -3.098  18.654  48.701  1.00  0.00     0.114 C 
BRANCH  29  30
ATOM     30  O   UNL     1      -3.735  19.482  47.762  1.00  0.00    -0.393 OA
ATOM     31  H   UNL     1      -4.050  18.895  47.025  1.00  0.00     0.210 HD
ENDBRANCH  29  30
ENDBRANCH   1  11
TORSDOF 6
ENDMDL
MODEL 3
REMARK VINA RESULT:    -7.468      3.197      9.300
REMARK INTER + INTRA:         -11.003
REMARK INTER:                 -10.015
REMARK INTRA:                  -0.988
REMARK UNBOUND:                -1.134
REMARK SMILES CC[C@H](C=C[C@H](C)[C@@H]1CC[C@H]2C3=CC[C@@H]4C[C@@H](O)CC[C@]4(C)[C@H]3CC[C@]21C)C(C)C
REMARK SMILES IDX 6 1 7 2 5 3 4 4 3 5 2 6 1 7 28 8 29 9 30 10 8 11 9 12 26 13
REMARK SMILES IDX 10 14 11 15 25 16 27 17 12 18 24 19 23 20 13 21 21 22 14 23
REMARK SMILES IDX 15 24 20 25 22 26 16 27 19 28 17 29 18 30
REMARK H PARENT 18 31
REMARK Flexibility Score: inf
ROOT
ATOM      1  C   UNL     1       6.021  18.137  45.196  1.00  0.00     0.012 C 
ATOM      2  C   UNL     1       5.811  16.663  44.814  1.00  0.00     0.012 C 
ENDROOT
BRANCH   1   3
ATOM      3  C   UNL     1       6.766  18.836  44.074  1.00  0.00    -0.028 C 
ATOM      4  C   UNL     1       6.337  18.759  42.803  1.00  0.00    -0.027 C 
BRANCH   4   5
ATOM      5  C   UNL     1       7.085  19.436  41.672  1.00  0.00     0.014 C 
BRANCH   5   6
ATOM      6  C   UNL     1       6.136  20.463  40.997  1.00  0.00     0.004 C 
ATOM      7  C   UNL     1       6.300  20.573  39.481  1.00  0.00     0.004 C 
ENDBRANCH   5   6
BRANCH   5   8
ATOM      8  C   UNL     1       8.442  20.008  42.206  1.00  0.00    -0.011 C 
ATOM      9  C   UNL     1       9.670  19.395  41.516  1.00  0.00     0.008 C 
ATOM     10  C   UNL     1       8.512  21.542  42.191  1.00  0.00     0.008 C 
ENDBRANCH   5   8
ENDBRANCH   4   5
ENDBRANCH   1   3
BRANCH   1  11
ATOM     11  C   UNL     1       4.666  18.804  45.611  1.00  0.00     0.002 C 
ATOM     12  C   UNL     1       4.438  20.225  45.097  1.00  0.00     0.005 C 
ATOM     13  C   UNL     1       4.279  18.824  47.131  1.00  0.00    -0.023 C 
ATOM     14  C   UNL     1       3.237  20.711  45.884  1.00  0.00     0.009 C 
ATOM     15  C   UNL     1       3.399  20.116  47.285  1.00  0.00     0.021 C 
ATOM     16  C   UNL     1       3.530  17.510  47.519  1.00  0.00     0.008 C 
ATOM     17  C   UNL     1       5.513  18.949  48.063  1.00  0.00     0.012 C 
ATOM     18  C   UNL     1       2.049  19.940  47.973  1.00  0.00    -0.067 C 
ATOM     19  C   UNL     1       2.041  17.552  47.172  1.00  0.00     0.009 C 
ATOM     20  C   UNL     1       1.325  18.605  48.040  1.00  0.00     0.021 C 
ATOM     21  C   UNL     1       1.483  20.990  48.592  1.00  0.00    -0.027 C 
ATOM     22  C   UNL     1      -0.228  18.770  47.756  1.00  0.00    -0.023 C 
ATOM     23  C   UNL     1       0.224  20.796  49.378  1.00  0.00     0.031 C 
ATOM     24  C   UNL     1      -0.824  20.020  48.552  1.00  0.00     0.002 C 
ATOM     25  C   UNL     1      -0.953  17.454  48.183  1.00  0.00     0.010 C 
ATOM     26  C   UNL     1      -0.479  18.996  46.240  1.00  0.00     0.012 C 
ATOM     27  C   UNL     1      -2.015  19.660  49.468  1.00  0.00     0.036 C 
ATOM     28  C   UNL     1      -2.489  17.541  48.116  1.00  0.00     0.032 C 
ATOM     29  C   UNL     1      -3.076  18.836  48.723  1.00  0.00     0.114 C 
BRANCH  29  30
ATOM     30  O   UNL     1      -3.661  19.610  47.706  1.00  0.00    -0.393 OA
ATOM     31  H   UNL     1      -3.311  20.534  47.810  1.00  0.00     0.210 HD
ENDBRANCH  29  30
ENDBRANCH   1  11
TORSDOF 6
ENDMDL
MODEL 4
REMARK VINA RESULT:    -7.395      6.214      9.972
REMARK INTER + INTRA:         -10.907
REMARK INTER:                 -10.016
REMARK INTRA:                  -0.891
REMARK UNBOUND:                -1.134
REMARK SMILES CC[C@H](C=C[C@H](C)[C@@H]1CC[C@H]2C3=CC[C@@H]4C[C@@H](O)CC[C@]4(C)[C@H]3CC[C@]21C)C(C)C
REMARK SMILES IDX 6 1 7 2 5 3 4 4 3 5 2 6 1 7 28 8 29 9 30 10 8 11 9 12 26 13
REMARK SMILES IDX 10 14 11 15 25 16 27 17 12 18 24 19 23 20 13 21 21 22 14 23
REMARK SMILES IDX 15 24 20 25 22 26 16 27 19 28 17 29 18 30
REMARK H PARENT 18 31
REMARK Flexibility Score: inf
ROOT
ATOM      1  C   UNL     1       1.110  25.047  50.403  1.00  0.00     0.012 C 
ATOM      2  C   UNL     1       1.630  26.112  49.424  1.00  0.00     0.012 C 
ENDROOT
BRANCH   1   3
ATOM      3  C   UNL     1       0.401  25.739  51.551  1.00  0.00    -0.028 C 
ATOM      4  C   UNL     1      -0.606  26.600  51.327  1.00  0.00    -0.027 C 
BRANCH   4   5
ATOM      5  C   UNL     1      -1.307  27.312  52.467  1.00  0.00     0.014 C 
BRANCH   5   6
ATOM      6  C   UNL     1      -1.579  28.781  52.040  1.00  0.00     0.004 C 
ATOM      7  C   UNL     1      -1.201  29.097  50.593  1.00  0.00     0.004 C 
ENDBRANCH   5   6
BRANCH   5   8
ATOM      8  C   UNL     1      -2.562  26.486  52.911  1.00  0.00    -0.011 C 
ATOM      9  C   UNL     1      -3.202  25.694  51.761  1.00  0.00     0.008 C 
ATOM     10  C   UNL     1      -2.306  25.580  54.125  1.00  0.00     0.008 C 
ENDBRANCH   5   8
ENDBRANCH   4   5
ENDBRANCH   1   3
BRANCH   1  11
ATOM     11  C   UNL     1       0.262  23.967  49.651  1.00  0.00     0.002 C 
ATOM     12  C   UNL     1      -1.050  24.457  49.040  1.00  0.00     0.005 C 
ATOM     13  C   UNL     1      -0.079  22.631  50.400  1.00  0.00    -0.023 C 
ATOM     14  C   UNL     1      -1.779  23.182  48.664  1.00  0.00     0.009 C 
ATOM     15  C   UNL     1      -1.448  22.182  49.776  1.00  0.00     0.021 C 
ATOM     16  C   UNL     1       1.067  21.590  50.205  1.00  0.00     0.008 C 
ATOM     17  C   UNL     1      -0.271  22.832  51.926  1.00  0.00     0.012 C 
ATOM     18  C   UNL     1      -1.525  20.745  49.269  1.00  0.00    -0.067 C 
ATOM     19  C   UNL     1       0.962  20.835  48.878  1.00  0.00     0.009 C 
ATOM     20  C   UNL     1      -0.295  19.943  48.875  1.00  0.00     0.021 C 
ATOM     21  C   UNL     1      -2.718  20.130  49.206  1.00  0.00    -0.027 C 
ATOM     22  C   UNL     1      -0.537  19.124  47.538  1.00  0.00    -0.023 C 
ATOM     23  C   UNL     1      -2.786  18.681  48.835  1.00  0.00     0.031 C 
ATOM     24  C   UNL     1      -1.962  18.403  47.559  1.00  0.00     0.002 C 
ATOM     25  C   UNL     1       0.606  18.071  47.387  1.00  0.00     0.010 C 
ATOM     26  C   UNL     1      -0.492  20.072  46.308  1.00  0.00     0.012 C 
ATOM     27  C   UNL     1      -1.887  16.877  47.337  1.00  0.00     0.036 C 
ATOM     28  C   UNL     1       0.400  17.094  46.214  1.00  0.00     0.032 C 
ATOM     29  C   UNL     1      -1.032  16.523  46.111  1.00  0.00     0.114 C 
BRANCH  29  30
ATOM     30  O   UNL     1      -1.648  16.999  44.941  1.00  0.00    -0.393 OA
ATOM     31  H   UNL     1      -1.662  16.245  44.294  1.00  0.00     0.210 HD
ENDBRANCH  29  30
ENDBRANCH   1  11
TORSDOF 6
ENDMDL
MODEL 5
REMARK VINA RESULT:    -7.020      1.097      1.919
REMARK INTER + INTRA:         -10.411
REMARK INTER:                  -9.260
REMARK INTRA:                  -1.151
REMARK UNBOUND:                -1.134
REMARK SMILES CC[C@H](C=C[C@H](C)[C@@H]1CC[C@H]2C3=CC[C@@H]4C[C@@H](O)CC[C@]4(C)[C@H]3CC[C@]21C)C(C)C
REMARK SMILES IDX 6 1 7 2 5 3 4 4 3 5 2 6 1 7 28 8 29 9 30 10 8 11 9 12 26 13
REMARK SMILES IDX 10 14 11 15 25 16 27 17 12 18 24 19 23 20 13 21 21 22 14 23
REMARK SMILES IDX 15 24 20 25 22 26 16 27 19 28 17 29 18 30
REMARK H PARENT 18 31
REMARK Flexibility Score: inf
ROOT
ATOM      1  C   UNL     1       3.043  19.864  47.187  1.00  0.00     0.012 C 
ATOM      2  C   UNL     1       2.555  20.992  46.264  1.00  0.00     0.012 C 
ENDROOT
BRANCH   1   3
ATOM      3  C   UNL     1       1.840  19.181  47.808  1.00  0.00    -0.028 C 
ATOM      4  C   UNL     1       0.589  19.532  47.467  1.00  0.00    -0.027 C 
BRANCH   4   5
ATOM      5  C   UNL     1      -0.621  18.870  48.098  1.00  0.00     0.014 C 
BRANCH   5   6
ATOM      6  C   UNL     1      -1.852  19.796  47.898  1.00  0.00     0.004 C 
ATOM      7  C   UNL     1      -2.375  20.435  49.184  1.00  0.00     0.004 C 
ENDBRANCH   5   6
BRANCH   5   8
ATOM      8  C   UNL     1      -0.767  17.410  47.549  1.00  0.00    -0.011 C 
ATOM      9  C   UNL     1      -1.906  16.625  48.218  1.00  0.00     0.008 C 
ATOM     10  C   UNL     1      -0.875  17.335  46.019  1.00  0.00     0.008 C 
ENDBRANCH   5   8
ENDBRANCH   4   5
ENDBRANCH   1   3
BRANCH   1  11
ATOM     11  C   UNL     1       4.030  18.913  46.429  1.00  0.00     0.002 C 
ATOM     12  C   UNL     1       3.516  17.500  46.155  1.00  0.00     0.005 C 
ATOM     13  C   UNL     1       5.484  18.745  46.994  1.00  0.00    -0.023 C 
ATOM     14  C   UNL     1       4.749  16.740  45.709  1.00  0.00     0.009 C 
ATOM     15  C   UNL     1       5.897  17.293  46.560  1.00  0.00     0.021 C 
ATOM     16  C   UNL     1       6.421  19.855  46.424  1.00  0.00     0.008 C 
ATOM     17  C   UNL     1       5.541  18.835  48.541  1.00  0.00     0.012 C 
ATOM     18  C   UNL     1       7.236  17.153  45.841  1.00  0.00    -0.067 C 
ATOM     19  C   UNL     1       6.957  19.522  45.030  1.00  0.00     0.009 C 
ATOM     20  C   UNL     1       7.900  18.304  45.104  1.00  0.00     0.021 C 
ATOM     21  C   UNL     1       7.892  15.982  45.892  1.00  0.00    -0.027 C 
ATOM     22  C   UNL     1       8.504  17.835  43.714  1.00  0.00    -0.023 C 
ATOM     23  C   UNL     1       9.264  15.875  45.302  1.00  0.00     0.031 C 
ATOM     24  C   UNL     1       9.291  16.454  43.871  1.00  0.00     0.002 C 
ATOM     25  C   UNL     1       9.460  18.951  43.186  1.00  0.00     0.010 C 
ATOM     26  C   UNL     1       7.370  17.631  42.673  1.00  0.00     0.012 C 
ATOM     27  C   UNL     1      10.756  16.517  43.386  1.00  0.00     0.036 C 
ATOM     28  C   UNL     1      10.245  18.551  41.922  1.00  0.00     0.032 C 
ATOM     29  C   UNL     1      10.864  17.137  41.985  1.00  0.00     0.114 C 
BRANCH  29  30
ATOM     30  O   UNL     1      10.238  16.305  41.041  1.00  0.00    -0.393 OA
ATOM     31  H   UNL     1      10.580  15.385  41.195  1.00  0.00     0.210 HD
ENDBRANCH  29  30
ENDBRANCH   1  11
TORSDOF 6
ENDMDL
MODEL 6
REMARK VINA RESULT:    -6.911      3.643      6.622
REMARK INTER + INTRA:         -10.267
REMARK INTER:                  -9.182
REMARK INTRA:                  -1.085
REMARK UNBOUND:                -1.134
REMARK SMILES CC[C@H](C=C[C@H](C)[C@@H]1CC[C@H]2C3=CC[C@@H]4C[C@@H](O)CC[C@]4(C)[C@H]3CC[C@]21C)C(C)C
REMARK SMILES IDX 6 1 7 2 5 3 4 4 3 5 2 6 1 7 28 8 29 9 30 10 8 11 9 12 26 13
REMARK SMILES IDX 10 14 11 15 25 16 27 17 12 18 24 19 23 20 13 21 21 22 14 23
REMARK SMILES IDX 15 24 20 25 22 26 16 27 19 28 17 29 18 30
REMARK H PARENT 18 31
REMARK Flexibility Score: inf
ROOT
ATOM      1  C   UNL     1      -1.555  20.805  49.130  1.00  0.00     0.012 C 
ATOM      2  C   UNL     1      -2.244  19.434  49.214  1.00  0.00     0.012 C 
ENDROOT
BRANCH   1   3
ATOM      3  C   UNL     1      -2.050  21.676  50.269  1.00  0.00    -0.028 C 
ATOM      4  C   UNL     1      -2.278  22.988  50.091  1.00  0.00    -0.027 C 
BRANCH   4   5
ATOM      5  C   UNL     1      -2.752  23.871  51.228  1.00  0.00     0.014 C 
BRANCH   5   6
ATOM      6  C   UNL     1      -1.778  23.701  52.426  1.00  0.00     0.004 C 
ATOM      7  C   UNL     1      -1.689  24.918  53.346  1.00  0.00     0.004 C 
ENDBRANCH   5   6
BRANCH   5   8
ATOM      8  C   UNL     1      -2.949  25.336  50.711  1.00  0.00    -0.011 C 
ATOM      9  C   UNL     1      -2.359  25.567  49.311  1.00  0.00     0.008 C 
ATOM     10  C   UNL     1      -4.404  25.825  50.780  1.00  0.00     0.008 C 
ENDBRANCH   5   8
ENDBRANCH   4   5
ENDBRANCH   1   3
BRANCH   1  11
ATOM     11  C   UNL     1       0.001  20.642  49.045  1.00  0.00     0.002 C 
ATOM     12  C   UNL     1       0.819  21.603  49.907  1.00  0.00     0.005 C 
ATOM     13  C   UNL     1       0.675  20.647  47.629  1.00  0.00    -0.023 C 
ATOM     14  C   UNL     1       2.238  21.430  49.403  1.00  0.00     0.009 C 
ATOM     15  C   UNL     1       2.111  21.226  47.891  1.00  0.00     0.021 C 
ATOM     16  C   UNL     1       0.684  19.207  47.027  1.00  0.00     0.008 C 
ATOM     17  C   UNL     1      -0.056  21.570  46.619  1.00  0.00     0.012 C 
ATOM     18  C   UNL     1       3.281  20.416  47.341  1.00  0.00    -0.067 C 
ATOM     19  C   UNL     1       1.846  18.356  47.542  1.00  0.00     0.009 C 
ATOM     20  C   UNL     1       3.186  18.930  47.039  1.00  0.00     0.021 C 
ATOM     21  C   UNL     1       4.439  21.038  47.060  1.00  0.00    -0.027 C 
ATOM     22  C   UNL     1       4.479  18.151  47.530  1.00  0.00    -0.023 C 
ATOM     23  C   UNL     1       5.547  20.277  46.400  1.00  0.00     0.031 C 
ATOM     24  C   UNL     1       5.807  18.943  47.131  1.00  0.00     0.002 C 
ATOM     25  C   UNL     1       4.476  16.729  46.887  1.00  0.00     0.010 C 
ATOM     26  C   UNL     1       4.457  17.988  49.075  1.00  0.00     0.012 C 
ATOM     27  C   UNL     1       6.802  18.104  46.298  1.00  0.00     0.036 C 
ATOM     28  C   UNL     1       5.764  15.926  47.148  1.00  0.00     0.032 C 
ATOM     29  C   UNL     1       7.065  16.733  46.941  1.00  0.00     0.114 C 
BRANCH  29  30
ATOM     30  O   UNL     1       7.721  16.898  48.173  1.00  0.00    -0.393 OA
ATOM     31  H   UNL     1       8.676  17.079  47.970  1.00  0.00     0.210 HD
ENDBRANCH  29  30
ENDBRANCH   1  11
TORSDOF 6
ENDMDL
MODEL 7
REMARK VINA RESULT:    -6.835      6.173     10.559
REMARK INTER + INTRA:         -10.166
REMARK INTER:                  -8.778
REMARK INTRA:                  -1.389
REMARK UNBOUND:                -1.134
REMARK SMILES CC[C@H](C=C[C@H](C)[C@@H]1CC[C@H]2C3=CC[C@@H]4C[C@@H](O)CC[C@]4(C)[C@H]3CC[C@]21C)C(C)C
REMARK SMILES IDX 6 1 7 2 5 3 4 4 3 5 2 6 1 7 28 8 29 9 30 10 8 11 9 12 26 13
REMARK SMILES IDX 10 14 11 15 25 16 27 17 12 18 24 19 23 20 13 21 21 22 14 23
REMARK SMILES IDX 15 24 20 25 22 26 16 27 19 28 17 29 18 30
REMARK H PARENT 18 31
REMARK Flexibility Score: inf
ROOT
ATOM      1  C   UNL     1       0.961  20.319  47.214  1.00  0.00     0.012 C 
ATOM      2  C   UNL     1       2.497  20.331  47.272  1.00  0.00     0.012 C 
ENDROOT
BRANCH   1   3
ATOM      3  C   UNL     1       0.482  18.882  47.138  1.00  0.00    -0.028 C 
ATOM      4  C   UNL     1      -0.619  18.554  46.442  1.00  0.00    -0.027 C 
BRANCH   4   5
ATOM      5  C   UNL     1      -1.118  17.124  46.376  1.00  0.00     0.014 C 
BRANCH   5   6
ATOM      6  C   UNL     1       0.103  16.183  46.184  1.00  0.00     0.004 C 
ATOM      7  C   UNL     1       0.480  15.928  44.725  1.00  0.00     0.004 C 
ENDBRANCH   5   6
BRANCH   5   8
ATOM      8  C   UNL     1      -2.023  16.824  47.620  1.00  0.00    -0.011 C 
ATOM      9  C   UNL     1      -1.258  16.166  48.779  1.00  0.00     0.008 C 
ATOM     10  C   UNL     1      -2.820  18.042  48.110  1.00  0.00     0.008 C 
ENDBRANCH   5   8
ENDBRANCH   4   5
ENDBRANCH   1   3
BRANCH   1  11
ATOM     11  C   UNL     1       0.354  21.161  48.387  1.00  0.00     0.002 C 
ATOM     12  C   UNL     1      -0.172  20.361  49.578  1.00  0.00     0.005 C 
ATOM     13  C   UNL     1      -0.755  22.219  48.049  1.00  0.00    -0.023 C 
ATOM     14  C   UNL     1      -0.955  21.378  50.386  1.00  0.00     0.009 C 
ATOM     15  C   UNL     1      -1.627  22.288  49.354  1.00  0.00     0.021 C 
ATOM     16  C   UNL     1      -0.104  23.584  47.663  1.00  0.00     0.008 C 
ATOM     17  C   UNL     1      -1.660  21.783  46.868  1.00  0.00     0.012 C 
ATOM     18  C   UNL     1      -1.886  23.678  49.926  1.00  0.00    -0.067 C 
ATOM     19  C   UNL     1       0.282  24.424  48.882  1.00  0.00     0.009 C 
ATOM     20  C   UNL     1      -0.984  24.868  49.640  1.00  0.00     0.021 C 
ATOM     21  C   UNL     1      -2.979  23.889  50.678  1.00  0.00    -0.027 C 
ATOM     22  C   UNL     1      -0.719  25.726  50.948  1.00  0.00    -0.023 C 
ATOM     23  C   UNL     1      -3.308  25.277  51.134  1.00  0.00     0.031 C 
ATOM     24  C   UNL     1      -2.073  25.953  51.765  1.00  0.00     0.002 C 
ATOM     25  C   UNL     1      -0.099  27.096  50.527  1.00  0.00     0.010 C 
ATOM     26  C   UNL     1       0.291  24.998  51.877  1.00  0.00     0.012 C 
ATOM     27  C   UNL     1      -2.398  27.441  52.025  1.00  0.00     0.036 C 
ATOM     28  C   UNL     1       0.052  28.093  51.691  1.00  0.00     0.032 C 
ATOM     29  C   UNL     1      -1.190  28.193  52.604  1.00  0.00     0.114 C 
BRANCH  29  30
ATOM     30  O   UNL     1      -0.879  27.694  53.880  1.00  0.00    -0.393 OA
ATOM     31  H   UNL     1      -1.470  26.911  54.036  1.00  0.00     0.210 HD
ENDBRANCH  29  30
ENDBRANCH   1  11
TORSDOF 6
ENDMDL
MODEL 8
REMARK VINA RESULT:    -6.824      6.486     10.771
REMARK INTER + INTRA:         -10.153
REMARK INTER:                  -8.922
REMARK INTRA:                  -1.231
REMARK UNBOUND:                -1.134
REMARK SMILES CC[C@H](C=C[C@H](C)[C@@H]1CC[C@H]2C3=CC[C@@H]4C[C@@H](O)CC[C@]4(C)[C@H]3CC[C@]21C)C(C)C
REMARK SMILES IDX 6 1 7 2 5 3 4 4 3 5 2 6 1 7 28 8 29 9 30 10 8 11 9 12 26 13
REMARK SMILES IDX 10 14 11 15 25 16 27 17 12 18 24 19 23 20 13 21 21 22 14 23
REMARK SMILES IDX 15 24 20 25 22 26 16 27 19 28 17 29 18 30
REMARK H PARENT 18 31
REMARK Flexibility Score: inf
ROOT
ATOM      1  C   UNL     1      -0.064  20.713  47.478  1.00  0.00     0.012 C 
ATOM      2  C   UNL     1       0.749  21.172  46.256  1.00  0.00     0.012 C 
ENDROOT
BRANCH   1   3
ATOM      3  C   UNL     1       0.205  19.241  47.724  1.00  0.00    -0.028 C 
ATOM      4  C   UNL     1      -0.733  18.312  47.472  1.00  0.00    -0.027 C 
BRANCH   4   5
ATOM      5  C   UNL     1      -0.481  16.841  47.735  1.00  0.00     0.014 C 
BRANCH   5   6
ATOM      6  C   UNL     1      -1.531  16.335  48.762  1.00  0.00     0.004 C 
ATOM      7  C   UNL     1      -2.628  17.347  49.093  1.00  0.00     0.004 C 
ENDBRANCH   5   6
BRANCH   5   8
ATOM      8  C   UNL     1      -0.426  16.065  46.375  1.00  0.00    -0.011 C 
ATOM      9  C   UNL     1      -1.629  16.356  45.465  1.00  0.00     0.008 C 
ATOM     10  C   UNL     1       0.895  16.248  45.614  1.00  0.00     0.008 C 
ENDBRANCH   5   8
ENDBRANCH   4   5
ENDBRANCH   1   3
BRANCH   1  11
ATOM     11  C   UNL     1       0.196  21.652  48.704  1.00  0.00     0.002 C 
ATOM     12  C   UNL     1       1.239  21.161  49.708  1.00  0.00     0.005 C 
ATOM     13  C   UNL     1      -1.033  22.129  49.553  1.00  0.00    -0.023 C 
ATOM     14  C   UNL     1       1.061  22.079  50.901  1.00  0.00     0.009 C 
ATOM     15  C   UNL     1      -0.446  22.337  50.995  1.00  0.00     0.021 C 
ATOM     16  C   UNL     1      -1.649  23.424  48.938  1.00  0.00     0.008 C 
ATOM     17  C   UNL     1      -2.161  21.066  49.626  1.00  0.00     0.012 C 
ATOM     18  C   UNL     1      -0.738  23.678  51.660  1.00  0.00    -0.067 C 
ATOM     19  C   UNL     1      -0.905  24.693  49.360  1.00  0.00     0.009 C 
ATOM     20  C   UNL     1      -1.084  24.932  50.873  1.00  0.00     0.021 C 
ATOM     21  C   UNL     1      -0.740  23.763  53.001  1.00  0.00    -0.027 C 
ATOM     22  C   UNL     1      -0.334  26.207  51.447  1.00  0.00    -0.023 C 
ATOM     23  C   UNL     1      -1.152  25.041  53.663  1.00  0.00     0.031 C 
ATOM     24  C   UNL     1      -0.410  26.243  53.042  1.00  0.00     0.002 C 
ATOM     25  C   UNL     1      -0.992  27.486  50.839  1.00  0.00     0.010 C 
ATOM     26  C   UNL     1       1.164  26.184  51.033  1.00  0.00     0.012 C 
ATOM     27  C   UNL     1      -1.017  27.548  53.603  1.00  0.00     0.036 C 
ATOM     28  C   UNL     1      -0.467  28.801  51.443  1.00  0.00     0.032 C 
ATOM     29  C   UNL     1      -0.361  28.792  52.984  1.00  0.00     0.114 C 
BRANCH  29  30
ATOM     30  O   UNL     1       0.990  28.864  53.366  1.00  0.00    -0.393 OA
ATOM     31  H   UNL     1       1.495  28.270  52.752  1.00  0.00     0.210 HD
ENDBRANCH  29  30
ENDBRANCH   1  11
TORSDOF 6
ENDMDL
MODEL 9
REMARK VINA RESULT:    -6.779      3.187      9.016
REMARK INTER + INTRA:         -10.093
REMARK INTER:                  -8.933
REMARK INTRA:                  -1.160
REMARK UNBOUND:                -1.134
REMARK SMILES CC[C@H](C=C[C@H](C)[C@@H]1CC[C@H]2C3=CC[C@@H]4C[C@@H](O)CC[C@]4(C)[C@H]3CC[C@]21C)C(C)C
REMARK SMILES IDX 6 1 7 2 5 3 4 4 3 5 2 6 1 7 28 8 29 9 30 10 8 11 9 12 26 13
REMARK SMILES IDX 10 14 11 15 25 16 27 17 12 18 24 19 23 20 13 21 21 22 14 23
REMARK SMILES IDX 15 24 20 25 22 26 16 27 19 28 17 29 18 30
REMARK H PARENT 18 31
REMARK Flexibility Score: inf
ROOT
ATOM      1  C   UNL     1       6.033  19.978  47.727  1.00  0.00     0.012 C 
ATOM      2  C   UNL     1       6.291  20.806  48.995  1.00  0.00     0.012 C 
ENDROOT
BRANCH   1   3
ATOM      3  C   UNL     1       7.287  19.197  47.384  1.00  0.00    -0.028 C 
ATOM      4  C   UNL     1       7.542  18.812  46.122  1.00  0.00    -0.027 C 
BRANCH   4   5
ATOM      5  C   UNL     1       8.782  18.013  45.773  1.00  0.00     0.014 C 
BRANCH   5   6
ATOM      6  C   UNL     1       8.582  16.551  46.259  1.00  0.00     0.004 C 
ATOM      7  C   UNL     1       7.186  15.986  46.000  1.00  0.00     0.004 C 
ENDBRANCH   5   6
BRANCH   5   8
ATOM      8  C   UNL     1       9.110  18.189  44.251  1.00  0.00    -0.011 C 
ATOM      9  C   UNL     1       9.751  16.941  43.623  1.00  0.00     0.008 C 
ATOM     10  C   UNL     1       7.916  18.672  43.415  1.00  0.00     0.008 C 
ENDBRANCH   5   8
ENDBRANCH   4   5
ENDBRANCH   1   3
BRANCH   1  11
ATOM     11  C   UNL     1       4.734  19.116  47.880  1.00  0.00     0.002 C 
ATOM     12  C   UNL     1       4.938  17.691  48.395  1.00  0.00     0.005 C 
ATOM     13  C   UNL     1       3.767  19.000  46.650  1.00  0.00    -0.023 C 
ATOM     14  C   UNL     1       3.601  17.019  48.152  1.00  0.00     0.009 C 
ATOM     15  C   UNL     1       3.091  17.593  46.827  1.00  0.00     0.021 C 
ATOM     16  C   UNL     1       2.749  20.183  46.646  1.00  0.00     0.008 C 
ATOM     17  C   UNL     1       4.516  19.024  45.293  1.00  0.00     0.012 C 
ATOM     18  C   UNL     1       1.568  17.557  46.757  1.00  0.00    -0.067 C 
ATOM     19  C   UNL     1       1.554  19.941  47.570  1.00  0.00     0.009 C 
ATOM     20  C   UNL     1       0.701  18.774  47.035  1.00  0.00     0.021 C 
ATOM     21  C   UNL     1       0.951  16.421  46.389  1.00  0.00    -0.027 C 
ATOM     22  C   UNL     1      -0.561  18.400  47.923  1.00  0.00    -0.023 C 
ATOM     23  C   UNL     1      -0.533  16.414  46.192  1.00  0.00     0.031 C 
ATOM     24  C   UNL     1      -1.249  17.057  47.400  1.00  0.00     0.002 C 
ATOM     25  C   UNL     1      -1.573  19.588  47.873  1.00  0.00     0.010 C 
ATOM     26  C   UNL     1      -0.136  18.183  49.401  1.00  0.00     0.012 C 
ATOM     27  C   UNL     1      -2.748  17.219  47.062  1.00  0.00     0.036 C 
ATOM     28  C   UNL     1      -2.919  19.286  48.558  1.00  0.00     0.032 C 
ATOM     29  C   UNL     1      -3.515  17.906  48.202  1.00  0.00     0.114 C 
BRANCH  29  30
ATOM     30  O   UNL     1      -3.519  17.085  49.343  1.00  0.00    -0.393 OA
ATOM     31  H   UNL     1      -4.346  17.298  49.849  1.00  0.00     0.210 HD
ENDBRANCH  29  30
ENDBRANCH   1  11
TORSDOF 6
ENDMDL
