MODEL 1
REMARK VINA RESULT:    -5.448      0.000      0.000
REMARK INTER + INTRA:          -5.607
REMARK INTER:                  -5.607
REMARK INTRA:                   0.000
REMARK UNBOUND:                 0.000
REMARK SMILES O=c1ccc2ccc(O)cc2o1
REMARK SMILES IDX 6 1 7 2 8 3 10 4 11 5 5 6 4 7 3 8 2 9 1 10 12 11 9 12
REMARK H PARENT 9 13
REMARK Flexibility Score: inf
ROOT
ATOM      1  C   UNL     1     -20.487 -27.154 -19.134  1.00  0.00     0.016 A 
ATOM      2  C   UNL     1     -19.837 -26.023 -19.638  1.00  0.00     0.047 A 
ATOM      3  C   UNL     1     -20.142 -24.748 -19.137  1.00  0.00     0.119 A 
ATOM      4  C   UNL     1     -21.103 -24.607 -18.129  1.00  0.00     0.094 A 
ATOM      5  C   UNL     1     -21.758 -25.732 -17.618  1.00  0.00     0.142 A 
ATOM      6  C   UNL     1     -21.449 -27.015 -18.123  1.00  0.00     0.018 A 
ATOM      7  C   UNL     1     -22.121 -28.121 -17.593  1.00  0.00     0.019 A 
ATOM      8  C   UNL     1     -23.069 -27.928 -16.589  1.00  0.00     0.094 A 
ATOM      9  C   UNL     1     -23.324 -26.629 -16.138  1.00  0.00     0.336 A 
ATOM     10  O   UNL     1     -24.178 -26.435 -15.232  1.00  0.00    -0.246 OA
ATOM     11  O   UNL     1     -22.671 -25.593 -16.659  1.00  0.00    -0.423 OA
ENDROOT
BRANCH   3  12
ATOM     12  O   UNL     1     -19.499 -23.618 -19.636  1.00  0.00    -0.508 OA
ATOM     13  H   UNL     1     -19.875 -22.688 -19.492  1.00  0.00     0.293 HD
ENDBRANCH   3  12
TORSDOF 1
ENDMDL
MODEL 2
REMARK VINA RESULT:    -5.435     13.857     15.277
REMARK INTER + INTRA:          -5.594
REMARK INTER:                  -5.594
REMARK INTRA:                   0.000
REMARK UNBOUND:                 0.000
REMARK SMILES O=c1ccc2ccc(O)cc2o1
REMARK SMILES IDX 6 1 7 2 8 3 10 4 11 5 5 6 4 7 3 8 2 9 1 10 12 11 9 12
REMARK H PARENT 9 13
REMARK Flexibility Score: inf
ROOT
ATOM      1  C   UNL     1      -8.065 -23.644 -16.468  1.00  0.00     0.016 A 
ATOM      2  C   UNL     1      -7.150 -23.132 -15.542  1.00  0.00     0.047 A 
ATOM      3  C   UNL     1      -6.099 -22.306 -15.968  1.00  0.00     0.119 A 
ATOM      4  C   UNL     1      -5.964 -21.993 -17.326  1.00  0.00     0.094 A 
ATOM      5  C   UNL     1      -6.874 -22.500 -18.259  1.00  0.00     0.142 A 
ATOM      6  C   UNL     1      -7.932 -23.331 -17.828  1.00  0.00     0.018 A 
ATOM      7  C   UNL     1      -8.826 -23.824 -18.784  1.00  0.00     0.019 A 
ATOM      8  C   UNL     1      -8.650 -23.483 -20.125  1.00  0.00     0.094 A 
ATOM      9  C   UNL     1      -7.578 -22.655 -20.479  1.00  0.00     0.336 A 
ATOM     10  O   UNL     1      -7.402 -22.337 -21.685  1.00  0.00    -0.246 OA
ATOM     11  O   UNL     1      -6.742 -22.200 -19.549  1.00  0.00    -0.423 OA
ENDROOT
BRANCH   3  12
ATOM     12  O   UNL     1      -5.184 -21.793 -15.051  1.00  0.00    -0.508 OA
ATOM     13  H   UNL     1      -4.190 -21.782 -15.245  1.00  0.00     0.293 HD
ENDBRANCH   3  12
TORSDOF 1
ENDMDL
MODEL 3
REMARK VINA RESULT:    -5.098      0.804      4.221
REMARK INTER + INTRA:          -5.247
REMARK INTER:                  -5.247
REMARK INTRA:                   0.000
REMARK UNBOUND:                 0.000
REMARK SMILES O=c1ccc2ccc(O)cc2o1
REMARK SMILES IDX 6 1 7 2 8 3 10 4 11 5 5 6 4 7 3 8 2 9 1 10 12 11 9 12
REMARK H PARENT 9 13
REMARK Flexibility Score: inf
ROOT
ATOM      1  C   UNL     1     -22.206 -28.065 -17.636  1.00  0.00     0.016 A 
ATOM      2  C   UNL     1     -23.117 -27.869 -16.593  1.00  0.00     0.047 A 
ATOM      3  C   UNL     1     -23.301 -26.590 -16.044  1.00  0.00     0.119 A 
ATOM      4  C   UNL     1     -22.569 -25.506 -16.542  1.00  0.00     0.094 A 
ATOM      5  C   UNL     1     -21.656 -25.692 -17.585  1.00  0.00     0.142 A 
ATOM      6  C   UNL     1     -21.473 -26.980 -18.136  1.00  0.00     0.018 A 
ATOM      7  C   UNL     1     -20.552 -27.135 -19.178  1.00  0.00     0.019 A 
ATOM      8  C   UNL     1     -19.848 -26.023 -19.640  1.00  0.00     0.094 A 
ATOM      9  C   UNL     1     -20.081 -24.778 -19.046  1.00  0.00     0.336 A 
ATOM     10  O   UNL     1     -19.454 -23.763 -19.448  1.00  0.00    -0.246 OA
ATOM     11  O   UNL     1     -20.962 -24.657 -18.055  1.00  0.00    -0.423 OA
ENDROOT
BRANCH   3  12
ATOM     12  O   UNL     1     -24.206 -26.388 -15.005  1.00  0.00    -0.508 OA
ATOM     13  H   UNL     1     -24.367 -27.096 -14.298  1.00  0.00     0.293 HD
ENDBRANCH   3  12
TORSDOF 1
ENDMDL
MODEL 4
REMARK VINA RESULT:    -5.082     14.251     16.135
REMARK INTER + INTRA:          -5.231
REMARK INTER:                  -5.231
REMARK INTRA:                   0.000
REMARK UNBOUND:                 0.000
REMARK SMILES O=c1ccc2ccc(O)cc2o1
REMARK SMILES IDX 6 1 7 2 8 3 10 4 11 5 5 6 4 7 3 8 2 9 1 10 12 11 9 12
REMARK H PARENT 9 13
REMARK Flexibility Score: inf
ROOT
ATOM      1  C   UNL     1      -6.039 -21.835 -16.042  1.00  0.00     0.016 A 
ATOM      2  C   UNL     1      -6.803 -22.798 -15.374  1.00  0.00     0.047 A 
ATOM      3  C   UNL     1      -7.598 -23.699 -16.099  1.00  0.00     0.119 A 
ATOM      4  C   UNL     1      -7.628 -23.635 -17.497  1.00  0.00     0.094 A 
ATOM      5  C   UNL     1      -6.867 -22.676 -18.174  1.00  0.00     0.142 A 
ATOM      6  C   UNL     1      -6.067 -21.770 -17.442  1.00  0.00     0.018 A 
ATOM      7  C   UNL     1      -5.318 -20.822 -18.147  1.00  0.00     0.019 A 
ATOM      8  C   UNL     1      -5.381 -20.799 -19.540  1.00  0.00     0.094 A 
ATOM      9  C   UNL     1      -6.195 -21.727 -20.197  1.00  0.00     0.336 A 
ATOM     10  O   UNL     1      -6.266 -21.721 -21.455  1.00  0.00    -0.246 OA
ATOM     11  O   UNL     1      -6.899 -22.618 -19.503  1.00  0.00    -0.423 OA
ENDROOT
BRANCH   3  12
ATOM     12  O   UNL     1      -8.361 -24.660 -15.439  1.00  0.00    -0.508 OA
ATOM     13  H   UNL     1      -7.947 -25.296 -14.769  1.00  0.00     0.293 HD
ENDBRANCH   3  12
TORSDOF 1
ENDMDL
MODEL 5
REMARK VINA RESULT:    -5.064     13.860     15.125
REMARK INTER + INTRA:          -5.212
REMARK INTER:                  -5.212
REMARK INTRA:                   0.000
REMARK UNBOUND:                 0.000
REMARK SMILES O=c1ccc2ccc(O)cc2o1
REMARK SMILES IDX 6 1 7 2 8 3 10 4 11 5 5 6 4 7 3 8 2 9 1 10 12 11 9 12
REMARK H PARENT 9 13
REMARK Flexibility Score: inf
ROOT
ATOM      1  C   UNL     1      -8.863 -24.101 -19.311  1.00  0.00     0.016 A 
ATOM      2  C   UNL     1      -8.688 -24.178 -20.696  1.00  0.00     0.047 A 
ATOM      3  C   UNL     1      -7.591 -23.551 -21.308  1.00  0.00     0.119 A 
ATOM      4  C   UNL     1      -6.669 -22.844 -20.529  1.00  0.00     0.094 A 
ATOM      5  C   UNL     1      -6.835 -22.761 -19.143  1.00  0.00     0.142 A 
ATOM      6  C   UNL     1      -7.940 -23.393 -18.529  1.00  0.00     0.018 A 
ATOM      7  C   UNL     1      -8.080 -23.292 -17.141  1.00  0.00     0.019 A 
ATOM      8  C   UNL     1      -7.134 -22.576 -16.408  1.00  0.00     0.094 A 
ATOM      9  C   UNL     1      -6.066 -21.976 -17.084  1.00  0.00     0.336 A 
ATOM     10  O   UNL     1      -5.201 -21.325 -16.439  1.00  0.00    -0.246 OA
ATOM     11  O   UNL     1      -5.955 -22.087 -18.405  1.00  0.00    -0.423 OA
ENDROOT
BRANCH   3  12
ATOM     12  O   UNL     1      -7.412 -23.625 -22.687  1.00  0.00    -0.508 OA
ATOM     13  H   UNL     1      -6.512 -23.439 -23.115  1.00  0.00     0.293 HD
ENDBRANCH   3  12
TORSDOF 1
ENDMDL
MODEL 6
REMARK VINA RESULT:    -5.038     13.436     14.756
REMARK INTER + INTRA:          -5.185
REMARK INTER:                  -5.185
REMARK INTRA:                   0.000
REMARK UNBOUND:                 0.000
REMARK SMILES O=c1ccc2ccc(O)cc2o1
REMARK SMILES IDX 6 1 7 2 8 3 10 4 11 5 5 6 4 7 3 8 2 9 1 10 12 11 9 12
REMARK H PARENT 9 13
REMARK Flexibility Score: inf
ROOT
ATOM      1  C   UNL     1      -6.133 -22.019 -18.531  1.00  0.00     0.016 A 
ATOM      2  C   UNL     1      -6.327 -21.836 -17.159  1.00  0.00     0.047 A 
ATOM      3  C   UNL     1      -7.339 -22.538 -16.486  1.00  0.00     0.119 A 
ATOM      4  C   UNL     1      -8.160 -23.425 -17.192  1.00  0.00     0.094 A 
ATOM      5  C   UNL     1      -7.974 -23.615 -18.565  1.00  0.00     0.142 A 
ATOM      6  C   UNL     1      -6.953 -22.908 -19.240  1.00  0.00     0.018 A 
ATOM      7  C   UNL     1      -6.792 -23.119 -20.613  1.00  0.00     0.019 A 
ATOM      8  C   UNL     1      -7.634 -24.014 -21.272  1.00  0.00     0.094 A 
ATOM      9  C   UNL     1      -8.624 -24.678 -20.539  1.00  0.00     0.336 A 
ATOM     10  O   UNL     1      -9.395 -25.490 -21.116  1.00  0.00    -0.246 OA
ATOM     11  O   UNL     1      -8.757 -24.460 -19.233  1.00  0.00    -0.423 OA
ENDROOT
BRANCH   3  12
ATOM     12  O   UNL     1      -7.538 -22.359 -15.119  1.00  0.00    -0.508 OA
ATOM     13  H   UNL     1      -7.465 -23.132 -14.468  1.00  0.00     0.293 HD
ENDBRANCH   3  12
TORSDOF 1
ENDMDL
MODEL 7
REMARK VINA RESULT:    -4.964     13.441     14.916
REMARK INTER + INTRA:          -5.109
REMARK INTER:                  -5.109
REMARK INTRA:                   0.000
REMARK UNBOUND:                 0.000
REMARK SMILES O=c1ccc2ccc(O)cc2o1
REMARK SMILES IDX 6 1 7 2 8 3 10 4 11 5 5 6 4 7 3 8 2 9 1 10 12 11 9 12
REMARK H PARENT 9 13
REMARK Flexibility Score: inf
ROOT
ATOM      1  C   UNL     1      -6.217 -24.158 -21.161  1.00  0.00     0.016 A 
ATOM      2  C   UNL     1      -7.121 -25.027 -21.780  1.00  0.00     0.047 A 
ATOM      3  C   UNL     1      -8.324 -25.370 -21.143  1.00  0.00     0.119 A 
ATOM      4  C   UNL     1      -8.620 -24.841 -19.881  1.00  0.00     0.094 A 
ATOM      5  C   UNL     1      -7.722 -23.971 -19.254  1.00  0.00     0.142 A 
ATOM      6  C   UNL     1      -6.513 -23.627 -19.897  1.00  0.00     0.018 A 
ATOM      7  C   UNL     1      -5.635 -22.755 -19.245  1.00  0.00     0.019 A 
ATOM      8  C   UNL     1      -5.976 -22.254 -17.988  1.00  0.00     0.094 A 
ATOM      9  C   UNL     1      -7.191 -22.640 -17.412  1.00  0.00     0.336 A 
ATOM     10  O   UNL     1      -7.516 -22.198 -16.278  1.00  0.00    -0.246 OA
ATOM     11  O   UNL     1      -8.009 -23.471 -18.054  1.00  0.00    -0.423 OA
ENDROOT
BRANCH   3  12
ATOM     12  O   UNL     1      -9.228 -26.235 -21.754  1.00  0.00    -0.508 OA
ATOM     13  H   UNL     1     -10.042 -26.584 -21.263  1.00  0.00     0.293 HD
ENDBRANCH   3  12
TORSDOF 1
ENDMDL
MODEL 8
REMARK VINA RESULT:    -4.786     13.703     15.440
REMARK INTER + INTRA:          -4.926
REMARK INTER:                  -4.926
REMARK INTRA:                   0.000
REMARK UNBOUND:                 0.000
REMARK SMILES O=c1ccc2ccc(O)cc2o1
REMARK SMILES IDX 6 1 7 2 8 3 10 4 11 5 5 6 4 7 3 8 2 9 1 10 12 11 9 12
REMARK H PARENT 9 13
REMARK Flexibility Score: inf
ROOT
ATOM      1  C   UNL     1      -6.096 -24.126 -20.818  1.00  0.00     0.016 A 
ATOM      2  C   UNL     1      -6.738 -24.357 -19.598  1.00  0.00     0.047 A 
ATOM      3  C   UNL     1      -8.002 -23.802 -19.345  1.00  0.00     0.119 A 
ATOM      4  C   UNL     1      -8.624 -23.012 -20.319  1.00  0.00     0.094 A 
ATOM      5  C   UNL     1      -7.991 -22.776 -21.544  1.00  0.00     0.142 A 
ATOM      6  C   UNL     1      -6.718 -23.336 -21.796  1.00  0.00     0.018 A 
ATOM      7  C   UNL     1      -6.109 -23.081 -23.029  1.00  0.00     0.019 A 
ATOM      8  C   UNL     1      -6.770 -22.288 -23.967  1.00  0.00     0.094 A 
ATOM      9  C   UNL     1      -8.029 -21.767 -23.648  1.00  0.00     0.336 A 
ATOM     10  O   UNL     1      -8.641 -21.048 -24.482  1.00  0.00    -0.246 OA
ATOM     11  O   UNL     1      -8.586 -22.024 -22.467  1.00  0.00    -0.423 OA
ENDROOT
BRANCH   3  12
ATOM     12  O   UNL     1      -8.646 -24.028 -18.131  1.00  0.00    -0.508 OA
ATOM     13  H   UNL     1      -8.951 -23.262 -17.543  1.00  0.00     0.293 HD
ENDBRANCH   3  12
TORSDOF 1
ENDMDL
MODEL 9
REMARK VINA RESULT:    -4.654     13.868     15.252
REMARK INTER + INTRA:          -4.790
REMARK INTER:                  -4.790
REMARK INTRA:                   0.000
REMARK UNBOUND:                 0.000
REMARK SMILES O=c1ccc2ccc(O)cc2o1
REMARK SMILES IDX 6 1 7 2 8 3 10 4 11 5 5 6 4 7 3 8 2 9 1 10 12 11 9 12
REMARK H PARENT 9 13
REMARK Flexibility Score: inf
ROOT
ATOM      1  C   UNL     1      -5.780 -22.840 -23.074  1.00  0.00     0.016 A 
ATOM      2  C   UNL     1      -6.347 -22.185 -24.171  1.00  0.00     0.047 A 
ATOM      3  C   UNL     1      -7.680 -21.749 -24.126  1.00  0.00     0.119 A 
ATOM      4  C   UNL     1      -8.448 -21.972 -22.976  1.00  0.00     0.094 A 
ATOM      5  C   UNL     1      -7.889 -22.626 -21.873  1.00  0.00     0.142 A 
ATOM      6  C   UNL     1      -6.547 -23.063 -21.921  1.00  0.00     0.018 A 
ATOM      7  C   UNL     1      -6.016 -23.715 -20.803  1.00  0.00     0.019 A 
ATOM      8  C   UNL     1      -6.821 -23.912 -19.681  1.00  0.00     0.094 A 
ATOM      9  C   UNL     1      -8.142 -23.453 -19.705  1.00  0.00     0.336 A 
ATOM     10  O   UNL     1      -8.884 -23.623 -18.701  1.00  0.00    -0.246 OA
ATOM     11  O   UNL     1      -8.623 -22.836 -20.782  1.00  0.00    -0.423 OA
ENDROOT
BRANCH   3  12
ATOM     12  O   UNL     1      -8.251 -21.097 -25.216  1.00  0.00    -0.508 OA
ATOM     13  H   UNL     1      -7.743 -20.392 -25.736  1.00  0.00     0.293 HD
ENDBRANCH   3  12
TORSDOF 1
ENDMDL
