MODEL 1
REMARK VINA RESULT:    -2.613      0.000      0.000
REMARK INTER + INTRA:          -8.744
REMARK INTER:                  -6.890
REMARK INTRA:                  -1.855
REMARK UNBOUND:                -1.855
REMARK SMILES CCCCCCCCCCCCCCCCCCCCCCCCCCCCCC(=O)[O-]
REMARK SMILES IDX 16 1 17 2 18 3 19 4 20 5 21 6 22 7 23 8 24 9 25 10 26 11
REMARK SMILES IDX 27 12 28 13 29 14 30 15 31 16 32 17 15 18 14 19 13 20 12 21
REMARK SMILES IDX 11 22 10 23 9 24 8 25 7 26 6 27 5 28 4 29 3 30 2 31 1 32
REMARK H PARENT
REMARK Flexibility Score: inf
ROOT
ATOM      1  C   UNL     1       6.187   9.738  36.126  1.00  0.00     0.000 C 
ENDROOT
BRANCH   1   2
ATOM      2  C   UNL     1       7.085   9.115  35.038  1.00  0.00     0.000 C 
BRANCH   2   3
ATOM      3  C   UNL     1       7.130   7.579  35.125  1.00  0.00     0.000 C 
BRANCH   3   4
ATOM      4  C   UNL     1       6.222   7.011  36.229  1.00  0.00     0.000 C 
BRANCH   4   5
ATOM      5  C   UNL     1       4.930   6.336  35.733  1.00  0.00     0.000 C 
BRANCH   5   6
ATOM      6  C   UNL     1       4.875   4.835  36.068  1.00  0.00     0.000 C 
BRANCH   6   7
ATOM      7  C   UNL     1       6.104   4.356  36.860  1.00  0.00     0.000 C 
BRANCH   7   8
ATOM      8  C   UNL     1       7.054   3.492  36.010  1.00  0.00     0.000 C 
BRANCH   8   9
ATOM      9  C   UNL     1       6.969   1.997  36.361  1.00  0.00     0.000 C 
BRANCH   9  10
ATOM     10  C   UNL     1       8.239   1.482  37.065  1.00  0.00     0.000 C 
BRANCH  10  11
ATOM     11  C   UNL     1       9.322   1.031  36.063  1.00  0.00     0.000 C 
BRANCH  11  12
ATOM     12  C   UNL     1      10.696   1.689  36.299  1.00  0.00     0.000 C 
BRANCH  12  13
ATOM     13  C   UNL     1      10.709   3.221  36.164  1.00  0.00     0.006 C 
BRANCH  13  14
ATOM     14  C   UNL     1      10.915   3.684  34.717  1.00  0.00     0.053 C 
BRANCH  14  15
ATOM     15  C   UNL     1      10.613   5.145  34.591  1.00  0.00     0.041 C 
ATOM     16  O   UNL     1       9.712   5.668  35.297  1.00  0.00    -0.550 OA
ATOM     17  O   UNL     1      11.299   5.921  33.664  1.00  0.00    -0.550 OA
ENDBRANCH  14  15
ENDBRANCH  13  14
ENDBRANCH  12  13
ENDBRANCH  11  12
ENDBRANCH  10  11
ENDBRANCH   9  10
ENDBRANCH   8   9
ENDBRANCH   7   8
ENDBRANCH   6   7
ENDBRANCH   5   6
ENDBRANCH   4   5
ENDBRANCH   3   4
ENDBRANCH   2   3
ENDBRANCH   1   2
BRANCH   1  18
ATOM     18  C   UNL     1       5.516  11.055  35.700  1.00  0.00     0.000 C 
BRANCH  18  19
ATOM     19  C   UNL     1       5.921  12.247  36.583  1.00  0.00     0.000 C 
BRANCH  19  20
ATOM     20  C   UNL     1       4.928  13.425  36.485  1.00  0.00     0.000 C 
BRANCH  20  21
ATOM     21  C   UNL     1       4.946  14.153  35.127  1.00  0.00     0.000 C 
BRANCH  21  22
ATOM     22  C   UNL     1       5.987  15.277  35.004  1.00  0.00     0.000 C 
BRANCH  22  23
ATOM     23  C   UNL     1       5.382  16.598  34.497  1.00  0.00     0.000 C 
BRANCH  23  24
ATOM     24  C   UNL     1       5.295  17.665  35.600  1.00  0.00    -0.000 C 
BRANCH  24  25
ATOM     25  C   UNL     1       6.678  18.172  36.035  1.00  0.00    -0.000 C 
BRANCH  25  26
ATOM     26  C   UNL     1       6.548  19.247  37.125  1.00  0.00    -0.000 C 
BRANCH  26  27
ATOM     27  C   UNL     1       6.358  20.657  36.543  1.00  0.00    -0.000 C 
BRANCH  27  28
ATOM     28  C   UNL     1       5.037  20.801  35.768  1.00  0.00    -0.000 C 
BRANCH  28  29
ATOM     29  C   UNL     1       5.251  21.125  34.282  1.00  0.00    -0.000 C 
BRANCH  29  30
ATOM     30  C   UNL     1       6.654  20.729  33.787  1.00  0.00    -0.000 C 
BRANCH  30  31
ATOM     31  C   UNL     1       6.632  20.151  32.363  1.00  0.00    -0.003 C 
ATOM     32  C   UNL     1       5.218  20.047  31.791  1.00  0.00     0.004 C 
ENDBRANCH  30  31
ENDBRANCH  29  30
ENDBRANCH  28  29
ENDBRANCH  27  28
ENDBRANCH  26  27
ENDBRANCH  25  26
ENDBRANCH  24  25
ENDBRANCH  23  24
ENDBRANCH  22  23
ENDBRANCH  21  22
ENDBRANCH  20  21
ENDBRANCH  19  20
ENDBRANCH  18  19
ENDBRANCH   1  18
TORSDOF 28
ENDMDL
MODEL 2
REMARK VINA RESULT:    -2.285      4.049     13.174
REMARK INTER + INTRA:          -7.880
REMARK INTER:                  -5.805
REMARK INTRA:                  -2.075
REMARK UNBOUND:                -1.855
REMARK SMILES CCCCCCCCCCCCCCCCCCCCCCCCCCCCCC(=O)[O-]
REMARK SMILES IDX 16 1 17 2 18 3 19 4 20 5 21 6 22 7 23 8 24 9 25 10 26 11
REMARK SMILES IDX 27 12 28 13 29 14 30 15 31 16 32 17 15 18 14 19 13 20 12 21
REMARK SMILES IDX 11 22 10 23 9 24 8 25 7 26 6 27 5 28 4 29 3 30 2 31 1 32
REMARK H PARENT
REMARK Flexibility Score: inf
ROOT
ATOM      1  C   UNL     1       8.151   6.769  35.680  1.00  0.00     0.000 C 
ENDROOT
BRANCH   1   2
ATOM      2  C   UNL     1       7.298   7.695  36.570  1.00  0.00     0.000 C 
BRANCH   2   3
ATOM      3  C   UNL     1       6.640   8.832  35.770  1.00  0.00     0.000 C 
BRANCH   3   4
ATOM      4  C   UNL     1       7.550   9.396  34.665  1.00  0.00     0.000 C 
BRANCH   4   5
ATOM      5  C   UNL     1       6.829   9.814  33.371  1.00  0.00     0.000 C 
BRANCH   5   6
ATOM      6  C   UNL     1       5.306   9.950  33.553  1.00  0.00     0.000 C 
BRANCH   6   7
ATOM      7  C   UNL     1       4.875  11.381  33.920  1.00  0.00     0.000 C 
BRANCH   7   8
ATOM      8  C   UNL     1       5.745  11.990  35.035  1.00  0.00     0.000 C 
BRANCH   8   9
ATOM      9  C   UNL     1       5.266  13.388  35.463  1.00  0.00     0.000 C 
BRANCH   9  10
ATOM     10  C   UNL     1       5.383  14.425  34.331  1.00  0.00     0.000 C 
BRANCH  10  11
ATOM     11  C   UNL     1       5.056  15.855  34.811  1.00  0.00     0.000 C 
BRANCH  11  12
ATOM     12  C   UNL     1       5.832  16.276  36.075  1.00  0.00     0.000 C 
BRANCH  12  13
ATOM     13  C   UNL     1       6.126  17.782  36.180  1.00  0.00     0.006 C 
BRANCH  13  14
ATOM     14  C   UNL     1       6.036  18.497  34.826  1.00  0.00     0.053 C 
BRANCH  14  15
ATOM     15  C   UNL     1       6.456  19.927  34.964  1.00  0.00     0.041 C 
ATOM     16  O   UNL     1       5.995  20.800  34.183  1.00  0.00    -0.550 OA
ATOM     17  O   UNL     1       7.388  20.289  35.929  1.00  0.00    -0.550 OA
ENDBRANCH  14  15
ENDBRANCH  13  14
ENDBRANCH  12  13
ENDBRANCH  11  12
ENDBRANCH  10  11
ENDBRANCH   9  10
ENDBRANCH   8   9
ENDBRANCH   7   8
ENDBRANCH   6   7
ENDBRANCH   5   6
ENDBRANCH   4   5
ENDBRANCH   3   4
ENDBRANCH   2   3
ENDBRANCH   1   2
BRANCH   1  18
ATOM     18  C   UNL     1       7.507   5.398  35.410  1.00  0.00     0.000 C 
BRANCH  18  19
ATOM     19  C   UNL     1       6.288   5.121  36.306  1.00  0.00     0.000 C 
BRANCH  19  20
ATOM     20  C   UNL     1       5.067   4.615  35.509  1.00  0.00     0.000 C 
BRANCH  20  21
ATOM     21  C   UNL     1       5.428   3.812  34.244  1.00  0.00     0.000 C 
BRANCH  21  22
ATOM     22  C   UNL     1       5.204   2.295  34.350  1.00  0.00     0.000 C 
BRANCH  22  23
ATOM     23  C   UNL     1       4.907   1.835  35.788  1.00  0.00     0.000 C 
BRANCH  23  24
ATOM     24  C   UNL     1       6.168   1.355  36.523  1.00  0.00    -0.000 C 
BRANCH  24  25
ATOM     25  C   UNL     1       7.264   0.881  35.556  1.00  0.00    -0.000 C 
BRANCH  25  26
ATOM     26  C   UNL     1       8.660   1.131  36.148  1.00  0.00    -0.000 C 
BRANCH  26  27
ATOM     27  C   UNL     1       8.771   2.498  36.841  1.00  0.00    -0.000 C 
BRANCH  27  28
ATOM     28  C   UNL     1      10.202   3.060  36.810  1.00  0.00    -0.000 C 
BRANCH  28  29
ATOM     29  C   UNL     1      10.386   4.165  35.759  1.00  0.00    -0.000 C 
BRANCH  29  30
ATOM     30  C   UNL     1      11.337   3.747  34.623  1.00  0.00    -0.000 C 
BRANCH  30  31
ATOM     31  C   UNL     1      11.763   4.936  33.747  1.00  0.00    -0.003 C 
ATOM     32  C   UNL     1      10.633   5.944  33.534  1.00  0.00     0.004 C 
ENDBRANCH  30  31
ENDBRANCH  29  30
ENDBRANCH  28  29
ENDBRANCH  27  28
ENDBRANCH  26  27
ENDBRANCH  25  26
ENDBRANCH  24  25
ENDBRANCH  23  24
ENDBRANCH  22  23
ENDBRANCH  21  22
ENDBRANCH  20  21
ENDBRANCH  19  20
ENDBRANCH  18  19
ENDBRANCH   1  18
TORSDOF 28
ENDMDL
MODEL 3
REMARK VINA RESULT:    -2.117      4.206     14.689
REMARK INTER + INTRA:          -7.437
REMARK INTER:                  -5.650
REMARK INTRA:                  -1.787
REMARK UNBOUND:                -1.855
REMARK SMILES CCCCCCCCCCCCCCCCCCCCCCCCCCCCCC(=O)[O-]
REMARK SMILES IDX 16 1 17 2 18 3 19 4 20 5 21 6 22 7 23 8 24 9 25 10 26 11
REMARK SMILES IDX 27 12 28 13 29 14 30 15 31 16 32 17 15 18 14 19 13 20 12 21
REMARK SMILES IDX 11 22 10 23 9 24 8 25 7 26 6 27 5 28 4 29 3 30 2 31 1 32
REMARK H PARENT
REMARK Flexibility Score: inf
ROOT
ATOM      1  C   UNL     1       6.060   9.790  34.645  1.00  0.00     0.000 C 
ENDROOT
BRANCH   1   2
ATOM      2  C   UNL     1       5.644  11.270  34.529  1.00  0.00     0.000 C 
BRANCH   2   3
ATOM      3  C   UNL     1       5.599  11.753  33.069  1.00  0.00     0.000 C 
BRANCH   3   4
ATOM      4  C   UNL     1       5.384  13.271  32.943  1.00  0.00     0.000 C 
BRANCH   4   5
ATOM      5  C   UNL     1       4.877  13.969  34.218  1.00  0.00     0.000 C 
BRANCH   5   6
ATOM      6  C   UNL     1       5.880  14.995  34.776  1.00  0.00     0.000 C 
BRANCH   6   7
ATOM      7  C   UNL     1       5.193  16.198  35.444  1.00  0.00     0.000 C 
BRANCH   7   8
ATOM      8  C   UNL     1       5.965  16.710  36.674  1.00  0.00     0.000 C 
BRANCH   8   9
ATOM      9  C   UNL     1       5.562  18.139  37.075  1.00  0.00     0.000 C 
BRANCH   9  10
ATOM     10  C   UNL     1       6.700  19.155  36.865  1.00  0.00     0.000 C 
BRANCH  10  11
ATOM     11  C   UNL     1       6.331  20.244  35.836  1.00  0.00     0.000 C 
BRANCH  11  12
ATOM     12  C   UNL     1       4.967  20.014  35.154  1.00  0.00     0.000 C 
BRANCH  12  13
ATOM     13  C   UNL     1       5.023  19.903  33.621  1.00  0.00     0.006 C 
BRANCH  13  14
ATOM     14  C   UNL     1       5.676  21.124  32.964  1.00  0.00     0.053 C 
BRANCH  14  15
ATOM     15  C   UNL     1       6.083  20.804  31.559  1.00  0.00     0.041 C 
ATOM     16  O   UNL     1       7.282  20.942  31.201  1.00  0.00    -0.550 OA
ATOM     17  O   UNL     1       5.130  20.393  30.635  1.00  0.00    -0.550 OA
ENDBRANCH  14  15
ENDBRANCH  13  14
ENDBRANCH  12  13
ENDBRANCH  11  12
ENDBRANCH  10  11
ENDBRANCH   9  10
ENDBRANCH   8   9
ENDBRANCH   7   8
ENDBRANCH   6   7
ENDBRANCH   5   6
ENDBRANCH   4   5
ENDBRANCH   3   4
ENDBRANCH   2   3
ENDBRANCH   1   2
BRANCH   1  18
ATOM     18  C   UNL     1       4.987   8.889  35.280  1.00  0.00     0.000 C 
BRANCH  18  19
ATOM     19  C   UNL     1       5.582   7.697  36.049  1.00  0.00     0.000 C 
BRANCH  19  20
ATOM     20  C   UNL     1       7.117   7.782  36.185  1.00  0.00     0.000 C 
BRANCH  20  21
ATOM     21  C   UNL     1       7.744   6.627  36.988  1.00  0.00     0.000 C 
BRANCH  21  22
ATOM     22  C   UNL     1       7.998   5.339  36.187  1.00  0.00     0.000 C 
BRANCH  22  23
ATOM     23  C   UNL     1       6.949   4.248  36.464  1.00  0.00     0.000 C 
BRANCH  23  24
ATOM     24  C   UNL     1       6.501   3.526  35.184  1.00  0.00    -0.000 C 
BRANCH  24  25
ATOM     25  C   UNL     1       5.680   2.262  35.481  1.00  0.00    -0.000 C 
BRANCH  25  26
ATOM     26  C   UNL     1       6.453   1.315  36.413  1.00  0.00    -0.000 C 
BRANCH  26  27
ATOM     27  C   UNL     1       7.892   1.062  35.935  1.00  0.00    -0.000 C 
BRANCH  27  28
ATOM     28  C   UNL     1       8.935   1.353  37.028  1.00  0.00    -0.000 C 
BRANCH  28  29
ATOM     29  C   UNL     1      10.378   1.155  36.541  1.00  0.00    -0.000 C 
BRANCH  29  30
ATOM     30  C   UNL     1      11.157   2.480  36.448  1.00  0.00    -0.000 C 
BRANCH  30  31
ATOM     31  C   UNL     1      12.663   2.262  36.233  1.00  0.00    -0.003 C 
ATOM     32  C   UNL     1      13.126   0.875  36.680  1.00  0.00     0.004 C 
ENDBRANCH  30  31
ENDBRANCH  29  30
ENDBRANCH  28  29
ENDBRANCH  27  28
ENDBRANCH  26  27
ENDBRANCH  25  26
ENDBRANCH  24  25
ENDBRANCH  23  24
ENDBRANCH  22  23
ENDBRANCH  21  22
ENDBRANCH  20  21
ENDBRANCH  19  20
ENDBRANCH  18  19
ENDBRANCH   1  18
TORSDOF 28
ENDMDL
MODEL 4
REMARK VINA RESULT:    -1.557      2.417      3.729
REMARK INTER + INTRA:          -5.960
REMARK INTER:                  -6.259
REMARK INTRA:                   0.299
REMARK UNBOUND:                -1.855
REMARK SMILES CCCCCCCCCCCCCCCCCCCCCCCCCCCCCC(=O)[O-]
REMARK SMILES IDX 16 1 17 2 18 3 19 4 20 5 21 6 22 7 23 8 24 9 25 10 26 11
REMARK SMILES IDX 27 12 28 13 29 14 30 15 31 16 32 17 15 18 14 19 13 20 12 21
REMARK SMILES IDX 11 22 10 23 9 24 8 25 7 26 6 27 5 28 4 29 3 30 2 31 1 32
REMARK H PARENT
REMARK Flexibility Score: inf
ROOT
ATOM      1  C   UNL     1       6.746  10.327  32.895  1.00  0.00     0.000 C 
ENDROOT
BRANCH   1   2
ATOM      2  C   UNL     1       5.926   9.105  33.352  1.00  0.00     0.000 C 
BRANCH   2   3
ATOM      3  C   UNL     1       6.570   8.381  34.548  1.00  0.00     0.000 C 
BRANCH   3   4
ATOM      4  C   UNL     1       6.116   8.942  35.906  1.00  0.00     0.000 C 
BRANCH   4   5
ATOM      5  C   UNL     1       6.434   8.053  37.122  1.00  0.00     0.000 C 
BRANCH   5   6
ATOM      6  C   UNL     1       7.649   7.137  36.891  1.00  0.00     0.000 C 
BRANCH   6   7
ATOM      7  C   UNL     1       7.597   6.409  35.536  1.00  0.00     0.000 C 
BRANCH   7   8
ATOM      8  C   UNL     1       8.482   5.149  35.510  1.00  0.00     0.000 C 
BRANCH   8   9
ATOM      9  C   UNL     1       7.668   3.851  35.638  1.00  0.00     0.000 C 
BRANCH   9  10
ATOM     10  C   UNL     1       6.939   3.740  36.990  1.00  0.00     0.000 C 
BRANCH  10  11
ATOM     11  C   UNL     1       5.733   2.780  36.929  1.00  0.00     0.000 C 
BRANCH  11  12
ATOM     12  C   UNL     1       5.937   1.589  35.970  1.00  0.00     0.000 C 
BRANCH  12  13
ATOM     13  C   UNL     1       5.073   1.630  34.698  1.00  0.00     0.006 C 
BRANCH  13  14
ATOM     14  C   UNL     1       5.096   3.001  34.012  1.00  0.00     0.053 C 
BRANCH  14  15
ATOM     15  C   UNL     1       5.003   2.841  32.527  1.00  0.00     0.041 C 
ATOM     16  O   UNL     1       4.904   3.854  31.786  1.00  0.00    -0.550 OA
ATOM     17  O   UNL     1       4.984   1.571  31.963  1.00  0.00    -0.550 OA
ENDBRANCH  14  15
ENDBRANCH  13  14
ENDBRANCH  12  13
ENDBRANCH  11  12
ENDBRANCH  10  11
ENDBRANCH   9  10
ENDBRANCH   8   9
ENDBRANCH   7   8
ENDBRANCH   6   7
ENDBRANCH   5   6
ENDBRANCH   4   5
ENDBRANCH   3   4
ENDBRANCH   2   3
ENDBRANCH   1   2
BRANCH   1  18
ATOM     18  C   UNL     1       6.306  11.651  33.545  1.00  0.00     0.000 C 
BRANCH  18  19
ATOM     19  C   UNL     1       4.914  11.567  34.192  1.00  0.00     0.000 C 
BRANCH  19  20
ATOM     20  C   UNL     1       4.875  12.186  35.605  1.00  0.00     0.000 C 
BRANCH  20  21
ATOM     21  C   UNL     1       4.924  13.726  35.621  1.00  0.00     0.000 C 
BRANCH  21  22
ATOM     22  C   UNL     1       6.213  14.331  36.200  1.00  0.00     0.000 C 
BRANCH  22  23
ATOM     23  C   UNL     1       6.147  15.862  36.332  1.00  0.00     0.000 C 
BRANCH  23  24
ATOM     24  C   UNL     1       5.056  16.481  35.444  1.00  0.00    -0.000 C 
BRANCH  24  25
ATOM     25  C   UNL     1       5.634  17.168  34.198  1.00  0.00    -0.000 C 
BRANCH  25  26
ATOM     26  C   UNL     1       4.916  18.499  33.925  1.00  0.00    -0.000 C 
BRANCH  26  27
ATOM     27  C   UNL     1       5.511  19.255  32.726  1.00  0.00    -0.000 C 
BRANCH  27  28
ATOM     28  C   UNL     1       5.623  20.768  32.981  1.00  0.00    -0.000 C 
BRANCH  28  29
ATOM     29  C   UNL     1       6.678  21.118  34.040  1.00  0.00    -0.000 C 
BRANCH  29  30
ATOM     30  C   UNL     1       6.253  20.698  35.458  1.00  0.00    -0.000 C 
BRANCH  30  31
ATOM     31  C   UNL     1       7.408  20.069  36.254  1.00  0.00    -0.003 C 
ATOM     32  C   UNL     1       8.146  21.086  37.124  1.00  0.00     0.004 C 
ENDBRANCH  30  31
ENDBRANCH  29  30
ENDBRANCH  28  29
ENDBRANCH  27  28
ENDBRANCH  26  27
ENDBRANCH  25  26
ENDBRANCH  24  25
ENDBRANCH  23  24
ENDBRANCH  22  23
ENDBRANCH  21  22
ENDBRANCH  20  21
ENDBRANCH  19  20
ENDBRANCH  18  19
ENDBRANCH   1  18
TORSDOF 28
ENDMDL
MODEL 5
REMARK VINA RESULT:    -1.528      2.146      5.792
REMARK INTER + INTRA:          -5.885
REMARK INTER:                  -5.289
REMARK INTRA:                  -0.596
REMARK UNBOUND:                -1.855
REMARK SMILES CCCCCCCCCCCCCCCCCCCCCCCCCCCCCC(=O)[O-]
REMARK SMILES IDX 16 1 17 2 18 3 19 4 20 5 21 6 22 7 23 8 24 9 25 10 26 11
REMARK SMILES IDX 27 12 28 13 29 14 30 15 31 16 32 17 15 18 14 19 13 20 12 21
REMARK SMILES IDX 11 22 10 23 9 24 8 25 7 26 6 27 5 28 4 29 3 30 2 31 1 32
REMARK H PARENT
REMARK Flexibility Score: inf
ROOT
ATOM      1  C   UNL     1       8.513   7.079  33.758  1.00  0.00     0.000 C 
ENDROOT
BRANCH   1   2
ATOM      2  C   UNL     1       9.797   6.514  34.397  1.00  0.00     0.000 C 
BRANCH   2   3
ATOM      3  C   UNL     1      10.650   5.718  33.393  1.00  0.00     0.000 C 
BRANCH   3   4
ATOM      4  C   UNL     1      11.256   4.440  33.998  1.00  0.00     0.000 C 
BRANCH   4   5
ATOM      5  C   UNL     1      10.833   4.136  35.447  1.00  0.00     0.000 C 
BRANCH   5   6
ATOM      6  C   UNL     1      10.982   2.648  35.812  1.00  0.00     0.000 C 
BRANCH   6   7
ATOM      7  C   UNL     1       9.904   2.165  36.798  1.00  0.00     0.000 C 
BRANCH   7   8
ATOM      8  C   UNL     1       8.847   3.246  37.091  1.00  0.00     0.000 C 
BRANCH   8   9
ATOM      9  C   UNL     1       7.565   3.061  36.263  1.00  0.00     0.000 C 
BRANCH   9  10
ATOM     10  C   UNL     1       7.356   1.603  35.814  1.00  0.00     0.000 C 
BRANCH  10  11
ATOM     11  C   UNL     1       5.923   1.103  36.095  1.00  0.00     0.000 C 
BRANCH  11  12
ATOM     12  C   UNL     1       4.876   2.233  36.167  1.00  0.00     0.000 C 
BRANCH  12  13
ATOM     13  C   UNL     1       5.014   3.310  35.078  1.00  0.00     0.006 C 
BRANCH  13  14
ATOM     14  C   UNL     1       5.348   2.720  33.702  1.00  0.00     0.053 C 
BRANCH  14  15
ATOM     15  C   UNL     1       5.052   3.716  32.624  1.00  0.00     0.041 C 
ATOM     16  O   UNL     1       4.878   3.331  31.438  1.00  0.00    -0.550 OA
ATOM     17  O   UNL     1       5.009   5.072  32.922  1.00  0.00    -0.550 OA
ENDBRANCH  14  15
ENDBRANCH  13  14
ENDBRANCH  12  13
ENDBRANCH  11  12
ENDBRANCH  10  11
ENDBRANCH   9  10
ENDBRANCH   8   9
ENDBRANCH   7   8
ENDBRANCH   6   7
ENDBRANCH   5   6
ENDBRANCH   4   5
ENDBRANCH   3   4
ENDBRANCH   2   3
ENDBRANCH   1   2
BRANCH   1  18
ATOM     18  C   UNL     1       7.725   8.028  34.678  1.00  0.00     0.000 C 
BRANCH  18  19
ATOM     19  C   UNL     1       8.163   7.938  36.149  1.00  0.00     0.000 C 
BRANCH  19  20
ATOM     20  C   UNL     1       7.427   6.824  36.923  1.00  0.00     0.000 C 
BRANCH  20  21
ATOM     21  C   UNL     1       6.059   6.440  36.328  1.00  0.00     0.000 C 
BRANCH  21  22
ATOM     22  C   UNL     1       4.876   7.295  36.812  1.00  0.00     0.000 C 
BRANCH  22  23
ATOM     23  C   UNL     1       5.245   8.779  36.986  1.00  0.00     0.000 C 
BRANCH  23  24
ATOM     24  C   UNL     1       5.237   9.546  35.655  1.00  0.00    -0.000 C 
BRANCH  24  25
ATOM     25  C   UNL     1       4.890  11.031  35.837  1.00  0.00    -0.000 C 
BRANCH  25  26
ATOM     26  C   UNL     1       5.380  11.858  34.638  1.00  0.00    -0.000 C 
BRANCH  26  27
ATOM     27  C   UNL     1       4.930  13.325  34.709  1.00  0.00    -0.000 C 
BRANCH  27  28
ATOM     28  C   UNL     1       5.900  14.201  35.520  1.00  0.00    -0.000 C 
BRANCH  28  29
ATOM     29  C   UNL     1       5.428  15.657  35.643  1.00  0.00    -0.000 C 
BRANCH  29  30
ATOM     30  C   UNL     1       6.076  16.578  34.594  1.00  0.00    -0.000 C 
BRANCH  30  31
ATOM     31  C   UNL     1       6.060  18.055  35.019  1.00  0.00    -0.003 C 
ATOM     32  C   UNL     1       6.586  18.988  33.928  1.00  0.00     0.004 C 
ENDBRANCH  30  31
ENDBRANCH  29  30
ENDBRANCH  28  29
ENDBRANCH  27  28
ENDBRANCH  26  27
ENDBRANCH  25  26
ENDBRANCH  24  25
ENDBRANCH  23  24
ENDBRANCH  22  23
ENDBRANCH  21  22
ENDBRANCH  20  21
ENDBRANCH  19  20
ENDBRANCH  18  19
ENDBRANCH   1  18
TORSDOF 28
ENDMDL
MODEL 6
REMARK VINA RESULT:    -0.747      4.820      7.746
REMARK INTER + INTRA:          -3.824
REMARK INTER:                  -1.924
REMARK INTRA:                  -1.900
REMARK UNBOUND:                -1.855
REMARK SMILES CCCCCCCCCCCCCCCCCCCCCCCCCCCCCC(=O)[O-]
REMARK SMILES IDX 16 1 17 2 18 3 19 4 20 5 21 6 22 7 23 8 24 9 25 10 26 11
REMARK SMILES IDX 27 12 28 13 29 14 30 15 31 16 32 17 15 18 14 19 13 20 12 21
REMARK SMILES IDX 11 22 10 23 9 24 8 25 7 26 6 27 5 28 4 29 3 30 2 31 1 32
REMARK H PARENT
REMARK Flexibility Score: inf
ROOT
ATOM      1  C   UNL     1      11.090   6.129  33.869  1.00  0.00     0.000 C 
ENDROOT
BRANCH   1   2
ATOM      2  C   UNL     1      11.374   4.687  33.404  1.00  0.00     0.000 C 
BRANCH   2   3
ATOM      3  C   UNL     1      12.848   4.289  33.597  1.00  0.00     0.000 C 
BRANCH   3   4
ATOM      4  C   UNL     1      13.119   3.622  34.956  1.00  0.00     0.000 C 
BRANCH   4   5
ATOM      5  C   UNL     1      12.289   2.357  35.243  1.00  0.00     0.000 C 
BRANCH   5   6
ATOM      6  C   UNL     1      12.220   2.017  36.743  1.00  0.00     0.000 C 
BRANCH   6   7
ATOM      7  C   UNL     1      11.004   1.144  37.100  1.00  0.00     0.000 C 
BRANCH   7   8
ATOM      8  C   UNL     1       9.668   1.815  36.731  1.00  0.00     0.000 C 
BRANCH   8   9
ATOM      9  C   UNL     1       8.449   0.963  37.122  1.00  0.00     0.000 C 
BRANCH   9  10
ATOM     10  C   UNL     1       7.127   1.747  37.037  1.00  0.00     0.000 C 
BRANCH  10  11
ATOM     11  C   UNL     1       7.002   2.544  35.721  1.00  0.00     0.000 C 
BRANCH  11  12
ATOM     12  C   UNL     1       5.551   2.682  35.217  1.00  0.00     0.000 C 
BRANCH  12  13
ATOM     13  C   UNL     1       4.875   1.357  34.827  1.00  0.00     0.006 C 
BRANCH  13  14
ATOM     14  C   UNL     1       5.272   0.882  33.424  1.00  0.00     0.053 C 
BRANCH  14  15
ATOM     15  C   UNL     1       5.270   2.032  32.465  1.00  0.00     0.041 C 
ATOM     16  O   UNL     1       5.131   3.209  32.889  1.00  0.00    -0.550 OA
ATOM     17  O   UNL     1       5.378   1.800  31.100  1.00  0.00    -0.550 OA
ENDBRANCH  14  15
ENDBRANCH  13  14
ENDBRANCH  12  13
ENDBRANCH  11  12
ENDBRANCH  10  11
ENDBRANCH   9  10
ENDBRANCH   8   9
ENDBRANCH   7   8
ENDBRANCH   6   7
ENDBRANCH   5   6
ENDBRANCH   4   5
ENDBRANCH   3   4
ENDBRANCH   2   3
ENDBRANCH   1   2
BRANCH   1  18
ATOM     18  C   UNL     1      10.285   6.215  35.177  1.00  0.00     0.000 C 
BRANCH  18  19
ATOM     19  C   UNL     1       8.938   5.476  35.101  1.00  0.00     0.000 C 
BRANCH  19  20
ATOM     20  C   UNL     1       7.851   6.125  35.984  1.00  0.00     0.000 C 
BRANCH  20  21
ATOM     21  C   UNL     1       6.502   6.335  35.271  1.00  0.00     0.000 C 
BRANCH  21  22
ATOM     22  C   UNL     1       5.261   5.977  36.106  1.00  0.00     0.000 C 
BRANCH  22  23
ATOM     23  C   UNL     1       4.877   7.081  37.106  1.00  0.00     0.000 C 
BRANCH  23  24
ATOM     24  C   UNL     1       4.967   8.487  36.492  1.00  0.00    -0.000 C 
BRANCH  24  25
ATOM     25  C   UNL     1       6.191   9.268  36.994  1.00  0.00    -0.000 C 
BRANCH  25  26
ATOM     26  C   UNL     1       6.103  10.745  36.582  1.00  0.00    -0.000 C 
BRANCH  26  27
ATOM     27  C   UNL     1       4.900  11.033  35.670  1.00  0.00    -0.000 C 
BRANCH  27  28
ATOM     28  C   UNL     1       5.223  12.065  34.576  1.00  0.00    -0.000 C 
BRANCH  28  29
ATOM     29  C   UNL     1       5.441  11.425  33.197  1.00  0.00    -0.000 C 
BRANCH  29  30
ATOM     30  C   UNL     1       5.826   9.937  33.291  1.00  0.00    -0.000 C 
BRANCH  30  31
ATOM     31  C   UNL     1       7.345   9.718  33.208  1.00  0.00    -0.003 C 
ATOM     32  C   UNL     1       7.727   8.238  33.209  1.00  0.00     0.004 C 
ENDBRANCH  30  31
ENDBRANCH  29  30
ENDBRANCH  28  29
ENDBRANCH  27  28
ENDBRANCH  26  27
ENDBRANCH  25  26
ENDBRANCH  24  25
ENDBRANCH  23  24
ENDBRANCH  22  23
ENDBRANCH  21  22
ENDBRANCH  20  21
ENDBRANCH  19  20
ENDBRANCH  18  19
ENDBRANCH   1  18
TORSDOF 28
ENDMDL
MODEL 7
REMARK VINA RESULT:    -0.507      2.321      6.187
REMARK INTER + INTRA:          -3.193
REMARK INTER:                  -1.114
REMARK INTRA:                  -2.078
REMARK UNBOUND:                -1.855
REMARK SMILES CCCCCCCCCCCCCCCCCCCCCCCCCCCCCC(=O)[O-]
REMARK SMILES IDX 16 1 17 2 18 3 19 4 20 5 21 6 22 7 23 8 24 9 25 10 26 11
REMARK SMILES IDX 27 12 28 13 29 14 30 15 31 16 32 17 15 18 14 19 13 20 12 21
REMARK SMILES IDX 11 22 10 23 9 24 8 25 7 26 6 27 5 28 4 29 3 30 2 31 1 32
REMARK H PARENT
REMARK Flexibility Score: inf
ROOT
ATOM      1  C   UNL     1      11.457   6.082  33.771  1.00  0.00     0.000 C 
ENDROOT
BRANCH   1   2
ATOM      2  C   UNL     1      11.283   4.569  33.530  1.00  0.00     0.000 C 
BRANCH   2   3
ATOM      3  C   UNL     1      12.562   3.775  33.849  1.00  0.00     0.000 C 
BRANCH   3   4
ATOM      4  C   UNL     1      12.524   3.104  35.233  1.00  0.00     0.000 C 
BRANCH   4   5
ATOM      5  C   UNL     1      11.456   2.008  35.401  1.00  0.00     0.000 C 
BRANCH   5   6
ATOM      6  C   UNL     1      11.221   1.624  36.873  1.00  0.00     0.000 C 
BRANCH   6   7
ATOM      7  C   UNL     1       9.815   1.052  37.123  1.00  0.00     0.000 C 
BRANCH   7   8
ATOM      8  C   UNL     1       8.702   1.966  36.579  1.00  0.00     0.000 C 
BRANCH   8   9
ATOM      9  C   UNL     1       7.300   1.532  37.039  1.00  0.00     0.000 C 
BRANCH   9  10
ATOM     10  C   UNL     1       6.222   2.584  36.725  1.00  0.00     0.000 C 
BRANCH  10  11
ATOM     11  C   UNL     1       6.819   3.873  36.120  1.00  0.00     0.000 C 
BRANCH  11  12
ATOM     12  C   UNL     1       6.114   4.335  34.828  1.00  0.00     0.000 C 
BRANCH  12  13
ATOM     13  C   UNL     1       4.881   3.505  34.435  1.00  0.00     0.006 C 
BRANCH  13  14
ATOM     14  C   UNL     1       4.933   3.024  32.979  1.00  0.00     0.053 C 
BRANCH  14  15
ATOM     15  C   UNL     1       5.432   1.614  32.915  1.00  0.00     0.041 C 
ATOM     16  O   UNL     1       5.512   1.021  31.807  1.00  0.00    -0.550 OA
ATOM     17  O   UNL     1       5.769   0.941  34.082  1.00  0.00    -0.550 OA
ENDBRANCH  14  15
ENDBRANCH  13  14
ENDBRANCH  12  13
ENDBRANCH  11  12
ENDBRANCH  10  11
ENDBRANCH   9  10
ENDBRANCH   8   9
ENDBRANCH   7   8
ENDBRANCH   6   7
ENDBRANCH   5   6
ENDBRANCH   4   5
ENDBRANCH   3   4
ENDBRANCH   2   3
ENDBRANCH   1   2
BRANCH   1  18
ATOM     18  C   UNL     1      10.476   6.666  34.802  1.00  0.00     0.000 C 
BRANCH  18  19
ATOM     19  C   UNL     1       9.004   6.383  34.456  1.00  0.00     0.000 C 
BRANCH  19  20
ATOM     20  C   UNL     1       8.045   7.460  35.004  1.00  0.00     0.000 C 
BRANCH  20  21
ATOM     21  C   UNL     1       6.921   7.860  34.028  1.00  0.00     0.000 C 
BRANCH  21  22
ATOM     22  C   UNL     1       5.494   7.594  34.535  1.00  0.00     0.000 C 
BRANCH  22  23
ATOM     23  C   UNL     1       4.877   8.811  35.245  1.00  0.00     0.000 C 
BRANCH  23  24
ATOM     24  C   UNL     1       5.660  10.105  34.979  1.00  0.00    -0.000 C 
BRANCH  24  25
ATOM     25  C   UNL     1       4.972  11.340  35.579  1.00  0.00    -0.000 C 
BRANCH  25  26
ATOM     26  C   UNL     1       6.006  12.305  36.180  1.00  0.00    -0.000 C 
BRANCH  26  27
ATOM     27  C   UNL     1       5.402  13.675  36.528  1.00  0.00    -0.000 C 
BRANCH  27  28
ATOM     28  C   UNL     1       5.076  14.510  35.278  1.00  0.00    -0.000 C 
BRANCH  28  29
ATOM     29  C   UNL     1       6.205  15.480  34.898  1.00  0.00    -0.000 C 
BRANCH  29  30
ATOM     30  C   UNL     1       5.677  16.863  34.477  1.00  0.00    -0.000 C 
BRANCH  30  31
ATOM     31  C   UNL     1       6.781  17.933  34.465  1.00  0.00    -0.003 C 
ATOM     32  C   UNL     1       6.380  19.184  33.682  1.00  0.00     0.004 C 
ENDBRANCH  30  31
ENDBRANCH  29  30
ENDBRANCH  28  29
ENDBRANCH  27  28
ENDBRANCH  26  27
ENDBRANCH  25  26
ENDBRANCH  24  25
ENDBRANCH  23  24
ENDBRANCH  22  23
ENDBRANCH  21  22
ENDBRANCH  20  21
ENDBRANCH  19  20
ENDBRANCH  18  19
ENDBRANCH   1  18
TORSDOF 28
ENDMDL
MODEL 8
REMARK VINA RESULT:    -0.140      4.103     13.524
REMARK INTER + INTRA:          -2.223
REMARK INTER:                  -1.917
REMARK INTRA:                  -0.306
REMARK UNBOUND:                -1.855
REMARK SMILES CCCCCCCCCCCCCCCCCCCCCCCCCCCCCC(=O)[O-]
REMARK SMILES IDX 16 1 17 2 18 3 19 4 20 5 21 6 22 7 23 8 24 9 25 10 26 11
REMARK SMILES IDX 27 12 28 13 29 14 30 15 31 16 32 17 15 18 14 19 13 20 12 21
REMARK SMILES IDX 11 22 10 23 9 24 8 25 7 26 6 27 5 28 4 29 3 30 2 31 1 32
REMARK H PARENT
REMARK Flexibility Score: inf
ROOT
ATOM      1  C   UNL     1       8.885   6.454  35.616  1.00  0.00     0.000 C 
ENDROOT
BRANCH   1   2
ATOM      2  C   UNL     1       8.010   6.944  36.788  1.00  0.00     0.000 C 
BRANCH   2   3
ATOM      3  C   UNL     1       7.085   8.105  36.383  1.00  0.00     0.000 C 
BRANCH   3   4
ATOM      4  C   UNL     1       7.057   8.351  34.865  1.00  0.00     0.000 C 
BRANCH   4   5
ATOM      5  C   UNL     1       6.015   9.378  34.387  1.00  0.00     0.000 C 
BRANCH   5   6
ATOM      6  C   UNL     1       5.284  10.074  35.550  1.00  0.00     0.000 C 
BRANCH   6   7
ATOM      7  C   UNL     1       5.602  11.577  35.639  1.00  0.00     0.000 C 
BRANCH   7   8
ATOM      8  C   UNL     1       5.104  12.207  36.952  1.00  0.00     0.000 C 
BRANCH   8   9
ATOM      9  C   UNL     1       5.037  13.742  36.884  1.00  0.00     0.000 C 
BRANCH   9  10
ATOM     10  C   UNL     1       5.651  14.305  35.589  1.00  0.00     0.000 C 
BRANCH  10  11
ATOM     11  C   UNL     1       6.385  15.642  35.822  1.00  0.00     0.000 C 
BRANCH  11  12
ATOM     12  C   UNL     1       5.551  16.881  35.437  1.00  0.00     0.000 C 
BRANCH  12  13
ATOM     13  C   UNL     1       6.210  17.806  34.400  1.00  0.00     0.006 C 
BRANCH  13  14
ATOM     14  C   UNL     1       5.185  18.575  33.559  1.00  0.00     0.053 C 
BRANCH  14  15
ATOM     15  C   UNL     1       5.835  19.748  32.892  1.00  0.00     0.041 C 
ATOM     16  O   UNL     1       7.082  19.767  32.720  1.00  0.00    -0.550 OA
ATOM     17  O   UNL     1       5.068  20.838  32.498  1.00  0.00    -0.550 OA
ENDBRANCH  14  15
ENDBRANCH  13  14
ENDBRANCH  12  13
ENDBRANCH  11  12
ENDBRANCH  10  11
ENDBRANCH   9  10
ENDBRANCH   8   9
ENDBRANCH   7   8
ENDBRANCH   6   7
ENDBRANCH   5   6
ENDBRANCH   4   5
ENDBRANCH   3   4
ENDBRANCH   2   3
ENDBRANCH   1   2
BRANCH   1  18
ATOM     18  C   UNL     1       8.715   4.960  35.294  1.00  0.00     0.000 C 
BRANCH  18  19
ATOM     19  C   UNL     1       7.647   4.276  36.165  1.00  0.00     0.000 C 
BRANCH  19  20
ATOM     20  C   UNL     1       6.452   3.752  35.342  1.00  0.00     0.000 C 
BRANCH  20  21
ATOM     21  C   UNL     1       6.562   2.267  34.946  1.00  0.00     0.000 C 
BRANCH  21  22
ATOM     22  C   UNL     1       6.902   1.309  36.100  1.00  0.00     0.000 C 
BRANCH  22  23
ATOM     23  C   UNL     1       7.919   1.904  37.089  1.00  0.00     0.000 C 
BRANCH  23  24
ATOM     24  C   UNL     1       9.342   1.951  36.510  1.00  0.00    -0.000 C 
BRANCH  24  25
ATOM     25  C   UNL     1      10.256   0.875  37.116  1.00  0.00    -0.000 C 
BRANCH  25  26
ATOM     26  C   UNL     1      11.673   0.968  36.529  1.00  0.00    -0.000 C 
BRANCH  26  27
ATOM     27  C   UNL     1      11.833   2.149  35.558  1.00  0.00    -0.000 C 
BRANCH  27  28
ATOM     28  C   UNL     1      13.285   2.650  35.474  1.00  0.00    -0.000 C 
BRANCH  28  29
ATOM     29  C   UNL     1      13.442   3.869  34.554  1.00  0.00    -0.000 C 
BRANCH  29  30
ATOM     30  C   UNL     1      12.111   4.301  33.913  1.00  0.00    -0.000 C 
BRANCH  30  31
ATOM     31  C   UNL     1      11.977   5.829  33.810  1.00  0.00    -0.003 C 
ATOM     32  C   UNL     1      13.291   6.555  34.099  1.00  0.00     0.004 C 
ENDBRANCH  30  31
ENDBRANCH  29  30
ENDBRANCH  28  29
ENDBRANCH  27  28
ENDBRANCH  26  27
ENDBRANCH  25  26
ENDBRANCH  24  25
ENDBRANCH  23  24
ENDBRANCH  22  23
ENDBRANCH  21  22
ENDBRANCH  20  21
ENDBRANCH  19  20
ENDBRANCH  18  19
ENDBRANCH   1  18
TORSDOF 28
ENDMDL
