MODEL 1
REMARK VINA RESULT:    -3.303      0.000      0.000
REMARK INTER + INTRA:         -15.235
REMARK INTER:                  -8.710
REMARK INTRA:                  -6.525
REMARK UNBOUND:                -6.525
REMARK SMILES CCCCCCCCCCCCCCCCCCCCCCCCCCCCCC(=O)[O-]
REMARK SMILES IDX 16 1 17 2 18 3 19 4 20 5 21 6 22 7 23 8 24 9 25 10 26 11
REMARK SMILES IDX 27 12 28 13 29 14 30 15 31 16 32 17 15 18 14 19 13 20 12 21
REMARK SMILES IDX 11 22 10 23 9 24 8 25 7 26 6 27 5 28 4 29 3 30 2 31 1 32
REMARK H PARENT
REMARK Flexibility Score: inf
ROOT
ATOM      1  C   UNL     1     140.321 130.642 114.312  1.00  0.00     0.000 C 
ENDROOT
BRANCH   1   2
ATOM      2  C   UNL     1     141.705 130.017 114.546  1.00  0.00     0.000 C 
BRANCH   2   3
ATOM      3  C   UNL     1     141.670 128.863 115.563  1.00  0.00     0.000 C 
BRANCH   3   4
ATOM      4  C   UNL     1     142.382 127.592 115.067  1.00  0.00     0.000 C 
BRANCH   4   5
ATOM      5  C   UNL     1     143.789 127.373 115.663  1.00  0.00     0.000 C 
BRANCH   5   6
ATOM      6  C   UNL     1     144.962 127.465 114.662  1.00  0.00     0.000 C 
BRANCH   6   7
ATOM      7  C   UNL     1     145.355 128.888 114.216  1.00  0.00     0.000 C 
BRANCH   7   8
ATOM      8  C   UNL     1     145.931 129.788 115.327  1.00  0.00     0.000 C 
BRANCH   8   9
ATOM      9  C   UNL     1     144.943 130.822 115.898  1.00  0.00     0.000 C 
BRANCH   9  10
ATOM     10  C   UNL     1     144.808 130.802 117.432  1.00  0.00     0.000 C 
BRANCH  10  11
ATOM     11  C   UNL     1     143.342 130.779 117.924  1.00  0.00     0.000 C 
BRANCH  11  12
ATOM     12  C   UNL     1     143.055 131.785 119.051  1.00  0.00     0.000 C 
BRANCH  12  13
ATOM     13  C   UNL     1     141.921 132.761 118.685  1.00  0.00     0.006 C 
BRANCH  13  14
ATOM     14  C   UNL     1     141.687 132.839 117.170  1.00  0.00     0.053 C 
BRANCH  14  15
ATOM     15  C   UNL     1     142.413 133.996 116.555  1.00  0.00     0.041 C 
ATOM     16  O   UNL     1     142.933 133.884 115.412  1.00  0.00    -0.550 OA
ATOM     17  O   UNL     1     142.553 135.183 117.261  1.00  0.00    -0.550 OA
ENDBRANCH  14  15
ENDBRANCH  13  14
ENDBRANCH  12  13
ENDBRANCH  11  12
ENDBRANCH  10  11
ENDBRANCH   9  10
ENDBRANCH   8   9
ENDBRANCH   7   8
ENDBRANCH   6   7
ENDBRANCH   5   6
ENDBRANCH   4   5
ENDBRANCH   3   4
ENDBRANCH   2   3
ENDBRANCH   1   2
BRANCH   1  18
ATOM     18  C   UNL     1     139.733 130.276 112.939  1.00  0.00     0.000 C 
BRANCH  18  19
ATOM     19  C   UNL     1     138.557 129.289 113.040  1.00  0.00     0.000 C 
BRANCH  19  20
ATOM     20  C   UNL     1     138.964 127.802 113.106  1.00  0.00     0.000 C 
BRANCH  20  21
ATOM     21  C   UNL     1     138.665 127.106 114.449  1.00  0.00     0.000 C 
BRANCH  21  22
ATOM     22  C   UNL     1     137.569 127.777 115.300  1.00  0.00     0.000 C 
BRANCH  22  23
ATOM     23  C   UNL     1     138.035 128.310 116.667  1.00  0.00     0.000 C 
BRANCH  23  24
ATOM     24  C   UNL     1     137.910 129.838 116.787  1.00  0.00    -0.000 C 
BRANCH  24  25
ATOM     25  C   UNL     1     138.358 130.359 118.161  1.00  0.00    -0.000 C 
BRANCH  25  26
ATOM     26  C   UNL     1     139.813 129.980 118.490  1.00  0.00    -0.000 C 
BRANCH  26  27
ATOM     27  C   UNL     1     139.976 129.419 119.913  1.00  0.00    -0.000 C 
BRANCH  27  28
ATOM     28  C   UNL     1     140.543 127.988 119.991  1.00  0.00    -0.000 C 
BRANCH  28  29
ATOM     29  C   UNL     1     141.507 127.630 118.839  1.00  0.00    -0.000 C 
BRANCH  29  30
ATOM     30  C   UNL     1     142.901 127.228 119.347  1.00  0.00    -0.000 C 
BRANCH  30  31
ATOM     31  C   UNL     1     143.316 128.082 120.551  1.00  0.00    -0.003 C 
ATOM     32  C   UNL     1     144.772 128.527 120.433  1.00  0.00     0.004 C 
ENDBRANCH  30  31
ENDBRANCH  29  30
ENDBRANCH  28  29
ENDBRANCH  27  28
ENDBRANCH  26  27
ENDBRANCH  25  26
ENDBRANCH  24  25
ENDBRANCH  23  24
ENDBRANCH  22  23
ENDBRANCH  21  22
ENDBRANCH  20  21
ENDBRANCH  19  20
ENDBRANCH  18  19
ENDBRANCH   1  18
TORSDOF 28
ENDMDL
MODEL 2
REMARK VINA RESULT:    -3.181      1.074      5.365
REMARK INTER + INTRA:         -14.914
REMARK INTER:                  -8.792
REMARK INTRA:                  -6.122
REMARK UNBOUND:                -6.525
REMARK SMILES CCCCCCCCCCCCCCCCCCCCCCCCCCCCCC(=O)[O-]
REMARK SMILES IDX 16 1 17 2 18 3 19 4 20 5 21 6 22 7 23 8 24 9 25 10 26 11
REMARK SMILES IDX 27 12 28 13 29 14 30 15 31 16 32 17 15 18 14 19 13 20 12 21
REMARK SMILES IDX 11 22 10 23 9 24 8 25 7 26 6 27 5 28 4 29 3 30 2 31 1 32
REMARK H PARENT
REMARK Flexibility Score: inf
ROOT
ATOM      1  C   UNL     1     141.429 129.644 114.345  1.00  0.00     0.000 C 
ENDROOT
BRANCH   1   2
ATOM      2  C   UNL     1     139.935 129.999 114.388  1.00  0.00     0.000 C 
BRANCH   2   3
ATOM      3  C   UNL     1     139.119 129.262 113.312  1.00  0.00     0.000 C 
BRANCH   3   4
ATOM      4  C   UNL     1     138.948 127.760 113.598  1.00  0.00     0.000 C 
BRANCH   4   5
ATOM      5  C   UNL     1     138.034 127.437 114.800  1.00  0.00     0.000 C 
BRANCH   5   6
ATOM      6  C   UNL     1     138.758 127.101 116.121  1.00  0.00     0.000 C 
BRANCH   6   7
ATOM      7  C   UNL     1     138.085 127.621 117.408  1.00  0.00     0.000 C 
BRANCH   7   8
ATOM      8  C   UNL     1     136.554 127.782 117.328  1.00  0.00     0.000 C 
BRANCH   8   9
ATOM      9  C   UNL     1     136.048 129.229 117.481  1.00  0.00     0.000 C 
BRANCH   9  10
ATOM     10  C   UNL     1     136.919 130.291 116.782  1.00  0.00     0.000 C 
BRANCH  10  11
ATOM     11  C   UNL     1     137.748 131.153 117.763  1.00  0.00     0.000 C 
BRANCH  11  12
ATOM     12  C   UNL     1     139.238 131.245 117.391  1.00  0.00     0.000 C 
BRANCH  12  13
ATOM     13  C   UNL     1     140.017 132.174 118.341  1.00  0.00     0.006 C 
BRANCH  13  14
ATOM     14  C   UNL     1     141.467 132.388 117.885  1.00  0.00     0.053 C 
BRANCH  14  15
ATOM     15  C   UNL     1     141.545 133.282 116.686  1.00  0.00     0.041 C 
ATOM     16  O   UNL     1     141.011 134.423 116.710  1.00  0.00    -0.550 OA
ATOM     17  O   UNL     1     142.168 132.838 115.527  1.00  0.00    -0.550 OA
ENDBRANCH  14  15
ENDBRANCH  13  14
ENDBRANCH  12  13
ENDBRANCH  11  12
ENDBRANCH  10  11
ENDBRANCH   9  10
ENDBRANCH   8   9
ENDBRANCH   7   8
ENDBRANCH   6   7
ENDBRANCH   5   6
ENDBRANCH   4   5
ENDBRANCH   3   4
ENDBRANCH   2   3
ENDBRANCH   1   2
BRANCH   1  18
ATOM     18  C   UNL     1     141.848 128.719 115.500  1.00  0.00     0.000 C 
BRANCH  18  19
ATOM     19  C   UNL     1     142.567 127.449 115.013  1.00  0.00     0.000 C 
BRANCH  19  20
ATOM     20  C   UNL     1     144.020 127.297 115.510  1.00  0.00     0.000 C 
BRANCH  20  21
ATOM     21  C   UNL     1     145.101 127.684 114.483  1.00  0.00     0.000 C 
BRANCH  21  22
ATOM     22  C   UNL     1     145.262 129.199 114.245  1.00  0.00     0.000 C 
BRANCH  22  23
ATOM     23  C   UNL     1     146.049 129.952 115.332  1.00  0.00     0.000 C 
BRANCH  23  24
ATOM     24  C   UNL     1     145.207 131.020 116.050  1.00  0.00    -0.000 C 
BRANCH  24  25
ATOM     25  C   UNL     1     144.436 130.452 117.252  1.00  0.00    -0.000 C 
BRANCH  25  26
ATOM     26  C   UNL     1     145.369 129.954 118.370  1.00  0.00    -0.000 C 
BRANCH  26  27
ATOM     27  C   UNL     1     145.160 128.467 118.703  1.00  0.00    -0.000 C 
BRANCH  27  28
ATOM     28  C   UNL     1     143.896 128.153 119.528  1.00  0.00    -0.000 C 
BRANCH  28  29
ATOM     29  C   UNL     1     143.061 126.977 118.976  1.00  0.00    -0.000 C 
BRANCH  29  30
ATOM     30  C   UNL     1     141.559 127.299 118.927  1.00  0.00    -0.000 C 
BRANCH  30  31
ATOM     31  C   UNL     1     141.304 128.783 119.218  1.00  0.00    -0.003 C 
ATOM     32  C   UNL     1     140.195 128.957 120.253  1.00  0.00     0.004 C 
ENDBRANCH  30  31
ENDBRANCH  29  30
ENDBRANCH  28  29
ENDBRANCH  27  28
ENDBRANCH  26  27
ENDBRANCH  25  26
ENDBRANCH  24  25
ENDBRANCH  23  24
ENDBRANCH  22  23
ENDBRANCH  21  22
ENDBRANCH  20  21
ENDBRANCH  19  20
ENDBRANCH  18  19
ENDBRANCH   1  18
TORSDOF 28
ENDMDL
MODEL 3
REMARK VINA RESULT:    -3.169      1.787      4.841
REMARK INTER + INTRA:         -14.880
REMARK INTER:                  -9.534
REMARK INTRA:                  -5.346
REMARK UNBOUND:                -6.525
REMARK SMILES CCCCCCCCCCCCCCCCCCCCCCCCCCCCCC(=O)[O-]
REMARK SMILES IDX 16 1 17 2 18 3 19 4 20 5 21 6 22 7 23 8 24 9 25 10 26 11
REMARK SMILES IDX 27 12 28 13 29 14 30 15 31 16 32 17 15 18 14 19 13 20 12 21
REMARK SMILES IDX 11 22 10 23 9 24 8 25 7 26 6 27 5 28 4 29 3 30 2 31 1 32
REMARK H PARENT
REMARK Flexibility Score: inf
ROOT
ATOM      1  C   UNL     1     141.044 131.491 117.614  1.00  0.00     0.000 C 
ENDROOT
BRANCH   1   2
ATOM      2  C   UNL     1     141.002 131.325 116.087  1.00  0.00     0.000 C 
BRANCH   2   3
ATOM      3  C   UNL     1     142.403 131.334 115.451  1.00  0.00     0.000 C 
BRANCH   3   4
ATOM      4  C   UNL     1     142.692 130.088 114.596  1.00  0.00     0.000 C 
BRANCH   4   5
ATOM      5  C   UNL     1     141.774 128.882 114.891  1.00  0.00     0.000 C 
BRANCH   5   6
ATOM      6  C   UNL     1     142.485 127.603 115.383  1.00  0.00     0.000 C 
BRANCH   6   7
ATOM      7  C   UNL     1     144.018 127.578 115.212  1.00  0.00     0.000 C 
BRANCH   7   8
ATOM      8  C   UNL     1     144.816 127.291 116.500  1.00  0.00     0.000 C 
BRANCH   8   9
ATOM      9  C   UNL     1     145.927 128.312 116.812  1.00  0.00     0.000 C 
BRANCH   9  10
ATOM     10  C   UNL     1     145.534 129.782 116.570  1.00  0.00     0.000 C 
BRANCH  10  11
ATOM     11  C   UNL     1     146.614 130.595 115.818  1.00  0.00     0.000 C 
BRANCH  11  12
ATOM     12  C   UNL     1     146.405 132.117 115.899  1.00  0.00     0.000 C 
BRANCH  12  13
ATOM     13  C   UNL     1     145.558 132.523 117.120  1.00  0.00     0.006 C 
BRANCH  13  14
ATOM     14  C   UNL     1     144.923 133.910 116.952  1.00  0.00     0.053 C 
BRANCH  14  15
ATOM     15  C   UNL     1     145.798 134.828 116.154  1.00  0.00     0.041 C 
ATOM     16  O   UNL     1     145.394 135.292 115.055  1.00  0.00    -0.550 OA
ATOM     17  O   UNL     1     147.075 135.136 116.605  1.00  0.00    -0.550 OA
ENDBRANCH  14  15
ENDBRANCH  13  14
ENDBRANCH  12  13
ENDBRANCH  11  12
ENDBRANCH  10  11
ENDBRANCH   9  10
ENDBRANCH   8   9
ENDBRANCH   7   8
ENDBRANCH   6   7
ENDBRANCH   5   6
ENDBRANCH   4   5
ENDBRANCH   3   4
ENDBRANCH   2   3
ENDBRANCH   1   2
BRANCH   1  18
ATOM     18  C   UNL     1     142.398 131.077 118.214  1.00  0.00     0.000 C 
BRANCH  18  19
ATOM     19  C   UNL     1     142.448 129.587 118.596  1.00  0.00     0.000 C 
BRANCH  19  20
ATOM     20  C   UNL     1     143.495 129.229 119.671  1.00  0.00     0.000 C 
BRANCH  20  21
ATOM     21  C   UNL     1     143.178 127.961 120.489  1.00  0.00     0.000 C 
BRANCH  21  22
ATOM     22  C   UNL     1     142.003 128.100 121.477  1.00  0.00     0.000 C 
BRANCH  22  23
ATOM     23  C   UNL     1     141.051 126.893 121.536  1.00  0.00     0.000 C 
BRANCH  23  24
ATOM     24  C   UNL     1     139.586 127.273 121.262  1.00  0.00    -0.000 C 
BRANCH  24  25
ATOM     25  C   UNL     1     139.451 128.641 120.577  1.00  0.00    -0.000 C 
BRANCH  25  26
ATOM     26  C   UNL     1     139.050 128.523 119.096  1.00  0.00    -0.000 C 
BRANCH  26  27
ATOM     27  C   UNL     1     139.552 127.223 118.445  1.00  0.00    -0.000 C 
BRANCH  27  28
ATOM     28  C   UNL     1     139.240 127.082 116.942  1.00  0.00    -0.000 C 
BRANCH  28  29
ATOM     29  C   UNL     1     138.007 127.887 116.478  1.00  0.00    -0.000 C 
BRANCH  29  30
ATOM     30  C   UNL     1     137.402 127.334 115.178  1.00  0.00    -0.000 C 
BRANCH  30  31
ATOM     31  C   UNL     1     138.445 127.308 114.053  1.00  0.00    -0.003 C 
ATOM     32  C   UNL     1     138.638 128.698 113.451  1.00  0.00     0.004 C 
ENDBRANCH  30  31
ENDBRANCH  29  30
ENDBRANCH  28  29
ENDBRANCH  27  28
ENDBRANCH  26  27
ENDBRANCH  25  26
ENDBRANCH  24  25
ENDBRANCH  23  24
ENDBRANCH  22  23
ENDBRANCH  21  22
ENDBRANCH  20  21
ENDBRANCH  19  20
ENDBRANCH  18  19
ENDBRANCH   1  18
TORSDOF 28
ENDMDL
MODEL 4
REMARK VINA RESULT:    -3.164      4.997      8.710
REMARK INTER + INTRA:         -14.867
REMARK INTER:                 -11.184
REMARK INTRA:                  -3.683
REMARK UNBOUND:                -6.525
REMARK SMILES CCCCCCCCCCCCCCCCCCCCCCCCCCCCCC(=O)[O-]
REMARK SMILES IDX 16 1 17 2 18 3 19 4 20 5 21 6 22 7 23 8 24 9 25 10 26 11
REMARK SMILES IDX 27 12 28 13 29 14 30 15 31 16 32 17 15 18 14 19 13 20 12 21
REMARK SMILES IDX 11 22 10 23 9 24 8 25 7 26 6 27 5 28 4 29 3 30 2 31 1 32
REMARK H PARENT
REMARK Flexibility Score: inf
ROOT
ATOM      1  C   UNL     1     140.503 129.308 115.143  1.00  0.00     0.000 C 
ENDROOT
BRANCH   1   2
ATOM      2  C   UNL     1     139.707 129.958 114.000  1.00  0.00     0.000 C 
BRANCH   2   3
ATOM      3  C   UNL     1     138.587 129.049 113.466  1.00  0.00     0.000 C 
BRANCH   3   4
ATOM      4  C   UNL     1     138.722 127.585 113.918  1.00  0.00     0.000 C 
BRANCH   4   5
ATOM      5  C   UNL     1     137.528 127.055 114.740  1.00  0.00     0.000 C 
BRANCH   5   6
ATOM      6  C   UNL     1     137.337 127.695 116.133  1.00  0.00     0.000 C 
BRANCH   6   7
ATOM      7  C   UNL     1     136.098 128.600 116.293  1.00  0.00     0.000 C 
BRANCH   7   8
ATOM      8  C   UNL     1     134.741 127.899 116.080  1.00  0.00     0.000 C 
BRANCH   8   9
ATOM      9  C   UNL     1     133.549 128.851 115.871  1.00  0.00     0.000 C 
BRANCH   9  10
ATOM     10  C   UNL     1     132.617 128.465 114.706  1.00  0.00     0.000 C 
BRANCH  10  11
ATOM     11  C   UNL     1     132.010 127.049 114.843  1.00  0.00     0.000 C 
BRANCH  11  12
ATOM     12  C   UNL     1     130.472 127.035 114.822  1.00  0.00     0.000 C 
BRANCH  12  13
ATOM     13  C   UNL     1     129.868 128.094 115.763  1.00  0.00     0.006 C 
BRANCH  13  14
ATOM     14  C   UNL     1     129.042 129.143 115.006  1.00  0.00     0.053 C 
BRANCH  14  15
ATOM     15  C   UNL     1     128.798 130.364 115.838  1.00  0.00     0.041 C 
ATOM     16  O   UNL     1     128.895 131.511 115.325  1.00  0.00    -0.550 OA
ATOM     17  O   UNL     1     128.506 130.236 117.190  1.00  0.00    -0.550 OA
ENDBRANCH  14  15
ENDBRANCH  13  14
ENDBRANCH  12  13
ENDBRANCH  11  12
ENDBRANCH  10  11
ENDBRANCH   9  10
ENDBRANCH   8   9
ENDBRANCH   7   8
ENDBRANCH   6   7
ENDBRANCH   5   6
ENDBRANCH   4   5
ENDBRANCH   3   4
ENDBRANCH   2   3
ENDBRANCH   1   2
BRANCH   1  18
ATOM     18  C   UNL     1     141.968 129.039 114.760  1.00  0.00     0.000 C 
BRANCH  18  19
ATOM     19  C   UNL     1     142.423 127.612 115.113  1.00  0.00     0.000 C 
BRANCH  19  20
ATOM     20  C   UNL     1     143.393 127.519 116.309  1.00  0.00     0.000 C 
BRANCH  20  21
ATOM     21  C   UNL     1     144.863 127.245 115.933  1.00  0.00     0.000 C 
BRANCH  21  22
ATOM     22  C   UNL     1     145.268 127.700 114.516  1.00  0.00     0.000 C 
BRANCH  22  23
ATOM     23  C   UNL     1     145.627 129.191 114.385  1.00  0.00     0.000 C 
BRANCH  23  24
ATOM     24  C   UNL     1     146.202 129.783 115.682  1.00  0.00    -0.000 C 
BRANCH  24  25
ATOM     25  C   UNL     1     145.815 131.257 115.878  1.00  0.00    -0.000 C 
BRANCH  25  26
ATOM     26  C   UNL     1     144.318 131.438 116.186  1.00  0.00    -0.000 C 
BRANCH  26  27
ATOM     27  C   UNL     1     143.934 130.944 117.591  1.00  0.00    -0.000 C 
BRANCH  27  28
ATOM     28  C   UNL     1     142.421 130.927 117.887  1.00  0.00    -0.000 C 
BRANCH  28  29
ATOM     29  C   UNL     1     142.002 129.896 118.957  1.00  0.00    -0.000 C 
BRANCH  29  30
ATOM     30  C   UNL     1     143.206 129.143 119.546  1.00  0.00    -0.000 C 
BRANCH  30  31
ATOM     31  C   UNL     1     142.810 127.726 119.981  1.00  0.00    -0.003 C 
ATOM     32  C   UNL     1     141.454 127.332 119.398  1.00  0.00     0.004 C 
ENDBRANCH  30  31
ENDBRANCH  29  30
ENDBRANCH  28  29
ENDBRANCH  27  28
ENDBRANCH  26  27
ENDBRANCH  25  26
ENDBRANCH  24  25
ENDBRANCH  23  24
ENDBRANCH  22  23
ENDBRANCH  21  22
ENDBRANCH  20  21
ENDBRANCH  19  20
ENDBRANCH  18  19
ENDBRANCH   1  18
TORSDOF 28
ENDMDL
MODEL 5
REMARK VINA RESULT:    -3.134      1.855      5.933
REMARK INTER + INTRA:         -14.789
REMARK INTER:                  -8.957
REMARK INTRA:                  -5.832
REMARK UNBOUND:                -6.525
REMARK SMILES CCCCCCCCCCCCCCCCCCCCCCCCCCCCCC(=O)[O-]
REMARK SMILES IDX 16 1 17 2 18 3 19 4 20 5 21 6 22 7 23 8 24 9 25 10 26 11
REMARK SMILES IDX 27 12 28 13 29 14 30 15 31 16 32 17 15 18 14 19 13 20 12 21
REMARK SMILES IDX 11 22 10 23 9 24 8 25 7 26 6 27 5 28 4 29 3 30 2 31 1 32
REMARK H PARENT
REMARK Flexibility Score: inf
ROOT
ATOM      1  C   UNL     1     140.108 129.511 114.732  1.00  0.00     0.000 C 
ENDROOT
BRANCH   1   2
ATOM      2  C   UNL     1     139.449 129.314 113.358  1.00  0.00     0.000 C 
BRANCH   2   3
ATOM      3  C   UNL     1     138.422 128.169 113.352  1.00  0.00     0.000 C 
BRANCH   3   4
ATOM      4  C   UNL     1     138.506 127.267 114.596  1.00  0.00     0.000 C 
BRANCH   4   5
ATOM      5  C   UNL     1     137.231 127.254 115.465  1.00  0.00     0.000 C 
BRANCH   5   6
ATOM      6  C   UNL     1     137.461 127.301 116.992  1.00  0.00     0.000 C 
BRANCH   6   7
ATOM      7  C   UNL     1     138.862 126.875 117.475  1.00  0.00     0.000 C 
BRANCH   7   8
ATOM      8  C   UNL     1     139.753 128.022 117.993  1.00  0.00     0.000 C 
BRANCH   8   9
ATOM      9  C   UNL     1     139.322 128.613 119.348  1.00  0.00     0.000 C 
BRANCH   9  10
ATOM     10  C   UNL     1     138.778 130.053 119.276  1.00  0.00     0.000 C 
BRANCH  10  11
ATOM     11  C   UNL     1     138.779 130.645 117.848  1.00  0.00     0.000 C 
BRANCH  11  12
ATOM     12  C   UNL     1     137.417 131.215 117.417  1.00  0.00     0.000 C 
BRANCH  12  13
ATOM     13  C   UNL     1     137.200 131.116 115.895  1.00  0.00     0.006 C 
BRANCH  13  14
ATOM     14  C   UNL     1     137.087 132.496 115.233  1.00  0.00     0.053 C 
BRANCH  14  15
ATOM     15  C   UNL     1     138.146 132.701 114.193  1.00  0.00     0.041 C 
ATOM     16  O   UNL     1     137.887 132.498 112.977  1.00  0.00    -0.550 OA
ATOM     17  O   UNL     1     139.429 133.072 114.572  1.00  0.00    -0.550 OA
ENDBRANCH  14  15
ENDBRANCH  13  14
ENDBRANCH  12  13
ENDBRANCH  11  12
ENDBRANCH  10  11
ENDBRANCH   9  10
ENDBRANCH   8   9
ENDBRANCH   7   8
ENDBRANCH   6   7
ENDBRANCH   5   6
ENDBRANCH   4   5
ENDBRANCH   3   4
ENDBRANCH   2   3
ENDBRANCH   1   2
BRANCH   1  18
ATOM     18  C   UNL     1     141.632 129.303 114.690  1.00  0.00     0.000 C 
BRANCH  18  19
ATOM     19  C   UNL     1     142.042 127.850 114.989  1.00  0.00     0.000 C 
BRANCH  19  20
ATOM     20  C   UNL     1     142.897 127.669 116.261  1.00  0.00     0.000 C 
BRANCH  20  21
ATOM     21  C   UNL     1     144.369 127.291 116.004  1.00  0.00     0.000 C 
BRANCH  21  22
ATOM     22  C   UNL     1     144.913 127.695 114.619  1.00  0.00     0.000 C 
BRANCH  22  23
ATOM     23  C   UNL     1     145.538 129.099 114.545  1.00  0.00     0.000 C 
BRANCH  23  24
ATOM     24  C   UNL     1     146.005 129.619 115.915  1.00  0.00    -0.000 C 
BRANCH  24  25
ATOM     25  C   UNL     1     146.526 131.063 115.851  1.00  0.00    -0.000 C 
BRANCH  25  26
ATOM     26  C   UNL     1     145.819 131.990 116.855  1.00  0.00    -0.000 C 
BRANCH  26  27
ATOM     27  C   UNL     1     145.450 133.356 116.248  1.00  0.00    -0.000 C 
BRANCH  27  28
ATOM     28  C   UNL     1     143.939 133.611 116.084  1.00  0.00    -0.000 C 
BRANCH  28  29
ATOM     29  C   UNL     1     143.101 132.327 115.901  1.00  0.00    -0.000 C 
BRANCH  29  30
ATOM     30  C   UNL     1     142.089 132.122 117.040  1.00  0.00    -0.000 C 
BRANCH  30  31
ATOM     31  C   UNL     1     142.511 130.960 117.948  1.00  0.00    -0.003 C 
ATOM     32  C   UNL     1     142.391 131.344 119.422  1.00  0.00     0.004 C 
ENDBRANCH  30  31
ENDBRANCH  29  30
ENDBRANCH  28  29
ENDBRANCH  27  28
ENDBRANCH  26  27
ENDBRANCH  25  26
ENDBRANCH  24  25
ENDBRANCH  23  24
ENDBRANCH  22  23
ENDBRANCH  21  22
ENDBRANCH  20  21
ENDBRANCH  19  20
ENDBRANCH  18  19
ENDBRANCH   1  18
TORSDOF 28
ENDMDL
MODEL 6
REMARK VINA RESULT:    -3.133      5.170      9.031
REMARK INTER + INTRA:         -14.788
REMARK INTER:                 -11.509
REMARK INTRA:                  -3.279
REMARK UNBOUND:                -6.525
REMARK SMILES CCCCCCCCCCCCCCCCCCCCCCCCCCCCCC(=O)[O-]
REMARK SMILES IDX 16 1 17 2 18 3 19 4 20 5 21 6 22 7 23 8 24 9 25 10 26 11
REMARK SMILES IDX 27 12 28 13 29 14 30 15 31 16 32 17 15 18 14 19 13 20 12 21
REMARK SMILES IDX 11 22 10 23 9 24 8 25 7 26 6 27 5 28 4 29 3 30 2 31 1 32
REMARK H PARENT
REMARK Flexibility Score: inf
ROOT
ATOM      1  C   UNL     1     138.446 129.825 114.193  1.00  0.00     0.000 C 
ENDROOT
BRANCH   1   2
ATOM      2  C   UNL     1     138.815 128.474 113.562  1.00  0.00     0.000 C 
BRANCH   2   3
ATOM      3  C   UNL     1     138.361 127.277 114.415  1.00  0.00     0.000 C 
BRANCH   3   4
ATOM      4  C   UNL     1     138.490 127.523 115.928  1.00  0.00     0.000 C 
BRANCH   4   5
ATOM      5  C   UNL     1     137.226 127.176 116.743  1.00  0.00     0.000 C 
BRANCH   5   6
ATOM      6  C   UNL     1     135.901 127.160 115.949  1.00  0.00     0.000 C 
BRANCH   6   7
ATOM      7  C   UNL     1     134.611 127.145 116.794  1.00  0.00     0.000 C 
BRANCH   7   8
ATOM      8  C   UNL     1     134.005 128.533 117.089  1.00  0.00     0.000 C 
BRANCH   8   9
ATOM      9  C   UNL     1     133.888 129.460 115.865  1.00  0.00     0.000 C 
BRANCH   9  10
ATOM     10  C   UNL     1     132.478 129.536 115.249  1.00  0.00     0.000 C 
BRANCH  10  11
ATOM     11  C   UNL     1     132.096 128.287 114.421  1.00  0.00     0.000 C 
BRANCH  11  12
ATOM     12  C   UNL     1     130.768 127.643 114.855  1.00  0.00     0.000 C 
BRANCH  12  13
ATOM     13  C   UNL     1     129.973 128.544 115.818  1.00  0.00     0.006 C 
BRANCH  13  14
ATOM     14  C   UNL     1     128.833 129.289 115.110  1.00  0.00     0.053 C 
BRANCH  14  15
ATOM     15  C   UNL     1     128.664 130.679 115.642  1.00  0.00     0.041 C 
ATOM     16  O   UNL     1     129.496 131.577 115.345  1.00  0.00    -0.550 OA
ATOM     17  O   UNL     1     127.612 130.972 116.500  1.00  0.00    -0.550 OA
ENDBRANCH  14  15
ENDBRANCH  13  14
ENDBRANCH  12  13
ENDBRANCH  11  12
ENDBRANCH  10  11
ENDBRANCH   9  10
ENDBRANCH   8   9
ENDBRANCH   7   8
ENDBRANCH   6   7
ENDBRANCH   5   6
ENDBRANCH   4   5
ENDBRANCH   3   4
ENDBRANCH   2   3
ENDBRANCH   1   2
BRANCH   1  18
ATOM     18  C   UNL     1     139.683 130.639 114.607  1.00  0.00     0.000 C 
BRANCH  18  19
ATOM     19  C   UNL     1     140.931 130.288 113.777  1.00  0.00     0.000 C 
BRANCH  19  20
ATOM     20  C   UNL     1     142.171 129.895 114.607  1.00  0.00     0.000 C 
BRANCH  20  21
ATOM     21  C   UNL     1     141.865 129.116 115.901  1.00  0.00     0.000 C 
BRANCH  21  22
ATOM     22  C   UNL     1     142.598 127.767 116.038  1.00  0.00     0.000 C 
BRANCH  22  23
ATOM     23  C   UNL     1     143.595 127.446 114.911  1.00  0.00     0.000 C 
BRANCH  23  24
ATOM     24  C   UNL     1     144.944 126.927 115.436  1.00  0.00    -0.000 C 
BRANCH  24  25
ATOM     25  C   UNL     1     145.800 128.038 116.062  1.00  0.00    -0.000 C 
BRANCH  25  26
ATOM     26  C   UNL     1     145.912 129.277 115.157  1.00  0.00    -0.000 C 
BRANCH  26  27
ATOM     27  C   UNL     1     146.098 130.582 115.952  1.00  0.00    -0.000 C 
BRANCH  27  28
ATOM     28  C   UNL     1     145.057 130.825 117.062  1.00  0.00    -0.000 C 
BRANCH  28  29
ATOM     29  C   UNL     1     144.717 132.314 117.289  1.00  0.00    -0.000 C 
BRANCH  29  30
ATOM     30  C   UNL     1     144.682 133.112 115.976  1.00  0.00    -0.000 C 
BRANCH  30  31
ATOM     31  C   UNL     1     146.016 133.829 115.732  1.00  0.00    -0.003 C 
ATOM     32  C   UNL     1     146.342 134.787 116.876  1.00  0.00     0.004 C 
ENDBRANCH  30  31
ENDBRANCH  29  30
ENDBRANCH  28  29
ENDBRANCH  27  28
ENDBRANCH  26  27
ENDBRANCH  25  26
ENDBRANCH  24  25
ENDBRANCH  23  24
ENDBRANCH  22  23
ENDBRANCH  21  22
ENDBRANCH  20  21
ENDBRANCH  19  20
ENDBRANCH  18  19
ENDBRANCH   1  18
TORSDOF 28
ENDMDL
MODEL 7
REMARK VINA RESULT:    -3.105      8.803     12.593
REMARK INTER + INTRA:         -14.713
REMARK INTER:                  -8.113
REMARK INTRA:                  -6.600
REMARK UNBOUND:                -6.525
REMARK SMILES CCCCCCCCCCCCCCCCCCCCCCCCCCCCCC(=O)[O-]
REMARK SMILES IDX 16 1 17 2 18 3 19 4 20 5 21 6 22 7 23 8 24 9 25 10 26 11
REMARK SMILES IDX 27 12 28 13 29 14 30 15 31 16 32 17 15 18 14 19 13 20 12 21
REMARK SMILES IDX 11 22 10 23 9 24 8 25 7 26 6 27 5 28 4 29 3 30 2 31 1 32
REMARK H PARENT
REMARK Flexibility Score: inf
ROOT
ATOM      1  C   UNL     1     133.373 129.908 119.708  1.00  0.00     0.000 C 
ENDROOT
BRANCH   1   2
ATOM      2  C   UNL     1     133.328 128.592 118.917  1.00  0.00     0.000 C 
BRANCH   2   3
ATOM      3  C   UNL     1     134.644 128.299 118.176  1.00  0.00     0.000 C 
BRANCH   3   4
ATOM      4  C   UNL     1     134.484 127.291 117.025  1.00  0.00     0.000 C 
BRANCH   4   5
ATOM      5  C   UNL     1     133.821 127.869 115.756  1.00  0.00     0.000 C 
BRANCH   5   6
ATOM      6  C   UNL     1     132.509 127.184 115.315  1.00  0.00     0.000 C 
BRANCH   6   7
ATOM      7  C   UNL     1     131.307 128.122 115.080  1.00  0.00     0.000 C 
BRANCH   7   8
ATOM      8  C   UNL     1     130.182 128.022 116.131  1.00  0.00     0.000 C 
BRANCH   8   9
ATOM      9  C   UNL     1     130.431 126.991 117.247  1.00  0.00     0.000 C 
BRANCH   9  10
ATOM     10  C   UNL     1     129.448 127.077 118.431  1.00  0.00     0.000 C 
BRANCH  10  11
ATOM     11  C   UNL     1     129.789 128.201 119.437  1.00  0.00     0.000 C 
BRANCH  11  12
ATOM     12  C   UNL     1     128.760 129.343 119.454  1.00  0.00     0.000 C 
BRANCH  12  13
ATOM     13  C   UNL     1     129.021 130.345 120.595  1.00  0.00     0.006 C 
BRANCH  13  14
ATOM     14  C   UNL     1     129.914 129.754 121.694  1.00  0.00     0.053 C 
BRANCH  14  15
ATOM     15  C   UNL     1     129.107 129.212 122.833  1.00  0.00     0.041 C 
ATOM     16  O   UNL     1     129.566 128.282 123.549  1.00  0.00    -0.550 OA
ATOM     17  O   UNL     1     127.832 129.704 123.077  1.00  0.00    -0.550 OA
ENDBRANCH  14  15
ENDBRANCH  13  14
ENDBRANCH  12  13
ENDBRANCH  11  12
ENDBRANCH  10  11
ENDBRANCH   9  10
ENDBRANCH   8   9
ENDBRANCH   7   8
ENDBRANCH   6   7
ENDBRANCH   5   6
ENDBRANCH   4   5
ENDBRANCH   3   4
ENDBRANCH   2   3
ENDBRANCH   1   2
BRANCH   1  18
ATOM     18  C   UNL     1     132.379 130.952 119.172  1.00  0.00     0.000 C 
BRANCH  18  19
ATOM     19  C   UNL     1     132.083 130.775 117.672  1.00  0.00     0.000 C 
BRANCH  19  20
ATOM     20  C   UNL     1     133.025 131.551 116.730  1.00  0.00     0.000 C 
BRANCH  20  21
ATOM     21  C   UNL     1     132.736 131.368 115.227  1.00  0.00     0.000 C 
BRANCH  21  22
ATOM     22  C   UNL     1     131.796 132.425 114.611  1.00  0.00     0.000 C 
BRANCH  22  23
ATOM     23  C   UNL     1     130.784 131.882 113.586  1.00  0.00     0.000 C 
BRANCH  23  24
ATOM     24  C   UNL     1     129.567 132.804 113.403  1.00  0.00    -0.000 C 
BRANCH  24  25
ATOM     25  C   UNL     1     128.234 132.049 113.523  1.00  0.00    -0.000 C 
BRANCH  25  26
ATOM     26  C   UNL     1     128.362 130.749 114.336  1.00  0.00    -0.000 C 
BRANCH  26  27
ATOM     27  C   UNL     1     127.875 130.903 115.787  1.00  0.00    -0.000 C 
BRANCH  27  28
ATOM     28  C   UNL     1     128.902 131.514 116.761  1.00  0.00    -0.000 C 
BRANCH  28  29
ATOM     29  C   UNL     1     128.485 132.886 117.334  1.00  0.00    -0.000 C 
BRANCH  29  30
ATOM     30  C   UNL     1     129.679 133.668 117.904  1.00  0.00    -0.000 C 
BRANCH  30  31
ATOM     31  C   UNL     1     130.182 134.714 116.902  1.00  0.00    -0.003 C 
ATOM     32  C   UNL     1     129.038 135.245 116.041  1.00  0.00     0.004 C 
ENDBRANCH  30  31
ENDBRANCH  29  30
ENDBRANCH  28  29
ENDBRANCH  27  28
ENDBRANCH  26  27
ENDBRANCH  25  26
ENDBRANCH  24  25
ENDBRANCH  23  24
ENDBRANCH  22  23
ENDBRANCH  21  22
ENDBRANCH  20  21
ENDBRANCH  19  20
ENDBRANCH  18  19
ENDBRANCH   1  18
TORSDOF 28
ENDMDL
MODEL 8
REMARK VINA RESULT:    -3.104      8.681     11.849
REMARK INTER + INTRA:         -14.711
REMARK INTER:                  -7.926
REMARK INTRA:                  -6.784
REMARK UNBOUND:                -6.525
REMARK SMILES CCCCCCCCCCCCCCCCCCCCCCCCCCCCCC(=O)[O-]
REMARK SMILES IDX 16 1 17 2 18 3 19 4 20 5 21 6 22 7 23 8 24 9 25 10 26 11
REMARK SMILES IDX 27 12 28 13 29 14 30 15 31 16 32 17 15 18 14 19 13 20 12 21
REMARK SMILES IDX 11 22 10 23 9 24 8 25 7 26 6 27 5 28 4 29 3 30 2 31 1 32
REMARK H PARENT
REMARK Flexibility Score: inf
ROOT
ATOM      1  C   UNL     1     133.367 129.785 117.703  1.00  0.00     0.000 C 
ENDROOT
BRANCH   1   2
ATOM      2  C   UNL     1     133.824 129.440 116.277  1.00  0.00     0.000 C 
BRANCH   2   3
ATOM      3  C   UNL     1     133.185 128.146 115.746  1.00  0.00     0.000 C 
BRANCH   3   4
ATOM      4  C   UNL     1     132.092 128.394 114.692  1.00  0.00     0.000 C 
BRANCH   4   5
ATOM      5  C   UNL     1     130.904 127.409 114.756  1.00  0.00     0.000 C 
BRANCH   5   6
ATOM      6  C   UNL     1     129.544 128.025 115.150  1.00  0.00     0.000 C 
BRANCH   6   7
ATOM      7  C   UNL     1     129.459 129.563 115.088  1.00  0.00     0.000 C 
BRANCH   7   8
ATOM      8  C   UNL     1     128.055 130.131 114.794  1.00  0.00     0.000 C 
BRANCH   8   9
ATOM      9  C   UNL     1     128.019 131.249 113.736  1.00  0.00     0.000 C 
BRANCH   9  10
ATOM     10  C   UNL     1     128.148 132.675 114.304  1.00  0.00     0.000 C 
BRANCH  10  11
ATOM     11  C   UNL     1     129.586 133.242 114.230  1.00  0.00     0.000 C 
BRANCH  11  12
ATOM     12  C   UNL     1     130.413 132.670 113.067  1.00  0.00     0.000 C 
BRANCH  12  13
ATOM     13  C   UNL     1     131.685 131.953 113.555  1.00  0.00     0.006 C 
BRANCH  13  14
ATOM     14  C   UNL     1     132.017 132.286 115.016  1.00  0.00     0.053 C 
BRANCH  14  15
ATOM     15  C   UNL     1     133.317 133.020 115.136  1.00  0.00     0.041 C 
ATOM     16  O   UNL     1     133.816 133.593 114.131  1.00  0.00    -0.550 OA
ATOM     17  O   UNL     1     133.997 133.036 116.347  1.00  0.00    -0.550 OA
ENDBRANCH  14  15
ENDBRANCH  13  14
ENDBRANCH  12  13
ENDBRANCH  11  12
ENDBRANCH  10  11
ENDBRANCH   9  10
ENDBRANCH   8   9
ENDBRANCH   7   8
ENDBRANCH   6   7
ENDBRANCH   5   6
ENDBRANCH   4   5
ENDBRANCH   3   4
ENDBRANCH   2   3
ENDBRANCH   1   2
BRANCH   1  18
ATOM     18  C   UNL     1     131.838 129.728 117.860  1.00  0.00     0.000 C 
BRANCH  18  19
ATOM     19  C   UNL     1     131.391 128.778 118.986  1.00  0.00     0.000 C 
BRANCH  19  20
ATOM     20  C   UNL     1     130.100 127.987 118.691  1.00  0.00     0.000 C 
BRANCH  20  21
ATOM     21  C   UNL     1     128.812 128.611 119.264  1.00  0.00     0.000 C 
BRANCH  21  22
ATOM     22  C   UNL     1     129.032 129.634 120.397  1.00  0.00     0.000 C 
BRANCH  22  23
ATOM     23  C   UNL     1     128.602 131.075 120.070  1.00  0.00     0.000 C 
BRANCH  23  24
ATOM     24  C   UNL     1     128.138 131.245 118.614  1.00  0.00    -0.000 C 
BRANCH  24  25
ATOM     25  C   UNL     1     129.120 132.079 117.776  1.00  0.00    -0.000 C 
BRANCH  25  26
ATOM     26  C   UNL     1     129.674 133.289 118.547  1.00  0.00    -0.000 C 
BRANCH  26  27
ATOM     27  C   UNL     1     131.208 133.380 118.492  1.00  0.00    -0.000 C 
BRANCH  27  28
ATOM     28  C   UNL     1     131.881 133.873 119.789  1.00  0.00    -0.000 C 
BRANCH  28  29
ATOM     29  C   UNL     1     131.545 133.023 121.033  1.00  0.00    -0.000 C 
BRANCH  29  30
ATOM     30  C   UNL     1     132.239 131.652 121.010  1.00  0.00    -0.000 C 
BRANCH  30  31
ATOM     31  C   UNL     1     132.015 130.899 122.327  1.00  0.00    -0.003 C 
ATOM     32  C   UNL     1     130.836 131.485 123.101  1.00  0.00     0.004 C 
ENDBRANCH  30  31
ENDBRANCH  29  30
ENDBRANCH  28  29
ENDBRANCH  27  28
ENDBRANCH  26  27
ENDBRANCH  25  26
ENDBRANCH  24  25
ENDBRANCH  23  24
ENDBRANCH  22  23
ENDBRANCH  21  22
ENDBRANCH  20  21
ENDBRANCH  19  20
ENDBRANCH  18  19
ENDBRANCH   1  18
TORSDOF 28
ENDMDL
MODEL 9
REMARK VINA RESULT:    -3.068      2.488      6.845
REMARK INTER + INTRA:         -14.615
REMARK INTER:                 -10.223
REMARK INTRA:                  -4.392
REMARK UNBOUND:                -6.525
REMARK SMILES CCCCCCCCCCCCCCCCCCCCCCCCCCCCCC(=O)[O-]
REMARK SMILES IDX 16 1 17 2 18 3 19 4 20 5 21 6 22 7 23 8 24 9 25 10 26 11
REMARK SMILES IDX 27 12 28 13 29 14 30 15 31 16 32 17 15 18 14 19 13 20 12 21
REMARK SMILES IDX 11 22 10 23 9 24 8 25 7 26 6 27 5 28 4 29 3 30 2 31 1 32
REMARK H PARENT
REMARK Flexibility Score: inf
ROOT
ATOM      1  C   UNL     1     141.336 130.741 115.527  1.00  0.00     0.000 C 
ENDROOT
BRANCH   1   2
ATOM      2  C   UNL     1     140.047 131.011 114.737  1.00  0.00     0.000 C 
BRANCH   2   3
ATOM      3  C   UNL     1     139.998 130.249 113.402  1.00  0.00     0.000 C 
BRANCH   3   4
ATOM      4  C   UNL     1     138.687 129.474 113.189  1.00  0.00     0.000 C 
BRANCH   4   5
ATOM      5  C   UNL     1     138.821 127.941 113.311  1.00  0.00     0.000 C 
BRANCH   5   6
ATOM      6  C   UNL     1     138.672 127.366 114.736  1.00  0.00     0.000 C 
BRANCH   6   7
ATOM      7  C   UNL     1     137.311 127.608 115.420  1.00  0.00     0.000 C 
BRANCH   7   8
ATOM      8  C   UNL     1     137.387 128.192 116.845  1.00  0.00     0.000 C 
BRANCH   8   9
ATOM      9  C   UNL     1     138.789 128.657 117.278  1.00  0.00     0.000 C 
BRANCH   9  10
ATOM     10  C   UNL     1     139.198 128.227 118.700  1.00  0.00     0.000 C 
BRANCH  10  11
ATOM     11  C   UNL     1     140.281 127.124 118.726  1.00  0.00     0.000 C 
BRANCH  11  12
ATOM     12  C   UNL     1     141.409 127.393 119.737  1.00  0.00     0.000 C 
BRANCH  12  13
ATOM     13  C   UNL     1     142.805 127.263 119.099  1.00  0.00     0.006 C 
BRANCH  13  14
ATOM     14  C   UNL     1     143.896 127.932 119.947  1.00  0.00     0.053 C 
BRANCH  14  15
ATOM     15  C   UNL     1     143.336 129.017 120.816  1.00  0.00     0.041 C 
ATOM     16  O   UNL     1     143.126 128.803 122.040  1.00  0.00    -0.550 OA
ATOM     17  O   UNL     1     143.005 130.248 120.265  1.00  0.00    -0.550 OA
ENDBRANCH  14  15
ENDBRANCH  13  14
ENDBRANCH  12  13
ENDBRANCH  11  12
ENDBRANCH  10  11
ENDBRANCH   9  10
ENDBRANCH   8   9
ENDBRANCH   7   8
ENDBRANCH   6   7
ENDBRANCH   5   6
ENDBRANCH   4   5
ENDBRANCH   3   4
ENDBRANCH   2   3
ENDBRANCH   1   2
BRANCH   1  18
ATOM     18  C   UNL     1     142.202 129.644 114.884  1.00  0.00     0.000 C 
BRANCH  18  19
ATOM     19  C   UNL     1     142.130 128.308 115.645  1.00  0.00     0.000 C 
BRANCH  19  20
ATOM     20  C   UNL     1     143.109 127.225 115.145  1.00  0.00     0.000 C 
BRANCH  20  21
ATOM     21  C   UNL     1     144.486 127.753 114.696  1.00  0.00     0.000 C 
BRANCH  21  22
ATOM     22  C   UNL     1     145.555 127.813 115.805  1.00  0.00     0.000 C 
BRANCH  22  23
ATOM     23  C   UNL     1     145.984 129.230 116.226  1.00  0.00     0.000 C 
BRANCH  23  24
ATOM     24  C   UNL     1     145.170 129.773 117.412  1.00  0.00    -0.000 C 
BRANCH  24  25
ATOM     25  C   UNL     1     144.810 131.258 117.248  1.00  0.00    -0.000 C 
BRANCH  25  26
ATOM     26  C   UNL     1     145.188 131.807 115.862  1.00  0.00    -0.000 C 
BRANCH  26  27
ATOM     27  C   UNL     1     146.317 132.851 115.921  1.00  0.00    -0.000 C 
BRANCH  27  28
ATOM     28  C   UNL     1     145.905 134.283 115.529  1.00  0.00    -0.000 C 
BRANCH  28  29
ATOM     29  C   UNL     1     144.379 134.519 115.525  1.00  0.00    -0.000 C 
BRANCH  29  30
ATOM     30  C   UNL     1     143.970 135.688 114.615  1.00  0.00    -0.000 C 
BRANCH  30  31
ATOM     31  C   UNL     1     145.169 136.206 113.812  1.00  0.00    -0.003 C 
ATOM     32  C   UNL     1     145.681 137.528 114.381  1.00  0.00     0.004 C 
ENDBRANCH  30  31
ENDBRANCH  29  30
ENDBRANCH  28  29
ENDBRANCH  27  28
ENDBRANCH  26  27
ENDBRANCH  25  26
ENDBRANCH  24  25
ENDBRANCH  23  24
ENDBRANCH  22  23
ENDBRANCH  21  22
ENDBRANCH  20  21
ENDBRANCH  19  20
ENDBRANCH  18  19
ENDBRANCH   1  18
TORSDOF 28
ENDMDL
