MODEL 1
REMARK VINA RESULT:    -3.896      0.000      0.000
REMARK INTER + INTRA:          -4.124
REMARK INTER:                  -4.124
REMARK INTRA:                   0.000
REMARK UNBOUND:                 0.000
REMARK SMILES O=c1ccc2cc(O)c(O)cc2o1
REMARK SMILES IDX 4 1 3 2 2 3 1 4 13 5 12 6 11 7 9 8 7 9 6 10 5 11 8 12 10 14
REMARK H PARENT 8 13 10 15
REMARK Flexibility Score: inf
ROOT
ATOM      1  C   UNL     1      97.060 109.822 108.015  1.00  0.00     0.019 A 
ATOM      2  C   UNL     1      97.677 108.776 108.699  1.00  0.00     0.094 A 
ATOM      3  C   UNL     1      99.047 108.856 108.968  1.00  0.00     0.336 A 
ATOM      4  O   UNL     1      99.623 107.921 109.585  1.00  0.00    -0.246 OA
ATOM      5  O   UNL     1      99.751 109.915 108.575  1.00  0.00    -0.423 OA
ATOM      6  C   UNL     1      99.202 110.935 107.919  1.00  0.00     0.142 A 
ATOM      7  C   UNL     1      99.991 112.022 107.531  1.00  0.00     0.098 A 
ATOM      8  C   UNL     1      99.416 113.100 106.839  1.00  0.00     0.161 A 
ATOM      9  C   UNL     1      98.048 113.089 106.536  1.00  0.00     0.158 A 
ATOM     10  C   UNL     1      97.252 112.000 106.923  1.00  0.00     0.062 A 
ATOM     11  C   UNL     1      97.823 110.924 107.613  1.00  0.00     0.022 A 
ENDROOT
BRANCH   9  12
ATOM     12  O   UNL     1      97.486 114.164 105.849  1.00  0.00    -0.504 OA
ATOM     13  H   UNL     1      98.043 114.761 105.250  1.00  0.00     0.293 HD
ENDBRANCH   9  12
BRANCH   8  14
ATOM     14  O   UNL     1     100.200 114.185 106.452  1.00  0.00    -0.504 OA
ATOM     15  H   UNL     1     100.358 114.972 107.069  1.00  0.00     0.293 HD
ENDBRANCH   8  14
TORSDOF 2
ENDMDL
MODEL 2
REMARK VINA RESULT:    -3.836     15.481     16.670
REMARK INTER + INTRA:          -4.061
REMARK INTER:                  -4.061
REMARK INTRA:                   0.000
REMARK UNBOUND:                 0.000
REMARK SMILES O=c1ccc2cc(O)c(O)cc2o1
REMARK SMILES IDX 4 1 3 2 2 3 1 4 13 5 12 6 11 7 9 8 7 9 6 10 5 11 8 12 10 14
REMARK H PARENT 8 13 10 15
REMARK Flexibility Score: inf
ROOT
ATOM      1  C   UNL     1     110.526  99.944 103.125  1.00  0.00     0.019 A 
ATOM      2  C   UNL     1     111.498  99.053 102.673  1.00  0.00     0.094 A 
ATOM      3  C   UNL     1     112.793  99.526 102.434  1.00  0.00     0.336 A 
ATOM      4  O   UNL     1     113.685  98.736 102.025  1.00  0.00    -0.246 OA
ATOM      5  O   UNL     1     113.090 100.807 102.634  1.00  0.00    -0.423 OA
ATOM      6  C   UNL     1     112.193 101.691 103.065  1.00  0.00     0.142 A 
ATOM      7  C   UNL     1     112.564 103.026 103.257  1.00  0.00     0.098 A 
ATOM      8  C   UNL     1     111.621 103.961 103.711  1.00  0.00     0.161 A 
ATOM      9  C   UNL     1     110.304 103.559 103.972  1.00  0.00     0.158 A 
ATOM     10  C   UNL     1     109.927 102.222 103.780  1.00  0.00     0.062 A 
ATOM     11  C   UNL     1     110.866 101.286 103.327  1.00  0.00     0.022 A 
ENDROOT
BRANCH   9  12
ATOM     12  O   UNL     1     109.374 104.495 104.423  1.00  0.00    -0.504 OA
ATOM     13  H   UNL     1     108.378 104.356 104.298  1.00  0.00     0.293 HD
ENDBRANCH   9  12
BRANCH   8  14
ATOM     14  O   UNL     1     111.988 105.292 103.905  1.00  0.00    -0.504 OA
ATOM     15  H   UNL     1     112.698 105.553 104.578  1.00  0.00     0.293 HD
ENDBRANCH   8  14
TORSDOF 2
ENDMDL
MODEL 3
REMARK VINA RESULT:    -3.836     15.337     16.648
REMARK INTER + INTRA:          -4.060
REMARK INTER:                  -4.060
REMARK INTRA:                   0.000
REMARK UNBOUND:                 0.000
REMARK SMILES O=c1ccc2cc(O)c(O)cc2o1
REMARK SMILES IDX 4 1 3 2 2 3 1 4 13 5 12 6 11 7 9 8 7 9 6 10 5 11 8 12 10 14
REMARK H PARENT 8 13 10 15
REMARK Flexibility Score: inf
ROOT
ATOM      1  C   UNL     1     113.171 100.806 102.609  1.00  0.00     0.019 A 
ATOM      2  C   UNL     1     112.797  99.471 102.461  1.00  0.00     0.094 A 
ATOM      3  C   UNL     1     111.482  99.098 102.761  1.00  0.00     0.336 A 
ATOM      4  O   UNL     1     111.125  97.897 102.633  1.00  0.00    -0.246 OA
ATOM      5  O   UNL     1     110.604 100.005 103.181  1.00  0.00    -0.423 OA
ATOM      6  C   UNL     1     110.919 101.289 103.336  1.00  0.00     0.142 A 
ATOM      7  C   UNL     1     109.954 102.197 103.782  1.00  0.00     0.098 A 
ATOM      8  C   UNL     1     110.282 103.552 103.947  1.00  0.00     0.161 A 
ATOM      9  C   UNL     1     111.580 103.998 103.665  1.00  0.00     0.158 A 
ATOM     10  C   UNL     1     112.553 103.091 103.219  1.00  0.00     0.062 A 
ATOM     11  C   UNL     1     112.227 101.738 103.053  1.00  0.00     0.022 A 
ENDROOT
BRANCH   9  12
ATOM     12  O   UNL     1     111.897 105.345 103.832  1.00  0.00    -0.504 OA
ATOM     13  H   UNL     1     111.305 106.079 103.461  1.00  0.00     0.293 HD
ENDBRANCH   9  12
BRANCH   8  14
ATOM     14  O   UNL     1     109.321 104.459 104.390  1.00  0.00    -0.504 OA
ATOM     15  H   UNL     1     109.580 105.309 104.876  1.00  0.00     0.293 HD
ENDBRANCH   8  14
TORSDOF 2
ENDMDL
MODEL 4
REMARK VINA RESULT:    -3.818     12.590     14.217
REMARK INTER + INTRA:          -4.041
REMARK INTER:                  -4.041
REMARK INTRA:                   0.000
REMARK UNBOUND:                 0.000
REMARK SMILES O=c1ccc2cc(O)c(O)cc2o1
REMARK SMILES IDX 4 1 3 2 2 3 1 4 13 5 12 6 11 7 9 8 7 9 6 10 5 11 8 12 10 14
REMARK H PARENT 8 13 10 15
REMARK Flexibility Score: inf
ROOT
ATOM      1  C   UNL     1     112.112 107.236 102.497  1.00  0.00     0.019 A 
ATOM      2  C   UNL     1     112.045 108.409 101.746  1.00  0.00     0.094 A 
ATOM      3  C   UNL     1     110.804 108.831 101.257  1.00  0.00     0.336 A 
ATOM      4  O   UNL     1     110.723 109.888 100.577  1.00  0.00    -0.246 OA
ATOM      5  O   UNL     1     109.705 108.123 101.506  1.00  0.00    -0.423 OA
ATOM      6  C   UNL     1     109.725 106.999 102.219  1.00  0.00     0.142 A 
ATOM      7  C   UNL     1     108.538 106.296 102.449  1.00  0.00     0.098 A 
ATOM      8  C   UNL     1     108.554 105.110 103.199  1.00  0.00     0.161 A 
ATOM      9  C   UNL     1     109.762 104.626 103.720  1.00  0.00     0.158 A 
ATOM     10  C   UNL     1     110.955 105.327 103.493  1.00  0.00     0.062 A 
ATOM     11  C   UNL     1     110.942 106.511 102.744  1.00  0.00     0.022 A 
ENDROOT
BRANCH   9  12
ATOM     12  O   UNL     1     109.768 103.448 104.465  1.00  0.00    -0.504 OA
ATOM     13  H   UNL     1     110.619 102.918 104.613  1.00  0.00     0.293 HD
ENDBRANCH   9  12
BRANCH   8  14
ATOM     14  O   UNL     1     107.372 104.408 103.430  1.00  0.00    -0.504 OA
ATOM     15  H   UNL     1     107.242 103.463 103.089  1.00  0.00     0.293 HD
ENDBRANCH   8  14
TORSDOF 2
ENDMDL
MODEL 5
REMARK VINA RESULT:    -3.806      9.775     11.011
REMARK INTER + INTRA:          -4.028
REMARK INTER:                  -4.028
REMARK INTRA:                   0.000
REMARK UNBOUND:                 0.000
REMARK SMILES O=c1ccc2cc(O)c(O)cc2o1
REMARK SMILES IDX 4 1 3 2 2 3 1 4 13 5 12 6 11 7 9 8 7 9 6 10 5 11 8 12 10 14
REMARK H PARENT 8 13 10 15
REMARK Flexibility Score: inf
ROOT
ATOM      1  C   UNL     1     109.879 107.871 109.945  1.00  0.00     0.019 A 
ATOM      2  C   UNL     1     108.748 107.192 110.396  1.00  0.00     0.094 A 
ATOM      3  C   UNL     1     107.530 107.876 110.466  1.00  0.00     0.336 A 
ATOM      4  O   UNL     1     106.497 107.279 110.871  1.00  0.00    -0.246 OA
ATOM      5  O   UNL     1     107.453 109.155 110.109  1.00  0.00    -0.423 OA
ATOM      6  C   UNL     1     108.508 109.840 109.673  1.00  0.00     0.142 A 
ATOM      7  C   UNL     1     108.367 111.184 109.310  1.00  0.00     0.098 A 
ATOM      8  C   UNL     1     109.476 111.911 108.851  1.00  0.00     0.161 A 
ATOM      9  C   UNL     1     110.730 111.290 108.753  1.00  0.00     0.158 A 
ATOM     10  C   UNL     1     110.876 109.943 109.116  1.00  0.00     0.062 A 
ATOM     11  C   UNL     1     109.770 109.216 109.575  1.00  0.00     0.022 A 
ENDROOT
BRANCH   9  12
ATOM     12  O   UNL     1     111.826 112.019 108.295  1.00  0.00    -0.504 OA
ATOM     13  H   UNL     1     112.575 111.580 107.773  1.00  0.00     0.293 HD
ENDBRANCH   9  12
BRANCH   8  14
ATOM     14  O   UNL     1     109.339 113.249 108.488  1.00  0.00    -0.504 OA
ATOM     15  H   UNL     1     110.137 113.805 108.203  1.00  0.00     0.293 HD
ENDBRANCH   8  14
TORSDOF 2
ENDMDL
MODEL 6
REMARK VINA RESULT:    -3.798      1.486      2.136
REMARK INTER + INTRA:          -4.020
REMARK INTER:                  -4.020
REMARK INTRA:                   0.000
REMARK UNBOUND:                 0.000
REMARK SMILES O=c1ccc2cc(O)c(O)cc2o1
REMARK SMILES IDX 4 1 3 2 2 3 1 4 13 5 12 6 11 7 9 8 7 9 6 10 5 11 8 12 10 14
REMARK H PARENT 8 13 10 15
REMARK Flexibility Score: inf
ROOT
ATOM      1  C   UNL     1      98.712 109.298 108.701  1.00  0.00     0.019 A 
ATOM      2  C   UNL     1     100.068 109.051 108.907  1.00  0.00     0.094 A 
ATOM      3  C   UNL     1     101.005 109.980 108.442  1.00  0.00     0.336 A 
ATOM      4  O   UNL     1     102.235 109.774 108.619  1.00  0.00    -0.246 OA
ATOM      5  O   UNL     1     100.606 111.081 107.812  1.00  0.00    -0.423 OA
ATOM      6  C   UNL     1      99.322 111.356 107.594  1.00  0.00     0.142 A 
ATOM      7  C   UNL     1      98.962 112.530 106.925  1.00  0.00     0.098 A 
ATOM      8  C   UNL     1      97.609 112.824 106.694  1.00  0.00     0.161 A 
ATOM      9  C   UNL     1      96.614 111.939 107.132  1.00  0.00     0.158 A 
ATOM     10  C   UNL     1      96.970 110.759 107.803  1.00  0.00     0.062 A 
ATOM     11  C   UNL     1      98.320 110.464 108.035  1.00  0.00     0.022 A 
ENDROOT
BRANCH   9  12
ATOM     12  O   UNL     1      95.273 112.238 106.898  1.00  0.00    -0.504 OA
ATOM     13  H   UNL     1      94.631 111.545 106.532  1.00  0.00     0.293 HD
ENDBRANCH   9  12
BRANCH   8  14
ATOM     14  O   UNL     1      97.247 113.993 106.028  1.00  0.00    -0.504 OA
ATOM     15  H   UNL     1      96.278 114.212 105.829  1.00  0.00     0.293 HD
ENDBRANCH   8  14
TORSDOF 2
ENDMDL
MODEL 7
REMARK VINA RESULT:    -3.785     17.018     18.461
REMARK INTER + INTRA:          -4.006
REMARK INTER:                  -4.006
REMARK INTRA:                   0.000
REMARK UNBOUND:                 0.000
REMARK SMILES O=c1ccc2cc(O)c(O)cc2o1
REMARK SMILES IDX 4 1 3 2 2 3 1 4 13 5 12 6 11 7 9 8 7 9 6 10 5 11 8 12 10 14
REMARK H PARENT 8 13 10 15
REMARK Flexibility Score: inf
ROOT
ATOM      1  C   UNL     1     114.365  99.888 110.249  1.00  0.00     0.019 A 
ATOM      2  C   UNL     1     114.497 100.825 111.273  1.00  0.00     0.094 A 
ATOM      3  C   UNL     1     113.344 101.333 111.879  1.00  0.00     0.336 A 
ATOM      4  O   UNL     1     113.442 102.180 112.807  1.00  0.00    -0.246 OA
ATOM      5  O   UNL     1     112.140 100.928 111.483  1.00  0.00    -0.423 OA
ATOM      6  C   UNL     1     111.969 100.036 110.510  1.00  0.00     0.142 A 
ATOM      7  C   UNL     1     110.679  99.648 110.136  1.00  0.00     0.098 A 
ATOM      8  C   UNL     1     110.494  98.708 109.110  1.00  0.00     0.161 A 
ATOM      9  C   UNL     1     111.604  98.156 108.457  1.00  0.00     0.158 A 
ATOM     10  C   UNL     1     112.901  98.542 108.828  1.00  0.00     0.062 A 
ATOM     11  C   UNL     1     113.088  99.480 109.852  1.00  0.00     0.022 A 
ENDROOT
BRANCH   9  12
ATOM     12  O   UNL     1     111.412  97.223 107.439  1.00  0.00    -0.504 OA
ATOM     13  H   UNL     1     110.856  96.388 107.584  1.00  0.00     0.293 HD
ENDBRANCH   9  12
BRANCH   8  14
ATOM     14  O   UNL     1     109.209  98.319 108.735  1.00  0.00    -0.504 OA
ATOM     15  H   UNL     1     108.885  97.368 108.863  1.00  0.00     0.293 HD
ENDBRANCH   8  14
TORSDOF 2
ENDMDL
MODEL 8
REMARK VINA RESULT:    -3.779     12.805     14.233
REMARK INTER + INTRA:          -3.999
REMARK INTER:                  -3.999
REMARK INTRA:                   0.000
REMARK UNBOUND:                 0.000
REMARK SMILES O=c1ccc2cc(O)c(O)cc2o1
REMARK SMILES IDX 4 1 3 2 2 3 1 4 13 5 12 6 11 7 9 8 7 9 6 10 5 11 8 12 10 14
REMARK H PARENT 8 13 10 15
REMARK Flexibility Score: inf
ROOT
ATOM      1  C   UNL     1     109.844 108.138 101.471  1.00  0.00     0.019 A 
ATOM      2  C   UNL     1     111.058 108.811 101.339  1.00  0.00     0.094 A 
ATOM      3  C   UNL     1     112.196 108.283 101.956  1.00  0.00     0.336 A 
ATOM      4  O   UNL     1     113.302 108.876 101.849  1.00  0.00    -0.246 OA
ATOM      5  O   UNL     1     112.120 107.155 102.659  1.00  0.00    -0.423 OA
ATOM      6  C   UNL     1     110.982 106.482 102.810  1.00  0.00     0.142 A 
ATOM      7  C   UNL     1     110.962 105.302 103.561  1.00  0.00     0.098 A 
ATOM      8  C   UNL     1     109.765 104.588 103.723  1.00  0.00     0.161 A 
ATOM      9  C   UNL     1     108.583 105.058 103.132  1.00  0.00     0.158 A 
ATOM     10  C   UNL     1     108.598 106.242 102.378  1.00  0.00     0.062 A 
ATOM     11  C   UNL     1     109.792 106.955 102.215  1.00  0.00     0.022 A 
ENDROOT
BRANCH   9  12
ATOM     12  O   UNL     1     107.398 104.343 103.298  1.00  0.00    -0.504 OA
ATOM     13  H   UNL     1     107.047 104.104 104.218  1.00  0.00     0.293 HD
ENDBRANCH   9  12
BRANCH   8  14
ATOM     14  O   UNL     1     109.742 103.412 104.469  1.00  0.00    -0.504 OA
ATOM     15  H   UNL     1     109.218 103.343 105.334  1.00  0.00     0.293 HD
ENDBRANCH   8  14
TORSDOF 2
ENDMDL
MODEL 9
REMARK VINA RESULT:    -3.719     11.918     13.448
REMARK INTER + INTRA:          -3.936
REMARK INTER:                  -3.936
REMARK INTRA:                   0.000
REMARK UNBOUND:                 0.000
REMARK SMILES O=c1ccc2cc(O)c(O)cc2o1
REMARK SMILES IDX 4 1 3 2 2 3 1 4 13 5 12 6 11 7 9 8 7 9 6 10 5 11 8 12 10 14
REMARK H PARENT 8 13 10 15
REMARK Flexibility Score: inf
ROOT
ATOM      1  C   UNL     1     109.632 108.215 101.509  1.00  0.00     0.019 A 
ATOM      2  C   UNL     1     108.379 108.742 101.199  1.00  0.00     0.094 A 
ATOM      3  C   UNL     1     107.233 108.078 101.650  1.00  0.00     0.336 A 
ATOM      4  O   UNL     1     106.092 108.539 101.380  1.00  0.00    -0.246 OA
ATOM      5  O   UNL     1     107.339 106.960 102.363  1.00  0.00    -0.423 OA
ATOM      6  C   UNL     1     108.515 106.423 102.681  1.00  0.00     0.142 A 
ATOM      7  C   UNL     1     108.565 105.245 103.433  1.00  0.00     0.098 A 
ATOM      8  C   UNL     1     109.802 104.675 103.771  1.00  0.00     0.161 A 
ATOM      9  C   UNL     1     110.993 105.285 103.353  1.00  0.00     0.158 A 
ATOM     10  C   UNL     1     110.948 106.467 102.598  1.00  0.00     0.062 A 
ATOM     11  C   UNL     1     109.714 107.038 102.260  1.00  0.00     0.022 A 
ENDROOT
BRANCH   9  12
ATOM     12  O   UNL     1     112.217 104.713 103.693  1.00  0.00    -0.504 OA
ATOM     13  H   UNL     1     112.805 104.267 102.999  1.00  0.00     0.293 HD
ENDBRANCH   9  12
BRANCH   8  14
ATOM     14  O   UNL     1     109.855 103.501 104.521  1.00  0.00    -0.504 OA
ATOM     15  H   UNL     1     110.730 103.019 104.690  1.00  0.00     0.293 HD
ENDBRANCH   8  14
TORSDOF 2
ENDMDL
