MODEL 1
REMARK VINA RESULT:    -3.177      0.000      0.000
REMARK INTER + INTRA:          -7.124
REMARK INTER:                  -5.406
REMARK INTRA:                  -1.717
REMARK UNBOUND:                -1.717
REMARK SMILES CCCCCCCCCCCCCC(=O)[O-]
REMARK SMILES IDX 8 1 9 2 10 3 11 4 12 5 13 6 14 7 15 8 16 9 7 10 6 11 5 12
REMARK SMILES IDX 4 13 3 14 2 15 1 16
REMARK H PARENT
REMARK Flexibility Score: inf
ROOT
ATOM      1  C   UNL     1      45.599  34.923  47.338  1.00  0.00     0.000 C 
ENDROOT
BRANCH   1   2
ATOM      2  C   UNL     1      44.961  34.024  46.264  1.00  0.00     0.000 C 
BRANCH   2   3
ATOM      3  C   UNL     1      44.691  32.599  46.773  1.00  0.00     0.000 C 
BRANCH   3   4
ATOM      4  C   UNL     1      45.651  32.178  47.899  1.00  0.00     0.000 C 
BRANCH   4   5
ATOM      5  C   UNL     1      44.914  31.607  49.120  1.00  0.00     0.006 C 
BRANCH   5   6
ATOM      6  C   UNL     1      45.736  30.546  49.862  1.00  0.00     0.053 C 
BRANCH   6   7
ATOM      7  C   UNL     1      45.421  29.181  49.339  1.00  0.00     0.041 C 
ATOM      8  O   UNL     1      45.825  28.158  49.954  1.00  0.00    -0.550 OA
ATOM      9  O   UNL     1      44.638  29.035  48.201  1.00  0.00    -0.550 OA
ENDBRANCH   6   7
ENDBRANCH   5   6
ENDBRANCH   4   5
ENDBRANCH   3   4
ENDBRANCH   2   3
ENDBRANCH   1   2
BRANCH   1  10
ATOM     10  C   UNL     1      44.558  35.759  48.101  1.00  0.00     0.000 C 
BRANCH  10  11
ATOM     11  C   UNL     1      44.482  35.386  49.592  1.00  0.00    -0.000 C 
BRANCH  11  12
ATOM     12  C   UNL     1      43.099  34.854  50.007  1.00  0.00    -0.000 C 
BRANCH  12  13
ATOM     13  C   UNL     1      42.218  34.341  48.852  1.00  0.00    -0.000 C 
BRANCH  13  14
ATOM     14  C   UNL     1      40.988  35.230  48.595  1.00  0.00    -0.000 C 
BRANCH  14  15
ATOM     15  C   UNL     1      40.660  35.361  47.100  1.00  0.00    -0.003 C 
ATOM     16  C   UNL     1      41.232  34.216  46.264  1.00  0.00     0.004 C 
ENDBRANCH  14  15
ENDBRANCH  13  14
ENDBRANCH  12  13
ENDBRANCH  11  12
ENDBRANCH  10  11
ENDBRANCH   1  10
TORSDOF 12
ENDMDL
MODEL 2
REMARK VINA RESULT:    -3.132      2.415      5.903
REMARK INTER + INTRA:          -7.047
REMARK INTER:                  -5.935
REMARK INTRA:                  -1.111
REMARK UNBOUND:                -1.717
REMARK SMILES CCCCCCCCCCCCCC(=O)[O-]
REMARK SMILES IDX 8 1 9 2 10 3 11 4 12 5 13 6 14 7 15 8 16 9 7 10 6 11 5 12
REMARK SMILES IDX 4 13 3 14 2 15 1 16
REMARK H PARENT
REMARK Flexibility Score: inf
ROOT
ATOM      1  C   UNL     1      43.059  35.000  49.771  1.00  0.00     0.000 C 
ENDROOT
BRANCH   1   2
ATOM      2  C   UNL     1      41.953  34.473  48.840  1.00  0.00     0.000 C 
BRANCH   2   3
ATOM      3  C   UNL     1      41.088  35.600  48.254  1.00  0.00     0.000 C 
BRANCH   3   4
ATOM      4  C   UNL     1      40.685  35.341  46.792  1.00  0.00     0.000 C 
BRANCH   4   5
ATOM      5  C   UNL     1      41.250  34.019  46.249  1.00  0.00     0.006 C 
BRANCH   5   6
ATOM      6  C   UNL     1      42.212  34.228  45.074  1.00  0.00     0.053 C 
BRANCH   6   7
ATOM      7  C   UNL     1      43.612  33.893  45.479  1.00  0.00     0.041 C 
ATOM      8  O   UNL     1      44.295  34.720  46.140  1.00  0.00    -0.550 OA
ATOM      9  O   UNL     1      44.147  32.649  45.170  1.00  0.00    -0.550 OA
ENDBRANCH   6   7
ENDBRANCH   5   6
ENDBRANCH   4   5
ENDBRANCH   3   4
ENDBRANCH   2   3
ENDBRANCH   1   2
BRANCH   1  10
ATOM     10  C   UNL     1      44.384  34.237  49.604  1.00  0.00     0.000 C 
BRANCH  10  11
ATOM     11  C   UNL     1      44.198  32.712  49.690  1.00  0.00    -0.000 C 
BRANCH  11  12
ATOM     12  C   UNL     1      44.926  31.955  48.564  1.00  0.00    -0.000 C 
BRANCH  12  13
ATOM     13  C   UNL     1      45.874  30.835  49.032  1.00  0.00    -0.000 C 
BRANCH  13  14
ATOM     14  C   UNL     1      47.072  31.361  49.840  1.00  0.00    -0.000 C 
BRANCH  14  15
ATOM     15  C   UNL     1      47.537  30.368  50.916  1.00  0.00    -0.003 C 
ATOM     16  C   UNL     1      46.730  29.070  50.914  1.00  0.00     0.004 C 
ENDBRANCH  14  15
ENDBRANCH  13  14
ENDBRANCH  12  13
ENDBRANCH  11  12
ENDBRANCH  10  11
ENDBRANCH   1  10
TORSDOF 12
ENDMDL
MODEL 3
REMARK VINA RESULT:    -3.122      3.504      6.430
REMARK INTER + INTRA:          -7.029
REMARK INTER:                  -5.741
REMARK INTRA:                  -1.288
REMARK UNBOUND:                -1.717
REMARK SMILES CCCCCCCCCCCCCC(=O)[O-]
REMARK SMILES IDX 8 1 9 2 10 3 11 4 12 5 13 6 14 7 15 8 16 9 7 10 6 11 5 12
REMARK SMILES IDX 4 13 3 14 2 15 1 16
REMARK H PARENT
REMARK Flexibility Score: inf
ROOT
ATOM      1  C   UNL     1      46.425  32.230  49.457  1.00  0.00     0.000 C 
ENDROOT
BRANCH   1   2
ATOM      2  C   UNL     1      44.929  31.893  49.591  1.00  0.00     0.000 C 
BRANCH   2   3
ATOM      3  C   UNL     1      44.025  32.972  48.976  1.00  0.00     0.000 C 
BRANCH   3   4
ATOM      4  C   UNL     1      44.007  34.272  49.799  1.00  0.00     0.000 C 
BRANCH   4   5
ATOM      5  C   UNL     1      42.633  34.959  49.790  1.00  0.00     0.006 C 
BRANCH   5   6
ATOM      6  C   UNL     1      41.735  34.466  48.649  1.00  0.00     0.053 C 
BRANCH   6   7
ATOM      7  C   UNL     1      41.402  35.592  47.723  1.00  0.00     0.041 C 
ATOM      8  O   UNL     1      42.171  36.586  47.632  1.00  0.00    -0.550 OA
ATOM      9  O   UNL     1      40.270  35.522  46.922  1.00  0.00    -0.550 OA
ENDBRANCH   6   7
ENDBRANCH   5   6
ENDBRANCH   4   5
ENDBRANCH   3   4
ENDBRANCH   2   3
ENDBRANCH   1   2
BRANCH   1  10
ATOM     10  C   UNL     1      47.323  30.989  49.591  1.00  0.00     0.000 C 
BRANCH  10  11
ATOM     11  C   UNL     1      46.686  29.893  50.462  1.00  0.00    -0.000 C 
BRANCH  11  12
ATOM     12  C   UNL     1      47.041  28.470  49.991  1.00  0.00    -0.000 C 
BRANCH  12  13
ATOM     13  C   UNL     1      45.836  27.556  49.697  1.00  0.00    -0.000 C 
BRANCH  13  14
ATOM     14  C   UNL     1      44.752  28.245  48.850  1.00  0.00    -0.000 C 
BRANCH  14  15
ATOM     15  C   UNL     1      45.081  28.229  47.349  1.00  0.00    -0.003 C 
ATOM     16  C   UNL     1      45.224  29.631  46.758  1.00  0.00     0.004 C 
ENDBRANCH  14  15
ENDBRANCH  13  14
ENDBRANCH  12  13
ENDBRANCH  11  12
ENDBRANCH  10  11
ENDBRANCH   1  10
TORSDOF 12
ENDMDL
MODEL 4
REMARK VINA RESULT:    -3.097      1.455      2.137
REMARK INTER + INTRA:          -6.987
REMARK INTER:                  -5.649
REMARK INTRA:                  -1.338
REMARK UNBOUND:                -1.717
REMARK SMILES CCCCCCCCCCCCCC(=O)[O-]
REMARK SMILES IDX 8 1 9 2 10 3 11 4 12 5 13 6 14 7 15 8 16 9 7 10 6 11 5 12
REMARK SMILES IDX 4 13 3 14 2 15 1 16
REMARK H PARENT
REMARK Flexibility Score: inf
ROOT
ATOM      1  C   UNL     1      44.968  33.100  48.397  1.00  0.00     0.000 C 
ENDROOT
BRANCH   1   2
ATOM      2  C   UNL     1      46.347  33.358  49.029  1.00  0.00     0.000 C 
BRANCH   2   3
ATOM      3  C   UNL     1      47.298  32.160  48.878  1.00  0.00     0.000 C 
BRANCH   3   4
ATOM      4  C   UNL     1      47.474  31.372  50.187  1.00  0.00     0.000 C 
BRANCH   4   5
ATOM      5  C   UNL     1      47.017  29.911  50.064  1.00  0.00     0.006 C 
BRANCH   5   6
ATOM      6  C   UNL     1      45.490  29.769  50.068  1.00  0.00     0.053 C 
BRANCH   6   7
ATOM      7  C   UNL     1      45.027  29.066  48.832  1.00  0.00     0.041 C 
ATOM      8  O   UNL     1      45.052  29.658  47.720  1.00  0.00    -0.550 OA
ATOM      9  O   UNL     1      44.615  27.742  48.897  1.00  0.00    -0.550 OA
ENDBRANCH   6   7
ENDBRANCH   5   6
ENDBRANCH   4   5
ENDBRANCH   3   4
ENDBRANCH   2   3
ENDBRANCH   1   2
BRANCH   1  10
ATOM     10  C   UNL     1      43.840  33.058  49.440  1.00  0.00     0.000 C 
BRANCH  10  11
ATOM     11  C   UNL     1      43.594  34.427  50.097  1.00  0.00    -0.000 C 
BRANCH  11  12
ATOM     12  C   UNL     1      42.507  35.249  49.381  1.00  0.00    -0.000 C 
BRANCH  12  13
ATOM     13  C   UNL     1      41.508  34.429  48.544  1.00  0.00    -0.000 C 
BRANCH  13  14
ATOM     14  C   UNL     1      40.883  35.237  47.393  1.00  0.00    -0.000 C 
BRANCH  14  15
ATOM     15  C   UNL     1      41.841  35.406  46.205  1.00  0.00    -0.003 C 
ATOM     16  C   UNL     1      42.227  34.074  45.560  1.00  0.00     0.004 C 
ENDBRANCH  14  15
ENDBRANCH  13  14
ENDBRANCH  12  13
ENDBRANCH  11  12
ENDBRANCH  10  11
ENDBRANCH   1  10
TORSDOF 12
ENDMDL
MODEL 5
REMARK VINA RESULT:    -3.083      3.058      6.171
REMARK INTER + INTRA:          -6.964
REMARK INTER:                  -5.286
REMARK INTRA:                  -1.678
REMARK UNBOUND:                -1.717
REMARK SMILES CCCCCCCCCCCCCC(=O)[O-]
REMARK SMILES IDX 8 1 9 2 10 3 11 4 12 5 13 6 14 7 15 8 16 9 7 10 6 11 5 12
REMARK SMILES IDX 4 13 3 14 2 15 1 16
REMARK H PARENT
REMARK Flexibility Score: inf
ROOT
ATOM      1  C   UNL     1      45.181  30.919  46.251  1.00  0.00     0.000 C 
ENDROOT
BRANCH   1   2
ATOM      2  C   UNL     1      44.812  32.222  46.983  1.00  0.00     0.000 C 
BRANCH   2   3
ATOM      3  C   UNL     1      45.955  32.745  47.867  1.00  0.00     0.000 C 
BRANCH   3   4
ATOM      4  C   UNL     1      45.450  33.427  49.150  1.00  0.00     0.000 C 
BRANCH   4   5
ATOM      5  C   UNL     1      43.976  33.108  49.447  1.00  0.00     0.006 C 
BRANCH   5   6
ATOM      6  C   UNL     1      43.214  34.314  50.008  1.00  0.00     0.053 C 
BRANCH   6   7
ATOM      7  C   UNL     1      42.403  34.965  48.933  1.00  0.00     0.041 C 
ATOM      8  O   UNL     1      41.173  35.176  49.107  1.00  0.00    -0.550 OA
ATOM      9  O   UNL     1      43.014  35.385  47.759  1.00  0.00    -0.550 OA
ENDBRANCH   6   7
ENDBRANCH   5   6
ENDBRANCH   4   5
ENDBRANCH   3   4
ENDBRANCH   2   3
ENDBRANCH   1   2
BRANCH   1  10
ATOM     10  C   UNL     1      45.903  29.914  47.163  1.00  0.00     0.000 C 
BRANCH  10  11
ATOM     11  C   UNL     1      44.984  28.769  47.621  1.00  0.00    -0.000 C 
BRANCH  11  12
ATOM     12  C   UNL     1      44.938  28.612  49.152  1.00  0.00    -0.000 C 
BRANCH  12  13
ATOM     13  C   UNL     1      45.597  29.753  49.949  1.00  0.00    -0.000 C 
BRANCH  13  14
ATOM     14  C   UNL     1      46.829  29.293  50.749  1.00  0.00    -0.000 C 
BRANCH  14  15
ATOM     15  C   UNL     1      47.764  30.457  51.109  1.00  0.00    -0.003 C 
ATOM     16  C   UNL     1      48.425  31.089  49.884  1.00  0.00     0.004 C 
ENDBRANCH  14  15
ENDBRANCH  13  14
ENDBRANCH  12  13
ENDBRANCH  11  12
ENDBRANCH  10  11
ENDBRANCH   1  10
TORSDOF 12
ENDMDL
MODEL 6
REMARK VINA RESULT:    -3.076      3.052      6.304
REMARK INTER + INTRA:          -6.951
REMARK INTER:                  -5.139
REMARK INTRA:                  -1.812
REMARK UNBOUND:                -1.717
REMARK SMILES CCCCCCCCCCCCCC(=O)[O-]
REMARK SMILES IDX 8 1 9 2 10 3 11 4 12 5 13 6 14 7 15 8 16 9 7 10 6 11 5 12
REMARK SMILES IDX 4 13 3 14 2 15 1 16
REMARK H PARENT
REMARK Flexibility Score: inf
ROOT
ATOM      1  C   UNL     1      44.913  31.857  47.087  1.00  0.00     0.000 C 
ENDROOT
BRANCH   1   2
ATOM      2  C   UNL     1      46.090  32.580  47.767  1.00  0.00     0.000 C 
BRANCH   2   3
ATOM      3  C   UNL     1      45.694  33.219  49.108  1.00  0.00     0.000 C 
BRANCH   3   4
ATOM      4  C   UNL     1      44.297  32.782  49.584  1.00  0.00     0.000 C 
BRANCH   4   5
ATOM      5  C   UNL     1      43.472  33.951  50.144  1.00  0.00     0.006 C 
BRANCH   5   6
ATOM      6  C   UNL     1      43.687  35.252  49.362  1.00  0.00     0.053 C 
BRANCH   6   7
ATOM      7  C   UNL     1      42.451  35.615  48.602  1.00  0.00     0.041 C 
ATOM      8  O   UNL     1      42.432  36.647  47.880  1.00  0.00    -0.550 OA
ATOM      9  O   UNL     1      41.337  34.788  48.651  1.00  0.00    -0.550 OA
ENDBRANCH   6   7
ENDBRANCH   5   6
ENDBRANCH   4   5
ENDBRANCH   3   4
ENDBRANCH   2   3
ENDBRANCH   1   2
BRANCH   1  10
ATOM     10  C   UNL     1      45.301  30.465  46.562  1.00  0.00     0.000 C 
BRANCH  10  11
ATOM     11  C   UNL     1      46.042  29.624  47.616  1.00  0.00    -0.000 C 
BRANCH  11  12
ATOM     12  C   UNL     1      45.108  29.076  48.710  1.00  0.00    -0.000 C 
BRANCH  12  13
ATOM     13  C   UNL     1      45.552  29.364  50.157  1.00  0.00    -0.000 C 
BRANCH  13  14
ATOM     14  C   UNL     1      47.071  29.225  50.357  1.00  0.00    -0.000 C 
BRANCH  14  15
ATOM     15  C   UNL     1      47.705  30.495  50.944  1.00  0.00    -0.003 C 
ATOM     16  C   UNL     1      48.696  31.160  49.988  1.00  0.00     0.004 C 
ENDBRANCH  14  15
ENDBRANCH  13  14
ENDBRANCH  12  13
ENDBRANCH  11  12
ENDBRANCH  10  11
ENDBRANCH   1  10
TORSDOF 12
ENDMDL
MODEL 7
REMARK VINA RESULT:    -3.046      2.949      5.684
REMARK INTER + INTRA:          -6.899
REMARK INTER:                  -4.987
REMARK INTRA:                  -1.912
REMARK UNBOUND:                -1.717
REMARK SMILES CCCCCCCCCCCCCC(=O)[O-]
REMARK SMILES IDX 8 1 9 2 10 3 11 4 12 5 13 6 14 7 15 8 16 9 7 10 6 11 5 12
REMARK SMILES IDX 4 13 3 14 2 15 1 16
REMARK H PARENT
REMARK Flexibility Score: inf
ROOT
ATOM      1  C   UNL     1      48.331  31.762  50.420  1.00  0.00     0.000 C 
ENDROOT
BRANCH   1   2
ATOM      2  C   UNL     1      47.655  32.913  49.653  1.00  0.00     0.000 C 
BRANCH   2   3
ATOM      3  C   UNL     1      46.933  32.431  48.385  1.00  0.00     0.000 C 
BRANCH   3   4
ATOM      4  C   UNL     1      45.516  33.017  48.250  1.00  0.00     0.000 C 
BRANCH   4   5
ATOM      5  C   UNL     1      44.518  32.379  49.228  1.00  0.00     0.006 C 
BRANCH   5   6
ATOM      6  C   UNL     1      43.822  33.414  50.119  1.00  0.00     0.053 C 
BRANCH   6   7
ATOM      7  C   UNL     1      43.051  34.387  49.285  1.00  0.00     0.041 C 
ATOM      8  O   UNL     1      43.400  35.597  49.237  1.00  0.00    -0.550 OA
ATOM      9  O   UNL     1      41.977  33.950  48.521  1.00  0.00    -0.550 OA
ENDBRANCH   6   7
ENDBRANCH   5   6
ENDBRANCH   4   5
ENDBRANCH   3   4
ENDBRANCH   2   3
ENDBRANCH   1   2
BRANCH   1  10
ATOM     10  C   UNL     1      47.887  30.379  49.918  1.00  0.00     0.000 C 
BRANCH  10  11
ATOM     11  C   UNL     1      47.032  29.624  50.951  1.00  0.00    -0.000 C 
BRANCH  11  12
ATOM     12  C   UNL     1      45.722  29.075  50.359  1.00  0.00    -0.000 C 
BRANCH  12  13
ATOM     13  C   UNL     1      45.862  28.368  48.998  1.00  0.00    -0.000 C 
BRANCH  13  14
ATOM     14  C   UNL     1      44.994  29.004  47.898  1.00  0.00    -0.000 C 
BRANCH  14  15
ATOM     15  C   UNL     1      45.795  29.321  46.626  1.00  0.00    -0.003 C 
ATOM     16  C   UNL     1      45.091  30.329  45.717  1.00  0.00     0.004 C 
ENDBRANCH  14  15
ENDBRANCH  13  14
ENDBRANCH  12  13
ENDBRANCH  11  12
ENDBRANCH  10  11
ENDBRANCH   1  10
TORSDOF 12
ENDMDL
MODEL 8
REMARK VINA RESULT:    -3.012      1.697      2.968
REMARK INTER + INTRA:          -6.842
REMARK INTER:                  -5.624
REMARK INTRA:                  -1.218
REMARK UNBOUND:                -1.717
REMARK SMILES CCCCCCCCCCCCCC(=O)[O-]
REMARK SMILES IDX 8 1 9 2 10 3 11 4 12 5 13 6 14 7 15 8 16 9 7 10 6 11 5 12
REMARK SMILES IDX 4 13 3 14 2 15 1 16
REMARK H PARENT
REMARK Flexibility Score: inf
ROOT
ATOM      1  C   UNL     1      46.945  32.168  48.680  1.00  0.00     0.000 C 
ENDROOT
BRANCH   1   2
ATOM      2  C   UNL     1      47.759  31.662  49.884  1.00  0.00     0.000 C 
BRANCH   2   3
ATOM      3  C   UNL     1      47.146  30.406  50.524  1.00  0.00     0.000 C 
BRANCH   3   4
ATOM      4  C   UNL     1      45.713  30.129  50.035  1.00  0.00     0.000 C 
BRANCH   4   5
ATOM      5  C   UNL     1      45.507  28.668  49.606  1.00  0.00     0.006 C 
BRANCH   5   6
ATOM      6  C   UNL     1      44.769  28.546  48.268  1.00  0.00     0.053 C 
BRANCH   6   7
ATOM      7  C   UNL     1      45.530  29.243  47.185  1.00  0.00     0.041 C 
ATOM      8  O   UNL     1      44.994  30.179  46.536  1.00  0.00    -0.550 OA
ATOM      9  O   UNL     1      46.849  28.893  46.926  1.00  0.00    -0.550 OA
ENDBRANCH   6   7
ENDBRANCH   5   6
ENDBRANCH   4   5
ENDBRANCH   3   4
ENDBRANCH   2   3
ENDBRANCH   1   2
BRANCH   1  10
ATOM     10  C   UNL     1      46.268  33.521  48.953  1.00  0.00     0.000 C 
BRANCH  10  11
ATOM     11  C   UNL     1      44.775  33.519  48.579  1.00  0.00    -0.000 C 
BRANCH  11  12
ATOM     12  C   UNL     1      43.850  33.409  49.804  1.00  0.00    -0.000 C 
BRANCH  12  13
ATOM     13  C   UNL     1      43.131  34.712  50.203  1.00  0.00    -0.000 C 
BRANCH  13  14
ATOM     14  C   UNL     1      42.669  35.538  48.989  1.00  0.00    -0.000 C 
BRANCH  14  15
ATOM     15  C   UNL     1      41.243  35.182  48.544  1.00  0.00    -0.003 C 
ATOM     16  C   UNL     1      41.194  34.559  47.149  1.00  0.00     0.004 C 
ENDBRANCH  14  15
ENDBRANCH  13  14
ENDBRANCH  12  13
ENDBRANCH  11  12
ENDBRANCH  10  11
ENDBRANCH   1  10
TORSDOF 12
ENDMDL
MODEL 9
REMARK VINA RESULT:    -3.008      1.191      2.658
REMARK INTER + INTRA:          -6.835
REMARK INTER:                  -5.473
REMARK INTRA:                  -1.362
REMARK UNBOUND:                -1.717
REMARK SMILES CCCCCCCCCCCCCC(=O)[O-]
REMARK SMILES IDX 8 1 9 2 10 3 11 4 12 5 13 6 14 7 15 8 16 9 7 10 6 11 5 12
REMARK SMILES IDX 4 13 3 14 2 15 1 16
REMARK H PARENT
REMARK Flexibility Score: inf
ROOT
ATOM      1  C   UNL     1      43.070  34.838  49.915  1.00  0.00     0.000 C 
ENDROOT
BRANCH   1   2
ATOM      2  C   UNL     1      44.511  34.975  49.391  1.00  0.00     0.000 C 
BRANCH   2   3
ATOM      3  C   UNL     1      44.863  33.904  48.346  1.00  0.00     0.000 C 
BRANCH   3   4
ATOM      4  C   UNL     1      45.907  32.897  48.857  1.00  0.00     0.000 C 
BRANCH   4   5
ATOM      5  C   UNL     1      45.269  31.612  49.408  1.00  0.00     0.006 C 
BRANCH   5   6
ATOM      6  C   UNL     1      46.301  30.656  50.019  1.00  0.00     0.053 C 
BRANCH   6   7
ATOM      7  C   UNL     1      45.772  29.257  50.033  1.00  0.00     0.041 C 
ATOM      8  O   UNL     1      46.144  28.449  50.925  1.00  0.00    -0.550 OA
ATOM      9  O   UNL     1      44.831  28.859  49.093  1.00  0.00    -0.550 OA
ENDBRANCH   6   7
ENDBRANCH   5   6
ENDBRANCH   4   5
ENDBRANCH   3   4
ENDBRANCH   2   3
ENDBRANCH   1   2
BRANCH   1  10
ATOM     10  C   UNL     1      42.109  34.273  48.856  1.00  0.00     0.000 C 
BRANCH  10  11
ATOM     11  C   UNL     1      40.996  35.267  48.483  1.00  0.00    -0.000 C 
BRANCH  11  12
ATOM     12  C   UNL     1      40.670  35.265  46.978  1.00  0.00    -0.000 C 
BRANCH  12  13
ATOM     13  C   UNL     1      41.279  34.100  46.175  1.00  0.00    -0.000 C 
BRANCH  13  14
ATOM     14  C   UNL     1      42.378  34.555  45.198  1.00  0.00    -0.000 C 
BRANCH  14  15
ATOM     15  C   UNL     1      42.643  36.066  45.273  1.00  0.00    -0.003 C 
ATOM     16  C   UNL     1      44.056  36.397  45.752  1.00  0.00     0.004 C 
ENDBRANCH  14  15
ENDBRANCH  13  14
ENDBRANCH  12  13
ENDBRANCH  11  12
ENDBRANCH  10  11
ENDBRANCH   1  10
TORSDOF 12
ENDMDL
