MODEL 1
REMARK VINA RESULT:    -4.741      0.000      0.000
REMARK INTER + INTRA:         -11.226
REMARK INTER:                  -9.175
REMARK INTRA:                  -2.052
REMARK UNBOUND:                -2.052
REMARK SMILES CCCCCCCCCCCCCCCCCC(=O)[O-]
REMARK SMILES IDX 10 1 11 2 12 3 13 4 14 5 15 6 16 7 17 8 18 9 19 10 20 11
REMARK SMILES IDX 9 12 8 13 7 14 6 15 5 16 4 17 3 18 2 19 1 20
REMARK H PARENT
REMARK Flexibility Score: inf
ROOT
ATOM      1  C   UNL     1       2.200  51.085  -1.770  1.00  0.00     0.000 C 
ENDROOT
BRANCH   1   2
ATOM      2  C   UNL     1       1.927  51.513  -0.319  1.00  0.00     0.000 C 
BRANCH   2   3
ATOM      3  C   UNL     1       2.391  50.430   0.667  1.00  0.00     0.000 C 
BRANCH   3   4
ATOM      4  C   UNL     1       3.534  50.904   1.580  1.00  0.00     0.000 C 
BRANCH   4   5
ATOM      5  C   UNL     1       4.679  51.577   0.797  1.00  0.00     0.000 C 
BRANCH   5   6
ATOM      6  C   UNL     1       5.009  52.982   1.330  1.00  0.00     0.000 C 
BRANCH   6   7
ATOM      7  C   UNL     1       4.669  54.088   0.315  1.00  0.00     0.006 C 
BRANCH   7   8
ATOM      8  C   UNL     1       3.901  55.249   0.960  1.00  0.00     0.053 C 
BRANCH   8   9
ATOM      9  C   UNL     1       3.789  56.424   0.036  1.00  0.00     0.041 C 
ATOM     10  O   UNL     1       4.666  56.622  -0.848  1.00  0.00    -0.550 OA
ATOM     11  O   UNL     1       2.729  57.315   0.166  1.00  0.00    -0.550 OA
ENDBRANCH   8   9
ENDBRANCH   7   8
ENDBRANCH   6   7
ENDBRANCH   5   6
ENDBRANCH   4   5
ENDBRANCH   3   4
ENDBRANCH   2   3
ENDBRANCH   1   2
BRANCH   1  12
ATOM     12  C   UNL     1       3.099  52.076  -2.526  1.00  0.00     0.000 C 
BRANCH  12  13
ATOM     13  C   UNL     1       3.676  51.486  -3.824  1.00  0.00    -0.000 C 
BRANCH  13  14
ATOM     14  C   UNL     1       5.163  51.828  -4.020  1.00  0.00    -0.000 C 
BRANCH  14  15
ATOM     15  C   UNL     1       5.945  51.854  -2.695  1.00  0.00    -0.000 C 
BRANCH  15  16
ATOM     16  C   UNL     1       6.811  53.120  -2.558  1.00  0.00    -0.000 C 
BRANCH  16  17
ATOM     17  C   UNL     1       7.866  53.018  -1.433  1.00  0.00    -0.000 C 
BRANCH  17  18
ATOM     18  C   UNL     1       8.680  51.713  -1.473  1.00  0.00    -0.000 C 
BRANCH  18  19
ATOM     19  C   UNL     1      10.024  51.828  -0.738  1.00  0.00    -0.003 C 
ATOM     20  C   UNL     1      11.027  52.646  -1.548  1.00  0.00     0.004 C 
ENDBRANCH  18  19
ENDBRANCH  17  18
ENDBRANCH  16  17
ENDBRANCH  15  16
ENDBRANCH  14  15
ENDBRANCH  13  14
ENDBRANCH  12  13
ENDBRANCH   1  12
TORSDOF 16
ENDMDL
MODEL 2
REMARK VINA RESULT:    -4.668      1.090      1.739
REMARK INTER + INTRA:         -11.087
REMARK INTER:                  -9.164
REMARK INTRA:                  -1.923
REMARK UNBOUND:                -2.052
REMARK SMILES CCCCCCCCCCCCCCCCCC(=O)[O-]
REMARK SMILES IDX 10 1 11 2 12 3 13 4 14 5 15 6 16 7 17 8 18 9 19 10 20 11
REMARK SMILES IDX 9 12 8 13 7 14 6 15 5 16 4 17 3 18 2 19 1 20
REMARK H PARENT
REMARK Flexibility Score: inf
ROOT
ATOM      1  C   UNL     1       2.848  51.106  -3.526  1.00  0.00     0.000 C 
ENDROOT
BRANCH   1   2
ATOM      2  C   UNL     1       2.310  51.682  -2.206  1.00  0.00     0.000 C 
BRANCH   2   3
ATOM      3  C   UNL     1       2.202  50.585  -1.135  1.00  0.00     0.000 C 
BRANCH   3   4
ATOM      4  C   UNL     1       2.108  51.151   0.292  1.00  0.00     0.000 C 
BRANCH   4   5
ATOM      5  C   UNL     1       3.328  50.779   1.159  1.00  0.00     0.000 C 
BRANCH   5   6
ATOM      6  C   UNL     1       4.458  51.820   1.059  1.00  0.00     0.000 C 
BRANCH   6   7
ATOM      7  C   UNL     1       3.990  53.230   1.461  1.00  0.00     0.006 C 
BRANCH   7   8
ATOM      8  C   UNL     1       4.329  54.277   0.391  1.00  0.00     0.053 C 
BRANCH   8   9
ATOM      9  C   UNL     1       3.170  55.188   0.117  1.00  0.00     0.041 C 
ATOM     10  O   UNL     1       3.314  56.438   0.196  1.00  0.00    -0.550 OA
ATOM     11  O   UNL     1       1.925  54.657  -0.199  1.00  0.00    -0.550 OA
ENDBRANCH   8   9
ENDBRANCH   7   8
ENDBRANCH   6   7
ENDBRANCH   5   6
ENDBRANCH   4   5
ENDBRANCH   3   4
ENDBRANCH   2   3
ENDBRANCH   1   2
BRANCH   1  12
ATOM     12  C   UNL     1       4.322  51.462  -3.777  1.00  0.00     0.000 C 
BRANCH  12  13
ATOM     13  C   UNL     1       4.892  52.420  -2.717  1.00  0.00    -0.000 C 
BRANCH  13  14
ATOM     14  C   UNL     1       6.385  52.721  -2.934  1.00  0.00    -0.000 C 
BRANCH  14  15
ATOM     15  C   UNL     1       7.295  51.942  -1.968  1.00  0.00    -0.000 C 
BRANCH  15  16
ATOM     16  C   UNL     1       7.599  52.742  -0.688  1.00  0.00    -0.000 C 
BRANCH  16  17
ATOM     17  C   UNL     1       9.101  53.075  -0.521  1.00  0.00    -0.000 C 
BRANCH  17  18
ATOM     18  C   UNL     1       9.974  51.840  -0.243  1.00  0.00    -0.000 C 
BRANCH  18  19
ATOM     19  C   UNL     1      11.433  52.032  -0.685  1.00  0.00    -0.003 C 
ATOM     20  C   UNL     1      11.536  53.045  -1.822  1.00  0.00     0.004 C 
ENDBRANCH  18  19
ENDBRANCH  17  18
ENDBRANCH  16  17
ENDBRANCH  15  16
ENDBRANCH  14  15
ENDBRANCH  13  14
ENDBRANCH  12  13
ENDBRANCH   1  12
TORSDOF 16
ENDMDL
MODEL 3
REMARK VINA RESULT:    -4.665      2.389      5.636
REMARK INTER + INTRA:         -11.079
REMARK INTER:                  -8.437
REMARK INTRA:                  -2.642
REMARK UNBOUND:                -2.052
REMARK SMILES CCCCCCCCCCCCCCCCCC(=O)[O-]
REMARK SMILES IDX 10 1 11 2 12 3 13 4 14 5 15 6 16 7 17 8 18 9 19 10 20 11
REMARK SMILES IDX 9 12 8 13 7 14 6 15 5 16 4 17 3 18 2 19 1 20
REMARK H PARENT
REMARK Flexibility Score: inf
ROOT
ATOM      1  C   UNL     1       2.489  50.879  -1.781  1.00  0.00     0.000 C 
ENDROOT
BRANCH   1   2
ATOM      2  C   UNL     1       3.414  52.031  -2.205  1.00  0.00     0.000 C 
BRANCH   2   3
ATOM      3  C   UNL     1       4.196  51.665  -3.476  1.00  0.00     0.000 C 
BRANCH   3   4
ATOM      4  C   UNL     1       5.699  51.969  -3.360  1.00  0.00     0.000 C 
BRANCH   4   5
ATOM      5  C   UNL     1       5.980  53.437  -2.982  1.00  0.00     0.000 C 
BRANCH   5   6
ATOM      6  C   UNL     1       7.151  53.575  -1.994  1.00  0.00     0.000 C 
BRANCH   6   7
ATOM      7  C   UNL     1       7.743  52.211  -1.595  1.00  0.00     0.006 C 
BRANCH   7   8
ATOM      8  C   UNL     1       9.208  52.324  -1.153  1.00  0.00     0.053 C 
BRANCH   8   9
ATOM      9  C   UNL     1       9.360  52.135   0.326  1.00  0.00     0.041 C 
ATOM     10  O   UNL     1       8.822  52.946   1.128  1.00  0.00    -0.550 OA
ATOM     11  O   UNL     1      10.117  51.078   0.820  1.00  0.00    -0.550 OA
ENDBRANCH   8   9
ENDBRANCH   7   8
ENDBRANCH   6   7
ENDBRANCH   5   6
ENDBRANCH   4   5
ENDBRANCH   3   4
ENDBRANCH   2   3
ENDBRANCH   1   2
BRANCH   1  12
ATOM     12  C   UNL     1       1.881  51.084  -0.384  1.00  0.00     0.000 C 
BRANCH  12  13
ATOM     13  C   UNL     1       2.662  50.349   0.719  1.00  0.00    -0.000 C 
BRANCH  13  14
ATOM     14  C   UNL     1       3.345  51.313   1.703  1.00  0.00    -0.000 C 
BRANCH  14  15
ATOM     15  C   UNL     1       4.858  51.444   1.452  1.00  0.00    -0.000 C 
BRANCH  15  16
ATOM     16  C   UNL     1       5.261  52.884   1.084  1.00  0.00    -0.000 C 
BRANCH  16  17
ATOM     17  C   UNL     1       4.145  53.918   1.361  1.00  0.00    -0.000 C 
BRANCH  17  18
ATOM     18  C   UNL     1       4.291  55.212   0.542  1.00  0.00    -0.000 C 
BRANCH  18  19
ATOM     19  C   UNL     1       3.257  55.320  -0.588  1.00  0.00    -0.003 C 
ATOM     20  C   UNL     1       1.925  54.699  -0.178  1.00  0.00     0.004 C 
ENDBRANCH  18  19
ENDBRANCH  17  18
ENDBRANCH  16  17
ENDBRANCH  15  16
ENDBRANCH  14  15
ENDBRANCH  13  14
ENDBRANCH  12  13
ENDBRANCH   1  12
TORSDOF 16
ENDMDL
MODEL 4
REMARK VINA RESULT:    -4.627      1.285      2.680
REMARK INTER + INTRA:         -11.007
REMARK INTER:                  -8.418
REMARK INTRA:                  -2.590
REMARK UNBOUND:                -2.052
REMARK SMILES CCCCCCCCCCCCCCCCCC(=O)[O-]
REMARK SMILES IDX 10 1 11 2 12 3 13 4 14 5 15 6 16 7 17 8 18 9 19 10 20 11
REMARK SMILES IDX 9 12 8 13 7 14 6 15 5 16 4 17 3 18 2 19 1 20
REMARK H PARENT
REMARK Flexibility Score: inf
ROOT
ATOM      1  C   UNL     1       2.446  50.627   0.791  1.00  0.00     0.000 C 
ENDROOT
BRANCH   1   2
ATOM      2  C   UNL     1       3.728  50.927   1.584  1.00  0.00     0.000 C 
BRANCH   2   3
ATOM      3  C   UNL     1       4.750  51.671   0.710  1.00  0.00     0.000 C 
BRANCH   3   4
ATOM      4  C   UNL     1       5.783  52.456   1.536  1.00  0.00     0.000 C 
BRANCH   4   5
ATOM      5  C   UNL     1       5.693  53.978   1.305  1.00  0.00     0.000 C 
BRANCH   5   6
ATOM      6  C   UNL     1       4.239  54.479   1.250  1.00  0.00     0.000 C 
BRANCH   6   7
ATOM      7  C   UNL     1       3.855  55.007  -0.143  1.00  0.00     0.006 C 
BRANCH   7   8
ATOM      8  C   UNL     1       5.084  55.418  -0.965  1.00  0.00     0.053 C 
BRANCH   8   9
ATOM      9  C   UNL     1       4.697  56.025  -2.280  1.00  0.00     0.041 C 
ATOM     10  O   UNL     1       3.618  55.690  -2.840  1.00  0.00    -0.550 OA
ATOM     11  O   UNL     1       5.539  56.942  -2.900  1.00  0.00    -0.550 OA
ENDBRANCH   8   9
ENDBRANCH   7   8
ENDBRANCH   6   7
ENDBRANCH   5   6
ENDBRANCH   4   5
ENDBRANCH   3   4
ENDBRANCH   2   3
ENDBRANCH   1   2
BRANCH   1  12
ATOM     12  C   UNL     1       2.072  51.750  -0.188  1.00  0.00     0.000 C 
BRANCH  12  13
ATOM     13  C   UNL     1       1.959  51.260  -1.642  1.00  0.00    -0.000 C 
BRANCH  13  14
ATOM     14  C   UNL     1       2.842  52.068  -2.609  1.00  0.00    -0.000 C 
BRANCH  14  15
ATOM     15  C   UNL     1       3.307  51.240  -3.820  1.00  0.00    -0.000 C 
BRANCH  15  16
ATOM     16  C   UNL     1       4.717  51.645  -4.290  1.00  0.00    -0.000 C 
BRANCH  16  17
ATOM     17  C   UNL     1       5.468  52.532  -3.270  1.00  0.00    -0.000 C 
BRANCH  17  18
ATOM     18  C   UNL     1       6.553  51.777  -2.484  1.00  0.00    -0.000 C 
BRANCH  18  19
ATOM     19  C   UNL     1       7.547  52.719  -1.788  1.00  0.00    -0.003 C 
ATOM     20  C   UNL     1       8.776  51.960  -1.297  1.00  0.00     0.004 C 
ENDBRANCH  18  19
ENDBRANCH  17  18
ENDBRANCH  16  17
ENDBRANCH  15  16
ENDBRANCH  14  15
ENDBRANCH  13  14
ENDBRANCH  12  13
ENDBRANCH   1  12
TORSDOF 16
ENDMDL
MODEL 5
REMARK VINA RESULT:    -4.541      2.464      5.740
REMARK INTER + INTRA:         -10.841
REMARK INTER:                  -8.424
REMARK INTRA:                  -2.417
REMARK UNBOUND:                -2.052
REMARK SMILES CCCCCCCCCCCCCCCCCC(=O)[O-]
REMARK SMILES IDX 10 1 11 2 12 3 13 4 14 5 15 6 16 7 17 8 18 9 19 10 20 11
REMARK SMILES IDX 9 12 8 13 7 14 6 15 5 16 4 17 3 18 2 19 1 20
REMARK H PARENT
REMARK Flexibility Score: inf
ROOT
ATOM      1  C   UNL     1       2.097  51.321  -0.493  1.00  0.00     0.000 C 
ENDROOT
BRANCH   1   2
ATOM      2  C   UNL     1       2.700  51.109  -1.890  1.00  0.00     0.000 C 
BRANCH   2   3
ATOM      3  C   UNL     1       3.609  52.286  -2.278  1.00  0.00     0.000 C 
BRANCH   3   4
ATOM      4  C   UNL     1       4.586  51.937  -3.414  1.00  0.00     0.000 C 
BRANCH   4   5
ATOM      5  C   UNL     1       5.976  52.576  -3.217  1.00  0.00     0.000 C 
BRANCH   5   6
ATOM      6  C   UNL     1       6.847  51.791  -2.221  1.00  0.00     0.000 C 
BRANCH   6   7
ATOM      7  C   UNL     1       7.868  52.690  -1.501  1.00  0.00     0.006 C 
BRANCH   7   8
ATOM      8  C   UNL     1       9.228  52.000  -1.334  1.00  0.00     0.053 C 
BRANCH   8   9
ATOM      9  C   UNL     1      10.360  52.983  -1.380  1.00  0.00     0.041 C 
ATOM     10  O   UNL     1      10.160  54.194  -1.090  1.00  0.00    -0.550 OA
ATOM     11  O   UNL     1      11.628  52.568  -1.769  1.00  0.00    -0.550 OA
ENDBRANCH   8   9
ENDBRANCH   7   8
ENDBRANCH   6   7
ENDBRANCH   5   6
ENDBRANCH   4   5
ENDBRANCH   3   4
ENDBRANCH   2   3
ENDBRANCH   1   2
BRANCH   1  12
ATOM     12  C   UNL     1       2.971  50.740   0.630  1.00  0.00     0.000 C 
BRANCH  12  13
ATOM     13  C   UNL     1       3.678  51.828   1.457  1.00  0.00    -0.000 C 
BRANCH  13  14
ATOM     14  C   UNL     1       5.196  51.866   1.209  1.00  0.00    -0.000 C 
BRANCH  14  15
ATOM     15  C   UNL     1       5.742  53.300   1.096  1.00  0.00    -0.000 C 
BRANCH  15  16
ATOM     16  C   UNL     1       4.910  54.303   1.917  1.00  0.00    -0.000 C 
BRANCH  16  17
ATOM     17  C   UNL     1       4.439  55.523   1.092  1.00  0.00    -0.000 C 
BRANCH  17  18
ATOM     18  C   UNL     1       4.398  55.259  -0.423  1.00  0.00    -0.000 C 
BRANCH  18  19
ATOM     19  C   UNL     1       3.056  55.651  -1.059  1.00  0.00    -0.003 C 
ATOM     20  C   UNL     1       1.888  54.979  -0.342  1.00  0.00     0.004 C 
ENDBRANCH  18  19
ENDBRANCH  17  18
ENDBRANCH  16  17
ENDBRANCH  15  16
ENDBRANCH  14  15
ENDBRANCH  13  14
ENDBRANCH  12  13
ENDBRANCH   1  12
TORSDOF 16
ENDMDL
MODEL 6
REMARK VINA RESULT:    -4.522      2.785      5.409
REMARK INTER + INTRA:         -10.804
REMARK INTER:                  -8.964
REMARK INTRA:                  -1.840
REMARK UNBOUND:                -2.052
REMARK SMILES CCCCCCCCCCCCCCCCCC(=O)[O-]
REMARK SMILES IDX 10 1 11 2 12 3 13 4 14 5 15 6 16 7 17 8 18 9 19 10 20 11
REMARK SMILES IDX 9 12 8 13 7 14 6 15 5 16 4 17 3 18 2 19 1 20
REMARK H PARENT
REMARK Flexibility Score: inf
ROOT
ATOM      1  C   UNL     1       3.743  52.135  -2.838  1.00  0.00     0.000 C 
ENDROOT
BRANCH   1   2
ATOM      2  C   UNL     1       4.861  52.046  -3.889  1.00  0.00     0.000 C 
BRANCH   2   3
ATOM      3  C   UNL     1       6.164  52.659  -3.354  1.00  0.00     0.000 C 
BRANCH   3   4
ATOM      4  C   UNL     1       6.859  51.769  -2.309  1.00  0.00     0.000 C 
BRANCH   4   5
ATOM      5  C   UNL     1       7.918  52.534  -1.489  1.00  0.00     0.000 C 
BRANCH   5   6
ATOM      6  C   UNL     1       9.153  51.671  -1.178  1.00  0.00     0.000 C 
BRANCH   6   7
ATOM      7  C   UNL     1      10.471  52.436  -1.395  1.00  0.00     0.006 C 
BRANCH   7   8
ATOM      8  C   UNL     1      10.343  53.922  -1.032  1.00  0.00     0.053 C 
BRANCH   8   9
ATOM      9  C   UNL     1      11.045  54.243   0.253  1.00  0.00     0.041 C 
ATOM     10  O   UNL     1      11.264  53.335   1.100  1.00  0.00    -0.550 OA
ATOM     11  O   UNL     1      11.434  55.549   0.528  1.00  0.00    -0.550 OA
ENDBRANCH   8   9
ENDBRANCH   7   8
ENDBRANCH   6   7
ENDBRANCH   5   6
ENDBRANCH   4   5
ENDBRANCH   3   4
ENDBRANCH   2   3
ENDBRANCH   1   2
BRANCH   1  12
ATOM     12  C   UNL     1       2.643  51.081  -3.045  1.00  0.00     0.000 C 
BRANCH  12  13
ATOM     13  C   UNL     1       1.934  50.696  -1.736  1.00  0.00    -0.000 C 
BRANCH  13  14
ATOM     14  C   UNL     1       2.392  51.551  -0.541  1.00  0.00    -0.000 C 
BRANCH  14  15
ATOM     15  C   UNL     1       2.499  50.740   0.762  1.00  0.00    -0.000 C 
BRANCH  15  16
ATOM     16  C   UNL     1       3.826  51.002   1.499  1.00  0.00    -0.000 C 
BRANCH  16  17
ATOM     17  C   UNL     1       4.798  51.902   0.700  1.00  0.00    -0.000 C 
BRANCH  17  18
ATOM     18  C   UNL     1       5.017  53.284   1.337  1.00  0.00    -0.000 C 
BRANCH  18  19
ATOM     19  C   UNL     1       6.489  53.553   1.684  1.00  0.00    -0.003 C 
ATOM     20  C   UNL     1       7.174  52.291   2.201  1.00  0.00     0.004 C 
ENDBRANCH  18  19
ENDBRANCH  17  18
ENDBRANCH  16  17
ENDBRANCH  15  16
ENDBRANCH  14  15
ENDBRANCH  13  14
ENDBRANCH  12  13
ENDBRANCH   1  12
TORSDOF 16
ENDMDL
MODEL 7
REMARK VINA RESULT:    -4.491      2.846      5.224
REMARK INTER + INTRA:         -10.744
REMARK INTER:                  -9.060
REMARK INTRA:                  -1.684
REMARK UNBOUND:                -2.052
REMARK SMILES CCCCCCCCCCCCCCCCCC(=O)[O-]
REMARK SMILES IDX 10 1 11 2 12 3 13 4 14 5 15 6 16 7 17 8 18 9 19 10 20 11
REMARK SMILES IDX 9 12 8 13 7 14 6 15 5 16 4 17 3 18 2 19 1 20
REMARK H PARENT
REMARK Flexibility Score: inf
ROOT
ATOM      1  C   UNL     1       3.738  51.085   1.478  1.00  0.00     0.000 C 
ENDROOT
BRANCH   1   2
ATOM      2  C   UNL     1       4.169  52.467   0.962  1.00  0.00     0.000 C 
BRANCH   2   3
ATOM      3  C   UNL     1       5.588  52.414   0.375  1.00  0.00     0.000 C 
BRANCH   3   4
ATOM      4  C   UNL     1       6.678  52.318   1.455  1.00  0.00     0.000 C 
BRANCH   4   5
ATOM      5  C   UNL     1       8.077  52.686   0.920  1.00  0.00     0.000 C 
BRANCH   5   6
ATOM      6  C   UNL     1       8.176  52.541  -0.609  1.00  0.00     0.000 C 
BRANCH   6   7
ATOM      7  C   UNL     1       9.303  51.582  -1.034  1.00  0.00     0.006 C 
BRANCH   7   8
ATOM      8  C   UNL     1      10.647  51.949  -0.391  1.00  0.00     0.053 C 
BRANCH   8   9
ATOM      9  C   UNL     1      11.298  53.107  -1.085  1.00  0.00     0.041 C 
ATOM     10  O   UNL     1      12.034  52.912  -2.090  1.00  0.00    -0.550 OA
ATOM     11  O   UNL     1      11.115  54.400  -0.607  1.00  0.00    -0.550 OA
ENDBRANCH   8   9
ENDBRANCH   7   8
ENDBRANCH   6   7
ENDBRANCH   5   6
ENDBRANCH   4   5
ENDBRANCH   3   4
ENDBRANCH   2   3
ENDBRANCH   1   2
BRANCH   1  12
ATOM     12  C   UNL     1       2.564  50.489   0.684  1.00  0.00     0.000 C 
BRANCH  12  13
ATOM     13  C   UNL     1       1.993  51.467  -0.357  1.00  0.00    -0.000 C 
BRANCH  13  14
ATOM     14  C   UNL     1       2.260  51.014  -1.803  1.00  0.00    -0.000 C 
BRANCH  14  15
ATOM     15  C   UNL     1       2.985  52.085  -2.637  1.00  0.00    -0.000 C 
BRANCH  15  16
ATOM     16  C   UNL     1       3.622  51.495  -3.908  1.00  0.00    -0.000 C 
BRANCH  16  17
ATOM     17  C   UNL     1       5.158  51.348  -3.808  1.00  0.00    -0.000 C 
BRANCH  17  18
ATOM     18  C   UNL     1       5.873  52.650  -3.406  1.00  0.00    -0.000 C 
BRANCH  18  19
ATOM     19  C   UNL     1       5.648  53.787  -4.414  1.00  0.00    -0.003 C 
ATOM     20  C   UNL     1       5.990  55.142  -3.801  1.00  0.00     0.004 C 
ENDBRANCH  18  19
ENDBRANCH  17  18
ENDBRANCH  16  17
ENDBRANCH  15  16
ENDBRANCH  14  15
ENDBRANCH  13  14
ENDBRANCH  12  13
ENDBRANCH   1  12
TORSDOF 16
ENDMDL
MODEL 8
REMARK VINA RESULT:    -4.490      2.598      5.649
REMARK INTER + INTRA:         -10.742
REMARK INTER:                  -8.356
REMARK INTRA:                  -2.386
REMARK UNBOUND:                -2.052
REMARK SMILES CCCCCCCCCCCCCCCCCC(=O)[O-]
REMARK SMILES IDX 10 1 11 2 12 3 13 4 14 5 15 6 16 7 17 8 18 9 19 10 20 11
REMARK SMILES IDX 9 12 8 13 7 14 6 15 5 16 4 17 3 18 2 19 1 20
REMARK H PARENT
REMARK Flexibility Score: inf
ROOT
ATOM      1  C   UNL     1       3.875  52.729  -2.742  1.00  0.00     0.000 C 
ENDROOT
BRANCH   1   2
ATOM      2  C   UNL     1       5.296  53.043  -3.235  1.00  0.00     0.000 C 
BRANCH   2   3
ATOM      3  C   UNL     1       6.269  51.916  -2.853  1.00  0.00     0.000 C 
BRANCH   3   4
ATOM      4  C   UNL     1       7.056  52.217  -1.566  1.00  0.00     0.000 C 
BRANCH   4   5
ATOM      5  C   UNL     1       7.913  53.494  -1.680  1.00  0.00     0.000 C 
BRANCH   5   6
ATOM      6  C   UNL     1       9.418  53.204  -1.540  1.00  0.00     0.000 C 
BRANCH   6   7
ATOM      7  C   UNL     1       9.694  51.782  -1.019  1.00  0.00     0.006 C 
BRANCH   7   8
ATOM      8  C   UNL     1      10.601  51.786   0.219  1.00  0.00     0.053 C 
BRANCH   8   9
ATOM      9  C   UNL     1       9.819  51.581   1.482  1.00  0.00     0.041 C 
ATOM     10  O   UNL     1      10.276  50.845   2.398  1.00  0.00    -0.550 OA
ATOM     11  O   UNL     1       8.575  52.182   1.637  1.00  0.00    -0.550 OA
ENDBRANCH   8   9
ENDBRANCH   7   8
ENDBRANCH   6   7
ENDBRANCH   5   6
ENDBRANCH   4   5
ENDBRANCH   3   4
ENDBRANCH   2   3
ENDBRANCH   1   2
BRANCH   1  12
ATOM     12  C   UNL     1       3.275  51.478  -3.404  1.00  0.00     0.000 C 
BRANCH  12  13
ATOM     13  C   UNL     1       2.238  50.772  -2.513  1.00  0.00    -0.000 C 
BRANCH  13  14
ATOM     14  C   UNL     1       2.099  51.433  -1.131  1.00  0.00    -0.000 C 
BRANCH  14  15
ATOM     15  C   UNL     1       2.059  50.407   0.016  1.00  0.00    -0.000 C 
BRANCH  15  16
ATOM     16  C   UNL     1       3.002  50.793   1.170  1.00  0.00    -0.000 C 
BRANCH  16  17
ATOM     17  C   UNL     1       4.277  51.529   0.695  1.00  0.00    -0.000 C 
BRANCH  17  18
ATOM     18  C   UNL     1       4.546  52.840   1.453  1.00  0.00    -0.000 C 
BRANCH  18  19
ATOM     19  C   UNL     1       3.894  54.059   0.783  1.00  0.00    -0.003 C 
ATOM     20  C   UNL     1       4.936  54.931   0.090  1.00  0.00     0.004 C 
ENDBRANCH  18  19
ENDBRANCH  17  18
ENDBRANCH  16  17
ENDBRANCH  15  16
ENDBRANCH  14  15
ENDBRANCH  13  14
ENDBRANCH  12  13
ENDBRANCH   1  12
TORSDOF 16
ENDMDL
MODEL 9
REMARK VINA RESULT:    -4.472      1.284      1.740
REMARK INTER + INTRA:         -10.706
REMARK INTER:                  -8.296
REMARK INTRA:                  -2.410
REMARK UNBOUND:                -2.052
REMARK SMILES CCCCCCCCCCCCCCCCCC(=O)[O-]
REMARK SMILES IDX 10 1 11 2 12 3 13 4 14 5 15 6 16 7 17 8 18 9 19 10 20 11
REMARK SMILES IDX 9 12 8 13 7 14 6 15 5 16 4 17 3 18 2 19 1 20
REMARK H PARENT
REMARK Flexibility Score: inf
ROOT
ATOM      1  C   UNL     1       2.090  50.963  -1.934  1.00  0.00     0.000 C 
ENDROOT
BRANCH   1   2
ATOM      2  C   UNL     1       2.455  51.761  -0.673  1.00  0.00     0.000 C 
BRANCH   2   3
ATOM      3  C   UNL     1       2.560  50.836   0.549  1.00  0.00     0.000 C 
BRANCH   3   4
ATOM      4  C   UNL     1       3.716  51.217   1.490  1.00  0.00     0.000 C 
BRANCH   4   5
ATOM      5  C   UNL     1       4.884  51.898   0.748  1.00  0.00     0.000 C 
BRANCH   5   6
ATOM      6  C   UNL     1       5.407  53.139   1.491  1.00  0.00     0.000 C 
BRANCH   6   7
ATOM      7  C   UNL     1       4.373  54.279   1.526  1.00  0.00     0.006 C 
BRANCH   7   8
ATOM      8  C   UNL     1       4.273  55.009   0.180  1.00  0.00     0.053 C 
BRANCH   8   9
ATOM      9  C   UNL     1       3.985  56.469   0.359  1.00  0.00     0.041 C 
ATOM     10  O   UNL     1       4.918  57.271   0.634  1.00  0.00    -0.550 OA
ATOM     11  O   UNL     1       2.682  56.942   0.247  1.00  0.00    -0.550 OA
ENDBRANCH   8   9
ENDBRANCH   7   8
ENDBRANCH   6   7
ENDBRANCH   5   6
ENDBRANCH   4   5
ENDBRANCH   3   4
ENDBRANCH   2   3
ENDBRANCH   1   2
BRANCH   1  12
ATOM     12  C   UNL     1       2.997  51.288  -3.132  1.00  0.00     0.000 C 
BRANCH  12  13
ATOM     13  C   UNL     1       4.020  52.393  -2.820  1.00  0.00    -0.000 C 
BRANCH  13  14
ATOM     14  C   UNL     1       5.472  51.938  -3.052  1.00  0.00    -0.000 C 
BRANCH  14  15
ATOM     15  C   UNL     1       6.502  52.918  -2.464  1.00  0.00    -0.000 C 
BRANCH  15  16
ATOM     16  C   UNL     1       7.670  52.186  -1.778  1.00  0.00    -0.000 C 
BRANCH  16  17
ATOM     17  C   UNL     1       8.799  53.138  -1.318  1.00  0.00    -0.000 C 
BRANCH  17  18
ATOM     18  C   UNL     1       8.286  54.385  -0.580  1.00  0.00    -0.000 C 
BRANCH  18  19
ATOM     19  C   UNL     1       8.935  55.683  -1.084  1.00  0.00    -0.003 C 
ATOM     20  C   UNL     1       8.227  56.206  -2.331  1.00  0.00     0.004 C 
ENDBRANCH  18  19
ENDBRANCH  17  18
ENDBRANCH  16  17
ENDBRANCH  15  16
ENDBRANCH  14  15
ENDBRANCH  13  14
ENDBRANCH  12  13
ENDBRANCH   1  12
TORSDOF 16
ENDMDL
