MODEL 1
REMARK VINA RESULT:     5.483      0.000      0.000
REMARK INTER + INTRA:          20.578
REMARK INTER:                  14.458
REMARK INTRA:                   6.120
REMARK UNBOUND:                 6.120
REMARK SMILES CCCCCCCCCCCCCCCCCCCCCCCCCCCCCC(=O)[O-]
REMARK SMILES IDX 16 1 17 2 18 3 19 4 20 5 21 6 22 7 23 8 24 9 25 10 26 11
REMARK SMILES IDX 27 12 28 13 29 14 30 15 31 16 32 17 15 18 14 19 13 20 12 21
REMARK SMILES IDX 11 22 10 23 9 24 8 25 7 26 6 27 5 28 4 29 3 30 2 31 1 32
REMARK H PARENT
REMARK Flexibility Score: inf
ROOT
ATOM      1  C   UNL     1     -13.146  15.668  -5.279  1.00  0.00     0.000 C 
ENDROOT
BRANCH   1   2
ATOM      2  C   UNL     1     -13.576  14.200  -5.139  1.00  0.00     0.000 C 
BRANCH   2   3
ATOM      3  C   UNL     1     -14.256  13.650  -6.406  1.00  0.00     0.000 C 
BRANCH   3   4
ATOM      4  C   UNL     1     -15.698  13.189  -6.132  1.00  0.00     0.000 C 
BRANCH   4   5
ATOM      5  C   UNL     1     -16.713  13.786  -7.123  1.00  0.00     0.000 C 
BRANCH   5   6
ATOM      6  C   UNL     1     -16.065  14.750  -8.144  1.00  0.00     0.000 C 
BRANCH   6   7
ATOM      7  C   UNL     1     -17.005  15.194  -9.282  1.00  0.00     0.000 C 
BRANCH   7   8
ATOM      8  C   UNL     1     -16.868  14.402 -10.595  1.00  0.00     0.000 C 
BRANCH   8   9
ATOM      9  C   UNL     1     -16.560  15.281 -11.828  1.00  0.00     0.000 C 
BRANCH   9  10
ATOM     10  C   UNL     1     -15.970  14.471 -12.991  1.00  0.00     0.000 C 
BRANCH  10  11
ATOM     11  C   UNL     1     -15.179  13.258 -12.482  1.00  0.00     0.000 C 
BRANCH  11  12
ATOM     12  C   UNL     1     -15.640  11.938 -13.123  1.00  0.00     0.000 C 
BRANCH  12  13
ATOM     13  C   UNL     1     -15.448  10.680 -12.250  1.00  0.00     0.006 C 
BRANCH  13  14
ATOM     14  C   UNL     1     -14.633  10.926 -10.967  1.00  0.00     0.053 C 
BRANCH  14  15
ATOM     15  C   UNL     1     -15.058  12.175 -10.254  1.00  0.00     0.041 C 
ATOM     16  O   UNL     1     -14.269  13.149 -10.148  1.00  0.00    -0.550 OA
ATOM     17  O   UNL     1     -16.342  12.272  -9.730  1.00  0.00    -0.550 OA
ENDBRANCH  14  15
ENDBRANCH  13  14
ENDBRANCH  12  13
ENDBRANCH  11  12
ENDBRANCH  10  11
ENDBRANCH   9  10
ENDBRANCH   8   9
ENDBRANCH   7   8
ENDBRANCH   6   7
ENDBRANCH   5   6
ENDBRANCH   4   5
ENDBRANCH   3   4
ENDBRANCH   2   3
ENDBRANCH   1   2
BRANCH   1  18
ATOM     18  C   UNL     1     -14.282  16.650  -4.939  1.00  0.00     0.000 C 
BRANCH  18  19
ATOM     19  C   UNL     1     -15.572  16.381  -5.736  1.00  0.00     0.000 C 
BRANCH  19  20
ATOM     20  C   UNL     1     -15.682  17.118  -7.085  1.00  0.00     0.000 C 
BRANCH  20  21
ATOM     21  C   UNL     1     -16.915  18.035  -7.173  1.00  0.00     0.000 C 
BRANCH  21  22
ATOM     22  C   UNL     1     -16.644  19.303  -7.996  1.00  0.00     0.000 C 
BRANCH  22  23
ATOM     23  C   UNL     1     -17.089  19.161  -9.463  1.00  0.00     0.000 C 
BRANCH  23  24
ATOM     24  C   UNL     1     -16.044  18.412 -10.304  1.00  0.00    -0.000 C 
BRANCH  24  25
ATOM     25  C   UNL     1     -16.557  18.065 -11.719  1.00  0.00    -0.000 C 
BRANCH  25  26
ATOM     26  C   UNL     1     -16.214  19.148 -12.758  1.00  0.00    -0.000 C 
BRANCH  26  27
ATOM     27  C   UNL     1     -17.100  20.409 -12.661  1.00  0.00    -0.000 C 
BRANCH  27  28
ATOM     28  C   UNL     1     -16.416  21.709 -13.125  1.00  0.00    -0.000 C 
BRANCH  28  29
ATOM     29  C   UNL     1     -14.882  21.639 -13.044  1.00  0.00    -0.000 C 
BRANCH  29  30
ATOM     30  C   UNL     1     -14.357  21.729 -11.600  1.00  0.00    -0.000 C 
BRANCH  30  31
ATOM     31  C   UNL     1     -12.843  21.488 -11.447  1.00  0.00    -0.003 C 
ATOM     32  C   UNL     1     -12.125  21.331 -12.787  1.00  0.00     0.004 C 
ENDBRANCH  30  31
ENDBRANCH  29  30
ENDBRANCH  28  29
ENDBRANCH  27  28
ENDBRANCH  26  27
ENDBRANCH  25  26
ENDBRANCH  24  25
ENDBRANCH  23  24
ENDBRANCH  22  23
ENDBRANCH  21  22
ENDBRANCH  20  21
ENDBRANCH  19  20
ENDBRANCH  18  19
ENDBRANCH   1  18
TORSDOF 28
ENDMDL
MODEL 2
REMARK VINA RESULT:     6.632      1.618      2.572
REMARK INTER + INTRA:          23.607
REMARK INTER:                  13.569
REMARK INTRA:                  10.038
REMARK UNBOUND:                 6.120
REMARK SMILES CCCCCCCCCCCCCCCCCCCCCCCCCCCCCC(=O)[O-]
REMARK SMILES IDX 16 1 17 2 18 3 19 4 20 5 21 6 22 7 23 8 24 9 25 10 26 11
REMARK SMILES IDX 27 12 28 13 29 14 30 15 31 16 32 17 15 18 14 19 13 20 12 21
REMARK SMILES IDX 11 22 10 23 9 24 8 25 7 26 6 27 5 28 4 29 3 30 2 31 1 32
REMARK H PARENT
REMARK Flexibility Score: inf
ROOT
ATOM      1  C   UNL     1     -13.358  13.660  -7.228  1.00  0.00     0.000 C 
ENDROOT
BRANCH   1   2
ATOM      2  C   UNL     1     -13.710  12.224  -6.810  1.00  0.00     0.000 C 
BRANCH   2   3
ATOM      3  C   UNL     1     -15.186  12.061  -6.403  1.00  0.00     0.000 C 
BRANCH   3   4
ATOM      4  C   UNL     1     -16.060  13.210  -6.934  1.00  0.00     0.000 C 
BRANCH   4   5
ATOM      5  C   UNL     1     -17.120  12.734  -7.943  1.00  0.00     0.000 C 
BRANCH   5   6
ATOM      6  C   UNL     1     -16.693  11.464  -8.715  1.00  0.00     0.000 C 
BRANCH   6   7
ATOM      7  C   UNL     1     -16.616  11.646 -10.244  1.00  0.00     0.000 C 
BRANCH   7   8
ATOM      8  C   UNL     1     -16.914  10.384 -11.073  1.00  0.00     0.000 C 
BRANCH   8   9
ATOM      9  C   UNL     1     -17.071  10.651 -12.586  1.00  0.00     0.000 C 
BRANCH   9  10
ATOM     10  C   UNL     1     -16.226  11.841 -13.061  1.00  0.00     0.000 C 
BRANCH  10  11
ATOM     11  C   UNL     1     -16.615  13.131 -12.325  1.00  0.00     0.000 C 
BRANCH  11  12
ATOM     12  C   UNL     1     -15.404  13.854 -11.714  1.00  0.00     0.000 C 
BRANCH  12  13
ATOM     13  C   UNL     1     -14.770  13.161 -10.490  1.00  0.00     0.006 C 
BRANCH  13  14
ATOM     14  C   UNL     1     -13.844  11.983 -10.848  1.00  0.00     0.053 C 
BRANCH  14  15
ATOM     15  C   UNL     1     -13.222  12.140 -12.203  1.00  0.00     0.041 C 
ATOM     16  O   UNL     1     -13.383  11.257 -13.085  1.00  0.00    -0.550 OA
ATOM     17  O   UNL     1     -12.484  13.280 -12.500  1.00  0.00    -0.550 OA
ENDBRANCH  14  15
ENDBRANCH  13  14
ENDBRANCH  12  13
ENDBRANCH  11  12
ENDBRANCH  10  11
ENDBRANCH   9  10
ENDBRANCH   8   9
ENDBRANCH   7   8
ENDBRANCH   6   7
ENDBRANCH   5   6
ENDBRANCH   4   5
ENDBRANCH   3   4
ENDBRANCH   2   3
ENDBRANCH   1   2
BRANCH   1  18
ATOM     18  C   UNL     1     -14.120  14.716  -6.409  1.00  0.00     0.000 C 
BRANCH  18  19
ATOM     19  C   UNL     1     -15.543  14.981  -6.938  1.00  0.00     0.000 C 
BRANCH  19  20
ATOM     20  C   UNL     1     -15.954  16.464  -7.013  1.00  0.00     0.000 C 
BRANCH  20  21
ATOM     21  C   UNL     1     -16.476  16.877  -8.400  1.00  0.00     0.000 C 
BRANCH  21  22
ATOM     22  C   UNL     1     -15.961  15.957  -9.517  1.00  0.00     0.000 C 
BRANCH  22  23
ATOM     23  C   UNL     1     -16.426  16.408 -10.914  1.00  0.00     0.000 C 
BRANCH  23  24
ATOM     24  C   UNL     1     -17.122  17.776 -10.866  1.00  0.00    -0.000 C 
BRANCH  24  25
ATOM     25  C   UNL     1     -16.333  18.816 -10.040  1.00  0.00    -0.000 C 
BRANCH  25  26
ATOM     26  C   UNL     1     -16.726  20.266 -10.380  1.00  0.00    -0.000 C 
BRANCH  26  27
ATOM     27  C   UNL     1     -16.707  20.581 -11.891  1.00  0.00    -0.000 C 
BRANCH  27  28
ATOM     28  C   UNL     1     -15.365  20.291 -12.589  1.00  0.00    -0.000 C 
BRANCH  28  29
ATOM     29  C   UNL     1     -14.655  21.567 -13.073  1.00  0.00    -0.000 C 
BRANCH  29  30
ATOM     30  C   UNL     1     -13.459  21.955 -12.187  1.00  0.00    -0.000 C 
BRANCH  30  31
ATOM     31  C   UNL     1     -12.635  20.765 -11.656  1.00  0.00    -0.003 C 
ATOM     32  C   UNL     1     -11.782  20.100 -12.736  1.00  0.00     0.004 C 
ENDBRANCH  30  31
ENDBRANCH  29  30
ENDBRANCH  28  29
ENDBRANCH  27  28
ENDBRANCH  26  27
ENDBRANCH  25  26
ENDBRANCH  24  25
ENDBRANCH  23  24
ENDBRANCH  22  23
ENDBRANCH  21  22
ENDBRANCH  20  21
ENDBRANCH  19  20
ENDBRANCH  18  19
ENDBRANCH   1  18
TORSDOF 28
ENDMDL
MODEL 3
REMARK VINA RESULT:     7.001      2.610      8.119
REMARK INTER + INTRA:          24.580
REMARK INTER:                  20.600
REMARK INTRA:                   3.980
REMARK UNBOUND:                 6.120
REMARK SMILES CCCCCCCCCCCCCCCCCCCCCCCCCCCCCC(=O)[O-]
REMARK SMILES IDX 16 1 17 2 18 3 19 4 20 5 21 6 22 7 23 8 24 9 25 10 26 11
REMARK SMILES IDX 27 12 28 13 29 14 30 15 31 16 32 17 15 18 14 19 13 20 12 21
REMARK SMILES IDX 11 22 10 23 9 24 8 25 7 26 6 27 5 28 4 29 3 30 2 31 1 32
REMARK H PARENT
REMARK Flexibility Score: inf
ROOT
ATOM      1  C   UNL     1     -17.118  13.868 -10.115  1.00  0.00     0.000 C 
ENDROOT
BRANCH   1   2
ATOM      2  C   UNL     1     -16.992  14.999 -11.147  1.00  0.00     0.000 C 
BRANCH   2   3
ATOM      3  C   UNL     1     -16.891  16.393 -10.502  1.00  0.00     0.000 C 
BRANCH   3   4
ATOM      4  C   UNL     1     -15.783  16.456  -9.437  1.00  0.00     0.000 C 
BRANCH   4   5
ATOM      5  C   UNL     1     -16.171  17.318  -8.223  1.00  0.00     0.000 C 
BRANCH   5   6
ATOM      6  C   UNL     1     -16.620  18.745  -8.614  1.00  0.00     0.000 C 
BRANCH   6   7
ATOM      7  C   UNL     1     -16.562  19.037 -10.127  1.00  0.00     0.000 C 
BRANCH   7   8
ATOM      8  C   UNL     1     -16.570  20.528 -10.511  1.00  0.00     0.000 C 
BRANCH   8   9
ATOM      9  C   UNL     1     -16.570  20.782 -12.034  1.00  0.00     0.000 C 
BRANCH   9  10
ATOM     10  C   UNL     1     -15.180  20.599 -12.658  1.00  0.00     0.000 C 
BRANCH  10  11
ATOM     11  C   UNL     1     -14.585  21.943 -13.100  1.00  0.00     0.000 C 
BRANCH  11  12
ATOM     12  C   UNL     1     -13.048  21.934 -13.124  1.00  0.00     0.000 C 
BRANCH  12  13
ATOM     13  C   UNL     1     -12.377  21.020 -12.077  1.00  0.00     0.006 C 
BRANCH  13  14
ATOM     14  C   UNL     1     -12.607  21.464 -10.620  1.00  0.00     0.053 C 
BRANCH  14  15
ATOM     15  C   UNL     1     -11.387  21.276  -9.770  1.00  0.00     0.041 C 
ATOM     16  O   UNL     1     -11.085  22.123  -8.891  1.00  0.00    -0.550 OA
ATOM     17  O   UNL     1     -10.595  20.144  -9.932  1.00  0.00    -0.550 OA
ENDBRANCH  14  15
ENDBRANCH  13  14
ENDBRANCH  12  13
ENDBRANCH  11  12
ENDBRANCH  10  11
ENDBRANCH   9  10
ENDBRANCH   8   9
ENDBRANCH   7   8
ENDBRANCH   6   7
ENDBRANCH   5   6
ENDBRANCH   4   5
ENDBRANCH   3   4
ENDBRANCH   2   3
ENDBRANCH   1   2
BRANCH   1  18
ATOM     18  C   UNL     1     -16.568  12.529 -10.639  1.00  0.00     0.000 C 
BRANCH  18  19
ATOM     19  C   UNL     1     -16.809  12.325 -12.147  1.00  0.00     0.000 C 
BRANCH  19  20
ATOM     20  C   UNL     1     -15.613  11.757 -12.936  1.00  0.00     0.000 C 
BRANCH  20  21
ATOM     21  C   UNL     1     -14.465  12.769 -13.104  1.00  0.00     0.000 C 
BRANCH  21  22
ATOM     22  C   UNL     1     -13.232  12.400 -12.267  1.00  0.00     0.000 C 
BRANCH  22  23
ATOM     23  C   UNL     1     -13.497  11.219 -11.315  1.00  0.00     0.000 C 
BRANCH  23  24
ATOM     24  C   UNL     1     -14.599  11.547 -10.297  1.00  0.00    -0.000 C 
BRANCH  24  25
ATOM     25  C   UNL     1     -14.150  11.311  -8.838  1.00  0.00    -0.000 C 
BRANCH  25  26
ATOM     26  C   UNL     1     -13.235  12.431  -8.308  1.00  0.00    -0.000 C 
BRANCH  26  27
ATOM     27  C   UNL     1     -13.988  13.547  -7.552  1.00  0.00    -0.000 C 
BRANCH  27  28
ATOM     28  C   UNL     1     -15.522  13.400  -7.555  1.00  0.00    -0.000 C 
BRANCH  28  29
ATOM     29  C   UNL     1     -16.184  14.019  -6.312  1.00  0.00    -0.000 C 
BRANCH  29  30
ATOM     30  C   UNL     1     -16.906  15.342  -6.619  1.00  0.00    -0.000 C 
BRANCH  30  31
ATOM     31  C   UNL     1     -17.118  16.260  -5.400  1.00  0.00    -0.003 C 
ATOM     32  C   UNL     1     -16.133  17.428  -5.354  1.00  0.00     0.004 C 
ENDBRANCH  30  31
ENDBRANCH  29  30
ENDBRANCH  28  29
ENDBRANCH  27  28
ENDBRANCH  26  27
ENDBRANCH  25  26
ENDBRANCH  24  25
ENDBRANCH  23  24
ENDBRANCH  22  23
ENDBRANCH  21  22
ENDBRANCH  20  21
ENDBRANCH  19  20
ENDBRANCH  18  19
ENDBRANCH   1  18
TORSDOF 28
ENDMDL
MODEL 4
REMARK VINA RESULT:     8.004      1.968      7.789
REMARK INTER + INTRA:          27.225
REMARK INTER:                  13.315
REMARK INTRA:                  13.910
REMARK UNBOUND:                 6.120
REMARK SMILES CCCCCCCCCCCCCCCCCCCCCCCCCCCCCC(=O)[O-]
REMARK SMILES IDX 16 1 17 2 18 3 19 4 20 5 21 6 22 7 23 8 24 9 25 10 26 11
REMARK SMILES IDX 27 12 28 13 29 14 30 15 31 16 32 17 15 18 14 19 13 20 12 21
REMARK SMILES IDX 11 22 10 23 9 24 8 25 7 26 6 27 5 28 4 29 3 30 2 31 1 32
REMARK H PARENT
REMARK Flexibility Score: inf
ROOT
ATOM      1  C   UNL     1     -17.124  13.877 -10.198  1.00  0.00     0.000 C 
ENDROOT
BRANCH   1   2
ATOM      2  C   UNL     1     -16.876  15.054 -11.154  1.00  0.00     0.000 C 
BRANCH   2   3
ATOM      3  C   UNL     1     -16.979  16.424 -10.461  1.00  0.00     0.000 C 
BRANCH   3   4
ATOM      4  C   UNL     1     -15.894  16.609  -9.387  1.00  0.00     0.000 C 
BRANCH   4   5
ATOM      5  C   UNL     1     -16.367  17.476  -8.206  1.00  0.00     0.000 C 
BRANCH   5   6
ATOM      6  C   UNL     1     -16.846  18.880  -8.641  1.00  0.00     0.000 C 
BRANCH   6   7
ATOM      7  C   UNL     1     -16.992  19.058 -10.165  1.00  0.00     0.000 C 
BRANCH   7   8
ATOM      8  C   UNL     1     -17.099  20.515 -10.651  1.00  0.00     0.000 C 
BRANCH   8   9
ATOM      9  C   UNL     1     -17.016  20.671 -12.186  1.00  0.00     0.000 C 
BRANCH   9  10
ATOM     10  C   UNL     1     -15.572  20.604 -12.703  1.00  0.00     0.000 C 
BRANCH  10  11
ATOM     11  C   UNL     1     -14.961  22.006 -12.834  1.00  0.00     0.000 C 
BRANCH  11  12
ATOM     12  C   UNL     1     -13.475  22.046 -12.440  1.00  0.00     0.000 C 
BRANCH  12  13
ATOM     13  C   UNL     1     -12.664  20.784 -12.800  1.00  0.00     0.006 C 
BRANCH  13  14
ATOM     14  C   UNL     1     -12.737  19.670 -11.739  1.00  0.00     0.053 C 
BRANCH  14  15
ATOM     15  C   UNL     1     -14.047  18.940 -11.769  1.00  0.00     0.041 C 
ATOM     16  O   UNL     1     -14.462  18.420 -12.837  1.00  0.00    -0.550 OA
ATOM     17  O   UNL     1     -14.798  18.813 -10.607  1.00  0.00    -0.550 OA
ENDBRANCH  14  15
ENDBRANCH  13  14
ENDBRANCH  12  13
ENDBRANCH  11  12
ENDBRANCH  10  11
ENDBRANCH   9  10
ENDBRANCH   8   9
ENDBRANCH   7   8
ENDBRANCH   6   7
ENDBRANCH   5   6
ENDBRANCH   4   5
ENDBRANCH   3   4
ENDBRANCH   2   3
ENDBRANCH   1   2
BRANCH   1  18
ATOM     18  C   UNL     1     -16.468  12.573 -10.686  1.00  0.00     0.000 C 
BRANCH  18  19
ATOM     19  C   UNL     1     -16.407  12.464 -12.222  1.00  0.00     0.000 C 
BRANCH  19  20
ATOM     20  C   UNL     1     -15.052  12.012 -12.798  1.00  0.00     0.000 C 
BRANCH  20  21
ATOM     21  C   UNL     1     -13.892  12.950 -12.420  1.00  0.00     0.000 C 
BRANCH  21  22
ATOM     22  C   UNL     1     -12.879  12.278 -11.481  1.00  0.00     0.000 C 
BRANCH  22  23
ATOM     23  C   UNL     1     -13.366  10.911 -10.968  1.00  0.00     0.000 C 
BRANCH  23  24
ATOM     24  C   UNL     1     -14.437  11.063  -9.877  1.00  0.00    -0.000 C 
BRANCH  24  25
ATOM     25  C   UNL     1     -13.898  11.762  -8.609  1.00  0.00    -0.000 C 
BRANCH  25  26
ATOM     26  C   UNL     1     -14.037  13.294  -8.670  1.00  0.00    -0.000 C 
BRANCH  26  27
ATOM     27  C   UNL     1     -15.420  13.814  -8.219  1.00  0.00    -0.000 C 
BRANCH  27  28
ATOM     28  C   UNL     1     -16.038  13.047  -7.035  1.00  0.00    -0.000 C 
BRANCH  28  29
ATOM     29  C   UNL     1     -14.993  12.618  -5.991  1.00  0.00    -0.000 C 
BRANCH  29  30
ATOM     30  C   UNL     1     -13.608  13.236  -6.246  1.00  0.00    -0.000 C 
BRANCH  30  31
ATOM     31  C   UNL     1     -13.531  14.761  -6.032  1.00  0.00    -0.003 C 
ATOM     32  C   UNL     1     -14.907  15.419  -5.933  1.00  0.00     0.004 C 
ENDBRANCH  30  31
ENDBRANCH  29  30
ENDBRANCH  28  29
ENDBRANCH  27  28
ENDBRANCH  26  27
ENDBRANCH  25  26
ENDBRANCH  24  25
ENDBRANCH  23  24
ENDBRANCH  22  23
ENDBRANCH  21  22
ENDBRANCH  20  21
ENDBRANCH  19  20
ENDBRANCH  18  19
ENDBRANCH   1  18
TORSDOF 28
ENDMDL
MODEL 5
REMARK VINA RESULT:     8.313      3.150      6.338
REMARK INTER + INTRA:          28.040
REMARK INTER:                  26.214
REMARK INTRA:                   1.826
REMARK UNBOUND:                 6.120
REMARK SMILES CCCCCCCCCCCCCCCCCCCCCCCCCCCCCC(=O)[O-]
REMARK SMILES IDX 16 1 17 2 18 3 19 4 20 5 21 6 22 7 23 8 24 9 25 10 26 11
REMARK SMILES IDX 27 12 28 13 29 14 30 15 31 16 32 17 15 18 14 19 13 20 12 21
REMARK SMILES IDX 11 22 10 23 9 24 8 25 7 26 6 27 5 28 4 29 3 30 2 31 1 32
REMARK H PARENT
REMARK Flexibility Score: inf
ROOT
ATOM      1  C   UNL     1     -16.047  16.765 -11.613  1.00  0.00     0.000 C 
ENDROOT
BRANCH   1   2
ATOM      2  C   UNL     1     -16.181  15.569 -12.568  1.00  0.00     0.000 C 
BRANCH   2   3
ATOM      3  C   UNL     1     -15.494  14.297 -12.039  1.00  0.00     0.000 C 
BRANCH   3   4
ATOM      4  C   UNL     1     -15.451  13.183 -13.098  1.00  0.00     0.000 C 
BRANCH   4   5
ATOM      5  C   UNL     1     -16.169  11.900 -12.641  1.00  0.00     0.000 C 
BRANCH   5   6
ATOM      6  C   UNL     1     -16.204  11.741 -11.104  1.00  0.00     0.000 C 
BRANCH   6   7
ATOM      7  C   UNL     1     -15.032  12.420 -10.368  1.00  0.00     0.000 C 
BRANCH   7   8
ATOM      8  C   UNL     1     -14.359  11.571  -9.275  1.00  0.00     0.000 C 
BRANCH   8   9
ATOM      9  C   UNL     1     -13.643  12.402  -8.188  1.00  0.00     0.000 C 
BRANCH   9  10
ATOM     10  C   UNL     1     -14.505  13.565  -7.677  1.00  0.00     0.000 C 
BRANCH  10  11
ATOM     11  C   UNL     1     -15.786  13.055  -7.001  1.00  0.00     0.000 C 
BRANCH  11  12
ATOM     12  C   UNL     1     -17.012  13.928  -7.317  1.00  0.00     0.000 C 
BRANCH  12  13
ATOM     13  C   UNL     1     -17.029  15.312  -6.635  1.00  0.00     0.006 C 
BRANCH  13  14
ATOM     14  C   UNL     1     -17.118  16.493  -7.620  1.00  0.00     0.053 C 
BRANCH  14  15
ATOM     15  C   UNL     1     -15.869  16.648  -8.436  1.00  0.00     0.041 C 
ATOM     16  O   UNL     1     -15.325  15.644  -8.965  1.00  0.00    -0.550 OA
ATOM     17  O   UNL     1     -15.320  17.910  -8.633  1.00  0.00    -0.550 OA
ENDBRANCH  14  15
ENDBRANCH  13  14
ENDBRANCH  12  13
ENDBRANCH  11  12
ENDBRANCH  10  11
ENDBRANCH   9  10
ENDBRANCH   8   9
ENDBRANCH   7   8
ENDBRANCH   6   7
ENDBRANCH   5   6
ENDBRANCH   4   5
ENDBRANCH   3   4
ENDBRANCH   2   3
ENDBRANCH   1   2
BRANCH   1  18
ATOM     18  C   UNL     1     -15.837  18.095 -12.359  1.00  0.00     0.000 C 
BRANCH  18  19
ATOM     19  C   UNL     1     -16.839  19.187 -11.941  1.00  0.00     0.000 C 
BRANCH  19  20
ATOM     20  C   UNL     1     -16.218  20.553 -11.588  1.00  0.00     0.000 C 
BRANCH  20  21
ATOM     21  C   UNL     1     -14.704  20.615 -11.856  1.00  0.00     0.000 C 
BRANCH  21  22
ATOM     22  C   UNL     1     -14.260  21.985 -12.391  1.00  0.00     0.000 C 
BRANCH  22  23
ATOM     23  C   UNL     1     -12.904  21.922 -13.118  1.00  0.00     0.000 C 
BRANCH  23  24
ATOM     24  C   UNL     1     -12.077  20.706 -12.675  1.00  0.00    -0.000 C 
BRANCH  24  25
ATOM     25  C   UNL     1     -12.144  20.466 -11.150  1.00  0.00    -0.000 C 
BRANCH  25  26
ATOM     26  C   UNL     1     -11.524  19.119 -10.733  1.00  0.00    -0.000 C 
BRANCH  26  27
ATOM     27  C   UNL     1     -10.749  19.176  -9.399  1.00  0.00    -0.000 C 
BRANCH  27  28
ATOM     28  C   UNL     1      -9.297  18.666  -9.480  1.00  0.00    -0.000 C 
BRANCH  28  29
ATOM     29  C   UNL     1      -9.205  17.186  -9.887  1.00  0.00    -0.000 C 
BRANCH  29  30
ATOM     30  C   UNL     1      -7.923  16.864 -10.675  1.00  0.00    -0.000 C 
BRANCH  30  31
ATOM     31  C   UNL     1      -6.663  16.675  -9.808  1.00  0.00    -0.003 C 
ATOM     32  C   UNL     1      -5.419  17.325 -10.412  1.00  0.00     0.004 C 
ENDBRANCH  30  31
ENDBRANCH  29  30
ENDBRANCH  28  29
ENDBRANCH  27  28
ENDBRANCH  26  27
ENDBRANCH  25  26
ENDBRANCH  24  25
ENDBRANCH  23  24
ENDBRANCH  22  23
ENDBRANCH  21  22
ENDBRANCH  20  21
ENDBRANCH  19  20
ENDBRANCH  18  19
ENDBRANCH   1  18
TORSDOF 28
ENDMDL
