MODEL 1
REMARK VINA RESULT:    -5.843      0.000      0.000
REMARK INTER + INTRA:         -17.937
REMARK INTER:                 -14.724
REMARK INTRA:                  -3.213
REMARK UNBOUND:                -3.213
REMARK SMILES CCCCCCCCCCCCCCCCCCCCCCCCCCCC(=O)[O-]
REMARK SMILES IDX 15 1 16 2 17 3 18 4 19 5 20 6 21 7 22 8 23 9 24 10 25 11
REMARK SMILES IDX 26 12 27 13 28 14 29 15 30 16 14 17 13 18 12 19 11 20 10 21
REMARK SMILES IDX 9 22 8 23 7 24 6 25 5 26 4 27 3 28 2 29 1 30
REMARK H PARENT
REMARK Flexibility Score: inf
ROOT
ATOM      1  C   UNL     1      -8.417 -15.207  26.906  1.00  0.00     0.000 C 
ENDROOT
BRANCH   1   2
ATOM      2  C   UNL     1      -9.326 -14.434  25.928  1.00  0.00     0.000 C 
BRANCH   2   3
ATOM      3  C   UNL     1     -10.794 -14.884  26.019  1.00  0.00     0.000 C 
BRANCH   3   4
ATOM      4  C   UNL     1     -11.002 -16.006  27.049  1.00  0.00     0.000 C 
BRANCH   4   5
ATOM      5  C   UNL     1     -12.476 -16.169  27.456  1.00  0.00     0.000 C 
BRANCH   5   6
ATOM      6  C   UNL     1     -12.637 -16.602  28.922  1.00  0.00     0.000 C 
BRANCH   6   7
ATOM      7  C   UNL     1     -11.641 -17.704  29.316  1.00  0.00     0.000 C 
BRANCH   7   8
ATOM      8  C   UNL     1     -11.212 -17.613  30.789  1.00  0.00     0.000 C 
BRANCH   8   9
ATOM      9  C   UNL     1     -12.380 -17.281  31.735  1.00  0.00     0.000 C 
BRANCH   9  10
ATOM     10  C   UNL     1     -13.013 -18.535  32.367  1.00  0.00     0.000 C 
BRANCH  10  11
ATOM     11  C   UNL     1     -12.044 -19.709  32.599  1.00  0.00     0.000 C 
BRANCH  11  12
ATOM     12  C   UNL     1     -12.080 -20.243  34.038  1.00  0.00     0.006 C 
BRANCH  12  13
ATOM     13  C   UNL     1     -13.527 -20.435  34.512  1.00  0.00     0.053 C 
BRANCH  13  14
ATOM     14  C   UNL     1     -14.025 -21.812  34.206  1.00  0.00     0.041 C 
ATOM     15  O   UNL     1     -13.415 -22.824  34.644  1.00  0.00    -0.550 OA
ATOM     16  O   UNL     1     -15.200 -21.982  33.482  1.00  0.00    -0.550 OA
ENDBRANCH  13  14
ENDBRANCH  12  13
ENDBRANCH  11  12
ENDBRANCH  10  11
ENDBRANCH   9  10
ENDBRANCH   8   9
ENDBRANCH   7   8
ENDBRANCH   6   7
ENDBRANCH   5   6
ENDBRANCH   4   5
ENDBRANCH   3   4
ENDBRANCH   2   3
ENDBRANCH   1   2
BRANCH   1  17
ATOM     17  C   UNL     1      -7.120 -14.462  27.264  1.00  0.00     0.000 C 
BRANCH  17  18
ATOM     18  C   UNL     1      -7.015 -14.119  28.757  1.00  0.00     0.000 C 
BRANCH  18  19
ATOM     19  C   UNL     1      -7.854 -15.088  29.603  1.00  0.00     0.000 C 
BRANCH  19  20
ATOM     20  C   UNL     1      -7.286 -15.297  31.017  1.00  0.00     0.000 C 
BRANCH  20  21
ATOM     21  C   UNL     1      -5.923 -14.613  31.217  1.00  0.00     0.000 C 
BRANCH  21  22
ATOM     22  C   UNL     1      -5.901 -13.787  32.509  1.00  0.00    -0.000 C 
BRANCH  22  23
ATOM     23  C   UNL     1      -6.506 -12.393  32.276  1.00  0.00    -0.000 C 
BRANCH  23  24
ATOM     24  C   UNL     1      -5.455 -11.355  31.853  1.00  0.00    -0.000 C 
BRANCH  24  25
ATOM     25  C   UNL     1      -5.716 -10.787  30.446  1.00  0.00    -0.000 C 
BRANCH  25  26
ATOM     26  C   UNL     1      -4.777 -11.386  29.386  1.00  0.00    -0.000 C 
BRANCH  26  27
ATOM     27  C   UNL     1      -3.512 -12.009  30.004  1.00  0.00    -0.000 C 
BRANCH  27  28
ATOM     28  C   UNL     1      -2.646 -12.739  28.965  1.00  0.00    -0.000 C 
BRANCH  28  29
ATOM     29  C   UNL     1      -3.083 -14.196  28.749  1.00  0.00    -0.003 C 
ATOM     30  C   UNL     1      -3.538 -14.428  27.311  1.00  0.00     0.004 C 
ENDBRANCH  28  29
ENDBRANCH  27  28
ENDBRANCH  26  27
ENDBRANCH  25  26
ENDBRANCH  24  25
ENDBRANCH  23  24
ENDBRANCH  22  23
ENDBRANCH  21  22
ENDBRANCH  20  21
ENDBRANCH  19  20
ENDBRANCH  18  19
ENDBRANCH  17  18
ENDBRANCH   1  17
TORSDOF 26
ENDMDL
MODEL 2
REMARK VINA RESULT:    -5.757      2.339      4.094
REMARK INTER + INTRA:         -17.720
REMARK INTER:                 -14.428
REMARK INTRA:                  -3.292
REMARK UNBOUND:                -3.213
REMARK SMILES CCCCCCCCCCCCCCCCCCCCCCCCCCCC(=O)[O-]
REMARK SMILES IDX 15 1 16 2 17 3 18 4 19 5 20 6 21 7 22 8 23 9 24 10 25 11
REMARK SMILES IDX 26 12 27 13 28 14 29 15 30 16 14 17 13 18 12 19 11 20 10 21
REMARK SMILES IDX 9 22 8 23 7 24 6 25 5 26 4 27 3 28 2 29 1 30
REMARK H PARENT
REMARK Flexibility Score: inf
ROOT
ATOM      1  C   UNL     1      -7.316 -14.855  29.406  1.00  0.00     0.000 C 
ENDROOT
BRANCH   1   2
ATOM      2  C   UNL     1      -6.747 -13.853  28.379  1.00  0.00     0.000 C 
BRANCH   2   3
ATOM      3  C   UNL     1      -6.677 -14.448  26.963  1.00  0.00     0.000 C 
BRANCH   3   4
ATOM      4  C   UNL     1      -7.918 -15.288  26.616  1.00  0.00     0.000 C 
BRANCH   4   5
ATOM      5  C   UNL     1      -9.057 -14.441  26.024  1.00  0.00     0.000 C 
BRANCH   5   6
ATOM      6  C   UNL     1     -10.440 -15.065  26.265  1.00  0.00     0.000 C 
BRANCH   6   7
ATOM      7  C   UNL     1     -10.457 -15.985  27.497  1.00  0.00     0.000 C 
BRANCH   7   8
ATOM      8  C   UNL     1     -11.844 -16.589  27.764  1.00  0.00     0.000 C 
BRANCH   8   9
ATOM      9  C   UNL     1     -12.469 -16.100  29.083  1.00  0.00     0.000 C 
BRANCH   9  10
ATOM     10  C   UNL     1     -13.586 -17.027  29.597  1.00  0.00     0.000 C 
BRANCH  10  11
ATOM     11  C   UNL     1     -13.105 -18.381  30.150  1.00  0.00     0.000 C 
BRANCH  11  12
ATOM     12  C   UNL     1     -12.561 -18.288  31.583  1.00  0.00     0.006 C 
BRANCH  12  13
ATOM     13  C   UNL     1     -11.210 -19.006  31.700  1.00  0.00     0.053 C 
BRANCH  13  14
ATOM     14  C   UNL     1     -10.226 -18.488  30.700  1.00  0.00     0.041 C 
ATOM     15  O   UNL     1      -9.932 -19.169  29.681  1.00  0.00    -0.550 OA
ATOM     16  O   UNL     1      -9.670 -17.224  30.861  1.00  0.00    -0.550 OA
ENDBRANCH  13  14
ENDBRANCH  12  13
ENDBRANCH  11  12
ENDBRANCH  10  11
ENDBRANCH   9  10
ENDBRANCH   8   9
ENDBRANCH   7   8
ENDBRANCH   6   7
ENDBRANCH   5   6
ENDBRANCH   4   5
ENDBRANCH   3   4
ENDBRANCH   2   3
ENDBRANCH   1   2
BRANCH   1  17
ATOM     17  C   UNL     1      -7.448 -14.277  30.825  1.00  0.00     0.000 C 
BRANCH  17  18
ATOM     18  C   UNL     1      -6.204 -14.518  31.692  1.00  0.00     0.000 C 
BRANCH  18  19
ATOM     19  C   UNL     1      -5.876 -13.279  32.538  1.00  0.00     0.000 C 
BRANCH  19  20
ATOM     20  C   UNL     1      -6.356 -11.967  31.894  1.00  0.00     0.000 C 
BRANCH  20  21
ATOM     21  C   UNL     1      -5.200 -11.130  31.320  1.00  0.00     0.000 C 
BRANCH  21  22
ATOM     22  C   UNL     1      -5.216 -11.142  29.786  1.00  0.00    -0.000 C 
BRANCH  22  23
ATOM     23  C   UNL     1      -3.807 -11.398  29.227  1.00  0.00    -0.000 C 
BRANCH  23  24
ATOM     24  C   UNL     1      -3.352 -12.854  29.411  1.00  0.00    -0.000 C 
BRANCH  24  25
ATOM     25  C   UNL     1      -2.822 -13.478  28.107  1.00  0.00    -0.000 C 
BRANCH  25  26
ATOM     26  C   UNL     1      -1.948 -12.503  27.302  1.00  0.00    -0.000 C 
BRANCH  26  27
ATOM     27  C   UNL     1      -1.244 -13.185  26.115  1.00  0.00    -0.000 C 
BRANCH  27  28
ATOM     28  C   UNL     1      -1.977 -14.452  25.643  1.00  0.00    -0.000 C 
BRANCH  28  29
ATOM     29  C   UNL     1      -1.096 -15.709  25.722  1.00  0.00    -0.003 C 
ATOM     30  C   UNL     1      -1.695 -16.742  26.673  1.00  0.00     0.004 C 
ENDBRANCH  28  29
ENDBRANCH  27  28
ENDBRANCH  26  27
ENDBRANCH  25  26
ENDBRANCH  24  25
ENDBRANCH  23  24
ENDBRANCH  22  23
ENDBRANCH  21  22
ENDBRANCH  20  21
ENDBRANCH  19  20
ENDBRANCH  18  19
ENDBRANCH  17  18
ENDBRANCH   1  17
TORSDOF 26
ENDMDL
MODEL 3
REMARK VINA RESULT:    -5.731      1.797      4.073
REMARK INTER + INTRA:         -17.654
REMARK INTER:                 -13.478
REMARK INTRA:                  -4.176
REMARK UNBOUND:                -3.213
REMARK SMILES CCCCCCCCCCCCCCCCCCCCCCCCCCCC(=O)[O-]
REMARK SMILES IDX 15 1 16 2 17 3 18 4 19 5 20 6 21 7 22 8 23 9 24 10 25 11
REMARK SMILES IDX 26 12 27 13 28 14 29 15 30 16 14 17 13 18 12 19 11 20 10 21
REMARK SMILES IDX 9 22 8 23 7 24 6 25 5 26 4 27 3 28 2 29 1 30
REMARK H PARENT
REMARK Flexibility Score: inf
ROOT
ATOM      1  C   UNL     1      -7.389 -15.261  30.830  1.00  0.00     0.000 C 
ENDROOT
BRANCH   1   2
ATOM      2  C   UNL     1      -7.856 -14.980  29.386  1.00  0.00     0.000 C 
BRANCH   2   3
ATOM      3  C   UNL     1      -6.868 -14.087  28.617  1.00  0.00     0.000 C 
BRANCH   3   4
ATOM      4  C   UNL     1      -6.705 -14.517  27.150  1.00  0.00     0.000 C 
BRANCH   4   5
ATOM      5  C   UNL     1      -7.927 -15.288  26.621  1.00  0.00     0.000 C 
BRANCH   5   6
ATOM      6  C   UNL     1      -9.016 -14.355  26.069  1.00  0.00     0.000 C 
BRANCH   6   7
ATOM      7  C   UNL     1     -10.422 -14.967  26.185  1.00  0.00     0.000 C 
BRANCH   7   8
ATOM      8  C   UNL     1     -10.563 -15.893  27.403  1.00  0.00     0.000 C 
BRANCH   8   9
ATOM      9  C   UNL     1     -11.984 -16.461  27.564  1.00  0.00     0.000 C 
BRANCH   9  10
ATOM     10  C   UNL     1     -12.060 -17.605  28.592  1.00  0.00     0.000 C 
BRANCH  10  11
ATOM     11  C   UNL     1     -10.716 -17.992  29.237  1.00  0.00     0.000 C 
BRANCH  11  12
ATOM     12  C   UNL     1     -10.701 -17.800  30.760  1.00  0.00     0.006 C 
BRANCH  12  13
ATOM     13  C   UNL     1     -11.985 -17.106  31.233  1.00  0.00     0.053 C 
BRANCH  13  14
ATOM     14  C   UNL     1     -12.778 -17.985  32.148  1.00  0.00     0.041 C 
ATOM     15  O   UNL     1     -12.963 -19.199  31.865  1.00  0.00    -0.550 OA
ATOM     16  O   UNL     1     -13.269 -17.479  33.346  1.00  0.00    -0.550 OA
ENDBRANCH  13  14
ENDBRANCH  12  13
ENDBRANCH  11  12
ENDBRANCH  10  11
ENDBRANCH   9  10
ENDBRANCH   8   9
ENDBRANCH   7   8
ENDBRANCH   6   7
ENDBRANCH   5   6
ENDBRANCH   4   5
ENDBRANCH   3   4
ENDBRANCH   2   3
ENDBRANCH   1   2
BRANCH   1  17
ATOM     17  C   UNL     1      -6.119 -14.490  31.229  1.00  0.00     0.000 C 
BRANCH  17  18
ATOM     18  C   UNL     1      -6.258 -13.755  32.570  1.00  0.00     0.000 C 
BRANCH  18  19
ATOM     19  C   UNL     1      -6.032 -12.246  32.394  1.00  0.00     0.000 C 
BRANCH  19  20
ATOM     20  C   UNL     1      -6.015 -11.808  30.920  1.00  0.00     0.000 C 
BRANCH  20  21
ATOM     21  C   UNL     1      -5.434 -10.397  30.726  1.00  0.00     0.000 C 
BRANCH  21  22
ATOM     22  C   UNL     1      -4.327 -10.395  29.664  1.00  0.00    -0.000 C 
BRANCH  22  23
ATOM     23  C   UNL     1      -3.022  -9.819  30.236  1.00  0.00    -0.000 C 
BRANCH  23  24
ATOM     24  C   UNL     1      -2.782 -10.232  31.696  1.00  0.00    -0.000 C 
BRANCH  24  25
ATOM     25  C   UNL     1      -1.720 -11.339  31.831  1.00  0.00    -0.000 C 
BRANCH  25  26
ATOM     26  C   UNL     1      -2.264 -12.594  32.532  1.00  0.00    -0.000 C 
BRANCH  26  27
ATOM     27  C   UNL     1      -2.708 -13.681  31.536  1.00  0.00    -0.000 C 
BRANCH  27  28
ATOM     28  C   UNL     1      -2.138 -13.457  30.126  1.00  0.00    -0.000 C 
BRANCH  28  29
ATOM     29  C   UNL     1      -3.195 -13.633  29.025  1.00  0.00    -0.003 C 
ATOM     30  C   UNL     1      -3.119 -15.026  28.406  1.00  0.00     0.004 C 
ENDBRANCH  28  29
ENDBRANCH  27  28
ENDBRANCH  26  27
ENDBRANCH  25  26
ENDBRANCH  24  25
ENDBRANCH  23  24
ENDBRANCH  22  23
ENDBRANCH  21  22
ENDBRANCH  20  21
ENDBRANCH  19  20
ENDBRANCH  18  19
ENDBRANCH  17  18
ENDBRANCH   1  17
TORSDOF 26
ENDMDL
MODEL 4
REMARK VINA RESULT:    -5.711      0.932      2.078
REMARK INTER + INTRA:         -17.603
REMARK INTER:                 -14.708
REMARK INTRA:                  -2.895
REMARK UNBOUND:                -3.213
REMARK SMILES CCCCCCCCCCCCCCCCCCCCCCCCCCCC(=O)[O-]
REMARK SMILES IDX 15 1 16 2 17 3 18 4 19 5 20 6 21 7 22 8 23 9 24 10 25 11
REMARK SMILES IDX 26 12 27 13 28 14 29 15 30 16 14 17 13 18 12 19 11 20 10 21
REMARK SMILES IDX 9 22 8 23 7 24 6 25 5 26 4 27 3 28 2 29 1 30
REMARK H PARENT
REMARK Flexibility Score: inf
ROOT
ATOM      1  C   UNL     1      -6.282 -14.532  28.066  1.00  0.00     0.000 C 
ENDROOT
BRANCH   1   2
ATOM      2  C   UNL     1      -6.923 -14.426  26.666  1.00  0.00     0.000 C 
BRANCH   2   3
ATOM      3  C   UNL     1      -8.220 -15.245  26.556  1.00  0.00     0.000 C 
BRANCH   3   4
ATOM      4  C   UNL     1      -9.382 -14.428  25.969  1.00  0.00     0.000 C 
BRANCH   4   5
ATOM      5  C   UNL     1     -10.755 -15.057  26.264  1.00  0.00     0.000 C 
BRANCH   5   6
ATOM      6  C   UNL     1     -10.745 -15.916  27.538  1.00  0.00     0.000 C 
BRANCH   6   7
ATOM      7  C   UNL     1     -12.057 -16.698  27.723  1.00  0.00     0.000 C 
BRANCH   7   8
ATOM      8  C   UNL     1     -12.417 -16.903  29.203  1.00  0.00     0.000 C 
BRANCH   8   9
ATOM      9  C   UNL     1     -12.102 -18.322  29.707  1.00  0.00     0.000 C 
BRANCH   9  10
ATOM     10  C   UNL     1     -13.011 -18.760  30.870  1.00  0.00     0.000 C 
BRANCH  10  11
ATOM     11  C   UNL     1     -12.916 -17.888  32.136  1.00  0.00     0.000 C 
BRANCH  11  12
ATOM     12  C   UNL     1     -13.437 -18.596  33.395  1.00  0.00     0.006 C 
BRANCH  12  13
ATOM     13  C   UNL     1     -12.588 -19.834  33.714  1.00  0.00     0.053 C 
BRANCH  13  14
ATOM     14  C   UNL     1     -13.442 -21.045  33.924  1.00  0.00     0.041 C 
ATOM     15  O   UNL     1     -13.066 -21.965  34.697  1.00  0.00    -0.550 OA
ATOM     16  O   UNL     1     -14.685 -21.134  33.306  1.00  0.00    -0.550 OA
ENDBRANCH  13  14
ENDBRANCH  12  13
ENDBRANCH  11  12
ENDBRANCH  10  11
ENDBRANCH   9  10
ENDBRANCH   8   9
ENDBRANCH   7   8
ENDBRANCH   6   7
ENDBRANCH   5   6
ENDBRANCH   4   5
ENDBRANCH   3   4
ENDBRANCH   2   3
ENDBRANCH   1   2
BRANCH   1  17
ATOM     17  C   UNL     1      -7.083 -13.816  29.167  1.00  0.00     0.000 C 
BRANCH  17  18
ATOM     18  C   UNL     1      -7.566 -14.765  30.274  1.00  0.00     0.000 C 
BRANCH  18  19
ATOM     19  C   UNL     1      -6.519 -14.884  31.391  1.00  0.00     0.000 C 
BRANCH  19  20
ATOM     20  C   UNL     1      -6.423 -13.620  32.262  1.00  0.00     0.000 C 
BRANCH  20  21
ATOM     21  C   UNL     1      -4.975 -13.274  32.649  1.00  0.00     0.000 C 
BRANCH  21  22
ATOM     22  C   UNL     1      -4.738 -11.759  32.611  1.00  0.00    -0.000 C 
BRANCH  22  23
ATOM     23  C   UNL     1      -5.479 -11.119  31.426  1.00  0.00    -0.000 C 
BRANCH  23  24
ATOM     24  C   UNL     1      -4.526 -10.638  30.322  1.00  0.00    -0.000 C 
BRANCH  24  25
ATOM     25  C   UNL     1      -4.189 -11.745  29.306  1.00  0.00    -0.000 C 
BRANCH  25  26
ATOM     26  C   UNL     1      -2.872 -12.466  29.636  1.00  0.00    -0.000 C 
BRANCH  26  27
ATOM     27  C   UNL     1      -2.875 -13.936  29.181  1.00  0.00    -0.000 C 
BRANCH  27  28
ATOM     28  C   UNL     1      -2.067 -14.156  27.892  1.00  0.00    -0.000 C 
BRANCH  28  29
ATOM     29  C   UNL     1      -2.962 -14.419  26.671  1.00  0.00    -0.003 C 
ATOM     30  C   UNL     1      -2.128 -14.775  25.443  1.00  0.00     0.004 C 
ENDBRANCH  28  29
ENDBRANCH  27  28
ENDBRANCH  26  27
ENDBRANCH  25  26
ENDBRANCH  24  25
ENDBRANCH  23  24
ENDBRANCH  22  23
ENDBRANCH  21  22
ENDBRANCH  20  21
ENDBRANCH  19  20
ENDBRANCH  18  19
ENDBRANCH  17  18
ENDBRANCH   1  17
TORSDOF 26
ENDMDL
MODEL 5
REMARK VINA RESULT:    -5.644      2.368      4.995
REMARK INTER + INTRA:         -17.434
REMARK INTER:                 -13.263
REMARK INTRA:                  -4.171
REMARK UNBOUND:                -3.213
REMARK SMILES CCCCCCCCCCCCCCCCCCCCCCCCCCCC(=O)[O-]
REMARK SMILES IDX 15 1 16 2 17 3 18 4 19 5 20 6 21 7 22 8 23 9 24 10 25 11
REMARK SMILES IDX 26 12 27 13 28 14 29 15 30 16 14 17 13 18 12 19 11 20 10 21
REMARK SMILES IDX 9 22 8 23 7 24 6 25 5 26 4 27 3 28 2 29 1 30
REMARK H PARENT
REMARK Flexibility Score: inf
ROOT
ATOM      1  C   UNL     1      -5.984 -13.956  31.452  1.00  0.00     0.000 C 
ENDROOT
BRANCH   1   2
ATOM      2  C   UNL     1      -6.783 -14.918  30.547  1.00  0.00     0.000 C 
BRANCH   2   3
ATOM      3  C   UNL     1      -7.497 -14.181  29.401  1.00  0.00     0.000 C 
BRANCH   3   4
ATOM      4  C   UNL     1      -6.887 -14.503  28.027  1.00  0.00     0.000 C 
BRANCH   4   5
ATOM      5  C   UNL     1      -7.851 -15.293  27.124  1.00  0.00     0.000 C 
BRANCH   5   6
ATOM      6  C   UNL     1      -8.799 -14.378  26.334  1.00  0.00     0.000 C 
BRANCH   6   7
ATOM      7  C   UNL     1     -10.233 -14.932  26.280  1.00  0.00     0.000 C 
BRANCH   7   8
ATOM      8  C   UNL     1     -10.492 -16.003  27.351  1.00  0.00     0.000 C 
BRANCH   8   9
ATOM      9  C   UNL     1     -11.955 -16.478  27.384  1.00  0.00     0.000 C 
BRANCH   9  10
ATOM     10  C   UNL     1     -12.690 -16.067  28.674  1.00  0.00     0.000 C 
BRANCH  10  11
ATOM     11  C   UNL     1     -13.031 -17.228  29.627  1.00  0.00     0.000 C 
BRANCH  11  12
ATOM     12  C   UNL     1     -12.388 -17.078  31.013  1.00  0.00     0.006 C 
BRANCH  12  13
ATOM     13  C   UNL     1     -10.860 -17.182  30.917  1.00  0.00     0.053 C 
BRANCH  13  14
ATOM     14  C   UNL     1     -10.417 -18.601  30.742  1.00  0.00     0.041 C 
ATOM     15  O   UNL     1     -10.400 -19.390  31.723  1.00  0.00    -0.550 OA
ATOM     16  O   UNL     1     -10.076 -19.071  29.479  1.00  0.00    -0.550 OA
ENDBRANCH  13  14
ENDBRANCH  12  13
ENDBRANCH  11  12
ENDBRANCH  10  11
ENDBRANCH   9  10
ENDBRANCH   8   9
ENDBRANCH   7   8
ENDBRANCH   6   7
ENDBRANCH   5   6
ENDBRANCH   4   5
ENDBRANCH   3   4
ENDBRANCH   2   3
ENDBRANCH   1   2
BRANCH   1  17
ATOM     17  C   UNL     1      -6.765 -12.695  31.857  1.00  0.00     0.000 C 
BRANCH  17  18
ATOM     18  C   UNL     1      -5.958 -11.402  31.673  1.00  0.00     0.000 C 
BRANCH  18  19
ATOM     19  C   UNL     1      -5.560 -11.206  30.203  1.00  0.00     0.000 C 
BRANCH  19  20
ATOM     20  C   UNL     1      -4.164 -10.583  30.036  1.00  0.00     0.000 C 
BRANCH  20  21
ATOM     21  C   UNL     1      -3.193 -11.499  29.271  1.00  0.00     0.000 C 
BRANCH  21  22
ATOM     22  C   UNL     1      -3.819 -12.874  29.007  1.00  0.00    -0.000 C 
BRANCH  22  23
ATOM     23  C   UNL     1      -2.732 -13.948  28.844  1.00  0.00    -0.000 C 
BRANCH  23  24
ATOM     24  C   UNL     1      -2.839 -15.063  29.895  1.00  0.00    -0.000 C 
BRANCH  24  25
ATOM     25  C   UNL     1      -1.463 -15.603  30.327  1.00  0.00    -0.000 C 
BRANCH  25  26
ATOM     26  C   UNL     1      -0.450 -14.479  30.602  1.00  0.00    -0.000 C 
BRANCH  26  27
ATOM     27  C   UNL     1      -0.649 -13.831  31.984  1.00  0.00    -0.000 C 
BRANCH  27  28
ATOM     28  C   UNL     1      -0.620 -12.295  31.924  1.00  0.00    -0.000 C 
BRANCH  28  29
ATOM     29  C   UNL     1      -1.772 -11.650  32.712  1.00  0.00    -0.003 C 
ATOM     30  C   UNL     1      -2.862 -12.671  33.028  1.00  0.00     0.004 C 
ENDBRANCH  28  29
ENDBRANCH  27  28
ENDBRANCH  26  27
ENDBRANCH  25  26
ENDBRANCH  24  25
ENDBRANCH  23  24
ENDBRANCH  22  23
ENDBRANCH  21  22
ENDBRANCH  20  21
ENDBRANCH  19  20
ENDBRANCH  18  19
ENDBRANCH  17  18
ENDBRANCH   1  17
TORSDOF 26
ENDMDL
MODEL 6
REMARK VINA RESULT:    -5.628      2.531      5.444
REMARK INTER + INTRA:         -17.396
REMARK INTER:                 -13.411
REMARK INTRA:                  -3.984
REMARK UNBOUND:                -3.213
REMARK SMILES CCCCCCCCCCCCCCCCCCCCCCCCCCCC(=O)[O-]
REMARK SMILES IDX 15 1 16 2 17 3 18 4 19 5 20 6 21 7 22 8 23 9 24 10 25 11
REMARK SMILES IDX 26 12 27 13 28 14 29 15 30 16 14 17 13 18 12 19 11 20 10 21
REMARK SMILES IDX 9 22 8 23 7 24 6 25 5 26 4 27 3 28 2 29 1 30
REMARK H PARENT
REMARK Flexibility Score: inf
ROOT
ATOM      1  C   UNL     1      -5.554 -13.332  32.472  1.00  0.00     0.000 C 
ENDROOT
BRANCH   1   2
ATOM      2  C   UNL     1      -5.851 -14.259  31.274  1.00  0.00     0.000 C 
BRANCH   2   3
ATOM      3  C   UNL     1      -7.140 -15.073  31.473  1.00  0.00     0.000 C 
BRANCH   3   4
ATOM      4  C   UNL     1      -7.959 -15.203  30.178  1.00  0.00     0.000 C 
BRANCH   4   5
ATOM      5  C   UNL     1      -7.451 -14.273  29.062  1.00  0.00     0.000 C 
BRANCH   5   6
ATOM      6  C   UNL     1      -7.030 -15.043  27.801  1.00  0.00     0.000 C 
BRANCH   6   7
ATOM      7  C   UNL     1      -7.347 -14.268  26.512  1.00  0.00     0.000 C 
BRANCH   7   8
ATOM      8  C   UNL     1      -8.841 -13.935  26.376  1.00  0.00     0.000 C 
BRANCH   8   9
ATOM      9  C   UNL     1      -9.665 -15.098  25.795  1.00  0.00     0.000 C 
BRANCH   9  10
ATOM     10  C   UNL     1     -10.885 -15.459  26.662  1.00  0.00     0.000 C 
BRANCH  10  11
ATOM     11  C   UNL     1     -10.565 -16.258  27.939  1.00  0.00     0.000 C 
BRANCH  11  12
ATOM     12  C   UNL     1     -11.646 -17.291  28.289  1.00  0.00     0.006 C 
BRANCH  12  13
ATOM     13  C   UNL     1     -11.037 -18.480  29.044  1.00  0.00     0.053 C 
BRANCH  13  14
ATOM     14  C   UNL     1     -10.983 -18.223  30.518  1.00  0.00     0.041 C 
ATOM     15  O   UNL     1     -11.632 -17.270  31.024  1.00  0.00    -0.550 OA
ATOM     16  O   UNL     1     -10.258 -19.074  31.345  1.00  0.00    -0.550 OA
ENDBRANCH  13  14
ENDBRANCH  12  13
ENDBRANCH  11  12
ENDBRANCH  10  11
ENDBRANCH   9  10
ENDBRANCH   8   9
ENDBRANCH   7   8
ENDBRANCH   6   7
ENDBRANCH   5   6
ENDBRANCH   4   5
ENDBRANCH   3   4
ENDBRANCH   2   3
ENDBRANCH   1   2
BRANCH   1  17
ATOM     17  C   UNL     1      -5.928 -11.862  32.222  1.00  0.00     0.000 C 
BRANCH  17  18
ATOM     18  C   UNL     1      -5.916 -11.482  30.734  1.00  0.00     0.000 C 
BRANCH  18  19
ATOM     19  C   UNL     1      -4.479 -11.372  30.206  1.00  0.00     0.000 C 
BRANCH  19  20
ATOM     20  C   UNL     1      -3.658 -10.284  30.919  1.00  0.00     0.000 C 
BRANCH  20  21
ATOM     21  C   UNL     1      -2.271 -10.781  31.362  1.00  0.00     0.000 C 
BRANCH  21  22
ATOM     22  C   UNL     1      -2.331 -11.424  32.754  1.00  0.00    -0.000 C 
BRANCH  22  23
ATOM     23  C   UNL     1      -2.044 -12.931  32.672  1.00  0.00    -0.000 C 
BRANCH  23  24
ATOM     24  C   UNL     1      -1.427 -13.345  31.328  1.00  0.00    -0.000 C 
BRANCH  24  25
ATOM     25  C   UNL     1      -2.193 -14.498  30.654  1.00  0.00    -0.000 C 
BRANCH  25  26
ATOM     26  C   UNL     1      -2.137 -14.424  29.120  1.00  0.00    -0.000 C 
BRANCH  26  27
ATOM     27  C   UNL     1      -3.531 -14.266  28.485  1.00  0.00    -0.000 C 
BRANCH  27  28
ATOM     28  C   UNL     1      -3.504 -14.418  26.956  1.00  0.00    -0.000 C 
BRANCH  28  29
ATOM     29  C   UNL     1      -2.118 -14.816  26.425  1.00  0.00    -0.003 C 
ATOM     30  C   UNL     1      -1.524 -13.712  25.554  1.00  0.00     0.004 C 
ENDBRANCH  28  29
ENDBRANCH  27  28
ENDBRANCH  26  27
ENDBRANCH  25  26
ENDBRANCH  24  25
ENDBRANCH  23  24
ENDBRANCH  22  23
ENDBRANCH  21  22
ENDBRANCH  20  21
ENDBRANCH  19  20
ENDBRANCH  18  19
ENDBRANCH  17  18
ENDBRANCH   1  17
TORSDOF 26
ENDMDL
MODEL 7
REMARK VINA RESULT:    -5.624      2.966      4.667
REMARK INTER + INTRA:         -17.385
REMARK INTER:                 -14.218
REMARK INTRA:                  -3.167
REMARK UNBOUND:                -3.213
REMARK SMILES CCCCCCCCCCCCCCCCCCCCCCCCCCCC(=O)[O-]
REMARK SMILES IDX 15 1 16 2 17 3 18 4 19 5 20 6 21 7 22 8 23 9 24 10 25 11
REMARK SMILES IDX 26 12 27 13 28 14 29 15 30 16 14 17 13 18 12 19 11 20 10 21
REMARK SMILES IDX 9 22 8 23 7 24 6 25 5 26 4 27 3 28 2 29 1 30
REMARK H PARENT
REMARK Flexibility Score: inf
ROOT
ATOM      1  C   UNL     1      -7.084 -14.818  29.499  1.00  0.00     0.000 C 
ENDROOT
BRANCH   1   2
ATOM      2  C   UNL     1      -6.699 -14.007  28.244  1.00  0.00     0.000 C 
BRANCH   2   3
ATOM      3  C   UNL     1      -7.124 -14.709  26.944  1.00  0.00     0.000 C 
BRANCH   3   4
ATOM      4  C   UNL     1      -8.567 -15.238  27.006  1.00  0.00     0.000 C 
BRANCH   4   5
ATOM      5  C   UNL     1      -9.461 -14.647  25.902  1.00  0.00     0.000 C 
BRANCH   5   6
ATOM      6  C   UNL     1     -10.925 -15.095  26.030  1.00  0.00     0.000 C 
BRANCH   6   7
ATOM      7  C   UNL     1     -11.170 -15.931  27.296  1.00  0.00     0.000 C 
BRANCH   7   8
ATOM      8  C   UNL     1     -12.642 -16.343  27.456  1.00  0.00     0.000 C 
BRANCH   8   9
ATOM      9  C   UNL     1     -13.187 -16.086  28.872  1.00  0.00     0.000 C 
BRANCH   9  10
ATOM     10  C   UNL     1     -13.464 -17.385  29.653  1.00  0.00     0.000 C 
BRANCH  10  11
ATOM     11  C   UNL     1     -12.482 -17.676  30.803  1.00  0.00     0.000 C 
BRANCH  11  12
ATOM     12  C   UNL     1     -11.488 -16.532  31.049  1.00  0.00     0.006 C 
BRANCH  12  13
ATOM     13  C   UNL     1     -10.150 -16.815  30.353  1.00  0.00     0.053 C 
BRANCH  13  14
ATOM     14  C   UNL     1      -9.315 -17.776  31.140  1.00  0.00     0.041 C 
ATOM     15  O   UNL     1      -9.581 -19.007  31.133  1.00  0.00    -0.550 OA
ATOM     16  O   UNL     1      -8.204 -17.319  31.840  1.00  0.00    -0.550 OA
ENDBRANCH  13  14
ENDBRANCH  12  13
ENDBRANCH  11  12
ENDBRANCH  10  11
ENDBRANCH   9  10
ENDBRANCH   8   9
ENDBRANCH   7   8
ENDBRANCH   6   7
ENDBRANCH   5   6
ENDBRANCH   4   5
ENDBRANCH   3   4
ENDBRANCH   2   3
ENDBRANCH   1   2
BRANCH   1  17
ATOM     17  C   UNL     1      -7.457 -13.945  30.709  1.00  0.00     0.000 C 
BRANCH  17  18
ATOM     18  C   UNL     1      -6.513 -14.138  31.905  1.00  0.00     0.000 C 
BRANCH  18  19
ATOM     19  C   UNL     1      -6.144 -12.788  32.536  1.00  0.00     0.000 C 
BRANCH  19  20
ATOM     20  C   UNL     1      -6.252 -11.613  31.549  1.00  0.00     0.000 C 
BRANCH  20  21
ATOM     21  C   UNL     1      -4.879 -11.060  31.131  1.00  0.00     0.000 C 
BRANCH  21  22
ATOM     22  C   UNL     1      -4.594 -11.344  29.650  1.00  0.00    -0.000 C 
BRANCH  22  23
ATOM     23  C   UNL     1      -3.292 -12.144  29.488  1.00  0.00    -0.000 C 
BRANCH  23  24
ATOM     24  C   UNL     1      -3.435 -13.606  29.937  1.00  0.00    -0.000 C 
BRANCH  24  25
ATOM     25  C   UNL     1      -2.541 -13.945  31.144  1.00  0.00    -0.000 C 
BRANCH  25  26
ATOM     26  C   UNL     1      -1.939 -12.692  31.800  1.00  0.00    -0.000 C 
BRANCH  26  27
ATOM     27  C   UNL     1      -1.297 -12.993  33.166  1.00  0.00    -0.000 C 
BRANCH  27  28
ATOM     28  C   UNL     1       0.224 -12.764  33.167  1.00  0.00    -0.000 C 
BRANCH  28  29
ATOM     29  C   UNL     1       0.927 -13.469  34.337  1.00  0.00    -0.003 C 
ATOM     30  C   UNL     1       0.755 -14.983  34.252  1.00  0.00     0.004 C 
ENDBRANCH  28  29
ENDBRANCH  27  28
ENDBRANCH  26  27
ENDBRANCH  25  26
ENDBRANCH  24  25
ENDBRANCH  23  24
ENDBRANCH  22  23
ENDBRANCH  21  22
ENDBRANCH  20  21
ENDBRANCH  19  20
ENDBRANCH  18  19
ENDBRANCH  17  18
ENDBRANCH   1  17
TORSDOF 26
ENDMDL
MODEL 8
REMARK VINA RESULT:    -5.611      2.558      5.911
REMARK INTER + INTRA:         -17.353
REMARK INTER:                 -13.104
REMARK INTRA:                  -4.249
REMARK UNBOUND:                -3.213
REMARK SMILES CCCCCCCCCCCCCCCCCCCCCCCCCCCC(=O)[O-]
REMARK SMILES IDX 15 1 16 2 17 3 18 4 19 5 20 6 21 7 22 8 23 9 24 10 25 11
REMARK SMILES IDX 26 12 27 13 28 14 29 15 30 16 14 17 13 18 12 19 11 20 10 21
REMARK SMILES IDX 9 22 8 23 7 24 6 25 5 26 4 27 3 28 2 29 1 30
REMARK H PARENT
REMARK Flexibility Score: inf
ROOT
ATOM      1  C   UNL     1      -5.733 -13.735  32.538  1.00  0.00     0.000 C 
ENDROOT
BRANCH   1   2
ATOM      2  C   UNL     1      -5.763 -14.582  31.248  1.00  0.00     0.000 C 
BRANCH   2   3
ATOM      3  C   UNL     1      -7.190 -15.003  30.861  1.00  0.00     0.000 C 
BRANCH   3   4
ATOM      4  C   UNL     1      -7.498 -14.740  29.377  1.00  0.00     0.000 C 
BRANCH   4   5
ATOM      5  C   UNL     1      -6.360 -13.991  28.662  1.00  0.00     0.000 C 
BRANCH   5   6
ATOM      6  C   UNL     1      -6.362 -14.231  27.144  1.00  0.00     0.000 C 
BRANCH   6   7
ATOM      7  C   UNL     1      -7.642 -14.939  26.668  1.00  0.00     0.000 C 
BRANCH   7   8
ATOM      8  C   UNL     1      -8.594 -13.994  25.919  1.00  0.00     0.000 C 
BRANCH   8   9
ATOM      9  C   UNL     1     -10.056 -14.476  25.938  1.00  0.00     0.000 C 
BRANCH   9  10
ATOM     10  C   UNL     1     -10.328 -15.519  27.038  1.00  0.00     0.000 C 
BRANCH  10  11
ATOM     11  C   UNL     1     -11.797 -15.964  27.165  1.00  0.00     0.000 C 
BRANCH  11  12
ATOM     12  C   UNL     1     -12.014 -17.018  28.261  1.00  0.00     0.006 C 
BRANCH  12  13
ATOM     13  C   UNL     1     -12.324 -16.347  29.606  1.00  0.00     0.053 C 
BRANCH  13  14
ATOM     14  C   UNL     1     -11.534 -16.962  30.719  1.00  0.00     0.041 C 
ATOM     15  O   UNL     1     -12.118 -17.571  31.654  1.00  0.00    -0.550 OA
ATOM     16  O   UNL     1     -10.145 -16.911  30.696  1.00  0.00    -0.550 OA
ENDBRANCH  13  14
ENDBRANCH  12  13
ENDBRANCH  11  12
ENDBRANCH  10  11
ENDBRANCH   9  10
ENDBRANCH   8   9
ENDBRANCH   7   8
ENDBRANCH   6   7
ENDBRANCH   5   6
ENDBRANCH   4   5
ENDBRANCH   3   4
ENDBRANCH   2   3
ENDBRANCH   1   2
BRANCH   1  17
ATOM     17  C   UNL     1      -6.319 -12.324  32.363  1.00  0.00     0.000 C 
BRANCH  17  18
ATOM     18  C   UNL     1      -5.299 -11.311  31.823  1.00  0.00     0.000 C 
BRANCH  18  19
ATOM     19  C   UNL     1      -5.609 -10.944  30.365  1.00  0.00     0.000 C 
BRANCH  19  20
ATOM     20  C   UNL     1      -4.358 -10.930  29.470  1.00  0.00     0.000 C 
BRANCH  20  21
ATOM     21  C   UNL     1      -3.427 -12.127  29.730  1.00  0.00     0.000 C 
BRANCH  21  22
ATOM     22  C   UNL     1      -2.583 -12.453  28.492  1.00  0.00    -0.000 C 
BRANCH  22  23
ATOM     23  C   UNL     1      -2.666 -13.949  28.151  1.00  0.00    -0.000 C 
BRANCH  23  24
ATOM     24  C   UNL     1      -2.723 -14.839  29.402  1.00  0.00    -0.000 C 
BRANCH  24  25
ATOM     25  C   UNL     1      -1.341 -15.385  29.804  1.00  0.00    -0.000 C 
BRANCH  25  26
ATOM     26  C   UNL     1      -1.077 -15.265  31.313  1.00  0.00    -0.000 C 
BRANCH  26  27
ATOM     27  C   UNL     1      -0.267 -14.006  31.672  1.00  0.00    -0.000 C 
BRANCH  27  28
ATOM     28  C   UNL     1      -0.675 -13.408  33.028  1.00  0.00    -0.000 C 
BRANCH  28  29
ATOM     29  C   UNL     1      -2.024 -12.674  32.969  1.00  0.00    -0.003 C 
ATOM     30  C   UNL     1      -1.826 -11.171  32.796  1.00  0.00     0.004 C 
ENDBRANCH  28  29
ENDBRANCH  27  28
ENDBRANCH  26  27
ENDBRANCH  25  26
ENDBRANCH  24  25
ENDBRANCH  23  24
ENDBRANCH  22  23
ENDBRANCH  21  22
ENDBRANCH  20  21
ENDBRANCH  19  20
ENDBRANCH  18  19
ENDBRANCH  17  18
ENDBRANCH   1  17
TORSDOF 26
ENDMDL
MODEL 9
REMARK VINA RESULT:    -5.602      1.950      4.247
REMARK INTER + INTRA:         -17.330
REMARK INTER:                 -13.915
REMARK INTRA:                  -3.415
REMARK UNBOUND:                -3.213
REMARK SMILES CCCCCCCCCCCCCCCCCCCCCCCCCCCC(=O)[O-]
REMARK SMILES IDX 15 1 16 2 17 3 18 4 19 5 20 6 21 7 22 8 23 9 24 10 25 11
REMARK SMILES IDX 26 12 27 13 28 14 29 15 30 16 14 17 13 18 12 19 11 20 10 21
REMARK SMILES IDX 9 22 8 23 7 24 6 25 5 26 4 27 3 28 2 29 1 30
REMARK H PARENT
REMARK Flexibility Score: inf
ROOT
ATOM      1  C   UNL     1      -6.455 -14.729  30.764  1.00  0.00     0.000 C 
ENDROOT
BRANCH   1   2
ATOM      2  C   UNL     1      -7.336 -14.402  29.539  1.00  0.00     0.000 C 
BRANCH   2   3
ATOM      3  C   UNL     1      -6.509 -14.252  28.251  1.00  0.00     0.000 C 
BRANCH   3   4
ATOM      4  C   UNL     1      -7.341 -14.519  26.985  1.00  0.00     0.000 C 
BRANCH   4   5
ATOM      5  C   UNL     1      -8.653 -15.264  27.287  1.00  0.00     0.000 C 
BRANCH   5   6
ATOM      6  C   UNL     1      -9.763 -14.929  26.279  1.00  0.00     0.000 C 
BRANCH   6   7
ATOM      7  C   UNL     1     -11.108 -15.571  26.659  1.00  0.00     0.000 C 
BRANCH   7   8
ATOM      8  C   UNL     1     -11.076 -16.231  28.046  1.00  0.00     0.000 C 
BRANCH   8   9
ATOM      9  C   UNL     1     -11.677 -17.648  28.051  1.00  0.00     0.000 C 
BRANCH   9  10
ATOM     10  C   UNL     1     -12.495 -17.947  29.321  1.00  0.00     0.000 C 
BRANCH  10  11
ATOM     11  C   UNL     1     -12.023 -17.213  30.589  1.00  0.00     0.000 C 
BRANCH  11  12
ATOM     12  C   UNL     1     -12.731 -17.695  31.863  1.00  0.00     0.006 C 
BRANCH  12  13
ATOM     13  C   UNL     1     -12.286 -19.118  32.227  1.00  0.00     0.053 C 
BRANCH  13  14
ATOM     14  C   UNL     1     -13.326 -19.827  33.037  1.00  0.00     0.041 C 
ATOM     15  O   UNL     1     -13.908 -20.845  32.579  1.00  0.00    -0.550 OA
ATOM     16  O   UNL     1     -13.615 -19.395  34.327  1.00  0.00    -0.550 OA
ENDBRANCH  13  14
ENDBRANCH  12  13
ENDBRANCH  11  12
ENDBRANCH  10  11
ENDBRANCH   9  10
ENDBRANCH   8   9
ENDBRANCH   7   8
ENDBRANCH   6   7
ENDBRANCH   5   6
ENDBRANCH   4   5
ENDBRANCH   3   4
ENDBRANCH   2   3
ENDBRANCH   1   2
BRANCH   1  17
ATOM     17  C   UNL     1      -6.642 -13.754  31.938  1.00  0.00     0.000 C 
BRANCH  17  18
ATOM     18  C   UNL     1      -5.322 -13.387  32.631  1.00  0.00     0.000 C 
BRANCH  18  19
ATOM     19  C   UNL     1      -5.024 -11.888  32.486  1.00  0.00     0.000 C 
BRANCH  19  20
ATOM     20  C   UNL     1      -6.001 -11.169  31.539  1.00  0.00     0.000 C 
BRANCH  20  21
ATOM     21  C   UNL     1      -5.486 -11.103  30.091  1.00  0.00     0.000 C 
BRANCH  21  22
ATOM     22  C   UNL     1      -3.957 -11.223  30.042  1.00  0.00    -0.000 C 
BRANCH  22  23
ATOM     23  C   UNL     1      -3.530 -12.416  29.172  1.00  0.00    -0.000 C 
BRANCH  23  24
ATOM     24  C   UNL     1      -2.858 -13.531  29.985  1.00  0.00    -0.000 C 
BRANCH  24  25
ATOM     25  C   UNL     1      -1.519 -13.089  30.604  1.00  0.00    -0.000 C 
BRANCH  25  26
ATOM     26  C   UNL     1      -1.395 -13.486  32.084  1.00  0.00    -0.000 C 
BRANCH  26  27
ATOM     27  C   UNL     1      -1.483 -12.275  33.030  1.00  0.00    -0.000 C 
BRANCH  27  28
ATOM     28  C   UNL     1      -0.322 -11.287  32.834  1.00  0.00    -0.000 C 
BRANCH  28  29
ATOM     29  C   UNL     1      -0.723  -9.835  33.135  1.00  0.00    -0.003 C 
ATOM     30  C   UNL     1      -2.219  -9.621  32.922  1.00  0.00     0.004 C 
ENDBRANCH  28  29
ENDBRANCH  27  28
ENDBRANCH  26  27
ENDBRANCH  25  26
ENDBRANCH  24  25
ENDBRANCH  23  24
ENDBRANCH  22  23
ENDBRANCH  21  22
ENDBRANCH  20  21
ENDBRANCH  19  20
ENDBRANCH  18  19
ENDBRANCH  17  18
ENDBRANCH   1  17
TORSDOF 26
ENDMDL
