MODEL 1
REMARK VINA RESULT:    -6.321      0.000      0.000
REMARK INTER + INTRA:          -7.718
REMARK INTER:                  -7.430
REMARK INTRA:                  -0.289
REMARK UNBOUND:                -0.289
REMARK SMILES O=c1c(O)c(-c2ccc(O)cc2)oc2cc(O)cc(O)c12
REMARK SMILES IDX 5 1 3 2 2 3 1 4 21 5 19 6 18 7 16 8 15 9 14 10 13 11 6 12
REMARK SMILES IDX 7 13 8 14 9 15 12 16 11 17 10 18 4 20 20 22 17 24
REMARK H PARENT 10 19 4 21 20 23 17 25
REMARK Flexibility Score: inf
ROOT
ATOM      1  C   UNL     1      17.319  42.368  25.321  1.00  0.00     0.180 A 
ATOM      2  C   UNL     1      17.267  41.686  26.548  1.00  0.00     0.208 A 
ATOM      3  C   UNL     1      18.463  41.242  27.133  1.00  0.00     0.238 A 
ATOM      4  O   UNL     1      18.415  40.680  28.257  1.00  0.00    -0.285 OA
ATOM      5  C   UNL     1      19.696  41.472  26.475  1.00  0.00     0.111 A 
ATOM      6  C   UNL     1      20.966  41.032  26.957  1.00  0.00     0.134 A 
ATOM      7  C   UNL     1      22.132  41.428  26.291  1.00  0.00     0.093 A 
ATOM      8  C   UNL     1      22.070  42.196  25.125  1.00  0.00     0.123 A 
ATOM      9  C   UNL     1      20.832  42.580  24.615  1.00  0.00     0.094 A 
ATOM     10  C   UNL     1      19.653  42.230  25.276  1.00  0.00     0.146 A 
ATOM     11  O   UNL     1      18.496  42.627  24.762  1.00  0.00    -0.452 OA
ENDROOT
BRANCH   1  12
ATOM     12  C   UNL     1      16.098  42.845  24.630  1.00  0.00     0.021 A 
ATOM     13  C   UNL     1      15.409  41.977  23.766  1.00  0.00     0.016 A 
ATOM     14  C   UNL     1      14.242  42.399  23.123  1.00  0.00     0.047 A 
ATOM     15  C   UNL     1      13.740  43.685  23.346  1.00  0.00     0.115 A 
ATOM     16  C   UNL     1      15.577  44.131  24.866  1.00  0.00     0.016 A 
ATOM     17  C   UNL     1      14.410  44.550  24.222  1.00  0.00     0.047 A 
BRANCH  15  18
ATOM     18  O   UNL     1      12.576  44.092  22.697  1.00  0.00    -0.508 OA
ATOM     19  H   UNL     1      12.234  43.614  21.872  1.00  0.00     0.293 HD
ENDBRANCH  15  18
ENDBRANCH   1  12
BRANCH   2  20
ATOM     20  O   UNL     1      16.041  41.489  27.191  1.00  0.00    -0.502 OA
ATOM     21  H   UNL     1      15.869  40.704  27.808  1.00  0.00     0.293 HD
ENDBRANCH   2  20
BRANCH   6  22
ATOM     22  O   UNL     1      21.132  40.188  28.058  1.00  0.00    -0.507 OA
ATOM     23  H   UNL     1      20.395  39.916  28.690  1.00  0.00     0.293 HD
ENDBRANCH   6  22
BRANCH   8  24
ATOM     24  O   UNL     1      23.234  42.573  24.460  1.00  0.00    -0.508 OA
ATOM     25  H   UNL     1      23.360  43.514  24.104  1.00  0.00     0.293 HD
ENDBRANCH   8  24
TORSDOF 5
ENDMDL
MODEL 2
REMARK VINA RESULT:    -6.273      1.295      3.090
REMARK INTER + INTRA:          -7.662
REMARK INTER:                  -7.361
REMARK INTRA:                  -0.300
REMARK UNBOUND:                -0.289
REMARK SMILES O=c1c(O)c(-c2ccc(O)cc2)oc2cc(O)cc(O)c12
REMARK SMILES IDX 5 1 3 2 2 3 1 4 21 5 19 6 18 7 16 8 15 9 14 10 13 11 6 12
REMARK SMILES IDX 7 13 8 14 9 15 12 16 11 17 10 18 4 20 20 22 17 24
REMARK H PARENT 10 19 4 21 20 23 17 25
REMARK Flexibility Score: inf
ROOT
ATOM      1  C   UNL     1      18.038  43.229  24.305  1.00  0.00     0.180 A 
ATOM      2  C   UNL     1      19.039  43.547  23.372  1.00  0.00     0.208 A 
ATOM      3  C   UNL     1      20.360  43.148  23.626  1.00  0.00     0.238 A 
ATOM      4  O   UNL     1      21.243  43.387  22.762  1.00  0.00    -0.285 OA
ATOM      5  C   UNL     1      20.667  42.449  24.820  1.00  0.00     0.111 A 
ATOM      6  C   UNL     1      21.977  42.030  25.200  1.00  0.00     0.134 A 
ATOM      7  C   UNL     1      22.144  41.232  26.338  1.00  0.00     0.093 A 
ATOM      8  C   UNL     1      21.056  40.892  27.146  1.00  0.00     0.123 A 
ATOM      9  C   UNL     1      19.781  41.346  26.815  1.00  0.00     0.094 A 
ATOM     10  C   UNL     1      19.577  42.113  25.666  1.00  0.00     0.146 A 
ATOM     11  O   UNL     1      18.345  42.515  25.382  1.00  0.00    -0.452 OA
ENDROOT
BRANCH   1  12
ATOM     12  C   UNL     1      16.626  43.638  24.117  1.00  0.00     0.021 A 
ATOM     13  C   UNL     1      15.724  42.751  23.508  1.00  0.00     0.016 A 
ATOM     14  C   UNL     1      14.383  43.108  23.341  1.00  0.00     0.047 A 
ATOM     15  C   UNL     1      13.922  44.348  23.795  1.00  0.00     0.115 A 
ATOM     16  C   UNL     1      16.153  44.876  24.590  1.00  0.00     0.016 A 
ATOM     17  C   UNL     1      14.812  45.231  24.423  1.00  0.00     0.047 A 
BRANCH  15  18
ATOM     18  O   UNL     1      12.584  44.691  23.622  1.00  0.00    -0.508 OA
ATOM     19  H   UNL     1      12.036  45.087  24.377  1.00  0.00     0.293 HD
ENDBRANCH  15  18
ENDBRANCH   1  12
BRANCH   2  20
ATOM     20  O   UNL     1      18.711  44.218  22.190  1.00  0.00    -0.502 OA
ATOM     21  H   UNL     1      17.882  44.793  22.102  1.00  0.00     0.293 HD
ENDBRANCH   2  20
BRANCH   6  22
ATOM     22  O   UNL     1      23.141  42.391  24.515  1.00  0.00    -0.507 OA
ATOM     23  H   UNL     1      23.226  42.437  23.511  1.00  0.00     0.293 HD
ENDBRANCH   6  22
BRANCH   8  24
ATOM     24  O   UNL     1      21.233  40.111  28.285  1.00  0.00    -0.508 OA
ATOM     25  H   UNL     1      21.007  40.462  29.209  1.00  0.00     0.293 HD
ENDBRANCH   8  24
TORSDOF 5
ENDMDL
MODEL 3
REMARK VINA RESULT:    -6.272      5.530      7.487
REMARK INTER + INTRA:          -7.660
REMARK INTER:                  -7.454
REMARK INTRA:                  -0.206
REMARK UNBOUND:                -0.289
REMARK SMILES O=c1c(O)c(-c2ccc(O)cc2)oc2cc(O)cc(O)c12
REMARK SMILES IDX 5 1 3 2 2 3 1 4 21 5 19 6 18 7 16 8 15 9 14 10 13 11 6 12
REMARK SMILES IDX 7 13 8 14 9 15 12 16 11 17 10 18 4 20 20 22 17 24
REMARK H PARENT 10 19 4 21 20 23 17 25
REMARK Flexibility Score: inf
ROOT
ATOM      1  C   UNL     1      21.001  38.894  22.634  1.00  0.00     0.180 A 
ATOM      2  C   UNL     1      21.022  39.766  21.531  1.00  0.00     0.208 A 
ATOM      3  C   UNL     1      21.793  39.427  20.409  1.00  0.00     0.238 A 
ATOM      4  O   UNL     1      21.765  40.184  19.404  1.00  0.00    -0.285 OA
ATOM      5  C   UNL     1      22.546  38.227  20.408  1.00  0.00     0.111 A 
ATOM      6  C   UNL     1      23.393  37.802  19.340  1.00  0.00     0.134 A 
ATOM      7  C   UNL     1      23.988  36.536  19.392  1.00  0.00     0.093 A 
ATOM      8  C   UNL     1      23.818  35.705  20.503  1.00  0.00     0.123 A 
ATOM      9  C   UNL     1      23.040  36.136  21.575  1.00  0.00     0.094 A 
ATOM     10  C   UNL     1      22.405  37.379  21.538  1.00  0.00     0.146 A 
ATOM     11  O   UNL     1      21.665  37.745  22.576  1.00  0.00    -0.452 OA
ENDROOT
BRANCH   1  12
ATOM     12  C   UNL     1      20.231  39.196  23.863  1.00  0.00     0.021 A 
ATOM     13  C   UNL     1      19.127  38.397  24.201  1.00  0.00     0.016 A 
ATOM     14  C   UNL     1      18.401  38.650  25.369  1.00  0.00     0.047 A 
ATOM     15  C   UNL     1      18.778  39.693  26.220  1.00  0.00     0.115 A 
ATOM     16  C   UNL     1      20.618  40.231  24.734  1.00  0.00     0.016 A 
ATOM     17  C   UNL     1      19.891  40.482  25.901  1.00  0.00     0.047 A 
BRANCH  15  18
ATOM     18  O   UNL     1      18.045  39.935  27.380  1.00  0.00    -0.508 OA
ATOM     19  H   UNL     1      18.419  39.725  28.297  1.00  0.00     0.293 HD
ENDBRANCH  15  18
ENDBRANCH   1  12
BRANCH   2  20
ATOM     20  O   UNL     1      20.254  40.934  21.544  1.00  0.00    -0.502 OA
ATOM     21  H   UNL     1      20.123  41.491  22.380  1.00  0.00     0.293 HD
ENDBRANCH   2  20
BRANCH   6  22
ATOM     22  O   UNL     1      23.703  38.592  18.229  1.00  0.00    -0.507 OA
ATOM     23  H   UNL     1      23.656  39.600  18.209  1.00  0.00     0.293 HD
ENDBRANCH   6  22
BRANCH   8  24
ATOM     24  O   UNL     1      24.425  34.453  20.553  1.00  0.00    -0.508 OA
ATOM     25  H   UNL     1      24.889  34.123  21.392  1.00  0.00     0.293 HD
ENDBRANCH   8  24
TORSDOF 5
ENDMDL
MODEL 4
REMARK VINA RESULT:    -6.080      2.791      6.356
REMARK INTER + INTRA:          -7.434
REMARK INTER:                  -7.191
REMARK INTRA:                  -0.243
REMARK UNBOUND:                -0.289
REMARK SMILES O=c1c(O)c(-c2ccc(O)cc2)oc2cc(O)cc(O)c12
REMARK SMILES IDX 5 1 3 2 2 3 1 4 21 5 19 6 18 7 16 8 15 9 14 10 13 11 6 12
REMARK SMILES IDX 7 13 8 14 9 15 12 16 11 17 10 18 4 20 20 22 17 24
REMARK H PARENT 10 19 4 21 20 23 17 25
REMARK Flexibility Score: inf
ROOT
ATOM      1  C   UNL     1      20.273  40.957  23.753  1.00  0.00     0.180 A 
ATOM      2  C   UNL     1      20.721  40.684  25.057  1.00  0.00     0.208 A 
ATOM      3  C   UNL     1      19.803  40.738  26.118  1.00  0.00     0.238 A 
ATOM      4  O   UNL     1      20.197  40.440  27.275  1.00  0.00    -0.285 OA
ATOM      5  C   UNL     1      18.453  41.082  25.864  1.00  0.00     0.111 A 
ATOM      6  C   UNL     1      17.446  41.207  26.868  1.00  0.00     0.134 A 
ATOM      7  C   UNL     1      16.116  41.424  26.488  1.00  0.00     0.093 A 
ATOM      8  C   UNL     1      15.767  41.585  25.145  1.00  0.00     0.123 A 
ATOM      9  C   UNL     1      16.753  41.524  24.163  1.00  0.00     0.094 A 
ATOM     10  C   UNL     1      18.082  41.273  24.507  1.00  0.00     0.146 A 
ATOM     11  O   UNL     1      18.988  41.212  23.538  1.00  0.00    -0.452 OA
ENDROOT
BRANCH   1  12
ATOM     12  C   UNL     1      21.187  40.943  22.587  1.00  0.00     0.021 A 
ATOM     13  C   UNL     1      22.075  42.015  22.391  1.00  0.00     0.016 A 
ATOM     14  C   UNL     1      22.961  42.010  21.310  1.00  0.00     0.047 A 
ATOM     15  C   UNL     1      22.984  40.932  20.421  1.00  0.00     0.115 A 
ATOM     16  C   UNL     1      21.228  39.851  21.701  1.00  0.00     0.016 A 
ATOM     17  C   UNL     1      22.115  39.849  20.621  1.00  0.00     0.047 A 
BRANCH  15  18
ATOM     18  O   UNL     1      23.871  40.941  19.348  1.00  0.00    -0.508 OA
ATOM     19  H   UNL     1      23.837  41.664  18.639  1.00  0.00     0.293 HD
ENDBRANCH  15  18
ENDBRANCH   1  12
BRANCH   2  20
ATOM     20  O   UNL     1      22.053  40.324  25.283  1.00  0.00    -0.502 OA
ATOM     21  H   UNL     1      22.379  39.976  26.176  1.00  0.00     0.293 HD
ENDBRANCH   2  20
BRANCH   6  22
ATOM     22  O   UNL     1      17.702  41.154  28.241  1.00  0.00    -0.507 OA
ATOM     23  H   UNL     1      18.320  40.491  28.685  1.00  0.00     0.293 HD
ENDBRANCH   6  22
BRANCH   8  24
ATOM     24  O   UNL     1      14.444  41.816  24.777  1.00  0.00    -0.508 OA
ATOM     25  H   UNL     1      14.082  41.512  23.880  1.00  0.00     0.293 HD
ENDBRANCH   8  24
TORSDOF 5
ENDMDL
MODEL 5
REMARK VINA RESULT:    -5.904     10.676     14.512
REMARK INTER + INTRA:          -7.229
REMARK INTER:                  -6.956
REMARK INTRA:                  -0.272
REMARK UNBOUND:                -0.289
REMARK SMILES O=c1c(O)c(-c2ccc(O)cc2)oc2cc(O)cc(O)c12
REMARK SMILES IDX 5 1 3 2 2 3 1 4 21 5 19 6 18 7 16 8 15 9 14 10 13 11 6 12
REMARK SMILES IDX 7 13 8 14 9 15 12 16 11 17 10 18 4 20 20 22 17 24
REMARK H PARENT 10 19 4 21 20 23 17 25
REMARK Flexibility Score: inf
ROOT
ATOM      1  C   UNL     1      12.646  37.989  14.948  1.00  0.00     0.180 A 
ATOM      2  C   UNL     1      13.815  38.360  14.262  1.00  0.00     0.208 A 
ATOM      3  C   UNL     1      13.736  38.663  12.894  1.00  0.00     0.238 A 
ATOM      4  O   UNL     1      14.775  39.047  12.298  1.00  0.00    -0.285 OA
ATOM      5  C   UNL     1      12.491  38.576  12.225  1.00  0.00     0.111 A 
ATOM      6  C   UNL     1      12.300  38.822  10.832  1.00  0.00     0.134 A 
ATOM      7  C   UNL     1      11.004  38.834  10.303  1.00  0.00     0.093 A 
ATOM      8  C   UNL     1       9.896  38.545  11.105  1.00  0.00     0.123 A 
ATOM      9  C   UNL     1      10.078  38.246  12.453  1.00  0.00     0.094 A 
ATOM     10  C   UNL     1      11.355  38.261  13.017  1.00  0.00     0.146 A 
ATOM     11  O   UNL     1      11.482  37.981  14.308  1.00  0.00    -0.452 OA
ENDROOT
BRANCH   1  12
ATOM     12  C   UNL     1      12.655  37.631  16.386  1.00  0.00     0.021 A 
ATOM     13  C   UNL     1      12.179  38.554  17.332  1.00  0.00     0.016 A 
ATOM     14  C   UNL     1      12.158  38.227  18.690  1.00  0.00     0.047 A 
ATOM     15  C   UNL     1      12.596  36.971  19.120  1.00  0.00     0.115 A 
ATOM     16  C   UNL     1      13.076  36.361  16.822  1.00  0.00     0.016 A 
ATOM     17  C   UNL     1      13.053  36.037  18.181  1.00  0.00     0.047 A 
BRANCH  15  18
ATOM     18  O   UNL     1      12.571  36.660  20.478  1.00  0.00    -0.508 OA
ATOM     19  H   UNL     1      11.698  36.553  20.981  1.00  0.00     0.293 HD
ENDBRANCH  15  18
ENDBRANCH   1  12
BRANCH   2  20
ATOM     20  O   UNL     1      15.030  38.461  14.947  1.00  0.00    -0.502 OA
ATOM     21  H   UNL     1      15.828  38.957  14.569  1.00  0.00     0.293 HD
ENDBRANCH   2  20
BRANCH   6  22
ATOM     22  O   UNL     1      13.345  39.031   9.926  1.00  0.00    -0.507 OA
ATOM     23  H   UNL     1      14.084  38.369   9.740  1.00  0.00     0.293 HD
ENDBRANCH   6  22
BRANCH   8  24
ATOM     24  O   UNL     1       8.611  38.544  10.568  1.00  0.00    -0.508 OA
ATOM     25  H   UNL     1       8.329  37.865   9.870  1.00  0.00     0.293 HD
ENDBRANCH   8  24
TORSDOF 5
ENDMDL
MODEL 6
REMARK VINA RESULT:    -5.761     10.539     12.892
REMARK INTER + INTRA:          -7.060
REMARK INTER:                  -6.870
REMARK INTRA:                  -0.189
REMARK UNBOUND:                -0.289
REMARK SMILES O=c1c(O)c(-c2ccc(O)cc2)oc2cc(O)cc(O)c12
REMARK SMILES IDX 5 1 3 2 2 3 1 4 21 5 19 6 18 7 16 8 15 9 14 10 13 11 6 12
REMARK SMILES IDX 7 13 8 14 9 15 12 16 11 17 10 18 4 20 20 22 17 24
REMARK H PARENT 10 19 4 21 20 23 17 25
REMARK Flexibility Score: inf
ROOT
ATOM      1  C   UNL     1      12.508  38.530  14.034  1.00  0.00     0.180 A 
ATOM      2  C   UNL     1      12.387  39.158  15.287  1.00  0.00     0.208 A 
ATOM      3  C   UNL     1      13.456  39.084  16.192  1.00  0.00     0.238 A 
ATOM      4  O   UNL     1      13.364  39.692  17.289  1.00  0.00    -0.285 OA
ATOM      5  C   UNL     1      14.628  38.370  15.841  1.00  0.00     0.111 A 
ATOM      6  C   UNL     1      15.758  38.196  16.696  1.00  0.00     0.134 A 
ATOM      7  C   UNL     1      16.913  37.583  16.198  1.00  0.00     0.093 A 
ATOM      8  C   UNL     1      16.957  37.080  14.895  1.00  0.00     0.123 A 
ATOM      9  C   UNL     1      15.838  37.192  14.073  1.00  0.00     0.094 A 
ATOM     10  C   UNL     1      14.683  37.830  14.529  1.00  0.00     0.146 A 
ATOM     11  O   UNL     1      13.644  37.925  13.709  1.00  0.00    -0.452 OA
ENDROOT
BRANCH   1  12
ATOM     12  C   UNL     1      11.413  38.544  13.036  1.00  0.00     0.021 A 
ATOM     13  C   UNL     1      11.601  39.207  11.812  1.00  0.00     0.016 A 
ATOM     14  C   UNL     1      10.589  39.212  10.848  1.00  0.00     0.047 A 
ATOM     15  C   UNL     1       9.385  38.544  11.086  1.00  0.00     0.115 A 
ATOM     16  C   UNL     1      10.206  37.856  13.263  1.00  0.00     0.016 A 
ATOM     17  C   UNL     1       9.197  37.863  12.297  1.00  0.00     0.047 A 
BRANCH  15  18
ATOM     18  O   UNL     1       8.385  38.559  10.117  1.00  0.00    -0.508 OA
ATOM     19  H   UNL     1       8.227  37.765   9.506  1.00  0.00     0.293 HD
ENDBRANCH  15  18
ENDBRANCH   1  12
BRANCH   2  20
ATOM     20  O   UNL     1      11.230  39.876  15.604  1.00  0.00    -0.502 OA
ATOM     21  H   UNL     1      10.605  39.599  16.351  1.00  0.00     0.293 HD
ENDBRANCH   2  20
BRANCH   6  22
ATOM     22  O   UNL     1      15.786  38.580  18.040  1.00  0.00    -0.507 OA
ATOM     23  H   UNL     1      15.949  39.520  18.366  1.00  0.00     0.293 HD
ENDBRANCH   6  22
BRANCH   8  24
ATOM     24  O   UNL     1      18.105  36.457  14.411  1.00  0.00    -0.508 OA
ATOM     25  H   UNL     1      19.031  36.807  14.632  1.00  0.00     0.293 HD
ENDBRANCH   8  24
TORSDOF 5
ENDMDL
MODEL 7
REMARK VINA RESULT:    -5.725      2.395      2.899
REMARK INTER + INTRA:          -7.017
REMARK INTER:                  -6.729
REMARK INTRA:                  -0.288
REMARK UNBOUND:                -0.289
REMARK SMILES O=c1c(O)c(-c2ccc(O)cc2)oc2cc(O)cc(O)c12
REMARK SMILES IDX 5 1 3 2 2 3 1 4 21 5 19 6 18 7 16 8 15 9 14 10 13 11 6 12
REMARK SMILES IDX 7 13 8 14 9 15 12 16 11 17 10 18 4 20 20 22 17 24
REMARK H PARENT 10 19 4 21 20 23 17 25
REMARK Flexibility Score: inf
ROOT
ATOM      1  C   UNL     1      18.079  40.865  23.741  1.00  0.00     0.180 A 
ATOM      2  C   UNL     1      18.139  40.817  25.144  1.00  0.00     0.208 A 
ATOM      3  C   UNL     1      19.306  41.252  25.792  1.00  0.00     0.238 A 
ATOM      4  O   UNL     1      19.334  41.258  27.050  1.00  0.00    -0.285 OA
ATOM      5  C   UNL     1      20.404  41.715  25.027  1.00  0.00     0.111 A 
ATOM      6  C   UNL     1      21.651  42.143  25.576  1.00  0.00     0.134 A 
ATOM      7  C   UNL     1      22.620  42.704  24.736  1.00  0.00     0.093 A 
ATOM      8  C   UNL     1      22.413  42.792  23.356  1.00  0.00     0.123 A 
ATOM      9  C   UNL     1      21.223  42.323  22.804  1.00  0.00     0.094 A 
ATOM     10  C   UNL     1      20.223  41.791  23.621  1.00  0.00     0.146 A 
ATOM     11  O   UNL     1      19.101  41.366  23.056  1.00  0.00    -0.452 OA
ENDROOT
BRANCH   1  12
ATOM     12  C   UNL     1      16.892  40.400  22.986  1.00  0.00     0.021 A 
ATOM     13  C   UNL     1      16.775  39.041  22.649  1.00  0.00     0.016 A 
ATOM     14  C   UNL     1      15.653  38.578  21.957  1.00  0.00     0.047 A 
ATOM     15  C   UNL     1      14.627  39.460  21.607  1.00  0.00     0.115 A 
ATOM     16  C   UNL     1      15.848  41.281  22.648  1.00  0.00     0.016 A 
ATOM     17  C   UNL     1      14.726  40.814  21.957  1.00  0.00     0.047 A 
BRANCH  15  18
ATOM     18  O   UNL     1      13.514  38.985  20.917  1.00  0.00    -0.508 OA
ATOM     19  H   UNL     1      13.450  39.048  19.908  1.00  0.00     0.293 HD
ENDBRANCH  15  18
ENDBRANCH   1  12
BRANCH   2  20
ATOM     20  O   UNL     1      17.035  40.378  25.881  1.00  0.00    -0.502 OA
ATOM     21  H   UNL     1      16.857  39.398  26.064  1.00  0.00     0.293 HD
ENDBRANCH   2  20
BRANCH   6  22
ATOM     22  O   UNL     1      21.995  42.014  26.925  1.00  0.00    -0.507 OA
ATOM     23  H   UNL     1      22.776  41.477  27.270  1.00  0.00     0.293 HD
ENDBRANCH   6  22
BRANCH   8  24
ATOM     24  O   UNL     1      23.388  43.337  22.525  1.00  0.00    -0.508 OA
ATOM     25  H   UNL     1      23.913  42.761  21.876  1.00  0.00     0.293 HD
ENDBRANCH   8  24
TORSDOF 5
ENDMDL
MODEL 8
REMARK VINA RESULT:    -5.722      9.185     11.795
REMARK INTER + INTRA:          -7.014
REMARK INTER:                  -6.822
REMARK INTRA:                  -0.193
REMARK UNBOUND:                -0.289
REMARK SMILES O=c1c(O)c(-c2ccc(O)cc2)oc2cc(O)cc(O)c12
REMARK SMILES IDX 5 1 3 2 2 3 1 4 21 5 19 6 18 7 16 8 15 9 14 10 13 11 6 12
REMARK SMILES IDX 7 13 8 14 9 15 12 16 11 17 10 18 4 20 20 22 17 24
REMARK H PARENT 10 19 4 21 20 23 17 25
REMARK Flexibility Score: inf
ROOT
ATOM      1  C   UNL     1      12.445  37.032  16.522  1.00  0.00     0.180 A 
ATOM      2  C   UNL     1      12.872  35.694  16.570  1.00  0.00     0.208 A 
ATOM      3  C   UNL     1      13.179  35.121  17.814  1.00  0.00     0.238 A 
ATOM      4  O   UNL     1      13.508  33.907  17.857  1.00  0.00    -0.285 OA
ATOM      5  C   UNL     1      13.071  35.898  18.993  1.00  0.00     0.111 A 
ATOM      6  C   UNL     1      13.395  35.433  20.303  1.00  0.00     0.134 A 
ATOM      7  C   UNL     1      13.126  36.246  21.411  1.00  0.00     0.093 A 
ATOM      8  C   UNL     1      12.606  37.533  21.251  1.00  0.00     0.123 A 
ATOM      9  C   UNL     1      12.342  38.018  19.972  1.00  0.00     0.094 A 
ATOM     10  C   UNL     1      12.566  37.217  18.849  1.00  0.00     0.146 A 
ATOM     11  O   UNL     1      12.291  37.714  17.650  1.00  0.00    -0.452 OA
ENDROOT
BRANCH   1  12
ATOM     12  C   UNL     1      12.127  37.712  15.244  1.00  0.00     0.021 A 
ATOM     13  C   UNL     1      13.021  38.663  14.726  1.00  0.00     0.016 A 
ATOM     14  C   UNL     1      12.751  39.300  13.511  1.00  0.00     0.047 A 
ATOM     15  C   UNL     1      11.595  38.985  12.792  1.00  0.00     0.115 A 
ATOM     16  C   UNL     1      10.974  37.385  14.507  1.00  0.00     0.016 A 
ATOM     17  C   UNL     1      10.707  38.023  13.293  1.00  0.00     0.047 A 
BRANCH  15  18
ATOM     18  O   UNL     1      11.338  39.628  11.583  1.00  0.00    -0.508 OA
ATOM     19  H   UNL     1      11.347  39.126  10.703  1.00  0.00     0.293 HD
ENDBRANCH  15  18
ENDBRANCH   1  12
BRANCH   2  20
ATOM     20  O   UNL     1      12.949  34.937  15.397  1.00  0.00    -0.502 OA
ATOM     21  H   UNL     1      13.806  34.492  15.092  1.00  0.00     0.293 HD
ENDBRANCH   2  20
BRANCH   6  22
ATOM     22  O   UNL     1      14.003  34.202  20.566  1.00  0.00    -0.507 OA
ATOM     23  H   UNL     1      13.535  33.405  20.973  1.00  0.00     0.293 HD
ENDBRANCH   6  22
BRANCH   8  24
ATOM     24  O   UNL     1      12.356  38.341  22.357  1.00  0.00    -0.508 OA
ATOM     25  H   UNL     1      12.669  39.305  22.391  1.00  0.00     0.293 HD
ENDBRANCH   8  24
TORSDOF 5
ENDMDL
MODEL 9
REMARK VINA RESULT:    -5.680      7.738     10.678
REMARK INTER + INTRA:          -6.964
REMARK INTER:                  -6.675
REMARK INTRA:                  -0.289
REMARK UNBOUND:                -0.289
REMARK SMILES O=c1c(O)c(-c2ccc(O)cc2)oc2cc(O)cc(O)c12
REMARK SMILES IDX 5 1 3 2 2 3 1 4 21 5 19 6 18 7 16 8 15 9 14 10 13 11 6 12
REMARK SMILES IDX 7 13 8 14 9 15 12 16 11 17 10 18 4 20 20 22 17 24
REMARK H PARENT 10 19 4 21 20 23 17 25
REMARK Flexibility Score: inf
ROOT
ATOM      1  C   UNL     1      13.347  38.825  17.149  1.00  0.00     0.180 A 
ATOM      2  C   UNL     1      13.926  39.910  17.829  1.00  0.00     0.208 A 
ATOM      3  C   UNL     1      13.980  39.885  19.231  1.00  0.00     0.238 A 
ATOM      4  O   UNL     1      14.548  40.833  19.832  1.00  0.00    -0.285 OA
ATOM      5  C   UNL     1      13.440  38.783  19.937  1.00  0.00     0.111 A 
ATOM      6  C   UNL     1      13.404  38.669  21.359  1.00  0.00     0.134 A 
ATOM      7  C   UNL     1      12.965  37.477  21.947  1.00  0.00     0.093 A 
ATOM      8  C   UNL     1      12.499  36.417  21.164  1.00  0.00     0.123 A 
ATOM      9  C   UNL     1      12.474  36.541  19.777  1.00  0.00     0.094 A 
ATOM     10  C   UNL     1      12.940  37.704  19.160  1.00  0.00     0.146 A 
ATOM     11  O   UNL     1      12.909  37.776  17.836  1.00  0.00    -0.452 OA
ENDROOT
BRANCH   1  12
ATOM     12  C   UNL     1      13.232  38.790  15.672  1.00  0.00     0.021 A 
ATOM     13  C   UNL     1      12.109  39.364  15.052  1.00  0.00     0.016 A 
ATOM     14  C   UNL     1      11.992  39.362  13.660  1.00  0.00     0.047 A 
ATOM     15  C   UNL     1      13.000  38.804  12.868  1.00  0.00     0.115 A 
ATOM     16  C   UNL     1      14.253  38.248  14.870  1.00  0.00     0.016 A 
ATOM     17  C   UNL     1      14.133  38.248  13.477  1.00  0.00     0.047 A 
BRANCH  15  18
ATOM     18  O   UNL     1      12.869  38.809  11.481  1.00  0.00    -0.508 OA
ATOM     19  H   UNL     1      12.221  39.430  11.012  1.00  0.00     0.293 HD
ENDBRANCH  15  18
ENDBRANCH   1  12
BRANCH   2  20
ATOM     20  O   UNL     1      14.474  40.978  17.112  1.00  0.00    -0.502 OA
ATOM     21  H   UNL     1      15.205  40.853  16.422  1.00  0.00     0.293 HD
ENDBRANCH   2  20
BRANCH   6  22
ATOM     22  O   UNL     1      13.760  39.701  22.233  1.00  0.00    -0.507 OA
ATOM     23  H   UNL     1      13.889  39.593  23.228  1.00  0.00     0.293 HD
ENDBRANCH   6  22
BRANCH   8  24
ATOM     24  O   UNL     1      12.049  35.240  21.757  1.00  0.00    -0.508 OA
ATOM     25  H   UNL     1      12.369  34.953  22.675  1.00  0.00     0.293 HD
ENDBRANCH   8  24
TORSDOF 5
ENDMDL
