MODEL 1
REMARK VINA RESULT:    -4.300      0.000      0.000
REMARK INTER + INTRA:          -9.743
REMARK INTER:                  -7.818
REMARK INTRA:                  -1.925
REMARK UNBOUND:                -1.925
REMARK SMILES CCCCCCCCCCCCCCCC(=O)[O-]
REMARK SMILES IDX 9 1 10 2 11 3 12 4 13 5 14 6 15 7 16 8 17 9 18 10 8 11 7 12
REMARK SMILES IDX 6 13 5 14 4 15 3 16 2 17 1 18
REMARK H PARENT
REMARK Flexibility Score: inf
ROOT
ATOM      1  C   UNL     1       6.745 -17.675  24.283  1.00  0.00     0.000 C 
ENDROOT
BRANCH   1   2
ATOM      2  C   UNL     1       7.512 -17.752  22.947  1.00  0.00     0.000 C 
BRANCH   2   3
ATOM      3  C   UNL     1       7.806 -19.175  22.437  1.00  0.00     0.000 C 
BRANCH   3   4
ATOM      4  C   UNL     1       8.643 -20.004  23.425  1.00  0.00     0.000 C 
BRANCH   4   5
ATOM      5  C   UNL     1       8.262 -21.496  23.429  1.00  0.00     0.000 C 
BRANCH   5   6
ATOM      6  C   UNL     1       9.347 -22.455  22.897  1.00  0.00     0.006 C 
BRANCH   6   7
ATOM      7  C   UNL     1       9.122 -22.940  21.456  1.00  0.00     0.053 C 
BRANCH   7   8
ATOM      8  C   UNL     1       9.500 -21.896  20.450  1.00  0.00     0.041 C 
ATOM      9  O   UNL     1       8.611 -21.330  19.760  1.00  0.00    -0.550 OA
ATOM     10  O   UNL     1      10.830 -21.528  20.297  1.00  0.00    -0.550 OA
ENDBRANCH   7   8
ENDBRANCH   6   7
ENDBRANCH   5   6
ENDBRANCH   4   5
ENDBRANCH   3   4
ENDBRANCH   2   3
ENDBRANCH   1   2
BRANCH   1  11
ATOM     11  C   UNL     1       6.345 -16.257  24.727  1.00  0.00     0.000 C 
BRANCH  11  12
ATOM     12  C   UNL     1       6.255 -15.267  23.552  1.00  0.00    -0.000 C 
BRANCH  12  13
ATOM     13  C   UNL     1       7.303 -14.139  23.656  1.00  0.00    -0.000 C 
BRANCH  13  14
ATOM     14  C   UNL     1       8.368 -14.382  24.742  1.00  0.00    -0.000 C 
BRANCH  14  15
ATOM     15  C   UNL     1       9.755 -14.785  24.210  1.00  0.00    -0.000 C 
BRANCH  15  16
ATOM     16  C   UNL     1      10.335 -16.074  24.822  1.00  0.00    -0.000 C 
BRANCH  16  17
ATOM     17  C   UNL     1       9.789 -16.395  26.228  1.00  0.00    -0.003 C 
ATOM     18  C   UNL     1       9.724 -17.897  26.502  1.00  0.00     0.004 C 
ENDBRANCH  16  17
ENDBRANCH  15  16
ENDBRANCH  14  15
ENDBRANCH  13  14
ENDBRANCH  12  13
ENDBRANCH  11  12
ENDBRANCH   1  11
TORSDOF 14
ENDMDL
MODEL 2
REMARK VINA RESULT:    -4.252      1.738      4.171
REMARK INTER + INTRA:          -9.657
REMARK INTER:                  -7.380
REMARK INTRA:                  -2.277
REMARK UNBOUND:                -1.925
REMARK SMILES CCCCCCCCCCCCCCCC(=O)[O-]
REMARK SMILES IDX 9 1 10 2 11 3 12 4 13 5 14 6 15 7 16 8 17 9 18 10 8 11 7 12
REMARK SMILES IDX 6 13 5 14 4 15 3 16 2 17 1 18
REMARK H PARENT
REMARK Flexibility Score: inf
ROOT
ATOM      1  C   UNL     1       8.494 -14.451  24.771  1.00  0.00     0.000 C 
ENDROOT
BRANCH   1   2
ATOM      2  C   UNL     1       7.376 -14.171  23.746  1.00  0.00     0.000 C 
BRANCH   2   3
ATOM      3  C   UNL     1       6.319 -15.282  23.605  1.00  0.00     0.000 C 
BRANCH   3   4
ATOM      4  C   UNL     1       6.366 -16.302  24.754  1.00  0.00     0.000 C 
BRANCH   4   5
ATOM      5  C   UNL     1       6.624 -17.740  24.269  1.00  0.00     0.000 C 
BRANCH   5   6
ATOM      6  C   UNL     1       7.531 -17.865  23.029  1.00  0.00     0.006 C 
BRANCH   6   7
ATOM      7  C   UNL     1       7.517 -19.249  22.361  1.00  0.00     0.053 C 
BRANCH   7   8
ATOM      8  C   UNL     1       8.019 -19.195  20.951  1.00  0.00     0.041 C 
ATOM      9  O   UNL     1       8.965 -19.940  20.585  1.00  0.00    -0.550 OA
ATOM     10  O   UNL     1       7.420 -18.341  20.033  1.00  0.00    -0.550 OA
ENDBRANCH   7   8
ENDBRANCH   6   7
ENDBRANCH   5   6
ENDBRANCH   4   5
ENDBRANCH   3   4
ENDBRANCH   2   3
ENDBRANCH   1   2
BRANCH   1  11
ATOM     11  C   UNL     1       9.847 -14.869  24.166  1.00  0.00     0.000 C 
BRANCH  11  12
ATOM     12  C   UNL     1      10.571 -15.937  25.004  1.00  0.00    -0.000 C 
BRANCH  12  13
ATOM     13  C   UNL     1       9.714 -16.432  26.188  1.00  0.00    -0.000 C 
BRANCH  13  14
ATOM     14  C   UNL     1      10.137 -17.814  26.722  1.00  0.00    -0.000 C 
BRANCH  14  15
ATOM     15  C   UNL     1       9.021 -18.874  26.732  1.00  0.00    -0.000 C 
BRANCH  15  16
ATOM     16  C   UNL     1       9.212 -20.028  25.729  1.00  0.00    -0.000 C 
BRANCH  16  17
ATOM     17  C   UNL     1       8.009 -20.991  25.653  1.00  0.00    -0.003 C 
ATOM     18  C   UNL     1       6.935 -20.668  26.691  1.00  0.00     0.004 C 
ENDBRANCH  16  17
ENDBRANCH  15  16
ENDBRANCH  14  15
ENDBRANCH  13  14
ENDBRANCH  12  13
ENDBRANCH  11  12
ENDBRANCH   1  11
TORSDOF 14
ENDMDL
MODEL 3
REMARK VINA RESULT:    -4.250      3.342      6.468
REMARK INTER + INTRA:          -9.653
REMARK INTER:                  -7.907
REMARK INTRA:                  -1.746
REMARK UNBOUND:                -1.925
REMARK SMILES CCCCCCCCCCCCCCCC(=O)[O-]
REMARK SMILES IDX 9 1 10 2 11 3 12 4 13 5 14 6 15 7 16 8 17 9 18 10 8 11 7 12
REMARK SMILES IDX 6 13 5 14 4 15 3 16 2 17 1 18
REMARK H PARENT
REMARK Flexibility Score: inf
ROOT
ATOM      1  C   UNL     1       7.927 -21.880  20.621  1.00  0.00     0.000 C 
ENDROOT
BRANCH   1   2
ATOM      2  C   UNL     1       7.177 -20.756  21.365  1.00  0.00     0.000 C 
BRANCH   2   3
ATOM      3  C   UNL     1       7.546 -19.324  20.939  1.00  0.00     0.000 C 
BRANCH   3   4
ATOM      4  C   UNL     1       8.347 -18.567  22.011  1.00  0.00     0.000 C 
BRANCH   4   5
ATOM      5  C   UNL     1       7.603 -17.336  22.559  1.00  0.00     0.000 C 
BRANCH   5   6
ATOM      6  C   UNL     1       6.813 -17.570  23.863  1.00  0.00     0.006 C 
BRANCH   6   7
ATOM      7  C   UNL     1       6.364 -16.287  24.579  1.00  0.00     0.053 C 
BRANCH   7   8
ATOM      8  C   UNL     1       7.470 -15.682  25.389  1.00  0.00     0.041 C 
ATOM      9  O   UNL     1       7.759 -16.156  26.519  1.00  0.00    -0.550 OA
ATOM     10  O   UNL     1       8.200 -14.616  24.881  1.00  0.00    -0.550 OA
ENDBRANCH   7   8
ENDBRANCH   6   7
ENDBRANCH   5   6
ENDBRANCH   4   5
ENDBRANCH   3   4
ENDBRANCH   2   3
ENDBRANCH   1   2
BRANCH   1  11
ATOM     11  C   UNL     1       8.758 -22.817  21.517  1.00  0.00     0.000 C 
BRANCH  11  12
ATOM     12  C   UNL     1       9.853 -22.075  22.303  1.00  0.00    -0.000 C 
BRANCH  12  13
ATOM     13  C   UNL     1      10.233 -22.804  23.608  1.00  0.00    -0.000 C 
BRANCH  13  14
ATOM     14  C   UNL     1       9.890 -22.010  24.883  1.00  0.00    -0.000 C 
BRANCH  14  15
ATOM     15  C   UNL     1       8.938 -20.820  24.667  1.00  0.00    -0.000 C 
BRANCH  15  16
ATOM     16  C   UNL     1       7.508 -21.029  25.203  1.00  0.00    -0.000 C 
BRANCH  16  17
ATOM     17  C   UNL     1       7.178 -20.173  26.443  1.00  0.00    -0.003 C 
ATOM     18  C   UNL     1       6.762 -21.020  27.645  1.00  0.00     0.004 C 
ENDBRANCH  16  17
ENDBRANCH  15  16
ENDBRANCH  14  15
ENDBRANCH  13  14
ENDBRANCH  12  13
ENDBRANCH  11  12
ENDBRANCH   1  11
TORSDOF 14
ENDMDL
MODEL 4
REMARK VINA RESULT:    -4.238      2.909      4.433
REMARK INTER + INTRA:          -9.630
REMARK INTER:                  -7.354
REMARK INTRA:                  -2.276
REMARK UNBOUND:                -1.925
REMARK SMILES CCCCCCCCCCCCCCCC(=O)[O-]
REMARK SMILES IDX 9 1 10 2 11 3 12 4 13 5 14 6 15 7 16 8 17 9 18 10 8 11 7 12
REMARK SMILES IDX 6 13 5 14 4 15 3 16 2 17 1 18
REMARK H PARENT
REMARK Flexibility Score: inf
ROOT
ATOM      1  C   UNL     1       8.055 -18.898  22.177  1.00  0.00     0.000 C 
ENDROOT
BRANCH   1   2
ATOM      2  C   UNL     1       7.183 -20.095  22.608  1.00  0.00     0.000 C 
BRANCH   2   3
ATOM      3  C   UNL     1       7.879 -21.125  23.515  1.00  0.00     0.000 C 
BRANCH   3   4
ATOM      4  C   UNL     1       7.658 -20.851  25.012  1.00  0.00     0.000 C 
BRANCH   4   5
ATOM      5  C   UNL     1       8.975 -20.736  25.802  1.00  0.00     0.000 C 
BRANCH   5   6
ATOM      6  C   UNL     1       9.704 -19.382  25.674  1.00  0.00     0.006 C 
BRANCH   6   7
ATOM      7  C   UNL     1      10.112 -18.747  27.012  1.00  0.00     0.053 C 
BRANCH   7   8
ATOM      8  C   UNL     1      11.307 -19.423  27.611  1.00  0.00     0.041 C 
ATOM      9  O   UNL     1      11.381 -19.597  28.856  1.00  0.00    -0.550 OA
ATOM     10  O   UNL     1      12.326 -19.888  26.789  1.00  0.00    -0.550 OA
ENDBRANCH   7   8
ENDBRANCH   6   7
ENDBRANCH   5   6
ENDBRANCH   4   5
ENDBRANCH   3   4
ENDBRANCH   2   3
ENDBRANCH   1   2
BRANCH   1  11
ATOM     11  C   UNL     1       7.773 -17.581  22.921  1.00  0.00     0.000 C 
BRANCH  11  12
ATOM     12  C   UNL     1       6.492 -17.639  23.772  1.00  0.00    -0.000 C 
BRANCH  12  13
ATOM     13  C   UNL     1       6.391 -16.457  24.759  1.00  0.00    -0.000 C 
BRANCH  13  14
ATOM     14  C   UNL     1       7.254 -16.632  26.024  1.00  0.00    -0.000 C 
BRANCH  14  15
ATOM     15  C   UNL     1       8.281 -15.511  26.266  1.00  0.00    -0.000 C 
BRANCH  15  16
ATOM     16  C   UNL     1       8.402 -14.484  25.124  1.00  0.00    -0.000 C 
BRANCH  16  17
ATOM     17  C   UNL     1       9.642 -14.692  24.229  1.00  0.00    -0.003 C 
ATOM     18  C   UNL     1      10.580 -15.769  24.772  1.00  0.00     0.004 C 
ENDBRANCH  16  17
ENDBRANCH  15  16
ENDBRANCH  14  15
ENDBRANCH  13  14
ENDBRANCH  12  13
ENDBRANCH  11  12
ENDBRANCH   1  11
TORSDOF 14
ENDMDL
MODEL 5
REMARK VINA RESULT:    -4.166      4.046      5.383
REMARK INTER + INTRA:          -9.499
REMARK INTER:                  -7.400
REMARK INTRA:                  -2.099
REMARK UNBOUND:                -1.925
REMARK SMILES CCCCCCCCCCCCCCCC(=O)[O-]
REMARK SMILES IDX 9 1 10 2 11 3 12 4 13 5 14 6 15 7 16 8 17 9 18 10 8 11 7 12
REMARK SMILES IDX 6 13 5 14 4 15 3 16 2 17 1 18
REMARK H PARENT
REMARK Flexibility Score: inf
ROOT
ATOM      1  C   UNL     1       7.263 -19.667  23.608  1.00  0.00     0.000 C 
ENDROOT
BRANCH   1   2
ATOM      2  C   UNL     1       7.704 -20.842  24.505  1.00  0.00     0.000 C 
BRANCH   2   3
ATOM      3  C   UNL     1       7.098 -20.853  25.920  1.00  0.00     0.000 C 
BRANCH   3   4
ATOM      4  C   UNL     1       8.048 -20.274  26.982  1.00  0.00     0.000 C 
BRANCH   4   5
ATOM      5  C   UNL     1       9.515 -20.683  26.761  1.00  0.00     0.000 C 
BRANCH   5   6
ATOM      6  C   UNL     1      10.344 -20.887  28.046  1.00  0.00     0.006 C 
BRANCH   6   7
ATOM      7  C   UNL     1      11.198 -19.677  28.455  1.00  0.00     0.053 C 
BRANCH   7   8
ATOM      8  C   UNL     1      12.221 -20.038  29.488  1.00  0.00     0.041 C 
ATOM      9  O   UNL     1      13.315 -19.418  29.541  1.00  0.00    -0.550 OA
ATOM     10  O   UNL     1      11.951 -21.040  30.411  1.00  0.00    -0.550 OA
ENDBRANCH   7   8
ENDBRANCH   6   7
ENDBRANCH   5   6
ENDBRANCH   4   5
ENDBRANCH   3   4
ENDBRANCH   2   3
ENDBRANCH   1   2
BRANCH   1  11
ATOM     11  C   UNL     1       8.178 -18.430  23.653  1.00  0.00     0.000 C 
BRANCH  11  12
ATOM     12  C   UNL     1       7.402 -17.109  23.507  1.00  0.00    -0.000 C 
BRANCH  12  13
ATOM     13  C   UNL     1       6.433 -16.866  24.683  1.00  0.00    -0.000 C 
BRANCH  13  14
ATOM     14  C   UNL     1       7.104 -16.962  26.066  1.00  0.00    -0.000 C 
BRANCH  14  15
ATOM     15  C   UNL     1       8.274 -15.987  26.287  1.00  0.00    -0.000 C 
BRANCH  15  16
ATOM     16  C   UNL     1       9.621 -16.656  26.624  1.00  0.00    -0.000 C 
BRANCH  16  17
ATOM     17  C   UNL     1      10.714 -16.418  25.561  1.00  0.00    -0.003 C 
ATOM     18  C   UNL     1      11.509 -17.685  25.246  1.00  0.00     0.004 C 
ENDBRANCH  16  17
ENDBRANCH  15  16
ENDBRANCH  14  15
ENDBRANCH  13  14
ENDBRANCH  12  13
ENDBRANCH  11  12
ENDBRANCH   1  11
TORSDOF 14
ENDMDL
MODEL 6
REMARK VINA RESULT:    -4.157      2.374      4.860
REMARK INTER + INTRA:          -9.483
REMARK INTER:                  -7.370
REMARK INTRA:                  -2.113
REMARK UNBOUND:                -1.925
REMARK SMILES CCCCCCCCCCCCCCCC(=O)[O-]
REMARK SMILES IDX 9 1 10 2 11 3 12 4 13 5 14 6 15 7 16 8 17 9 18 10 8 11 7 12
REMARK SMILES IDX 6 13 5 14 4 15 3 16 2 17 1 18
REMARK H PARENT
REMARK Flexibility Score: inf
ROOT
ATOM      1  C   UNL     1       9.245 -15.992  26.252  1.00  0.00     0.000 C 
ENDROOT
BRANCH   1   2
ATOM      2  C   UNL     1      10.338 -16.359  25.227  1.00  0.00     0.000 C 
BRANCH   2   3
ATOM      3  C   UNL     1      10.688 -15.254  24.214  1.00  0.00     0.000 C 
BRANCH   3   4
ATOM      4  C   UNL     1      10.340 -15.638  22.766  1.00  0.00     0.000 C 
BRANCH   4   5
ATOM      5  C   UNL     1       9.727 -17.046  22.650  1.00  0.00     0.000 C 
BRANCH   5   6
ATOM      6  C   UNL     1       8.842 -17.279  21.408  1.00  0.00     0.006 C 
BRANCH   6   7
ATOM      7  C   UNL     1       7.531 -18.029  21.689  1.00  0.00     0.053 C 
BRANCH   7   8
ATOM      8  C   UNL     1       7.777 -19.440  22.130  1.00  0.00     0.041 C 
ATOM      9  O   UNL     1       7.605 -19.767  23.334  1.00  0.00    -0.550 OA
ATOM     10  O   UNL     1       8.168 -20.398  21.205  1.00  0.00    -0.550 OA
ENDBRANCH   7   8
ENDBRANCH   6   7
ENDBRANCH   5   6
ENDBRANCH   4   5
ENDBRANCH   3   4
ENDBRANCH   2   3
ENDBRANCH   1   2
BRANCH   1  11
ATOM     11  C   UNL     1       8.016 -15.273  25.669  1.00  0.00     0.000 C 
BRANCH  11  12
ATOM     12  C   UNL     1       6.979 -16.246  25.081  1.00  0.00    -0.000 C 
BRANCH  12  13
ATOM     13  C   UNL     1       6.108 -15.585  23.992  1.00  0.00    -0.000 C 
BRANCH  13  14
ATOM     14  C   UNL     1       6.821 -14.448  23.235  1.00  0.00    -0.000 C 
BRANCH  14  15
ATOM     15  C   UNL     1       6.032 -13.865  22.050  1.00  0.00    -0.000 C 
BRANCH  15  16
ATOM     16  C   UNL     1       6.356 -14.496  20.682  1.00  0.00    -0.000 C 
BRANCH  16  17
ATOM     17  C   UNL     1       6.001 -13.593  19.482  1.00  0.00    -0.003 C 
ATOM     18  C   UNL     1       6.788 -13.955  18.224  1.00  0.00     0.004 C 
ENDBRANCH  16  17
ENDBRANCH  15  16
ENDBRANCH  14  15
ENDBRANCH  13  14
ENDBRANCH  12  13
ENDBRANCH  11  12
ENDBRANCH   1  11
TORSDOF 14
ENDMDL
MODEL 7
REMARK VINA RESULT:    -4.156      4.115      7.255
REMARK INTER + INTRA:          -9.483
REMARK INTER:                  -7.616
REMARK INTRA:                  -1.867
REMARK UNBOUND:                -1.925
REMARK SMILES CCCCCCCCCCCCCCCC(=O)[O-]
REMARK SMILES IDX 9 1 10 2 11 3 12 4 13 5 14 6 15 7 16 8 17 9 18 10 8 11 7 12
REMARK SMILES IDX 6 13 5 14 4 15 3 16 2 17 1 18
REMARK H PARENT
REMARK Flexibility Score: inf
ROOT
ATOM      1  C   UNL     1       7.177 -14.825  18.907  1.00  0.00     0.000 C 
ENDROOT
BRANCH   1   2
ATOM      2  C   UNL     1       6.329 -13.717  19.566  1.00  0.00     0.000 C 
BRANCH   2   3
ATOM      3  C   UNL     1       5.652 -14.107  20.892  1.00  0.00     0.000 C 
BRANCH   3   4
ATOM      4  C   UNL     1       6.373 -13.536  22.124  1.00  0.00     0.000 C 
BRANCH   4   5
ATOM      5  C   UNL     1       6.581 -14.580  23.235  1.00  0.00     0.000 C 
BRANCH   5   6
ATOM      6  C   UNL     1       8.026 -15.099  23.390  1.00  0.00     0.006 C 
BRANCH   6   7
ATOM      7  C   UNL     1       8.164 -16.359  24.259  1.00  0.00     0.053 C 
BRANCH   7   8
ATOM      8  C   UNL     1       7.737 -16.111  25.674  1.00  0.00     0.041 C 
ATOM      9  O   UNL     1       8.249 -15.171  26.336  1.00  0.00    -0.550 OA
ATOM     10  O   UNL     1       6.750 -16.902  26.250  1.00  0.00    -0.550 OA
ENDBRANCH   7   8
ENDBRANCH   6   7
ENDBRANCH   5   6
ENDBRANCH   4   5
ENDBRANCH   3   4
ENDBRANCH   2   3
ENDBRANCH   1   2
BRANCH   1  11
ATOM     11  C   UNL     1       7.127 -16.193  19.611  1.00  0.00     0.000 C 
BRANCH  11  12
ATOM     12  C   UNL     1       8.507 -16.657  20.110  1.00  0.00    -0.000 C 
BRANCH  12  13
ATOM     13  C   UNL     1       8.424 -17.964  20.928  1.00  0.00    -0.000 C 
BRANCH  13  14
ATOM     14  C   UNL     1       7.758 -19.127  20.168  1.00  0.00    -0.000 C 
BRANCH  14  15
ATOM     15  C   UNL     1       8.738 -20.130  19.532  1.00  0.00    -0.000 C 
BRANCH  15  16
ATOM     16  C   UNL     1       8.625 -20.264  18.001  1.00  0.00    -0.000 C 
BRANCH  16  17
ATOM     17  C   UNL     1       9.052 -18.996  17.233  1.00  0.00    -0.003 C 
ATOM     18  C   UNL     1       7.874 -18.300  16.552  1.00  0.00     0.004 C 
ENDBRANCH  16  17
ENDBRANCH  15  16
ENDBRANCH  14  15
ENDBRANCH  13  14
ENDBRANCH  12  13
ENDBRANCH  11  12
ENDBRANCH   1  11
TORSDOF 14
ENDMDL
MODEL 8
REMARK VINA RESULT:    -4.144      1.458      2.236
REMARK INTER + INTRA:          -9.461
REMARK INTER:                  -7.046
REMARK INTRA:                  -2.415
REMARK UNBOUND:                -1.925
REMARK SMILES CCCCCCCCCCCCCCCC(=O)[O-]
REMARK SMILES IDX 9 1 10 2 11 3 12 4 13 5 14 6 15 7 16 8 17 9 18 10 8 11 7 12
REMARK SMILES IDX 6 13 5 14 4 15 3 16 2 17 1 18
REMARK H PARENT
REMARK Flexibility Score: inf
ROOT
ATOM      1  C   UNL     1       7.263 -18.015  26.266  1.00  0.00     0.000 C 
ENDROOT
BRANCH   1   2
ATOM      2  C   UNL     1       7.986 -18.848  25.188  1.00  0.00     0.000 C 
BRANCH   2   3
ATOM      3  C   UNL     1       7.629 -20.345  25.162  1.00  0.00     0.000 C 
BRANCH   3   4
ATOM      4  C   UNL     1       7.551 -20.918  23.737  1.00  0.00     0.000 C 
BRANCH   4   5
ATOM      5  C   UNL     1       6.789 -20.001  22.763  1.00  0.00     0.000 C 
BRANCH   5   6
ATOM      6  C   UNL     1       7.168 -20.158  21.277  1.00  0.00     0.006 C 
BRANCH   6   7
ATOM      7  C   UNL     1       8.645 -19.877  20.960  1.00  0.00     0.053 C 
BRANCH   7   8
ATOM      8  C   UNL     1       9.302 -21.037  20.277  1.00  0.00     0.041 C 
ATOM      9  O   UNL     1      10.099 -20.843  19.322  1.00  0.00    -0.550 OA
ATOM     10  O   UNL     1       9.055 -22.332  20.716  1.00  0.00    -0.550 OA
ENDBRANCH   7   8
ENDBRANCH   6   7
ENDBRANCH   5   6
ENDBRANCH   4   5
ENDBRANCH   3   4
ENDBRANCH   2   3
ENDBRANCH   1   2
BRANCH   1  11
ATOM     11  C   UNL     1       6.790 -16.623  25.810  1.00  0.00     0.000 C 
BRANCH  11  12
ATOM     12  C   UNL     1       6.143 -16.640  24.415  1.00  0.00    -0.000 C 
BRANCH  12  13
ATOM     13  C   UNL     1       6.846 -15.681  23.431  1.00  0.00    -0.000 C 
BRANCH  13  14
ATOM     14  C   UNL     1       7.603 -16.402  22.299  1.00  0.00    -0.000 C 
BRANCH  14  15
ATOM     15  C   UNL     1       9.133 -16.431  22.460  1.00  0.00    -0.000 C 
BRANCH  15  16
ATOM     16  C   UNL     1       9.679 -15.590  23.631  1.00  0.00    -0.000 C 
BRANCH  16  17
ATOM     17  C   UNL     1      10.806 -16.284  24.422  1.00  0.00    -0.003 C 
ATOM     18  C   UNL     1      10.535 -16.312  25.925  1.00  0.00     0.004 C 
ENDBRANCH  16  17
ENDBRANCH  15  16
ENDBRANCH  14  15
ENDBRANCH  13  14
ENDBRANCH  12  13
ENDBRANCH  11  12
ENDBRANCH   1  11
TORSDOF 14
ENDMDL
MODEL 9
REMARK VINA RESULT:    -4.137      1.424      2.966
REMARK INTER + INTRA:          -9.447
REMARK INTER:                  -7.138
REMARK INTRA:                  -2.309
REMARK UNBOUND:                -1.925
REMARK SMILES CCCCCCCCCCCCCCCC(=O)[O-]
REMARK SMILES IDX 9 1 10 2 11 3 12 4 13 5 14 6 15 7 16 8 17 9 18 10 8 11 7 12
REMARK SMILES IDX 6 13 5 14 4 15 3 16 2 17 1 18
REMARK H PARENT
REMARK Flexibility Score: inf
ROOT
ATOM      1  C   UNL     1       9.286 -19.148  24.708  1.00  0.00     0.000 C 
ENDROOT
BRANCH   1   2
ATOM      2  C   UNL     1       8.796 -20.574  25.031  1.00  0.00     0.000 C 
BRANCH   2   3
ATOM      3  C   UNL     1       7.881 -21.213  23.970  1.00  0.00     0.000 C 
BRANCH   3   4
ATOM      4  C   UNL     1       6.986 -20.187  23.255  1.00  0.00     0.000 C 
BRANCH   4   5
ATOM      5  C   UNL     1       6.955 -20.379  21.728  1.00  0.00     0.000 C 
BRANCH   5   6
ATOM      6  C   UNL     1       8.260 -20.013  20.991  1.00  0.00     0.006 C 
BRANCH   6   7
ATOM      7  C   UNL     1       8.784 -21.100  20.039  1.00  0.00     0.053 C 
BRANCH   7   8
ATOM      8  C   UNL     1       9.694 -22.063  20.737  1.00  0.00     0.041 C 
ATOM      9  O   UNL     1       9.236 -23.129  21.225  1.00  0.00    -0.550 OA
ATOM     10  O   UNL     1      11.055 -21.795  20.822  1.00  0.00    -0.550 OA
ENDBRANCH   7   8
ENDBRANCH   6   7
ENDBRANCH   5   6
ENDBRANCH   4   5
ENDBRANCH   3   4
ENDBRANCH   2   3
ENDBRANCH   1   2
BRANCH   1  11
ATOM     11  C   UNL     1       9.026 -18.102  25.807  1.00  0.00     0.000 C 
BRANCH  11  12
ATOM     12  C   UNL     1       7.565 -18.095  26.290  1.00  0.00    -0.000 C 
BRANCH  12  13
ATOM     13  C   UNL     1       6.822 -16.803  25.890  1.00  0.00    -0.000 C 
BRANCH  13  14
ATOM     14  C   UNL     1       6.342 -16.794  24.426  1.00  0.00    -0.000 C 
BRANCH  14  15
ATOM     15  C   UNL     1       7.005 -15.729  23.534  1.00  0.00    -0.000 C 
BRANCH  15  16
ATOM     16  C   UNL     1       8.040 -16.276  22.532  1.00  0.00    -0.000 C 
BRANCH  16  17
ATOM     17  C   UNL     1       9.497 -15.903  22.878  1.00  0.00    -0.003 C 
ATOM     18  C   UNL     1       9.585 -14.862  23.993  1.00  0.00     0.004 C 
ENDBRANCH  16  17
ENDBRANCH  15  16
ENDBRANCH  14  15
ENDBRANCH  13  14
ENDBRANCH  12  13
ENDBRANCH  11  12
ENDBRANCH   1  11
TORSDOF 14
ENDMDL
