MODEL 1
REMARK VINA RESULT:    -5.897      0.000      0.000
REMARK INTER + INTRA:          -7.225
REMARK INTER:                  -6.932
REMARK INTRA:                  -0.294
REMARK UNBOUND:                -0.294
REMARK SMILES O=c1c(O)c(-c2ccc(O)cc2)oc2cc(O)cc(O)c12
REMARK SMILES IDX 5 1 3 2 2 3 1 4 21 5 19 6 18 7 16 8 15 9 14 10 13 11 6 12
REMARK SMILES IDX 7 13 8 14 9 15 12 16 11 17 10 18 4 20 20 22 17 24
REMARK H PARENT 10 19 4 21 20 23 17 25
REMARK Flexibility Score: inf
ROOT
ATOM      1  C   UNL     1       6.017  74.733  38.002  1.00  0.00     0.180 A 
ATOM      2  C   UNL     1       5.324  75.826  38.553  1.00  0.00     0.208 A 
ATOM      3  C   UNL     1       5.867  77.114  38.417  1.00  0.00     0.238 A 
ATOM      4  O   UNL     1       5.271  78.080  38.960  1.00  0.00    -0.285 OA
ATOM      5  C   UNL     1       7.085  77.295  37.719  1.00  0.00     0.111 A 
ATOM      6  C   UNL     1       7.705  78.560  37.487  1.00  0.00     0.134 A 
ATOM      7  C   UNL     1       8.975  78.609  36.899  1.00  0.00     0.093 A 
ATOM      8  C   UNL     1       9.618  77.443  36.474  1.00  0.00     0.123 A 
ATOM      9  C   UNL     1       8.994  76.209  36.643  1.00  0.00     0.094 A 
ATOM     10  C   UNL     1       7.743  76.125  37.260  1.00  0.00     0.146 A 
ATOM     11  O   UNL     1       7.190  74.928  37.410  1.00  0.00    -0.452 OA
ENDROOT
BRANCH   1  12
ATOM     12  C   UNL     1       5.496  73.349  38.081  1.00  0.00     0.021 A 
ATOM     13  C   UNL     1       5.855  72.536  39.170  1.00  0.00     0.016 A 
ATOM     14  C   UNL     1       5.394  71.220  39.253  1.00  0.00     0.047 A 
ATOM     15  C   UNL     1       4.580  70.693  38.245  1.00  0.00     0.115 A 
ATOM     16  C   UNL     1       4.694  72.807  37.060  1.00  0.00     0.016 A 
ATOM     17  C   UNL     1       4.234  71.490  37.146  1.00  0.00     0.047 A 
BRANCH  15  18
ATOM     18  O   UNL     1       4.127  69.380  38.342  1.00  0.00    -0.508 OA
ATOM     19  H   UNL     1       4.771  68.597  38.345  1.00  0.00     0.293 HD
ENDBRANCH  15  18
ENDBRANCH   1  12
BRANCH   2  20
ATOM     20  O   UNL     1       4.135  75.620  39.257  1.00  0.00    -0.502 OA
ATOM     21  H   UNL     1       4.103  75.572  40.268  1.00  0.00     0.293 HD
ENDBRANCH   2  20
BRANCH   6  22
ATOM     22  O   UNL     1       7.109  79.788  37.788  1.00  0.00    -0.507 OA
ATOM     23  H   UNL     1       6.594  80.354  37.131  1.00  0.00     0.293 HD
ENDBRANCH   6  22
BRANCH   8  24
ATOM     24  O   UNL     1      10.874  77.503  35.875  1.00  0.00    -0.508 OA
ATOM     25  H   UNL     1      11.250  76.720  35.354  1.00  0.00     0.293 HD
ENDBRANCH   8  24
TORSDOF 5
ENDMDL
MODEL 2
REMARK VINA RESULT:    -5.723      2.291      4.379
REMARK INTER + INTRA:          -7.021
REMARK INTER:                  -6.741
REMARK INTRA:                  -0.280
REMARK UNBOUND:                -0.294
REMARK SMILES O=c1c(O)c(-c2ccc(O)cc2)oc2cc(O)cc(O)c12
REMARK SMILES IDX 5 1 3 2 2 3 1 4 21 5 19 6 18 7 16 8 15 9 14 10 13 11 6 12
REMARK SMILES IDX 7 13 8 14 9 15 12 16 11 17 10 18 4 20 20 22 17 24
REMARK H PARENT 10 19 4 21 20 23 17 25
REMARK Flexibility Score: inf
ROOT
ATOM      1  C   UNL     1       6.504  71.810  37.465  1.00  0.00     0.180 A 
ATOM      2  C   UNL     1       7.693  72.357  36.949  1.00  0.00     0.208 A 
ATOM      3  C   UNL     1       7.907  73.740  37.056  1.00  0.00     0.238 A 
ATOM      4  O   UNL     1       8.947  74.231  36.544  1.00  0.00    -0.285 OA
ATOM      5  C   UNL     1       6.941  74.557  37.692  1.00  0.00     0.111 A 
ATOM      6  C   UNL     1       7.073  75.964  37.892  1.00  0.00     0.134 A 
ATOM      7  C   UNL     1       5.998  76.692  38.415  1.00  0.00     0.093 A 
ATOM      8  C   UNL     1       4.818  76.053  38.807  1.00  0.00     0.123 A 
ATOM      9  C   UNL     1       4.702  74.671  38.671  1.00  0.00     0.094 A 
ATOM     10  C   UNL     1       5.745  73.923  38.118  1.00  0.00     0.146 A 
ATOM     11  O   UNL     1       5.588  72.611  37.997  1.00  0.00    -0.452 OA
ENDROOT
BRANCH   1  12
ATOM     12  C   UNL     1       6.217  70.358  37.413  1.00  0.00     0.021 A 
ATOM     13  C   UNL     1       5.618  69.812  36.265  1.00  0.00     0.016 A 
ATOM     14  C   UNL     1       5.318  68.449  36.203  1.00  0.00     0.047 A 
ATOM     15  C   UNL     1       5.599  67.615  37.291  1.00  0.00     0.115 A 
ATOM     16  C   UNL     1       6.480  69.518  38.510  1.00  0.00     0.016 A 
ATOM     17  C   UNL     1       6.179  68.155  38.447  1.00  0.00     0.047 A 
BRANCH  15  18
ATOM     18  O   UNL     1       5.295  66.259  37.215  1.00  0.00    -0.508 OA
ATOM     19  H   UNL     1       5.137  65.704  38.048  1.00  0.00     0.293 HD
ENDBRANCH  15  18
ENDBRANCH   1  12
BRANCH   2  20
ATOM     20  O   UNL     1       8.622  71.536  36.306  1.00  0.00    -0.502 OA
ATOM     21  H   UNL     1       9.584  71.817  36.157  1.00  0.00     0.293 HD
ENDBRANCH   2  20
BRANCH   6  22
ATOM     22  O   UNL     1       8.241  76.684  37.621  1.00  0.00    -0.507 OA
ATOM     23  H   UNL     1       8.800  76.580  36.788  1.00  0.00     0.293 HD
ENDBRANCH   6  22
BRANCH   8  24
ATOM     24  O   UNL     1       3.760  76.782  39.342  1.00  0.00    -0.508 OA
ATOM     25  H   UNL     1       2.958  76.325  39.759  1.00  0.00     0.293 HD
ENDBRANCH   8  24
TORSDOF 5
ENDMDL
MODEL 3
REMARK VINA RESULT:    -5.702      5.448      9.236
REMARK INTER + INTRA:          -6.995
REMARK INTER:                  -6.982
REMARK INTRA:                  -0.013
REMARK UNBOUND:                -0.294
REMARK SMILES O=c1c(O)c(-c2ccc(O)cc2)oc2cc(O)cc(O)c12
REMARK SMILES IDX 5 1 3 2 2 3 1 4 21 5 19 6 18 7 16 8 15 9 14 10 13 11 6 12
REMARK SMILES IDX 7 13 8 14 9 15 12 16 11 17 10 18 4 20 20 22 17 24
REMARK H PARENT 10 19 4 21 20 23 17 25
REMARK Flexibility Score: inf
ROOT
ATOM      1  C   UNL     1       9.984  80.744  41.289  1.00  0.00     0.180 A 
ATOM      2  C   UNL     1      10.649  80.548  40.066  1.00  0.00     0.208 A 
ATOM      3  C   UNL     1       9.915  80.096  38.957  1.00  0.00     0.238 A 
ATOM      4  O   UNL     1      10.526  79.870  37.880  1.00  0.00    -0.285 OA
ATOM      5  C   UNL     1       8.525  79.861  39.081  1.00  0.00     0.111 A 
ATOM      6  C   UNL     1       7.676  79.440  38.013  1.00  0.00     0.134 A 
ATOM      7  C   UNL     1       6.341  79.113  38.280  1.00  0.00     0.093 A 
ATOM      8  C   UNL     1       5.807  79.254  39.563  1.00  0.00     0.123 A 
ATOM      9  C   UNL     1       6.613  79.720  40.600  1.00  0.00     0.094 A 
ATOM     10  C   UNL     1       7.959  80.021  40.372  1.00  0.00     0.146 A 
ATOM     11  O   UNL     1       8.692  80.452  41.390  1.00  0.00    -0.452 OA
ENDROOT
BRANCH   1  12
ATOM     12  C   UNL     1      10.684  81.243  42.495  1.00  0.00     0.021 A 
ATOM     13  C   UNL     1      10.523  80.569  43.717  1.00  0.00     0.016 A 
ATOM     14  C   UNL     1      11.156  81.035  44.872  1.00  0.00     0.047 A 
ATOM     15  C   UNL     1      11.946  82.188  44.826  1.00  0.00     0.115 A 
ATOM     16  C   UNL     1      11.464  82.413  42.459  1.00  0.00     0.016 A 
ATOM     17  C   UNL     1      12.096  82.878  43.616  1.00  0.00     0.047 A 
BRANCH  15  18
ATOM     18  O   UNL     1      12.571  82.641  45.985  1.00  0.00    -0.508 OA
ATOM     19  H   UNL     1      13.475  82.284  46.273  1.00  0.00     0.293 HD
ENDBRANCH  15  18
ENDBRANCH   1  12
BRANCH   2  20
ATOM     20  O   UNL     1      12.026  80.765  39.972  1.00  0.00    -0.502 OA
ATOM     21  H   UNL     1      12.695  80.005  39.936  1.00  0.00     0.293 HD
ENDBRANCH   2  20
BRANCH   6  22
ATOM     22  O   UNL     1       8.085  79.355  36.678  1.00  0.00    -0.507 OA
ATOM     23  H   UNL     1       7.489  79.086  35.911  1.00  0.00     0.293 HD
ENDBRANCH   6  22
BRANCH   8  24
ATOM     24  O   UNL     1       4.474  78.941  39.817  1.00  0.00    -0.508 OA
ATOM     25  H   UNL     1       4.204  78.047  40.208  1.00  0.00     0.293 HD
ENDBRANCH   8  24
TORSDOF 5
ENDMDL
MODEL 4
REMARK VINA RESULT:    -5.679      1.728      3.413
REMARK INTER + INTRA:          -6.968
REMARK INTER:                  -6.725
REMARK INTRA:                  -0.243
REMARK UNBOUND:                -0.294
REMARK SMILES O=c1c(O)c(-c2ccc(O)cc2)oc2cc(O)cc(O)c12
REMARK SMILES IDX 5 1 3 2 2 3 1 4 21 5 19 6 18 7 16 8 15 9 14 10 13 11 6 12
REMARK SMILES IDX 7 13 8 14 9 15 12 16 11 17 10 18 4 20 20 22 17 24
REMARK H PARENT 10 19 4 21 20 23 17 25
REMARK Flexibility Score: inf
ROOT
ATOM      1  C   UNL     1       6.905  74.645  38.273  1.00  0.00     0.180 A 
ATOM      2  C   UNL     1       7.746  75.281  37.343  1.00  0.00     0.208 A 
ATOM      3  C   UNL     1       7.790  76.684  37.315  1.00  0.00     0.238 A 
ATOM      4  O   UNL     1       8.502  77.248  36.444  1.00  0.00    -0.285 OA
ATOM      5  C   UNL     1       7.008  77.433  38.227  1.00  0.00     0.111 A 
ATOM      6  C   UNL     1       7.005  78.857  38.314  1.00  0.00     0.134 A 
ATOM      7  C   UNL     1       6.094  79.496  39.164  1.00  0.00     0.093 A 
ATOM      8  C   UNL     1       5.231  78.759  39.979  1.00  0.00     0.123 A 
ATOM      9  C   UNL     1       5.267  77.367  39.944  1.00  0.00     0.094 A 
ATOM     10  C   UNL     1       6.140  76.702  39.079  1.00  0.00     0.146 A 
ATOM     11  O   UNL     1       6.135  75.375  39.071  1.00  0.00    -0.452 OA
ENDROOT
BRANCH   1  12
ATOM     12  C   UNL     1       6.823  73.170  38.381  1.00  0.00     0.021 A 
ATOM     13  C   UNL     1       7.866  72.462  39.003  1.00  0.00     0.016 A 
ATOM     14  C   UNL     1       7.819  71.069  39.096  1.00  0.00     0.047 A 
ATOM     15  C   UNL     1       6.740  70.362  38.556  1.00  0.00     0.115 A 
ATOM     16  C   UNL     1       5.750  72.452  37.822  1.00  0.00     0.016 A 
ATOM     17  C   UNL     1       5.706  71.058  37.916  1.00  0.00     0.047 A 
BRANCH  15  18
ATOM     18  O   UNL     1       6.707  68.974  38.656  1.00  0.00    -0.508 OA
ATOM     19  H   UNL     1       5.958  68.496  39.143  1.00  0.00     0.293 HD
ENDBRANCH  15  18
ENDBRANCH   1  12
BRANCH   2  20
ATOM     20  O   UNL     1       8.493  74.523  36.437  1.00  0.00    -0.502 OA
ATOM     21  H   UNL     1       8.061  73.953  35.720  1.00  0.00     0.293 HD
ENDBRANCH   2  20
BRANCH   6  22
ATOM     22  O   UNL     1       7.889  79.683  37.612  1.00  0.00    -0.507 OA
ATOM     23  H   UNL     1       8.858  79.468  37.434  1.00  0.00     0.293 HD
ENDBRANCH   6  22
BRANCH   8  24
ATOM     24  O   UNL     1       4.339  79.402  40.834  1.00  0.00    -0.508 OA
ATOM     25  H   UNL     1       3.840  80.236  40.550  1.00  0.00     0.293 HD
ENDBRANCH   8  24
TORSDOF 5
ENDMDL
MODEL 5
REMARK VINA RESULT:    -5.593      1.930      2.694
REMARK INTER + INTRA:          -6.868
REMARK INTER:                  -6.587
REMARK INTRA:                  -0.281
REMARK UNBOUND:                -0.294
REMARK SMILES O=c1c(O)c(-c2ccc(O)cc2)oc2cc(O)cc(O)c12
REMARK SMILES IDX 5 1 3 2 2 3 1 4 21 5 19 6 18 7 16 8 15 9 14 10 13 11 6 12
REMARK SMILES IDX 7 13 8 14 9 15 12 16 11 17 10 18 4 20 20 22 17 24
REMARK H PARENT 10 19 4 21 20 23 17 25
REMARK Flexibility Score: inf
ROOT
ATOM      1  C   UNL     1       6.340  72.396  37.388  1.00  0.00     0.180 A 
ATOM      2  C   UNL     1       5.292  73.234  37.807  1.00  0.00     0.208 A 
ATOM      3  C   UNL     1       5.497  74.623  37.823  1.00  0.00     0.238 A 
ATOM      4  O   UNL     1       4.575  75.364  38.252  1.00  0.00    -0.285 OA
ATOM      5  C   UNL     1       6.740  75.158  37.405  1.00  0.00     0.111 A 
ATOM      6  C   UNL     1       7.043  76.551  37.342  1.00  0.00     0.134 A 
ATOM      7  C   UNL     1       8.346  76.961  37.038  1.00  0.00     0.093 A 
ATOM      8  C   UNL     1       9.341  76.030  36.730  1.00  0.00     0.123 A 
ATOM      9  C   UNL     1       9.039  74.670  36.730  1.00  0.00     0.094 A 
ATOM     10  C   UNL     1       7.757  74.228  37.065  1.00  0.00     0.146 A 
ATOM     11  O   UNL     1       7.515  72.923  37.063  1.00  0.00    -0.452 OA
ENDROOT
BRANCH   1  12
ATOM     12  C   UNL     1       6.193  70.924  37.319  1.00  0.00     0.021 A 
ATOM     13  C   UNL     1       5.784  70.325  36.116  1.00  0.00     0.016 A 
ATOM     14  C   UNL     1       5.617  68.940  36.035  1.00  0.00     0.047 A 
ATOM     15  C   UNL     1       5.842  68.136  37.158  1.00  0.00     0.115 A 
ATOM     16  C   UNL     1       6.398  70.113  38.450  1.00  0.00     0.016 A 
ATOM     17  C   UNL     1       6.229  68.727  38.368  1.00  0.00     0.047 A 
BRANCH  15  18
ATOM     18  O   UNL     1       5.671  66.758  37.063  1.00  0.00    -0.508 OA
ATOM     19  H   UNL     1       5.636  66.170  37.888  1.00  0.00     0.293 HD
ENDBRANCH  15  18
ENDBRANCH   1  12
BRANCH   2  20
ATOM     20  O   UNL     1       4.082  72.684  38.237  1.00  0.00    -0.502 OA
ATOM     21  H   UNL     1       4.030  72.002  38.985  1.00  0.00     0.293 HD
ENDBRANCH   2  20
BRANCH   6  22
ATOM     22  O   UNL     1       6.100  77.564  37.541  1.00  0.00    -0.507 OA
ATOM     23  H   UNL     1       5.444  77.884  36.845  1.00  0.00     0.293 HD
ENDBRANCH   6  22
BRANCH   8  24
ATOM     24  O   UNL     1      10.632  76.447  36.412  1.00  0.00    -0.508 OA
ATOM     25  H   UNL     1      11.381  76.419  37.093  1.00  0.00     0.293 HD
ENDBRANCH   8  24
TORSDOF 5
ENDMDL
MODEL 6
REMARK VINA RESULT:    -5.503      2.319      6.152
REMARK INTER + INTRA:          -6.762
REMARK INTER:                  -6.827
REMARK INTRA:                   0.065
REMARK UNBOUND:                -0.294
REMARK SMILES O=c1c(O)c(-c2ccc(O)cc2)oc2cc(O)cc(O)c12
REMARK SMILES IDX 5 1 3 2 2 3 1 4 21 5 19 6 18 7 16 8 15 9 14 10 13 11 6 12
REMARK SMILES IDX 7 13 8 14 9 15 12 16 11 17 10 18 4 20 20 22 17 24
REMARK H PARENT 10 19 4 21 20 23 17 25
REMARK Flexibility Score: inf
ROOT
ATOM      1  C   UNL     1       6.140  76.434  37.917  1.00  0.00     0.180 A 
ATOM      2  C   UNL     1       5.250  75.686  38.708  1.00  0.00     0.208 A 
ATOM      3  C   UNL     1       5.503  74.320  38.910  1.00  0.00     0.238 A 
ATOM      4  O   UNL     1       4.674  73.644  39.573  1.00  0.00    -0.285 OA
ATOM      5  C   UNL     1       6.651  73.723  38.335  1.00  0.00     0.111 A 
ATOM      6  C   UNL     1       7.027  72.357  38.508  1.00  0.00     0.134 A 
ATOM      7  C   UNL     1       8.111  71.842  37.786  1.00  0.00     0.093 A 
ATOM      8  C   UNL     1       8.871  72.661  36.947  1.00  0.00     0.123 A 
ATOM      9  C   UNL     1       8.548  74.010  36.818  1.00  0.00     0.094 A 
ATOM     10  C   UNL     1       7.450  74.544  37.497  1.00  0.00     0.146 A 
ATOM     11  O   UNL     1       7.171  75.831  37.337  1.00  0.00    -0.452 OA
ENDROOT
BRANCH   1  12
ATOM     12  C   UNL     1       5.954  77.884  37.679  1.00  0.00     0.021 A 
ATOM     13  C   UNL     1       6.149  78.404  36.388  1.00  0.00     0.016 A 
ATOM     14  C   UNL     1       6.001  79.772  36.145  1.00  0.00     0.047 A 
ATOM     15  C   UNL     1       5.670  80.641  37.190  1.00  0.00     0.115 A 
ATOM     16  C   UNL     1       5.640  78.766  38.729  1.00  0.00     0.016 A 
ATOM     17  C   UNL     1       5.493  80.135  38.484  1.00  0.00     0.047 A 
BRANCH  15  18
ATOM     18  O   UNL     1       5.525  82.002  36.933  1.00  0.00    -0.508 OA
ATOM     19  H   UNL     1       5.669  82.696  37.658  1.00  0.00     0.293 HD
ENDBRANCH  15  18
ENDBRANCH   1  12
BRANCH   2  20
ATOM     20  O   UNL     1       4.112  76.291  39.248  1.00  0.00    -0.502 OA
ATOM     21  H   UNL     1       3.179  76.104  38.899  1.00  0.00     0.293 HD
ENDBRANCH   2  20
BRANCH   6  22
ATOM     22  O   UNL     1       6.391  71.479  39.391  1.00  0.00    -0.507 OA
ATOM     23  H   UNL     1       5.724  71.754  40.095  1.00  0.00     0.293 HD
ENDBRANCH   6  22
BRANCH   8  24
ATOM     24  O   UNL     1       9.958  72.144  36.245  1.00  0.00    -0.508 OA
ATOM     25  H   UNL     1      10.435  71.305  36.550  1.00  0.00     0.293 HD
ENDBRANCH   8  24
TORSDOF 5
ENDMDL
MODEL 7
REMARK VINA RESULT:    -5.324      4.777      7.179
REMARK INTER + INTRA:          -6.552
REMARK INTER:                  -6.321
REMARK INTRA:                  -0.231
REMARK UNBOUND:                -0.294
REMARK SMILES O=c1c(O)c(-c2ccc(O)cc2)oc2cc(O)cc(O)c12
REMARK SMILES IDX 5 1 3 2 2 3 1 4 21 5 19 6 18 7 16 8 15 9 14 10 13 11 6 12
REMARK SMILES IDX 7 13 8 14 9 15 12 16 11 17 10 18 4 20 20 22 17 24
REMARK H PARENT 10 19 4 21 20 23 17 25
REMARK Flexibility Score: inf
ROOT
ATOM      1  C   UNL     1       8.477  79.844  39.871  1.00  0.00     0.180 A 
ATOM      2  C   UNL     1       9.767  80.218  39.454  1.00  0.00     0.208 A 
ATOM      3  C   UNL     1      10.520  81.082  40.266  1.00  0.00     0.238 A 
ATOM      4  O   UNL     1      11.652  81.456  39.862  1.00  0.00    -0.285 OA
ATOM      5  C   UNL     1       9.983  81.547  41.490  1.00  0.00     0.111 A 
ATOM      6  C   UNL     1      10.673  82.392  42.410  1.00  0.00     0.134 A 
ATOM      7  C   UNL     1       9.997  82.896  43.528  1.00  0.00     0.093 A 
ATOM      8  C   UNL     1       8.674  82.531  43.793  1.00  0.00     0.123 A 
ATOM      9  C   UNL     1       8.011  81.659  42.933  1.00  0.00     0.094 A 
ATOM     10  C   UNL     1       8.648  81.169  41.790  1.00  0.00     0.146 A 
ATOM     11  O   UNL     1       7.976  80.349  40.992  1.00  0.00    -0.452 OA
ENDROOT
BRANCH   1  12
ATOM     12  C   UNL     1       7.632  78.918  39.082  1.00  0.00     0.021 A 
ATOM     13  C   UNL     1       7.515  77.577  39.484  1.00  0.00     0.016 A 
ATOM     14  C   UNL     1       6.741  76.680  38.742  1.00  0.00     0.047 A 
ATOM     15  C   UNL     1       6.086  77.108  37.583  1.00  0.00     0.115 A 
ATOM     16  C   UNL     1       6.987  79.337  37.904  1.00  0.00     0.016 A 
ATOM     17  C   UNL     1       6.213  78.438  37.163  1.00  0.00     0.047 A 
BRANCH  15  18
ATOM     18  O   UNL     1       5.318  76.203  36.854  1.00  0.00    -0.508 OA
ATOM     19  H   UNL     1       5.541  75.975  35.892  1.00  0.00     0.293 HD
ENDBRANCH  15  18
ENDBRANCH   1  12
BRANCH   2  20
ATOM     20  O   UNL     1      10.269  79.766  38.232  1.00  0.00    -0.502 OA
ATOM     21  H   UNL     1       9.678  79.619  37.422  1.00  0.00     0.293 HD
ENDBRANCH   2  20
BRANCH   6  22
ATOM     22  O   UNL     1      12.022  82.741  42.287  1.00  0.00    -0.507 OA
ATOM     23  H   UNL     1      12.377  83.684  42.323  1.00  0.00     0.293 HD
ENDBRANCH   6  22
BRANCH   8  24
ATOM     24  O   UNL     1       8.013  83.024  44.916  1.00  0.00    -0.508 OA
ATOM     25  H   UNL     1       7.244  83.678  44.835  1.00  0.00     0.293 HD
ENDBRANCH   8  24
TORSDOF 5
ENDMDL
MODEL 8
REMARK VINA RESULT:    -5.282      2.910      7.720
REMARK INTER + INTRA:          -6.502
REMARK INTER:                  -6.298
REMARK INTRA:                  -0.205
REMARK UNBOUND:                -0.294
REMARK SMILES O=c1c(O)c(-c2ccc(O)cc2)oc2cc(O)cc(O)c12
REMARK SMILES IDX 5 1 3 2 2 3 1 4 21 5 19 6 18 7 16 8 15 9 14 10 13 11 6 12
REMARK SMILES IDX 7 13 8 14 9 15 12 16 11 17 10 18 4 20 20 22 17 24
REMARK H PARENT 10 19 4 21 20 23 17 25
REMARK Flexibility Score: inf
ROOT
ATOM      1  C   UNL     1       5.477  72.282  38.278  1.00  0.00     0.180 A 
ATOM      2  C   UNL     1       6.232  71.901  37.154  1.00  0.00     0.208 A 
ATOM      3  C   UNL     1       6.360  70.536  36.851  1.00  0.00     0.238 A 
ATOM      4  O   UNL     1       7.081  70.200  35.876  1.00  0.00    -0.285 OA
ATOM      5  C   UNL     1       5.719  69.570  37.664  1.00  0.00     0.111 A 
ATOM      6  C   UNL     1       5.748  68.163  37.426  1.00  0.00     0.134 A 
ATOM      7  C   UNL     1       5.188  67.292  38.369  1.00  0.00     0.093 A 
ATOM      8  C   UNL     1       4.543  67.781  39.508  1.00  0.00     0.123 A 
ATOM      9  C   UNL     1       4.458  69.155  39.718  1.00  0.00     0.094 A 
ATOM     10  C   UNL     1       5.039  70.048  38.814  1.00  0.00     0.146 A 
ATOM     11  O   UNL     1       4.943  71.349  39.058  1.00  0.00    -0.452 OA
ENDROOT
BRANCH   1  12
ATOM     12  C   UNL     1       5.275  73.701  38.648  1.00  0.00     0.021 A 
ATOM     13  C   UNL     1       6.335  74.425  39.221  1.00  0.00     0.016 A 
ATOM     14  C   UNL     1       6.160  75.759  39.597  1.00  0.00     0.047 A 
ATOM     15  C   UNL     1       4.921  76.384  39.421  1.00  0.00     0.115 A 
ATOM     16  C   UNL     1       4.026  74.330  38.491  1.00  0.00     0.016 A 
ATOM     17  C   UNL     1       3.853  75.665  38.869  1.00  0.00     0.047 A 
BRANCH  15  18
ATOM     18  O   UNL     1       4.761  77.714  39.801  1.00  0.00    -0.508 OA
ATOM     19  H   UNL     1       5.292  78.113  40.567  1.00  0.00     0.293 HD
ENDBRANCH  15  18
ENDBRANCH   1  12
BRANCH   2  20
ATOM     20  O   UNL     1       6.873  72.870  36.379  1.00  0.00    -0.502 OA
ATOM     21  H   UNL     1       6.524  73.161  35.473  1.00  0.00     0.293 HD
ENDBRANCH   2  20
BRANCH   6  22
ATOM     22  O   UNL     1       6.285  67.577  36.276  1.00  0.00    -0.507 OA
ATOM     23  H   UNL     1       5.815  67.523  35.385  1.00  0.00     0.293 HD
ENDBRANCH   6  22
BRANCH   8  24
ATOM     24  O   UNL     1       3.975  66.907  40.432  1.00  0.00    -0.508 OA
ATOM     25  H   UNL     1       3.058  66.502  40.285  1.00  0.00     0.293 HD
ENDBRANCH   8  24
TORSDOF 5
ENDMDL
MODEL 9
REMARK VINA RESULT:    -5.089      3.983      6.403
REMARK INTER + INTRA:          -6.275
REMARK INTER:                  -6.005
REMARK INTRA:                  -0.271
REMARK UNBOUND:                -0.294
REMARK SMILES O=c1c(O)c(-c2ccc(O)cc2)oc2cc(O)cc(O)c12
REMARK SMILES IDX 5 1 3 2 2 3 1 4 21 5 19 6 18 7 16 8 15 9 14 10 13 11 6 12
REMARK SMILES IDX 7 13 8 14 9 15 12 16 11 17 10 18 4 20 20 22 17 24
REMARK H PARENT 10 19 4 21 20 23 17 25
REMARK Flexibility Score: inf
ROOT
ATOM      1  C   UNL     1       4.453  68.678  38.032  1.00  0.00     0.180 A 
ATOM      2  C   UNL     1       3.652  69.647  37.401  1.00  0.00     0.208 A 
ATOM      3  C   UNL     1       4.161  70.945  37.234  1.00  0.00     0.238 A 
ATOM      4  O   UNL     1       3.420  71.821  36.718  1.00  0.00    -0.285 OA
ATOM      5  C   UNL     1       5.468  71.253  37.683  1.00  0.00     0.111 A 
ATOM      6  C   UNL     1       6.099  72.524  37.528  1.00  0.00     0.134 A 
ATOM      7  C   UNL     1       7.344  72.754  38.126  1.00  0.00     0.093 A 
ATOM      8  C   UNL     1       8.010  71.739  38.818  1.00  0.00     0.123 A 
ATOM      9  C   UNL     1       7.428  70.478  38.923  1.00  0.00     0.094 A 
ATOM     10  C   UNL     1       6.170  70.228  38.368  1.00  0.00     0.146 A 
ATOM     11  O   UNL     1       5.649  69.015  38.500  1.00  0.00    -0.452 OA
ENDROOT
BRANCH   1  12
ATOM     12  C   UNL     1       3.996  67.282  38.223  1.00  0.00     0.021 A 
ATOM     13  C   UNL     1       3.196  66.960  39.331  1.00  0.00     0.016 A 
ATOM     14  C   UNL     1       2.772  65.645  39.543  1.00  0.00     0.047 A 
ATOM     15  C   UNL     1       3.155  64.632  38.658  1.00  0.00     0.115 A 
ATOM     16  C   UNL     1       4.394  66.254  37.348  1.00  0.00     0.016 A 
ATOM     17  C   UNL     1       3.970  64.939  37.561  1.00  0.00     0.047 A 
BRANCH  15  18
ATOM     18  O   UNL     1       2.725  63.326  38.881  1.00  0.00    -0.508 OA
ATOM     19  H   UNL     1       3.009  62.809  39.706  1.00  0.00     0.293 HD
ENDBRANCH  15  18
ENDBRANCH   1  12
BRANCH   2  20
ATOM     20  O   UNL     1       2.358  69.326  36.986  1.00  0.00    -0.502 OA
ATOM     21  H   UNL     1       1.748  69.999  36.537  1.00  0.00     0.293 HD
ENDBRANCH   2  20
BRANCH   6  22
ATOM     22  O   UNL     1       5.562  73.576  36.779  1.00  0.00    -0.507 OA
ATOM     23  H   UNL     1       4.611  73.902  36.846  1.00  0.00     0.293 HD
ENDBRANCH   6  22
BRANCH   8  24
ATOM     24  O   UNL     1       9.255  71.972  39.396  1.00  0.00    -0.508 OA
ATOM     25  H   UNL     1       9.414  72.756  40.017  1.00  0.00     0.293 HD
ENDBRANCH   8  24
TORSDOF 5
ENDMDL
