MODEL 1
REMARK VINA RESULT:    -3.279      0.000      0.000
REMARK INTER + INTRA:         -13.553
REMARK INTER:                  -8.646
REMARK INTRA:                  -4.906
REMARK UNBOUND:                -4.906
REMARK SMILES CCCCCCCCCCCCCCCCCCCCCCCCCCCCCC(=O)[O-]
REMARK SMILES IDX 16 1 17 2 18 3 19 4 20 5 21 6 22 7 23 8 24 9 25 10 26 11
REMARK SMILES IDX 27 12 28 13 29 14 30 15 31 16 32 17 15 18 14 19 13 20 12 21
REMARK SMILES IDX 11 22 10 23 9 24 8 25 7 26 6 27 5 28 4 29 3 30 2 31 1 32
REMARK H PARENT
REMARK Flexibility Score: inf
ROOT
ATOM      1  C   UNL     1      56.757  25.894  50.983  1.00  0.00     0.000 C 
ENDROOT
BRANCH   1   2
ATOM      2  C   UNL     1      56.028  26.157  52.310  1.00  0.00     0.000 C 
BRANCH   2   3
ATOM      3  C   UNL     1      56.666  27.291  53.127  1.00  0.00     0.000 C 
BRANCH   3   4
ATOM      4  C   UNL     1      58.119  27.579  52.717  1.00  0.00     0.000 C 
BRANCH   4   5
ATOM      5  C   UNL     1      58.530  29.001  53.130  1.00  0.00     0.000 C 
BRANCH   5   6
ATOM      6  C   UNL     1      58.958  29.870  51.935  1.00  0.00     0.000 C 
BRANCH   6   7
ATOM      7  C   UNL     1      58.034  29.777  50.705  1.00  0.00     0.000 C 
BRANCH   7   8
ATOM      8  C   UNL     1      58.753  29.540  49.363  1.00  0.00     0.000 C 
BRANCH   8   9
ATOM      9  C   UNL     1      59.263  28.104  49.138  1.00  0.00     0.000 C 
BRANCH   9  10
ATOM     10  C   UNL     1      60.765  27.954  49.431  1.00  0.00     0.000 C 
BRANCH  10  11
ATOM     11  C   UNL     1      61.085  26.696  50.260  1.00  0.00     0.000 C 
BRANCH  11  12
ATOM     12  C   UNL     1      60.175  25.485  49.976  1.00  0.00     0.000 C 
BRANCH  12  13
ATOM     13  C   UNL     1      60.311  24.353  51.015  1.00  0.00     0.006 C 
BRANCH  13  14
ATOM     14  C   UNL     1      61.014  23.118  50.433  1.00  0.00     0.053 C 
BRANCH  14  15
ATOM     15  C   UNL     1      62.426  23.022  50.924  1.00  0.00     0.041 C 
ATOM     16  O   UNL     1      63.098  21.974  50.731  1.00  0.00    -0.550 OA
ATOM     17  O   UNL     1      62.999  24.092  51.602  1.00  0.00    -0.550 OA
ENDBRANCH  14  15
ENDBRANCH  13  14
ENDBRANCH  12  13
ENDBRANCH  11  12
ENDBRANCH  10  11
ENDBRANCH   9  10
ENDBRANCH   8   9
ENDBRANCH   7   8
ENDBRANCH   6   7
ENDBRANCH   5   6
ENDBRANCH   4   5
ENDBRANCH   3   4
ENDBRANCH   2   3
ENDBRANCH   1   2
BRANCH   1  18
ATOM     18  C   UNL     1      55.984  26.501  49.806  1.00  0.00     0.000 C 
BRANCH  18  19
ATOM     19  C   UNL     1      54.470  26.329  49.989  1.00  0.00     0.000 C 
BRANCH  19  20
ATOM     20  C   UNL     1      53.701  27.658  49.887  1.00  0.00     0.000 C 
BRANCH  20  21
ATOM     21  C   UNL     1      54.508  28.914  50.277  1.00  0.00     0.000 C 
BRANCH  21  22
ATOM     22  C   UNL     1      53.660  30.150  50.627  1.00  0.00     0.000 C 
BRANCH  22  23
ATOM     23  C   UNL     1      53.303  30.224  52.122  1.00  0.00     0.000 C 
BRANCH  23  24
ATOM     24  C   UNL     1      53.394  31.660  52.682  1.00  0.00    -0.000 C 
BRANCH  24  25
ATOM     25  C   UNL     1      54.492  31.843  53.749  1.00  0.00    -0.000 C 
BRANCH  25  26
ATOM     26  C   UNL     1      55.933  31.739  53.221  1.00  0.00    -0.000 C 
BRANCH  26  27
ATOM     27  C   UNL     1      56.978  32.554  54.011  1.00  0.00    -0.000 C 
BRANCH  27  28
ATOM     28  C   UNL     1      58.123  33.140  53.163  1.00  0.00    -0.000 C 
BRANCH  28  29
ATOM     29  C   UNL     1      58.094  34.674  53.105  1.00  0.00    -0.000 C 
BRANCH  29  30
ATOM     30  C   UNL     1      56.737  35.219  53.566  1.00  0.00    -0.000 C 
BRANCH  30  31
ATOM     31  C   UNL     1      55.870  35.617  52.365  1.00  0.00    -0.003 C 
ATOM     32  C   UNL     1      54.389  35.620  52.729  1.00  0.00     0.004 C 
ENDBRANCH  30  31
ENDBRANCH  29  30
ENDBRANCH  28  29
ENDBRANCH  27  28
ENDBRANCH  26  27
ENDBRANCH  25  26
ENDBRANCH  24  25
ENDBRANCH  23  24
ENDBRANCH  22  23
ENDBRANCH  21  22
ENDBRANCH  20  21
ENDBRANCH  19  20
ENDBRANCH  18  19
ENDBRANCH   1  18
TORSDOF 28
ENDMDL
MODEL 2
REMARK VINA RESULT:    -3.244      7.626     11.027
REMARK INTER + INTRA:         -13.461
REMARK INTER:                  -6.890
REMARK INTRA:                  -6.570
REMARK UNBOUND:                -4.906
REMARK SMILES CCCCCCCCCCCCCCCCCCCCCCCCCCCCCC(=O)[O-]
REMARK SMILES IDX 16 1 17 2 18 3 19 4 20 5 21 6 22 7 23 8 24 9 25 10 26 11
REMARK SMILES IDX 27 12 28 13 29 14 30 15 31 16 32 17 15 18 14 19 13 20 12 21
REMARK SMILES IDX 11 22 10 23 9 24 8 25 7 26 6 27 5 28 4 29 3 30 2 31 1 32
REMARK H PARENT
REMARK Flexibility Score: inf
ROOT
ATOM      1  C   UNL     1      64.446  33.859  59.773  1.00  0.00     0.000 C 
ENDROOT
BRANCH   1   2
ATOM      2  C   UNL     1      64.835  35.254  60.285  1.00  0.00     0.000 C 
BRANCH   2   3
ATOM      3  C   UNL     1      64.081  35.651  61.564  1.00  0.00     0.000 C 
BRANCH   3   4
ATOM      4  C   UNL     1      63.046  36.762  61.327  1.00  0.00     0.000 C 
BRANCH   4   5
ATOM      5  C   UNL     1      61.683  36.164  60.945  1.00  0.00     0.000 C 
BRANCH   5   6
ATOM      6  C   UNL     1      61.463  36.103  59.424  1.00  0.00     0.000 C 
BRANCH   6   7
ATOM      7  C   UNL     1      60.159  35.408  58.987  1.00  0.00     0.000 C 
BRANCH   7   8
ATOM      8  C   UNL     1      60.308  34.409  57.822  1.00  0.00     0.000 C 
BRANCH   8   9
ATOM      9  C   UNL     1      61.723  34.314  57.219  1.00  0.00     0.000 C 
BRANCH   9  10
ATOM     10  C   UNL     1      61.993  32.956  56.551  1.00  0.00     0.000 C 
BRANCH  10  11
ATOM     11  C   UNL     1      63.455  32.498  56.706  1.00  0.00     0.000 C 
BRANCH  11  12
ATOM     12  C   UNL     1      63.654  30.971  56.749  1.00  0.00     0.000 C 
BRANCH  12  13
ATOM     13  C   UNL     1      64.729  30.515  57.758  1.00  0.00     0.006 C 
BRANCH  13  14
ATOM     14  C   UNL     1      64.180  29.489  58.760  1.00  0.00     0.053 C 
BRANCH  14  15
ATOM     15  C   UNL     1      65.160  29.241  59.866  1.00  0.00     0.041 C 
ATOM     16  O   UNL     1      65.460  30.165  60.669  1.00  0.00    -0.550 OA
ATOM     17  O   UNL     1      65.748  27.989  60.005  1.00  0.00    -0.550 OA
ENDBRANCH  14  15
ENDBRANCH  13  14
ENDBRANCH  12  13
ENDBRANCH  11  12
ENDBRANCH  10  11
ENDBRANCH   9  10
ENDBRANCH   8   9
ENDBRANCH   7   8
ENDBRANCH   6   7
ENDBRANCH   5   6
ENDBRANCH   4   5
ENDBRANCH   3   4
ENDBRANCH   2   3
ENDBRANCH   1   2
BRANCH   1  18
ATOM     18  C   UNL     1      63.659  33.084  60.836  1.00  0.00     0.000 C 
BRANCH  18  19
ATOM     19  C   UNL     1      62.487  32.316  60.208  1.00  0.00     0.000 C 
BRANCH  19  20
ATOM     20  C   UNL     1      61.188  32.436  61.025  1.00  0.00     0.000 C 
BRANCH  20  21
ATOM     21  C   UNL     1      60.756  31.152  61.764  1.00  0.00     0.000 C 
BRANCH  21  22
ATOM     22  C   UNL     1      61.824  30.045  61.825  1.00  0.00     0.000 C 
BRANCH  22  23
ATOM     23  C   UNL     1      61.362  28.733  61.167  1.00  0.00     0.000 C 
BRANCH  23  24
ATOM     24  C   UNL     1      60.228  28.954  60.141  1.00  0.00    -0.000 C 
BRANCH  24  25
ATOM     25  C   UNL     1      60.711  28.985  58.678  1.00  0.00    -0.000 C 
BRANCH  25  26
ATOM     26  C   UNL     1      60.168  30.157  57.840  1.00  0.00    -0.000 C 
BRANCH  26  27
ATOM     27  C   UNL     1      59.017  30.949  58.494  1.00  0.00    -0.000 C 
BRANCH  27  28
ATOM     28  C   UNL     1      57.970  31.505  57.511  1.00  0.00    -0.000 C 
BRANCH  28  29
ATOM     29  C   UNL     1      56.810  30.530  57.264  1.00  0.00    -0.000 C 
BRANCH  29  30
ATOM     30  C   UNL     1      56.566  29.640  58.488  1.00  0.00    -0.000 C 
BRANCH  30  31
ATOM     31  C   UNL     1      56.324  28.185  58.068  1.00  0.00    -0.003 C 
ATOM     32  C   UNL     1      57.482  27.651  57.232  1.00  0.00     0.004 C 
ENDBRANCH  30  31
ENDBRANCH  29  30
ENDBRANCH  28  29
ENDBRANCH  27  28
ENDBRANCH  26  27
ENDBRANCH  25  26
ENDBRANCH  24  25
ENDBRANCH  23  24
ENDBRANCH  22  23
ENDBRANCH  21  22
ENDBRANCH  20  21
ENDBRANCH  19  20
ENDBRANCH  18  19
ENDBRANCH   1  18
TORSDOF 28
ENDMDL
MODEL 3
REMARK VINA RESULT:    -3.218      3.209      5.865
REMARK INTER + INTRA:         -13.393
REMARK INTER:                  -7.552
REMARK INTRA:                  -5.841
REMARK UNBOUND:                -4.906
REMARK SMILES CCCCCCCCCCCCCCCCCCCCCCCCCCCCCC(=O)[O-]
REMARK SMILES IDX 16 1 17 2 18 3 19 4 20 5 21 6 22 7 23 8 24 9 25 10 26 11
REMARK SMILES IDX 27 12 28 13 29 14 30 15 31 16 32 17 15 18 14 19 13 20 12 21
REMARK SMILES IDX 11 22 10 23 9 24 8 25 7 26 6 27 5 28 4 29 3 30 2 31 1 32
REMARK H PARENT
REMARK Flexibility Score: inf
ROOT
ATOM      1  C   UNL     1      58.409  27.941  53.680  1.00  0.00     0.000 C 
ENDROOT
BRANCH   1   2
ATOM      2  C   UNL     1      57.513  28.878  52.856  1.00  0.00     0.000 C 
BRANCH   2   3
ATOM      3  C   UNL     1      58.297  29.689  51.812  1.00  0.00     0.000 C 
BRANCH   3   4
ATOM      4  C   UNL     1      57.618  29.705  50.434  1.00  0.00     0.000 C 
BRANCH   4   5
ATOM      5  C   UNL     1      58.659  29.561  49.313  1.00  0.00     0.000 C 
BRANCH   5   6
ATOM      6  C   UNL     1      60.093  29.400  49.846  1.00  0.00     0.000 C 
BRANCH   6   7
ATOM      7  C   UNL     1      60.797  28.098  49.420  1.00  0.00     0.000 C 
BRANCH   7   8
ATOM      8  C   UNL     1      62.331  28.102  49.576  1.00  0.00     0.000 C 
BRANCH   8   9
ATOM      9  C   UNL     1      62.847  28.522  50.965  1.00  0.00     0.000 C 
BRANCH   9  10
ATOM     10  C   UNL     1      64.218  29.214  50.906  1.00  0.00     0.000 C 
BRANCH  10  11
ATOM     11  C   UNL     1      64.499  29.859  49.535  1.00  0.00     0.000 C 
BRANCH  11  12
ATOM     12  C   UNL     1      64.298  31.386  49.486  1.00  0.00     0.000 C 
BRANCH  12  13
ATOM     13  C   UNL     1      62.822  31.812  49.342  1.00  0.00     0.006 C 
BRANCH  13  14
ATOM     14  C   UNL     1      62.574  33.224  49.893  1.00  0.00     0.053 C 
BRANCH  14  15
ATOM     15  C   UNL     1      61.882  33.168  51.220  1.00  0.00     0.041 C 
ATOM     16  O   UNL     1      61.682  34.224  51.879  1.00  0.00    -0.550 OA
ATOM     17  O   UNL     1      61.462  31.946  51.734  1.00  0.00    -0.550 OA
ENDBRANCH  14  15
ENDBRANCH  13  14
ENDBRANCH  12  13
ENDBRANCH  11  12
ENDBRANCH  10  11
ENDBRANCH   9  10
ENDBRANCH   8   9
ENDBRANCH   7   8
ENDBRANCH   6   7
ENDBRANCH   5   6
ENDBRANCH   4   5
ENDBRANCH   3   4
ENDBRANCH   2   3
ENDBRANCH   1   2
BRANCH   1  18
ATOM     18  C   UNL     1      59.819  27.867  53.083  1.00  0.00     0.000 C 
BRANCH  18  19
ATOM     19  C   UNL     1      60.214  26.416  52.770  1.00  0.00     0.000 C 
BRANCH  19  20
ATOM     20  C   UNL     1      59.041  25.583  52.225  1.00  0.00     0.000 C 
BRANCH  20  21
ATOM     21  C   UNL     1      58.966  25.484  50.687  1.00  0.00     0.000 C 
BRANCH  21  22
ATOM     22  C   UNL     1      57.728  26.141  50.051  1.00  0.00     0.000 C 
BRANCH  22  23
ATOM     23  C   UNL     1      56.459  25.972  50.906  1.00  0.00     0.000 C 
BRANCH  23  24
ATOM     24  C   UNL     1      55.196  26.520  50.205  1.00  0.00    -0.000 C 
BRANCH  24  25
ATOM     25  C   UNL     1      54.533  27.696  50.949  1.00  0.00    -0.000 C 
BRANCH  25  26
ATOM     26  C   UNL     1      53.895  28.762  50.041  1.00  0.00    -0.000 C 
BRANCH  26  27
ATOM     27  C   UNL     1      53.735  30.156  50.683  1.00  0.00    -0.000 C 
BRANCH  27  28
ATOM     28  C   UNL     1      54.036  30.215  52.192  1.00  0.00    -0.000 C 
BRANCH  28  29
ATOM     29  C   UNL     1      54.346  31.638  52.680  1.00  0.00    -0.000 C 
BRANCH  29  30
ATOM     30  C   UNL     1      55.424  31.625  53.771  1.00  0.00    -0.000 C 
BRANCH  30  31
ATOM     31  C   UNL     1      56.588  32.552  53.401  1.00  0.00    -0.003 C 
ATOM     32  C   UNL     1      57.777  32.344  54.333  1.00  0.00     0.004 C 
ENDBRANCH  30  31
ENDBRANCH  29  30
ENDBRANCH  28  29
ENDBRANCH  27  28
ENDBRANCH  26  27
ENDBRANCH  25  26
ENDBRANCH  24  25
ENDBRANCH  23  24
ENDBRANCH  22  23
ENDBRANCH  21  22
ENDBRANCH  20  21
ENDBRANCH  19  20
ENDBRANCH  18  19
ENDBRANCH   1  18
TORSDOF 28
ENDMDL
MODEL 4
REMARK VINA RESULT:    -3.200      3.812      8.203
REMARK INTER + INTRA:         -13.345
REMARK INTER:                  -8.074
REMARK INTRA:                  -5.272
REMARK UNBOUND:                -4.906
REMARK SMILES CCCCCCCCCCCCCCCCCCCCCCCCCCCCCC(=O)[O-]
REMARK SMILES IDX 16 1 17 2 18 3 19 4 20 5 21 6 22 7 23 8 24 9 25 10 26 11
REMARK SMILES IDX 27 12 28 13 29 14 30 15 31 16 32 17 15 18 14 19 13 20 12 21
REMARK SMILES IDX 11 22 10 23 9 24 8 25 7 26 6 27 5 28 4 29 3 30 2 31 1 32
REMARK H PARENT
REMARK Flexibility Score: inf
ROOT
ATOM      1  C   UNL     1      58.124  29.665  50.622  1.00  0.00     0.000 C 
ENDROOT
BRANCH   1   2
ATOM      2  C   UNL     1      58.545  28.949  49.330  1.00  0.00     0.000 C 
BRANCH   2   3
ATOM      3  C   UNL     1      59.955  28.344  49.415  1.00  0.00     0.000 C 
BRANCH   3   4
ATOM      4  C   UNL     1      59.941  26.825  49.642  1.00  0.00     0.000 C 
BRANCH   4   5
ATOM      5  C   UNL     1      58.508  26.277  49.574  1.00  0.00     0.000 C 
BRANCH   5   6
ATOM      6  C   UNL     1      58.042  25.655  50.902  1.00  0.00     0.000 C 
BRANCH   6   7
ATOM      7  C   UNL     1      56.711  26.210  51.444  1.00  0.00     0.000 C 
BRANCH   7   8
ATOM      8  C   UNL     1      55.545  26.216  50.435  1.00  0.00     0.000 C 
BRANCH   8   9
ATOM      9  C   UNL     1      55.062  27.612  50.002  1.00  0.00     0.000 C 
BRANCH   9  10
ATOM     10  C   UNL     1      53.531  27.702  49.887  1.00  0.00     0.000 C 
BRANCH  10  11
ATOM     11  C   UNL     1      53.006  29.140  50.060  1.00  0.00     0.000 C 
BRANCH  11  12
ATOM     12  C   UNL     1      53.996  30.114  50.728  1.00  0.00     0.000 C 
BRANCH  12  13
ATOM     13  C   UNL     1      53.946  30.085  52.269  1.00  0.00     0.006 C 
BRANCH  13  14
ATOM     14  C   UNL     1      55.338  30.261  52.894  1.00  0.00     0.053 C 
BRANCH  14  15
ATOM     15  C   UNL     1      55.626  31.705  53.169  1.00  0.00     0.041 C 
ATOM     16  O   UNL     1      56.766  32.062  53.569  1.00  0.00    -0.550 OA
ATOM     17  O   UNL     1      54.629  32.657  52.990  1.00  0.00    -0.550 OA
ENDBRANCH  14  15
ENDBRANCH  13  14
ENDBRANCH  12  13
ENDBRANCH  11  12
ENDBRANCH  10  11
ENDBRANCH   9  10
ENDBRANCH   8   9
ENDBRANCH   7   8
ENDBRANCH   6   7
ENDBRANCH   5   6
ENDBRANCH   4   5
ENDBRANCH   3   4
ENDBRANCH   2   3
ENDBRANCH   1   2
BRANCH   1  18
ATOM     18  C   UNL     1      59.347  30.001  51.484  1.00  0.00     0.000 C 
BRANCH  18  19
ATOM     19  C   UNL     1      59.129  29.577  52.944  1.00  0.00     0.000 C 
BRANCH  19  20
ATOM     20  C   UNL     1      59.499  28.106  53.200  1.00  0.00     0.000 C 
BRANCH  20  21
ATOM     21  C   UNL     1      60.958  27.863  53.642  1.00  0.00     0.000 C 
BRANCH  21  22
ATOM     22  C   UNL     1      61.810  27.045  52.656  1.00  0.00     0.000 C 
BRANCH  22  23
ATOM     23  C   UNL     1      62.759  27.922  51.819  1.00  0.00     0.000 C 
BRANCH  23  24
ATOM     24  C   UNL     1      63.426  27.139  50.667  1.00  0.00    -0.000 C 
BRANCH  24  25
ATOM     25  C   UNL     1      64.271  28.018  49.724  1.00  0.00    -0.000 C 
BRANCH  25  26
ATOM     26  C   UNL     1      63.600  28.363  48.383  1.00  0.00    -0.000 C 
BRANCH  26  27
ATOM     27  C   UNL     1      64.427  29.277  47.455  1.00  0.00    -0.000 C 
BRANCH  27  28
ATOM     28  C   UNL     1      65.438  30.189  48.173  1.00  0.00    -0.000 C 
BRANCH  28  29
ATOM     29  C   UNL     1      64.800  31.481  48.706  1.00  0.00    -0.000 C 
BRANCH  29  30
ATOM     30  C   UNL     1      64.823  31.516  50.239  1.00  0.00    -0.000 C 
BRANCH  30  31
ATOM     31  C   UNL     1      63.482  32.010  50.796  1.00  0.00    -0.003 C 
ATOM     32  C   UNL     1      62.309  31.363  50.066  1.00  0.00     0.004 C 
ENDBRANCH  30  31
ENDBRANCH  29  30
ENDBRANCH  28  29
ENDBRANCH  27  28
ENDBRANCH  26  27
ENDBRANCH  25  26
ENDBRANCH  24  25
ENDBRANCH  23  24
ENDBRANCH  22  23
ENDBRANCH  21  22
ENDBRANCH  20  21
ENDBRANCH  19  20
ENDBRANCH  18  19
ENDBRANCH   1  18
TORSDOF 28
ENDMDL
MODEL 5
REMARK VINA RESULT:    -3.198     10.202     12.961
REMARK INTER + INTRA:         -13.339
REMARK INTER:                  -8.316
REMARK INTRA:                  -5.022
REMARK UNBOUND:                -4.906
REMARK SMILES CCCCCCCCCCCCCCCCCCCCCCCCCCCCCC(=O)[O-]
REMARK SMILES IDX 16 1 17 2 18 3 19 4 20 5 21 6 22 7 23 8 24 9 25 10 26 11
REMARK SMILES IDX 27 12 28 13 29 14 30 15 31 16 32 17 15 18 14 19 13 20 12 21
REMARK SMILES IDX 11 22 10 23 9 24 8 25 7 26 6 27 5 28 4 29 3 30 2 31 1 32
REMARK H PARENT
REMARK Flexibility Score: inf
ROOT
ATOM      1  C   UNL     1      63.877  35.271  61.388  1.00  0.00     0.000 C 
ENDROOT
BRANCH   1   2
ATOM      2  C   UNL     1      65.232  35.980  61.241  1.00  0.00     0.000 C 
BRANCH   2   3
ATOM      3  C   UNL     1      65.290  36.907  60.017  1.00  0.00     0.000 C 
BRANCH   3   4
ATOM      4  C   UNL     1      65.793  36.195  58.751  1.00  0.00     0.000 C 
BRANCH   4   5
ATOM      5  C   UNL     1      64.620  35.838  57.825  1.00  0.00     0.000 C 
BRANCH   5   6
ATOM      6  C   UNL     1      64.822  34.499  57.095  1.00  0.00     0.000 C 
BRANCH   6   7
ATOM      7  C   UNL     1      65.558  34.604  55.745  1.00  0.00     0.000 C 
BRANCH   7   8
ATOM      8  C   UNL     1      67.044  34.194  55.776  1.00  0.00     0.000 C 
BRANCH   8   9
ATOM      9  C   UNL     1      67.536  33.614  57.115  1.00  0.00     0.000 C 
BRANCH   9  10
ATOM     10  C   UNL     1      69.013  33.190  57.072  1.00  0.00     0.000 C 
BRANCH  10  11
ATOM     11  C   UNL     1      69.938  34.191  57.790  1.00  0.00     0.000 C 
BRANCH  11  12
ATOM     12  C   UNL     1      71.243  33.584  58.342  1.00  0.00     0.000 C 
BRANCH  12  13
ATOM     13  C   UNL     1      71.619  32.235  57.695  1.00  0.00     0.006 C 
BRANCH  13  14
ATOM     14  C   UNL     1      72.053  31.196  58.741  1.00  0.00     0.053 C 
BRANCH  14  15
ATOM     15  C   UNL     1      70.988  30.999  59.776  1.00  0.00     0.041 C 
ATOM     16  O   UNL     1      71.233  31.222  60.992  1.00  0.00    -0.550 OA
ATOM     17  O   UNL     1      69.724  30.561  59.397  1.00  0.00    -0.550 OA
ENDBRANCH  14  15
ENDBRANCH  13  14
ENDBRANCH  12  13
ENDBRANCH  11  12
ENDBRANCH  10  11
ENDBRANCH   9  10
ENDBRANCH   8   9
ENDBRANCH   7   8
ENDBRANCH   6   7
ENDBRANCH   5   6
ENDBRANCH   4   5
ENDBRANCH   3   4
ENDBRANCH   2   3
ENDBRANCH   1   2
BRANCH   1  18
ATOM     18  C   UNL     1      62.723  36.214  61.031  1.00  0.00     0.000 C 
BRANCH  18  19
ATOM     19  C   UNL     1      61.500  35.431  60.535  1.00  0.00     0.000 C 
BRANCH  19  20
ATOM     20  C   UNL     1      61.657  33.909  60.701  1.00  0.00     0.000 C 
BRANCH  20  21
ATOM     21  C   UNL     1      61.024  33.058  59.580  1.00  0.00     0.000 C 
BRANCH  21  22
ATOM     22  C   UNL     1      60.577  31.648  60.007  1.00  0.00     0.000 C 
BRANCH  22  23
ATOM     23  C   UNL     1      60.616  31.446  61.532  1.00  0.00     0.000 C 
BRANCH  23  24
ATOM     24  C   UNL     1      61.452  30.214  61.945  1.00  0.00    -0.000 C 
BRANCH  24  25
ATOM     25  C   UNL     1      62.438  29.740  60.859  1.00  0.00    -0.000 C 
BRANCH  25  26
ATOM     26  C   UNL     1      63.919  30.033  61.155  1.00  0.00    -0.000 C 
BRANCH  26  27
ATOM     27  C   UNL     1      64.317  31.522  61.087  1.00  0.00    -0.000 C 
BRANCH  27  28
ATOM     28  C   UNL     1      64.660  32.040  59.678  1.00  0.00    -0.000 C 
BRANCH  28  29
ATOM     29  C   UNL     1      65.496  31.040  58.865  1.00  0.00    -0.000 C 
BRANCH  29  30
ATOM     30  C   UNL     1      64.945  30.890  57.441  1.00  0.00    -0.000 C 
BRANCH  30  31
ATOM     31  C   UNL     1      63.807  29.863  57.400  1.00  0.00    -0.003 C 
ATOM     32  C   UNL     1      62.488  30.515  57.000  1.00  0.00     0.004 C 
ENDBRANCH  30  31
ENDBRANCH  29  30
ENDBRANCH  28  29
ENDBRANCH  27  28
ENDBRANCH  26  27
ENDBRANCH  25  26
ENDBRANCH  24  25
ENDBRANCH  23  24
ENDBRANCH  22  23
ENDBRANCH  21  22
ENDBRANCH  20  21
ENDBRANCH  19  20
ENDBRANCH  18  19
ENDBRANCH   1  18
TORSDOF 28
ENDMDL
MODEL 6
REMARK VINA RESULT:    -3.188      8.298     11.702
REMARK INTER + INTRA:         -13.313
REMARK INTER:                  -7.165
REMARK INTRA:                  -6.149
REMARK UNBOUND:                -4.906
REMARK SMILES CCCCCCCCCCCCCCCCCCCCCCCCCCCCCC(=O)[O-]
REMARK SMILES IDX 16 1 17 2 18 3 19 4 20 5 21 6 22 7 23 8 24 9 25 10 26 11
REMARK SMILES IDX 27 12 28 13 29 14 30 15 31 16 32 17 15 18 14 19 13 20 12 21
REMARK SMILES IDX 11 22 10 23 9 24 8 25 7 26 6 27 5 28 4 29 3 30 2 31 1 32
REMARK H PARENT
REMARK Flexibility Score: inf
ROOT
ATOM      1  C   UNL     1      61.506  34.376  60.415  1.00  0.00     0.000 C 
ENDROOT
BRANCH   1   2
ATOM      2  C   UNL     1      62.120  32.973  60.549  1.00  0.00     0.000 C 
BRANCH   2   3
ATOM      3  C   UNL     1      61.125  31.937  61.093  1.00  0.00     0.000 C 
BRANCH   3   4
ATOM      4  C   UNL     1      61.816  30.718  61.723  1.00  0.00     0.000 C 
BRANCH   4   5
ATOM      5  C   UNL     1      63.333  30.768  61.483  1.00  0.00     0.000 C 
BRANCH   5   6
ATOM      6  C   UNL     1      63.870  29.504  60.789  1.00  0.00     0.000 C 
BRANCH   6   7
ATOM      7  C   UNL     1      62.915  28.882  59.752  1.00  0.00     0.000 C 
BRANCH   7   8
ATOM      8  C   UNL     1      62.801  27.345  59.807  1.00  0.00     0.000 C 
BRANCH   8   9
ATOM      9  C   UNL     1      62.781  26.741  61.223  1.00  0.00     0.000 C 
BRANCH   9  10
ATOM     10  C   UNL     1      61.447  26.975  61.951  1.00  0.00     0.000 C 
BRANCH  10  11
ATOM     11  C   UNL     1      60.231  26.862  61.012  1.00  0.00     0.000 C 
BRANCH  11  12
ATOM     12  C   UNL     1      59.224  28.024  61.116  1.00  0.00     0.000 C 
BRANCH  12  13
ATOM     13  C   UNL     1      59.186  28.922  59.862  1.00  0.00     0.006 C 
BRANCH  13  14
ATOM     14  C   UNL     1      58.509  28.224  58.674  1.00  0.00     0.053 C 
BRANCH  14  15
ATOM     15  C   UNL     1      57.017  28.318  58.773  1.00  0.00     0.041 C 
ATOM     16  O   UNL     1      56.321  27.277  58.909  1.00  0.00    -0.550 OA
ATOM     17  O   UNL     1      56.394  29.560  58.708  1.00  0.00    -0.550 OA
ENDBRANCH  14  15
ENDBRANCH  13  14
ENDBRANCH  12  13
ENDBRANCH  11  12
ENDBRANCH  10  11
ENDBRANCH   9  10
ENDBRANCH   8   9
ENDBRANCH   7   8
ENDBRANCH   6   7
ENDBRANCH   5   6
ENDBRANCH   4   5
ENDBRANCH   3   4
ENDBRANCH   2   3
ENDBRANCH   1   2
BRANCH   1  18
ATOM     18  C   UNL     1      62.455  35.444  60.971  1.00  0.00     0.000 C 
BRANCH  18  19
ATOM     19  C   UNL     1      63.805  34.832  61.371  1.00  0.00     0.000 C 
BRANCH  19  20
ATOM     20  C   UNL     1      64.963  35.843  61.304  1.00  0.00     0.000 C 
BRANCH  20  21
ATOM     21  C   UNL     1      65.085  36.613  59.972  1.00  0.00     0.000 C 
BRANCH  21  22
ATOM     22  C   UNL     1      65.720  35.819  58.816  1.00  0.00     0.000 C 
BRANCH  22  23
ATOM     23  C   UNL     1      64.722  35.512  57.686  1.00  0.00     0.000 C 
BRANCH  23  24
ATOM     24  C   UNL     1      64.177  34.068  57.754  1.00  0.00    -0.000 C 
BRANCH  24  25
ATOM     25  C   UNL     1      65.108  33.086  58.493  1.00  0.00    -0.000 C 
BRANCH  25  26
ATOM     26  C   UNL     1      65.030  31.628  58.008  1.00  0.00    -0.000 C 
BRANCH  26  27
ATOM     27  C   UNL     1      64.467  31.443  56.584  1.00  0.00    -0.000 C 
BRANCH  27  28
ATOM     28  C   UNL     1      63.169  30.619  56.500  1.00  0.00    -0.000 C 
BRANCH  28  29
ATOM     29  C   UNL     1      61.913  31.497  56.391  1.00  0.00    -0.000 C 
BRANCH  29  30
ATOM     30  C   UNL     1      60.917  31.178  57.513  1.00  0.00    -0.000 C 
BRANCH  30  31
ATOM     31  C   UNL     1      59.488  31.546  57.097  1.00  0.00    -0.003 C 
ATOM     32  C   UNL     1      58.848  32.499  58.101  1.00  0.00     0.004 C 
ENDBRANCH  30  31
ENDBRANCH  29  30
ENDBRANCH  28  29
ENDBRANCH  27  28
ENDBRANCH  26  27
ENDBRANCH  25  26
ENDBRANCH  24  25
ENDBRANCH  23  24
ENDBRANCH  22  23
ENDBRANCH  21  22
ENDBRANCH  20  21
ENDBRANCH  19  20
ENDBRANCH  18  19
ENDBRANCH   1  18
TORSDOF 28
ENDMDL
MODEL 7
REMARK VINA RESULT:    -3.179      8.205     12.318
REMARK INTER + INTRA:         -13.289
REMARK INTER:                  -7.665
REMARK INTRA:                  -5.624
REMARK UNBOUND:                -4.906
REMARK SMILES CCCCCCCCCCCCCCCCCCCCCCCCCCCCCC(=O)[O-]
REMARK SMILES IDX 16 1 17 2 18 3 19 4 20 5 21 6 22 7 23 8 24 9 25 10 26 11
REMARK SMILES IDX 27 12 28 13 29 14 30 15 31 16 32 17 15 18 14 19 13 20 12 21
REMARK SMILES IDX 11 22 10 23 9 24 8 25 7 26 6 27 5 28 4 29 3 30 2 31 1 32
REMARK H PARENT
REMARK Flexibility Score: inf
ROOT
ATOM      1  C   UNL     1      60.778  31.289  61.757  1.00  0.00     0.000 C 
ENDROOT
BRANCH   1   2
ATOM      2  C   UNL     1      60.547  31.651  60.282  1.00  0.00     0.000 C 
BRANCH   2   3
ATOM      3  C   UNL     1      61.116  33.030  59.910  1.00  0.00     0.000 C 
BRANCH   3   4
ATOM      4  C   UNL     1      62.287  32.944  58.920  1.00  0.00     0.000 C 
BRANCH   4   5
ATOM      5  C   UNL     1      63.595  33.403  59.583  1.00  0.00     0.000 C 
BRANCH   5   6
ATOM      6  C   UNL     1      63.381  33.965  60.999  1.00  0.00     0.000 C 
BRANCH   6   7
ATOM      7  C   UNL     1      64.132  35.278  61.294  1.00  0.00     0.000 C 
BRANCH   7   8
ATOM      8  C   UNL     1      63.312  36.564  61.073  1.00  0.00     0.000 C 
BRANCH   8   9
ATOM      9  C   UNL     1      61.786  36.365  61.005  1.00  0.00     0.000 C 
BRANCH   9  10
ATOM     10  C   UNL     1      61.139  37.121  59.834  1.00  0.00     0.000 C 
BRANCH  10  11
ATOM     11  C   UNL     1      61.496  36.512  58.464  1.00  0.00     0.000 C 
BRANCH  11  12
ATOM     12  C   UNL     1      60.303  35.928  57.684  1.00  0.00     0.000 C 
BRANCH  12  13
ATOM     13  C   UNL     1      58.963  36.022  58.443  1.00  0.00     0.006 C 
BRANCH  13  14
ATOM     14  C   UNL     1      57.802  35.421  57.638  1.00  0.00     0.053 C 
BRANCH  14  15
ATOM     15  C   UNL     1      58.127  34.033  57.179  1.00  0.00     0.041 C 
ATOM     16  O   UNL     1      58.143  33.078  58.001  1.00  0.00    -0.550 OA
ATOM     17  O   UNL     1      58.422  33.794  55.842  1.00  0.00    -0.550 OA
ENDBRANCH  14  15
ENDBRANCH  13  14
ENDBRANCH  12  13
ENDBRANCH  11  12
ENDBRANCH  10  11
ENDBRANCH   9  10
ENDBRANCH   8   9
ENDBRANCH   7   8
ENDBRANCH   6   7
ENDBRANCH   5   6
ENDBRANCH   4   5
ENDBRANCH   3   4
ENDBRANCH   2   3
ENDBRANCH   1   2
BRANCH   1  18
ATOM     18  C   UNL     1      61.646  30.031  61.882  1.00  0.00     0.000 C 
BRANCH  18  19
ATOM     19  C   UNL     1      63.123  30.347  61.608  1.00  0.00     0.000 C 
BRANCH  19  20
ATOM     20  C   UNL     1      63.700  29.533  60.437  1.00  0.00     0.000 C 
BRANCH  20  21
ATOM     21  C   UNL     1      62.669  28.703  59.643  1.00  0.00     0.000 C 
BRANCH  21  22
ATOM     22  C   UNL     1      62.927  27.186  59.630  1.00  0.00     0.000 C 
BRANCH  22  23
ATOM     23  C   UNL     1      63.373  26.645  61.000  1.00  0.00     0.000 C 
BRANCH  23  24
ATOM     24  C   UNL     1      62.180  26.355  61.939  1.00  0.00    -0.000 C 
BRANCH  24  25
ATOM     25  C   UNL     1      61.535  24.974  61.716  1.00  0.00    -0.000 C 
BRANCH  25  26
ATOM     26  C   UNL     1      60.040  25.006  61.353  1.00  0.00    -0.000 C 
BRANCH  26  27
ATOM     27  C   UNL     1      59.364  26.386  61.492  1.00  0.00    -0.000 C 
BRANCH  27  28
ATOM     28  C   UNL     1      58.822  26.981  60.179  1.00  0.00    -0.000 C 
BRANCH  28  29
ATOM     29  C   UNL     1      58.750  28.514  60.207  1.00  0.00    -0.000 C 
BRANCH  29  30
ATOM     30  C   UNL     1      58.397  29.076  58.824  1.00  0.00    -0.000 C 
BRANCH  30  31
ATOM     31  C   UNL     1      59.554  28.872  57.839  1.00  0.00    -0.003 C 
ATOM     32  C   UNL     1      59.778  30.116  56.985  1.00  0.00     0.004 C 
ENDBRANCH  30  31
ENDBRANCH  29  30
ENDBRANCH  28  29
ENDBRANCH  27  28
ENDBRANCH  26  27
ENDBRANCH  25  26
ENDBRANCH  24  25
ENDBRANCH  23  24
ENDBRANCH  22  23
ENDBRANCH  21  22
ENDBRANCH  20  21
ENDBRANCH  19  20
ENDBRANCH  18  19
ENDBRANCH   1  18
TORSDOF 28
ENDMDL
MODEL 8
REMARK VINA RESULT:    -3.179      8.997     11.913
REMARK INTER + INTRA:         -13.288
REMARK INTER:                  -7.088
REMARK INTRA:                  -6.199
REMARK UNBOUND:                -4.906
REMARK SMILES CCCCCCCCCCCCCCCCCCCCCCCCCCCCCC(=O)[O-]
REMARK SMILES IDX 16 1 17 2 18 3 19 4 20 5 21 6 22 7 23 8 24 9 25 10 26 11
REMARK SMILES IDX 27 12 28 13 29 14 30 15 31 16 32 17 15 18 14 19 13 20 12 21
REMARK SMILES IDX 11 22 10 23 9 24 8 25 7 26 6 27 5 28 4 29 3 30 2 31 1 32
REMARK H PARENT
REMARK Flexibility Score: inf
ROOT
ATOM      1  C   UNL     1      64.449  33.304  60.196  1.00  0.00     0.000 C 
ENDROOT
BRANCH   1   2
ATOM      2  C   UNL     1      63.281  32.365  59.857  1.00  0.00     0.000 C 
BRANCH   2   3
ATOM      3  C   UNL     1      62.135  32.446  60.878  1.00  0.00     0.000 C 
BRANCH   3   4
ATOM      4  C   UNL     1      61.834  31.096  61.547  1.00  0.00     0.000 C 
BRANCH   4   5
ATOM      5  C   UNL     1      60.326  30.805  61.534  1.00  0.00     0.000 C 
BRANCH   5   6
ATOM      6  C   UNL     1      59.948  29.652  60.588  1.00  0.00     0.000 C 
BRANCH   6   7
ATOM      7  C   UNL     1      60.802  29.559  59.309  1.00  0.00     0.000 C 
BRANCH   7   8
ATOM      8  C   UNL     1      61.530  28.216  59.104  1.00  0.00     0.000 C 
BRANCH   8   9
ATOM      9  C   UNL     1      61.662  27.343  60.366  1.00  0.00     0.000 C 
BRANCH   9  10
ATOM     10  C   UNL     1      62.998  27.556  61.098  1.00  0.00     0.000 C 
BRANCH  10  11
ATOM     11  C   UNL     1      64.054  28.248  60.216  1.00  0.00     0.000 C 
BRANCH  11  12
ATOM     12  C   UNL     1      64.930  29.284  60.948  1.00  0.00     0.000 C 
BRANCH  12  13
ATOM     13  C   UNL     1      66.272  29.567  60.242  1.00  0.00     0.006 C 
BRANCH  13  14
ATOM     14  C   UNL     1      67.183  28.331  60.220  1.00  0.00     0.053 C 
BRANCH  14  15
ATOM     15  C   UNL     1      68.532  28.648  60.789  1.00  0.00     0.041 C 
ATOM     16  O   UNL     1      69.577  28.390  60.132  1.00  0.00    -0.550 OA
ATOM     17  O   UNL     1      68.637  29.223  62.050  1.00  0.00    -0.550 OA
ENDBRANCH  14  15
ENDBRANCH  13  14
ENDBRANCH  12  13
ENDBRANCH  11  12
ENDBRANCH  10  11
ENDBRANCH   9  10
ENDBRANCH   8   9
ENDBRANCH   7   8
ENDBRANCH   6   7
ENDBRANCH   5   6
ENDBRANCH   4   5
ENDBRANCH   3   4
ENDBRANCH   2   3
ENDBRANCH   1   2
BRANCH   1  18
ATOM     18  C   UNL     1      64.077  34.246  61.347  1.00  0.00     0.000 C 
BRANCH  18  19
ATOM     19  C   UNL     1      64.724  35.627  61.163  1.00  0.00     0.000 C 
BRANCH  19  20
ATOM     20  C   UNL     1      63.717  36.782  61.304  1.00  0.00     0.000 C 
BRANCH  20  21
ATOM     21  C   UNL     1      62.232  36.369  61.233  1.00  0.00     0.000 C 
BRANCH  21  22
ATOM     22  C   UNL     1      61.540  36.655  59.888  1.00  0.00     0.000 C 
BRANCH  22  23
ATOM     23  C   UNL     1      60.744  35.448  59.360  1.00  0.00     0.000 C 
BRANCH  23  24
ATOM     24  C   UNL     1      61.349  34.861  58.065  1.00  0.00    -0.000 C 
BRANCH  24  25
ATOM     25  C   UNL     1      62.755  35.401  57.735  1.00  0.00    -0.000 C 
BRANCH  25  26
ATOM     26  C   UNL     1      63.562  34.546  56.744  1.00  0.00    -0.000 C 
BRANCH  26  27
ATOM     27  C   UNL     1      65.090  34.760  56.789  1.00  0.00    -0.000 C 
BRANCH  27  28
ATOM     28  C   UNL     1      65.928  33.469  56.780  1.00  0.00    -0.000 C 
BRANCH  28  29
ATOM     29  C   UNL     1      65.159  32.264  56.217  1.00  0.00    -0.000 C 
BRANCH  29  30
ATOM     30  C   UNL     1      65.340  31.029  57.107  1.00  0.00    -0.000 C 
BRANCH  30  31
ATOM     31  C   UNL     1      64.128  30.095  57.001  1.00  0.00    -0.003 C 
ATOM     32  C   UNL     1      62.896  30.844  56.503  1.00  0.00     0.004 C 
ENDBRANCH  30  31
ENDBRANCH  29  30
ENDBRANCH  28  29
ENDBRANCH  27  28
ENDBRANCH  26  27
ENDBRANCH  25  26
ENDBRANCH  24  25
ENDBRANCH  23  24
ENDBRANCH  22  23
ENDBRANCH  21  22
ENDBRANCH  20  21
ENDBRANCH  19  20
ENDBRANCH  18  19
ENDBRANCH   1  18
TORSDOF 28
ENDMDL
MODEL 9
REMARK VINA RESULT:    -3.167      2.374      5.143
REMARK INTER + INTRA:         -13.256
REMARK INTER:                  -6.751
REMARK INTRA:                  -6.506
REMARK UNBOUND:                -4.906
REMARK SMILES CCCCCCCCCCCCCCCCCCCCCCCCCCCCCC(=O)[O-]
REMARK SMILES IDX 16 1 17 2 18 3 19 4 20 5 21 6 22 7 23 8 24 9 25 10 26 11
REMARK SMILES IDX 27 12 28 13 29 14 30 15 31 16 32 17 15 18 14 19 13 20 12 21
REMARK SMILES IDX 11 22 10 23 9 24 8 25 7 26 6 27 5 28 4 29 3 30 2 31 1 32
REMARK H PARENT
REMARK Flexibility Score: inf
ROOT
ATOM      1  C   UNL     1      59.177  30.028  51.598  1.00  0.00     0.000 C 
ENDROOT
BRANCH   1   2
ATOM      2  C   UNL     1      58.312  29.551  50.422  1.00  0.00     0.000 C 
BRANCH   2   3
ATOM      3  C   UNL     1      59.137  28.896  49.302  1.00  0.00     0.000 C 
BRANCH   3   4
ATOM      4  C   UNL     1      59.176  27.364  49.407  1.00  0.00     0.000 C 
BRANCH   4   5
ATOM      5  C   UNL     1      60.591  26.878  49.756  1.00  0.00     0.000 C 
BRANCH   5   6
ATOM      6  C   UNL     1      61.635  28.008  49.727  1.00  0.00     0.000 C 
BRANCH   6   7
ATOM      7  C   UNL     1      62.428  28.188  51.035  1.00  0.00     0.000 C 
BRANCH   7   8
ATOM      8  C   UNL     1      62.800  26.879  51.761  1.00  0.00     0.000 C 
BRANCH   8   9
ATOM      9  C   UNL     1      62.301  26.773  53.214  1.00  0.00     0.000 C 
BRANCH   9  10
ATOM     10  C   UNL     1      61.038  27.611  53.472  1.00  0.00     0.000 C 
BRANCH  10  11
ATOM     11  C   UNL     1      59.742  26.790  53.334  1.00  0.00     0.000 C 
BRANCH  11  12
ATOM     12  C   UNL     1      59.933  25.263  53.409  1.00  0.00     0.000 C 
BRANCH  12  13
ATOM     13  C   UNL     1      59.454  24.517  52.147  1.00  0.00     0.006 C 
BRANCH  13  14
ATOM     14  C   UNL     1      60.330  23.296  51.831  1.00  0.00     0.053 C 
BRANCH  14  15
ATOM     15  C   UNL     1      59.518  22.037  51.832  1.00  0.00     0.041 C 
ATOM     16  O   UNL     1      59.768  21.118  51.008  1.00  0.00    -0.550 OA
ATOM     17  O   UNL     1      58.478  21.883  52.742  1.00  0.00    -0.550 OA
ENDBRANCH  14  15
ENDBRANCH  13  14
ENDBRANCH  12  13
ENDBRANCH  11  12
ENDBRANCH  10  11
ENDBRANCH   9  10
ENDBRANCH   8   9
ENDBRANCH   7   8
ENDBRANCH   6   7
ENDBRANCH   5   6
ENDBRANCH   4   5
ENDBRANCH   3   4
ENDBRANCH   2   3
ENDBRANCH   1   2
BRANCH   1  18
ATOM     18  C   UNL     1      58.367  30.922  52.546  1.00  0.00     0.000 C 
BRANCH  18  19
ATOM     19  C   UNL     1      56.879  30.544  52.528  1.00  0.00     0.000 C 
BRANCH  19  20
ATOM     20  C   UNL     1      56.490  29.595  53.675  1.00  0.00     0.000 C 
BRANCH  20  21
ATOM     21  C   UNL     1      55.077  29.815  54.257  1.00  0.00     0.000 C 
BRANCH  21  22
ATOM     22  C   UNL     1      54.409  28.556  54.838  1.00  0.00     0.000 C 
BRANCH  22  23
ATOM     23  C   UNL     1      53.356  27.950  53.894  1.00  0.00     0.000 C 
BRANCH  23  24
ATOM     24  C   UNL     1      53.751  26.544  53.392  1.00  0.00    -0.000 C 
BRANCH  24  25
ATOM     25  C   UNL     1      55.066  26.014  53.996  1.00  0.00    -0.000 C 
BRANCH  25  26
ATOM     26  C   UNL     1      56.158  25.663  52.970  1.00  0.00    -0.000 C 
BRANCH  26  27
ATOM     27  C   UNL     1      56.321  26.676  51.818  1.00  0.00    -0.000 C 
BRANCH  27  28
ATOM     28  C   UNL     1      55.912  26.153  50.428  1.00  0.00    -0.000 C 
BRANCH  28  29
ATOM     29  C   UNL     1      54.769  26.964  49.801  1.00  0.00    -0.000 C 
BRANCH  29  30
ATOM     30  C   UNL     1      54.842  28.437  50.219  1.00  0.00    -0.000 C 
BRANCH  30  31
ATOM     31  C   UNL     1      53.438  29.020  50.420  1.00  0.00    -0.003 C 
ATOM     32  C   UNL     1      53.503  30.469  50.891  1.00  0.00     0.004 C 
ENDBRANCH  30  31
ENDBRANCH  29  30
ENDBRANCH  28  29
ENDBRANCH  27  28
ENDBRANCH  26  27
ENDBRANCH  25  26
ENDBRANCH  24  25
ENDBRANCH  23  24
ENDBRANCH  22  23
ENDBRANCH  21  22
ENDBRANCH  20  21
ENDBRANCH  19  20
ENDBRANCH  18  19
ENDBRANCH   1  18
TORSDOF 28
ENDMDL
