MODEL 1
REMARK VINA RESULT:    -6.270      0.000      0.000
REMARK INTER + INTRA:          -7.614
REMARK INTER:                  -7.370
REMARK INTRA:                  -0.244
REMARK UNBOUND:                -0.244
REMARK SMILES O=c1c(O)c(-c2ccc(O)cc2)oc2cc(O)cc(O)c12
REMARK SMILES IDX 5 1 3 2 2 3 1 4 21 5 19 6 18 7 16 8 15 9 14 10 13 11 6 12
REMARK SMILES IDX 7 13 8 14 9 15 12 16 11 17 10 18 4 20 20 22 17 24
REMARK H PARENT 10 19 4 21 20 23 17 25
REMARK Flexibility Score: inf
ROOT
ATOM      1  C   UNL     1     -10.648   6.900   5.673  1.00  0.00     0.180 A 
ATOM      2  C   UNL     1     -11.579   7.950   5.588  1.00  0.00     0.208 A 
ATOM      3  C   UNL     1     -11.114   9.274   5.599  1.00  0.00     0.238 A 
ATOM      4  O   UNL     1     -11.955  10.211   5.577  1.00  0.00    -0.285 OA
ATOM      5  C   UNL     1      -9.724   9.533   5.677  1.00  0.00     0.111 A 
ATOM      6  C   UNL     1      -9.138  10.834   5.655  1.00  0.00     0.134 A 
ATOM      7  C   UNL     1      -7.762  10.977   5.870  1.00  0.00     0.093 A 
ATOM      8  C   UNL     1      -6.941   9.863   6.042  1.00  0.00     0.123 A 
ATOM      9  C   UNL     1      -7.494   8.582   6.006  1.00  0.00     0.094 A 
ATOM     10  C   UNL     1      -8.869   8.410   5.829  1.00  0.00     0.146 A 
ATOM     11  O   UNL     1      -9.357   7.175   5.812  1.00  0.00    -0.452 OA
ENDROOT
BRANCH   1  12
ATOM     12  C   UNL     1     -11.060   5.478   5.643  1.00  0.00     0.021 A 
ATOM     13  C   UNL     1     -10.990   4.712   6.819  1.00  0.00     0.016 A 
ATOM     14  C   UNL     1     -11.352   3.362   6.807  1.00  0.00     0.047 A 
ATOM     15  C   UNL     1     -11.774   2.756   5.617  1.00  0.00     0.115 A 
ATOM     16  C   UNL     1     -11.466   4.858   4.447  1.00  0.00     0.016 A 
ATOM     17  C   UNL     1     -11.827   3.506   4.438  1.00  0.00     0.047 A 
BRANCH  15  18
ATOM     18  O   UNL     1     -12.139   1.412   5.593  1.00  0.00    -0.508 OA
ATOM     19  H   UNL     1     -12.402   0.920   6.440  1.00  0.00     0.293 HD
ENDBRANCH  15  18
ENDBRANCH   1  12
BRANCH   2  20
ATOM     20  O   UNL     1     -12.948   7.674   5.533  1.00  0.00    -0.502 OA
ATOM     21  H   UNL     1     -13.635   8.229   6.028  1.00  0.00     0.293 HD
ENDBRANCH   2  20
BRANCH   6  22
ATOM     22  O   UNL     1      -9.854  12.008   5.399  1.00  0.00    -0.507 OA
ATOM     23  H   UNL     1     -10.370  12.529   6.093  1.00  0.00     0.293 HD
ENDBRANCH   6  22
BRANCH   8  24
ATOM     24  O   UNL     1      -5.574  10.041   6.238  1.00  0.00    -0.508 OA
ATOM     25  H   UNL     1      -5.216  10.622   6.988  1.00  0.00     0.293 HD
ENDBRANCH   8  24
TORSDOF 5
ENDMDL
MODEL 2
REMARK VINA RESULT:    -6.197      2.026      3.636
REMARK INTER + INTRA:          -7.527
REMARK INTER:                  -7.331
REMARK INTRA:                  -0.197
REMARK UNBOUND:                -0.244
REMARK SMILES O=c1c(O)c(-c2ccc(O)cc2)oc2cc(O)cc(O)c12
REMARK SMILES IDX 5 1 3 2 2 3 1 4 21 5 19 6 18 7 16 8 15 9 14 10 13 11 6 12
REMARK SMILES IDX 7 13 8 14 9 15 12 16 11 17 10 18 4 20 20 22 17 24
REMARK H PARENT 10 19 4 21 20 23 17 25
REMARK Flexibility Score: inf
ROOT
ATOM      1  C   UNL     1     -11.681   7.061   5.989  1.00  0.00     0.180 A 
ATOM      2  C   UNL     1     -10.371   7.363   5.579  1.00  0.00     0.208 A 
ATOM      3  C   UNL     1     -10.084   8.658   5.118  1.00  0.00     0.238 A 
ATOM      4  O   UNL     1      -8.923   8.908   4.701  1.00  0.00    -0.285 OA
ATOM      5  C   UNL     1     -11.105   9.639   5.089  1.00  0.00     0.111 A 
ATOM      6  C   UNL     1     -10.918  10.992   4.679  1.00  0.00     0.134 A 
ATOM      7  C   UNL     1     -12.026  11.841   4.566  1.00  0.00     0.093 A 
ATOM      8  C   UNL     1     -13.305  11.403   4.909  1.00  0.00     0.123 A 
ATOM      9  C   UNL     1     -13.492  10.098   5.368  1.00  0.00     0.094 A 
ATOM     10  C   UNL     1     -12.410   9.219   5.457  1.00  0.00     0.146 A 
ATOM     11  O   UNL     1     -12.632   7.982   5.888  1.00  0.00    -0.452 OA
ENDROOT
BRANCH   1  12
ATOM     12  C   UNL     1     -12.056   5.726   6.510  1.00  0.00     0.021 A 
ATOM     13  C   UNL     1     -11.588   5.319   7.771  1.00  0.00     0.016 A 
ATOM     14  C   UNL     1     -11.911   4.054   8.271  1.00  0.00     0.047 A 
ATOM     15  C   UNL     1     -12.692   3.175   7.512  1.00  0.00     0.115 A 
ATOM     16  C   UNL     1     -12.824   4.830   5.744  1.00  0.00     0.016 A 
ATOM     17  C   UNL     1     -13.144   3.564   6.247  1.00  0.00     0.047 A 
BRANCH  15  18
ATOM     18  O   UNL     1     -13.021   1.913   8.000  1.00  0.00    -0.508 OA
ATOM     19  H   UNL     1     -13.390   1.189   7.393  1.00  0.00     0.293 HD
ENDBRANCH  15  18
ENDBRANCH   1  12
BRANCH   2  20
ATOM     20  O   UNL     1      -9.383   6.375   5.595  1.00  0.00    -0.502 OA
ATOM     21  H   UNL     1      -9.592   5.400   5.769  1.00  0.00     0.293 HD
ENDBRANCH   2  20
BRANCH   6  22
ATOM     22  O   UNL     1      -9.669  11.559   4.401  1.00  0.00    -0.507 OA
ATOM     23  H   UNL     1      -8.793  11.057   4.422  1.00  0.00     0.293 HD
ENDBRANCH   6  22
BRANCH   8  24
ATOM     24  O   UNL     1     -14.383  12.279   4.799  1.00  0.00    -0.508 OA
ATOM     25  H   UNL     1     -15.227  12.020   4.301  1.00  0.00     0.293 HD
ENDBRANCH   8  24
TORSDOF 5
ENDMDL
MODEL 3
REMARK VINA RESULT:    -5.964      1.767      6.938
REMARK INTER + INTRA:          -7.254
REMARK INTER:                  -6.967
REMARK INTRA:                  -0.287
REMARK UNBOUND:                -0.244
REMARK SMILES O=c1c(O)c(-c2ccc(O)cc2)oc2cc(O)cc(O)c12
REMARK SMILES IDX 5 1 3 2 2 3 1 4 21 5 19 6 18 7 16 8 15 9 14 10 13 11 6 12
REMARK SMILES IDX 7 13 8 14 9 15 12 16 11 17 10 18 4 20 20 22 17 24
REMARK H PARENT 10 19 4 21 20 23 17 25
REMARK Flexibility Score: inf
ROOT
ATOM      1  C   UNL     1      -9.902   6.617   5.997  1.00  0.00     0.180 A 
ATOM      2  C   UNL     1      -9.852   5.776   4.873  1.00  0.00     0.208 A 
ATOM      3  C   UNL     1     -10.382   4.479   4.970  1.00  0.00     0.238 A 
ATOM      4  O   UNL     1     -10.286   3.711   3.977  1.00  0.00    -0.285 OA
ATOM      5  C   UNL     1     -10.971   4.046   6.183  1.00  0.00     0.111 A 
ATOM      6  C   UNL     1     -11.574   2.769   6.382  1.00  0.00     0.134 A 
ATOM      7  C   UNL     1     -12.008   2.400   7.661  1.00  0.00     0.093 A 
ATOM      8  C   UNL     1     -11.919   3.286   8.734  1.00  0.00     0.123 A 
ATOM      9  C   UNL     1     -11.385   4.561   8.539  1.00  0.00     0.094 A 
ATOM     10  C   UNL     1     -10.911   4.943   7.282  1.00  0.00     0.146 A 
ATOM     11  O   UNL     1     -10.400   6.161   7.140  1.00  0.00    -0.452 OA
ENDROOT
BRANCH   1  12
ATOM     12  C   UNL     1      -9.386   8.005   5.966  1.00  0.00     0.021 A 
ATOM     13  C   UNL     1      -8.120   8.286   6.507  1.00  0.00     0.016 A 
ATOM     14  C   UNL     1      -7.624   9.593   6.507  1.00  0.00     0.047 A 
ATOM     15  C   UNL     1      -8.392  10.638   5.981  1.00  0.00     0.115 A 
ATOM     16  C   UNL     1     -10.160   9.064   5.457  1.00  0.00     0.016 A 
ATOM     17  C   UNL     1      -9.662  10.371   5.459  1.00  0.00     0.047 A 
BRANCH  15  18
ATOM     18  O   UNL     1      -7.908  11.944   5.975  1.00  0.00    -0.508 OA
ATOM     19  H   UNL     1      -8.390  12.689   6.465  1.00  0.00     0.293 HD
ENDBRANCH  15  18
ENDBRANCH   1  12
BRANCH   2  20
ATOM     20  O   UNL     1      -9.247   6.214   3.691  1.00  0.00    -0.502 OA
ATOM     21  H   UNL     1      -9.378   7.149   3.328  1.00  0.00     0.293 HD
ENDBRANCH   2  20
BRANCH   6  22
ATOM     22  O   UNL     1     -11.796   1.843   5.358  1.00  0.00    -0.507 OA
ATOM     23  H   UNL     1     -12.130   2.076   4.434  1.00  0.00     0.293 HD
ENDBRANCH   6  22
BRANCH   8  24
ATOM     24  O   UNL     1     -12.375   2.892   9.990  1.00  0.00    -0.508 OA
ATOM     25  H   UNL     1     -12.075   3.365  10.835  1.00  0.00     0.293 HD
ENDBRANCH   8  24
TORSDOF 5
ENDMDL
MODEL 4
REMARK VINA RESULT:    -5.731      1.324      6.462
REMARK INTER + INTRA:          -6.980
REMARK INTER:                  -6.728
REMARK INTRA:                  -0.252
REMARK UNBOUND:                -0.244
REMARK SMILES O=c1c(O)c(-c2ccc(O)cc2)oc2cc(O)cc(O)c12
REMARK SMILES IDX 5 1 3 2 2 3 1 4 21 5 19 6 18 7 16 8 15 9 14 10 13 11 6 12
REMARK SMILES IDX 7 13 8 14 9 15 12 16 11 17 10 18 4 20 20 22 17 24
REMARK H PARENT 10 19 4 21 20 23 17 25
REMARK Flexibility Score: inf
ROOT
ATOM      1  C   UNL     1      -9.997   8.468   5.782  1.00  0.00     0.180 A 
ATOM      2  C   UNL     1     -11.277   9.018   5.599  1.00  0.00     0.208 A 
ATOM      3  C   UNL     1     -12.379   8.155   5.485  1.00  0.00     0.238 A 
ATOM      4  O   UNL     1     -13.515   8.651   5.267  1.00  0.00    -0.285 OA
ATOM      5  C   UNL     1     -12.190   6.754   5.574  1.00  0.00     0.111 A 
ATOM      6  C   UNL     1     -13.238   5.789   5.512  1.00  0.00     0.134 A 
ATOM      7  C   UNL     1     -12.922   4.425   5.478  1.00  0.00     0.093 A 
ATOM      8  C   UNL     1     -11.600   3.991   5.568  1.00  0.00     0.123 A 
ATOM      9  C   UNL     1     -10.569   4.925   5.689  1.00  0.00     0.094 A 
ATOM     10  C   UNL     1     -10.852   6.293   5.689  1.00  0.00     0.146 A 
ATOM     11  O   UNL     1      -9.843   7.149   5.794  1.00  0.00    -0.452 OA
ENDROOT
BRANCH   1  12
ATOM     12  C   UNL     1      -8.791   9.313   5.935  1.00  0.00     0.021 A 
ATOM     13  C   UNL     1      -7.867   9.399   4.879  1.00  0.00     0.016 A 
ATOM     14  C   UNL     1      -6.711  10.174   5.011  1.00  0.00     0.047 A 
ATOM     15  C   UNL     1      -6.455  10.859   6.205  1.00  0.00     0.115 A 
ATOM     16  C   UNL     1      -8.517   9.989   7.138  1.00  0.00     0.016 A 
ATOM     17  C   UNL     1      -7.359  10.762   7.268  1.00  0.00     0.047 A 
BRANCH  15  18
ATOM     18  O   UNL     1      -5.307  11.635   6.348  1.00  0.00    -0.508 OA
ATOM     19  H   UNL     1      -4.600  11.411   7.039  1.00  0.00     0.293 HD
ENDBRANCH  15  18
ENDBRANCH   1  12
BRANCH   2  20
ATOM     20  O   UNL     1     -11.440  10.402   5.493  1.00  0.00    -0.502 OA
ATOM     21  H   UNL     1     -12.301  10.870   5.748  1.00  0.00     0.293 HD
ENDBRANCH   2  20
BRANCH   6  22
ATOM     22  O   UNL     1     -14.599   6.113   5.511  1.00  0.00    -0.507 OA
ATOM     23  H   UNL     1     -14.969   7.042   5.650  1.00  0.00     0.293 HD
ENDBRANCH   6  22
BRANCH   8  24
ATOM     24  O   UNL     1     -11.322   2.626   5.548  1.00  0.00    -0.508 OA
ATOM     25  H   UNL     1     -10.371   2.279   5.491  1.00  0.00     0.293 HD
ENDBRANCH   8  24
TORSDOF 5
ENDMDL
MODEL 5
REMARK VINA RESULT:    -5.572      3.488      6.926
REMARK INTER + INTRA:          -6.794
REMARK INTER:                  -6.507
REMARK INTRA:                  -0.287
REMARK UNBOUND:                -0.244
REMARK SMILES O=c1c(O)c(-c2ccc(O)cc2)oc2cc(O)cc(O)c12
REMARK SMILES IDX 5 1 3 2 2 3 1 4 21 5 19 6 18 7 16 8 15 9 14 10 13 11 6 12
REMARK SMILES IDX 7 13 8 14 9 15 12 16 11 17 10 18 4 20 20 22 17 24
REMARK H PARENT 10 19 4 21 20 23 17 25
REMARK Flexibility Score: inf
ROOT
ATOM      1  C   UNL     1     -10.946  10.681   5.066  1.00  0.00     0.180 A 
ATOM      2  C   UNL     1     -11.333  11.539   4.021  1.00  0.00     0.208 A 
ATOM      3  C   UNL     1     -12.599  11.373   3.439  1.00  0.00     0.238 A 
ATOM      4  O   UNL     1     -12.919  12.108   2.468  1.00  0.00    -0.285 OA
ATOM      5  C   UNL     1     -13.470  10.364   3.918  1.00  0.00     0.111 A 
ATOM      6  C   UNL     1     -14.789  10.131   3.429  1.00  0.00     0.134 A 
ATOM      7  C   UNL     1     -15.512   9.022   3.887  1.00  0.00     0.093 A 
ATOM      8  C   UNL     1     -14.987   8.175   4.862  1.00  0.00     0.123 A 
ATOM      9  C   UNL     1     -13.720   8.426   5.391  1.00  0.00     0.094 A 
ATOM     10  C   UNL     1     -12.962   9.504   4.928  1.00  0.00     0.146 A 
ATOM     11  O   UNL     1     -11.757   9.703   5.449  1.00  0.00    -0.452 OA
ENDROOT
BRANCH   1  12
ATOM     12  C   UNL     1      -9.637  10.810   5.746  1.00  0.00     0.021 A 
ATOM     13  C   UNL     1      -9.525  11.631   6.881  1.00  0.00     0.016 A 
ATOM     14  C   UNL     1      -8.293  11.784   7.525  1.00  0.00     0.047 A 
ATOM     15  C   UNL     1      -7.156  11.131   7.035  1.00  0.00     0.115 A 
ATOM     16  C   UNL     1      -8.486  10.173   5.248  1.00  0.00     0.016 A 
ATOM     17  C   UNL     1      -7.255  10.329   5.893  1.00  0.00     0.047 A 
BRANCH  15  18
ATOM     18  O   UNL     1      -5.924  11.276   7.668  1.00  0.00    -0.508 OA
ATOM     19  H   UNL     1      -5.091  11.538   7.153  1.00  0.00     0.293 HD
ENDBRANCH  15  18
ENDBRANCH   1  12
BRANCH   2  20
ATOM     20  O   UNL     1     -10.451  12.514   3.548  1.00  0.00    -0.502 OA
ATOM     21  H   UNL     1     -10.675  13.502   3.559  1.00  0.00     0.293 HD
ENDBRANCH   2  20
BRANCH   6  22
ATOM     22  O   UNL     1     -15.445  10.970   2.521  1.00  0.00    -0.507 OA
ATOM     23  H   UNL     1     -16.180  11.618   2.765  1.00  0.00     0.293 HD
ENDBRANCH   6  22
BRANCH   8  24
ATOM     24  O   UNL     1     -15.739   7.090   5.306  1.00  0.00    -0.508 OA
ATOM     25  H   UNL     1     -16.026   6.349   4.676  1.00  0.00     0.293 HD
ENDBRANCH   8  24
TORSDOF 5
ENDMDL
MODEL 6
REMARK VINA RESULT:    -5.500      1.819      2.499
REMARK INTER + INTRA:          -6.709
REMARK INTER:                  -6.579
REMARK INTRA:                  -0.129
REMARK UNBOUND:                -0.244
REMARK SMILES O=c1c(O)c(-c2ccc(O)cc2)oc2cc(O)cc(O)c12
REMARK SMILES IDX 5 1 3 2 2 3 1 4 21 5 19 6 18 7 16 8 15 9 14 10 13 11 6 12
REMARK SMILES IDX 7 13 8 14 9 15 12 16 11 17 10 18 4 20 20 22 17 24
REMARK H PARENT 10 19 4 21 20 23 17 25
REMARK Flexibility Score: inf
ROOT
ATOM      1  C   UNL     1     -12.480   7.099   5.532  1.00  0.00     0.180 A 
ATOM      2  C   UNL     1     -13.741   7.720   5.555  1.00  0.00     0.208 A 
ATOM      3  C   UNL     1     -13.808   9.123   5.557  1.00  0.00     0.238 A 
ATOM      4  O   UNL     1     -14.938   9.674   5.632  1.00  0.00    -0.285 OA
ATOM      5  C   UNL     1     -12.616   9.886   5.517  1.00  0.00     0.111 A 
ATOM      6  C   UNL     1     -12.567  11.311   5.474  1.00  0.00     0.134 A 
ATOM      7  C   UNL     1     -11.332  11.964   5.569  1.00  0.00     0.093 A 
ATOM      8  C   UNL     1     -10.141  11.243   5.641  1.00  0.00     0.123 A 
ATOM      9  C   UNL     1     -10.172   9.847   5.624  1.00  0.00     0.094 A 
ATOM     10  C   UNL     1     -11.392   9.169   5.566  1.00  0.00     0.146 A 
ATOM     11  O   UNL     1     -11.380   7.841   5.562  1.00  0.00    -0.452 OA
ENDROOT
BRANCH   1  12
ATOM     12  C   UNL     1     -12.328   5.626   5.505  1.00  0.00     0.021 A 
ATOM     13  C   UNL     1     -11.614   4.985   6.530  1.00  0.00     0.016 A 
ATOM     14  C   UNL     1     -11.440   3.598   6.512  1.00  0.00     0.047 A 
ATOM     15  C   UNL     1     -11.964   2.836   5.460  1.00  0.00     0.115 A 
ATOM     16  C   UNL     1     -12.835   4.857   4.441  1.00  0.00     0.016 A 
ATOM     17  C   UNL     1     -12.658   3.469   4.424  1.00  0.00     0.047 A 
BRANCH  15  18
ATOM     18  O   UNL     1     -11.797   1.454   5.431  1.00  0.00    -0.508 OA
ATOM     19  H   UNL     1     -11.266   1.000   4.696  1.00  0.00     0.293 HD
ENDBRANCH  15  18
ENDBRANCH   1  12
BRANCH   2  20
ATOM     20  O   UNL     1     -14.905   6.949   5.616  1.00  0.00    -0.502 OA
ATOM     21  H   UNL     1     -15.658   7.152   6.261  1.00  0.00     0.293 HD
ENDBRANCH   2  20
BRANCH   6  22
ATOM     22  O   UNL     1     -13.691  12.127   5.312  1.00  0.00    -0.507 OA
ATOM     23  H   UNL     1     -14.618  11.791   5.095  1.00  0.00     0.293 HD
ENDBRANCH   6  22
BRANCH   8  24
ATOM     24  O   UNL     1      -8.928  11.924   5.719  1.00  0.00    -0.508 OA
ATOM     25  H   UNL     1      -8.597  12.506   4.957  1.00  0.00     0.293 HD
ENDBRANCH   8  24
TORSDOF 5
ENDMDL
MODEL 7
REMARK VINA RESULT:    -5.396      4.553      5.584
REMARK INTER + INTRA:          -6.587
REMARK INTER:                  -6.297
REMARK INTRA:                  -0.289
REMARK UNBOUND:                -0.244
REMARK SMILES O=c1c(O)c(-c2ccc(O)cc2)oc2cc(O)cc(O)c12
REMARK SMILES IDX 5 1 3 2 2 3 1 4 21 5 19 6 18 7 16 8 15 9 14 10 13 11 6 12
REMARK SMILES IDX 7 13 8 14 9 15 12 16 11 17 10 18 4 20 20 22 17 24
REMARK H PARENT 10 19 4 21 20 23 17 25
REMARK Flexibility Score: inf
ROOT
ATOM      1  C   UNL     1     -11.731  11.287   5.204  1.00  0.00     0.180 A 
ATOM      2  C   UNL     1     -12.027  11.845   6.460  1.00  0.00     0.208 A 
ATOM      3  C   UNL     1     -11.009  11.933   7.422  1.00  0.00     0.238 A 
ATOM      4  O   UNL     1     -11.293  12.384   8.563  1.00  0.00    -0.285 OA
ATOM      5  C   UNL     1      -9.704  11.480   7.112  1.00  0.00     0.111 A 
ATOM      6  C   UNL     1      -8.587  11.557   7.997  1.00  0.00     0.134 A 
ATOM      7  C   UNL     1      -7.374  10.959   7.633  1.00  0.00     0.093 A 
ATOM      8  C   UNL     1      -7.220  10.341   6.393  1.00  0.00     0.123 A 
ATOM      9  C   UNL     1      -8.288  10.311   5.495  1.00  0.00     0.094 A 
ATOM     10  C   UNL     1      -9.520  10.869   5.844  1.00  0.00     0.146 A 
ATOM     11  O   UNL     1     -10.515  10.809   4.966  1.00  0.00    -0.452 OA
ENDROOT
BRANCH   1  12
ATOM     12  C   UNL     1     -12.745  11.182   4.130  1.00  0.00     0.021 A 
ATOM     13  C   UNL     1     -12.932  12.259   3.248  1.00  0.00     0.016 A 
ATOM     14  C   UNL     1     -13.899  12.190   2.240  1.00  0.00     0.047 A 
ATOM     15  C   UNL     1     -14.702  11.049   2.112  1.00  0.00     0.115 A 
ATOM     16  C   UNL     1     -13.568  10.048   4.007  1.00  0.00     0.016 A 
ATOM     17  C   UNL     1     -14.536   9.981   3.000  1.00  0.00     0.047 A 
BRANCH  15  18
ATOM     18  O   UNL     1     -15.668  10.969   1.112  1.00  0.00    -0.508 OA
ATOM     19  H   UNL     1     -15.420  11.020   0.131  1.00  0.00     0.293 HD
ENDBRANCH  15  18
ENDBRANCH   1  12
BRANCH   2  20
ATOM     20  O   UNL     1     -13.327  12.267   6.754  1.00  0.00    -0.502 OA
ATOM     21  H   UNL     1     -14.121  11.640   6.731  1.00  0.00     0.293 HD
ENDBRANCH   2  20
BRANCH   6  22
ATOM     22  O   UNL     1      -8.606  12.231   9.222  1.00  0.00    -0.507 OA
ATOM     23  H   UNL     1      -8.474  13.226   9.333  1.00  0.00     0.293 HD
ENDBRANCH   6  22
BRANCH   8  24
ATOM     24  O   UNL     1      -5.994   9.770   6.057  1.00  0.00    -0.508 OA
ATOM     25  H   UNL     1      -5.132  10.301   6.100  1.00  0.00     0.293 HD
ENDBRANCH   8  24
TORSDOF 5
ENDMDL
MODEL 8
REMARK VINA RESULT:    -5.041      3.220      6.629
REMARK INTER + INTRA:          -6.169
REMARK INTER:                  -5.891
REMARK INTRA:                  -0.278
REMARK UNBOUND:                -0.244
REMARK SMILES O=c1c(O)c(-c2ccc(O)cc2)oc2cc(O)cc(O)c12
REMARK SMILES IDX 5 1 3 2 2 3 1 4 21 5 19 6 18 7 16 8 15 9 14 10 13 11 6 12
REMARK SMILES IDX 7 13 8 14 9 15 12 16 11 17 10 18 4 20 20 22 17 24
REMARK H PARENT 10 19 4 21 20 23 17 25
REMARK Flexibility Score: inf
ROOT
ATOM      1  C   UNL     1     -11.263   9.884   5.116  1.00  0.00     0.180 A 
ATOM      2  C   UNL     1     -12.091   8.814   5.497  1.00  0.00     0.208 A 
ATOM      3  C   UNL     1     -13.415   8.777   5.029  1.00  0.00     0.238 A 
ATOM      4  O   UNL     1     -14.167   7.846   5.417  1.00  0.00    -0.285 OA
ATOM      5  C   UNL     1     -13.888   9.801   4.173  1.00  0.00     0.111 A 
ATOM      6  C   UNL     1     -15.198   9.844   3.608  1.00  0.00     0.134 A 
ATOM      7  C   UNL     1     -15.601  10.970   2.880  1.00  0.00     0.093 A 
ATOM      8  C   UNL     1     -14.721  12.026   2.644  1.00  0.00     0.123 A 
ATOM      9  C   UNL     1     -13.418  11.969   3.142  1.00  0.00     0.094 A 
ATOM     10  C   UNL     1     -13.000  10.874   3.901  1.00  0.00     0.146 A 
ATOM     11  O   UNL     1     -11.756  10.862   4.366  1.00  0.00    -0.452 OA
ENDROOT
BRANCH   1  12
ATOM     12  C   UNL     1      -9.850   9.979   5.548  1.00  0.00     0.021 A 
ATOM     13  C   UNL     1      -9.501  10.862   6.584  1.00  0.00     0.016 A 
ATOM     14  C   UNL     1      -8.170  10.983   6.993  1.00  0.00     0.047 A 
ATOM     15  C   UNL     1      -7.168  10.237   6.360  1.00  0.00     0.115 A 
ATOM     16  C   UNL     1      -8.836   9.247   4.905  1.00  0.00     0.016 A 
ATOM     17  C   UNL     1      -7.504   9.371   5.314  1.00  0.00     0.047 A 
BRANCH  15  18
ATOM     18  O   UNL     1      -5.838  10.349   6.759  1.00  0.00    -0.508 OA
ATOM     19  H   UNL     1      -5.447   9.746   7.475  1.00  0.00     0.293 HD
ENDBRANCH  15  18
ENDBRANCH   1  12
BRANCH   2  20
ATOM     20  O   UNL     1     -11.611   7.825   6.360  1.00  0.00    -0.502 OA
ATOM     21  H   UNL     1     -11.609   6.843   6.115  1.00  0.00     0.293 HD
ENDBRANCH   2  20
BRANCH   6  22
ATOM     22  O   UNL     1     -16.125   8.801   3.706  1.00  0.00    -0.507 OA
ATOM     23  H   UNL     1     -17.122   8.926   3.800  1.00  0.00     0.293 HD
ENDBRANCH   6  22
BRANCH   8  24
ATOM     24  O   UNL     1     -15.150  13.125   1.902  1.00  0.00    -0.508 OA
ATOM     25  H   UNL     1     -16.121  13.238   1.635  1.00  0.00     0.293 HD
ENDBRANCH   8  24
TORSDOF 5
ENDMDL
MODEL 9
REMARK VINA RESULT:    -4.995      2.743      6.892
REMARK INTER + INTRA:          -6.115
REMARK INTER:                  -5.826
REMARK INTRA:                  -0.289
REMARK UNBOUND:                -0.244
REMARK SMILES O=c1c(O)c(-c2ccc(O)cc2)oc2cc(O)cc(O)c12
REMARK SMILES IDX 5 1 3 2 2 3 1 4 21 5 19 6 18 7 16 8 15 9 14 10 13 11 6 12
REMARK SMILES IDX 7 13 8 14 9 15 12 16 11 17 10 18 4 20 20 22 17 24
REMARK H PARENT 10 19 4 21 20 23 17 25
REMARK Flexibility Score: inf
ROOT
ATOM      1  C   UNL     1     -12.849   8.542   5.289  1.00  0.00     0.180 A 
ATOM      2  C   UNL     1     -11.448   8.650   5.342  1.00  0.00     0.208 A 
ATOM      3  C   UNL     1     -10.688   7.505   5.628  1.00  0.00     0.238 A 
ATOM      4  O   UNL     1      -9.438   7.618   5.728  1.00  0.00    -0.285 OA
ATOM      5  C   UNL     1     -11.336   6.263   5.841  1.00  0.00     0.111 A 
ATOM      6  C   UNL     1     -10.663   5.032   6.099  1.00  0.00     0.134 A 
ATOM      7  C   UNL     1     -11.408   3.892   6.423  1.00  0.00     0.093 A 
ATOM      8  C   UNL     1     -12.802   3.923   6.437  1.00  0.00     0.123 A 
ATOM      9  C   UNL     1     -13.473   5.108   6.128  1.00  0.00     0.094 A 
ATOM     10  C   UNL     1     -12.755   6.270   5.836  1.00  0.00     0.146 A 
ATOM     11  O   UNL     1     -13.430   7.380   5.558  1.00  0.00    -0.452 OA
ENDROOT
BRANCH   1  12
ATOM     12  C   UNL     1     -13.716   9.699   4.969  1.00  0.00     0.021 A 
ATOM     13  C   UNL     1     -14.030   9.979   3.628  1.00  0.00     0.016 A 
ATOM     14  C   UNL     1     -14.828  11.079   3.303  1.00  0.00     0.047 A 
ATOM     15  C   UNL     1     -15.311  11.922   4.311  1.00  0.00     0.115 A 
ATOM     16  C   UNL     1     -14.189  10.562   5.975  1.00  0.00     0.016 A 
ATOM     17  C   UNL     1     -14.987  11.662   5.647  1.00  0.00     0.047 A 
BRANCH  15  18
ATOM     18  O   UNL     1     -16.108  13.021   3.999  1.00  0.00    -0.508 OA
ATOM     19  H   UNL     1     -16.671  13.044   3.156  1.00  0.00     0.293 HD
ENDBRANCH  15  18
ENDBRANCH   1  12
BRANCH   2  20
ATOM     20  O   UNL     1     -10.830   9.889   5.151  1.00  0.00    -0.502 OA
ATOM     21  H   UNL     1      -9.892  10.085   5.478  1.00  0.00     0.293 HD
ENDBRANCH   2  20
BRANCH   6  22
ATOM     22  O   UNL     1      -9.276   4.868   6.021  1.00  0.00    -0.507 OA
ATOM     23  H   UNL     1      -8.637   5.006   6.790  1.00  0.00     0.293 HD
ENDBRANCH   6  22
BRANCH   8  24
ATOM     24  O   UNL     1     -13.513   2.766   6.748  1.00  0.00    -0.508 OA
ATOM     25  H   UNL     1     -14.517   2.781   6.886  1.00  0.00     0.293 HD
ENDBRANCH   8  24
TORSDOF 5
ENDMDL
