MODEL 1
REMARK VINA RESULT:    -3.229      0.000      0.000
REMARK INTER + INTRA:          -6.153
REMARK INTER:                  -5.494
REMARK INTRA:                  -0.659
REMARK UNBOUND:                -0.659
REMARK SMILES CCCCCCCCCCCCCC(=O)[O-]
REMARK SMILES IDX 8 1 9 2 10 3 11 4 12 5 13 6 14 7 15 8 16 9 7 10 6 11 5 12
REMARK SMILES IDX 4 13 3 14 2 15 1 16
REMARK H PARENT
REMARK Flexibility Score: inf
ROOT
ATOM      1  C   UNL     1     -17.065  16.711  -8.124  1.00  0.00     0.000 C 
ENDROOT
BRANCH   1   2
ATOM      2  C   UNL     1     -16.461  15.834  -7.021  1.00  0.00     0.000 C 
BRANCH   2   3
ATOM      3  C   UNL     1     -16.642  14.344  -7.340  1.00  0.00     0.000 C 
BRANCH   3   4
ATOM      4  C   UNL     1     -15.397  13.505  -7.007  1.00  0.00     0.000 C 
BRANCH   4   5
ATOM      5  C   UNL     1     -14.551  13.137  -8.244  1.00  0.00     0.006 C 
BRANCH   5   6
ATOM      6  C   UNL     1     -15.339  13.290  -9.552  1.00  0.00     0.053 C 
BRANCH   6   7
ATOM      7  C   UNL     1     -14.625  12.609 -10.676  1.00  0.00     0.041 C 
ATOM      8  O   UNL     1     -14.382  13.231 -11.743  1.00  0.00    -0.550 OA
ATOM      9  O   UNL     1     -14.186  11.299 -10.527  1.00  0.00    -0.550 OA
ENDBRANCH   6   7
ENDBRANCH   5   6
ENDBRANCH   4   5
ENDBRANCH   3   4
ENDBRANCH   2   3
ENDBRANCH   1   2
BRANCH   1  10
ATOM     10  C   UNL     1     -15.968  17.391  -8.950  1.00  0.00     0.000 C 
BRANCH  10  11
ATOM     11  C   UNL     1     -16.532  18.566  -9.757  1.00  0.00    -0.000 C 
BRANCH  11  12
ATOM     12  C   UNL     1     -16.174  18.434 -11.245  1.00  0.00    -0.000 C 
BRANCH  12  13
ATOM     13  C   UNL     1     -16.446  19.722 -12.042  1.00  0.00    -0.000 C 
BRANCH  13  14
ATOM     14  C   UNL     1     -15.506  20.902 -11.718  1.00  0.00    -0.000 C 
BRANCH  14  15
ATOM     15  C   UNL     1     -14.369  21.124 -12.732  1.00  0.00    -0.003 C 
ATOM     16  C   UNL     1     -13.035  21.458 -12.067  1.00  0.00     0.004 C 
ENDBRANCH  14  15
ENDBRANCH  13  14
ENDBRANCH  12  13
ENDBRANCH  11  12
ENDBRANCH  10  11
ENDBRANCH   1  10
TORSDOF 12
ENDMDL
MODEL 2
REMARK VINA RESULT:    -3.190      1.002      1.601
REMARK INTER + INTRA:          -6.087
REMARK INTER:                  -5.430
REMARK INTRA:                  -0.657
REMARK UNBOUND:                -0.659
REMARK SMILES CCCCCCCCCCCCCC(=O)[O-]
REMARK SMILES IDX 8 1 9 2 10 3 11 4 12 5 13 6 14 7 15 8 16 9 7 10 6 11 5 12
REMARK SMILES IDX 4 13 3 14 2 15 1 16
REMARK H PARENT
REMARK Flexibility Score: inf
ROOT
ATOM      1  C   UNL     1     -15.634  16.969  -8.779  1.00  0.00     0.000 C 
ENDROOT
BRANCH   1   2
ATOM      2  C   UNL     1     -16.435  16.103  -7.800  1.00  0.00     0.000 C 
BRANCH   2   3
ATOM      3  C   UNL     1     -15.999  14.634  -7.878  1.00  0.00     0.000 C 
BRANCH   3   4
ATOM      4  C   UNL     1     -15.257  14.299  -9.184  1.00  0.00     0.000 C 
BRANCH   4   5
ATOM      5  C   UNL     1     -16.034  13.337 -10.107  1.00  0.00     0.006 C 
BRANCH   5   6
ATOM      6  C   UNL     1     -15.371  13.192 -11.483  1.00  0.00     0.053 C 
BRANCH   6   7
ATOM      7  C   UNL     1     -14.193  12.273 -11.404  1.00  0.00     0.041 C 
ATOM      8  O   UNL     1     -14.156  11.364 -10.534  1.00  0.00    -0.550 OA
ATOM      9  O   UNL     1     -13.158  12.391 -12.322  1.00  0.00    -0.550 OA
ENDBRANCH   6   7
ENDBRANCH   5   6
ENDBRANCH   4   5
ENDBRANCH   3   4
ENDBRANCH   2   3
ENDBRANCH   1   2
BRANCH   1  10
ATOM     10  C   UNL     1     -16.441  18.195  -9.220  1.00  0.00     0.000 C 
BRANCH  10  11
ATOM     11  C   UNL     1     -15.979  18.696 -10.594  1.00  0.00    -0.000 C 
BRANCH  11  12
ATOM     12  C   UNL     1     -16.408  20.153 -10.821  1.00  0.00    -0.000 C 
BRANCH  12  13
ATOM     13  C   UNL     1     -16.073  20.662 -12.234  1.00  0.00    -0.000 C 
BRANCH  13  14
ATOM     14  C   UNL     1     -15.042  21.807 -12.289  1.00  0.00    -0.000 C 
BRANCH  14  15
ATOM     15  C   UNL     1     -13.592  21.392 -11.980  1.00  0.00    -0.003 C 
ATOM     16  C   UNL     1     -13.060  20.329 -12.939  1.00  0.00     0.004 C 
ENDBRANCH  14  15
ENDBRANCH  13  14
ENDBRANCH  12  13
ENDBRANCH  11  12
ENDBRANCH  10  11
ENDBRANCH   1  10
TORSDOF 12
ENDMDL
MODEL 3
REMARK VINA RESULT:    -2.801      1.611      3.537
REMARK INTER + INTRA:          -5.425
REMARK INTER:                  -4.743
REMARK INTRA:                  -0.682
REMARK UNBOUND:                -0.659
REMARK SMILES CCCCCCCCCCCCCC(=O)[O-]
REMARK SMILES IDX 8 1 9 2 10 3 11 4 12 5 13 6 14 7 15 8 16 9 7 10 6 11 5 12
REMARK SMILES IDX 4 13 3 14 2 15 1 16
REMARK H PARENT
REMARK Flexibility Score: inf
ROOT
ATOM      1  C   UNL     1     -15.795  13.440  -7.389  1.00  0.00     0.000 C 
ENDROOT
BRANCH   1   2
ATOM      2  C   UNL     1     -14.543  13.162  -8.231  1.00  0.00     0.000 C 
BRANCH   2   3
ATOM      3  C   UNL     1     -14.836  13.333  -9.727  1.00  0.00     0.000 C 
BRANCH   3   4
ATOM      4  C   UNL     1     -14.471  12.088 -10.554  1.00  0.00     0.000 C 
BRANCH   4   5
ATOM      5  C   UNL     1     -13.979  12.415 -11.980  1.00  0.00     0.006 C 
BRANCH   5   6
ATOM      6  C   UNL     1     -14.756  11.641 -13.053  1.00  0.00     0.053 C 
BRANCH   6   7
ATOM      7  C   UNL     1     -16.221  11.653 -12.750  1.00  0.00     0.041 C 
ATOM      8  O   UNL     1     -16.826  10.577 -12.501  1.00  0.00    -0.550 OA
ATOM      9  O   UNL     1     -16.909  12.859 -12.695  1.00  0.00    -0.550 OA
ENDBRANCH   6   7
ENDBRANCH   5   6
ENDBRANCH   4   5
ENDBRANCH   3   4
ENDBRANCH   2   3
ENDBRANCH   1   2
BRANCH   1  10
ATOM     10  C   UNL     1     -15.844  14.904  -6.940  1.00  0.00     0.000 C 
BRANCH  10  11
ATOM     11  C   UNL     1     -17.123  15.591  -7.435  1.00  0.00    -0.000 C 
BRANCH  11  12
ATOM     12  C   UNL     1     -16.908  16.221  -8.819  1.00  0.00    -0.000 C 
BRANCH  12  13
ATOM     13  C   UNL     1     -16.077  17.515  -8.765  1.00  0.00    -0.000 C 
BRANCH  13  14
ATOM     14  C   UNL     1     -16.524  18.621  -9.742  1.00  0.00    -0.000 C 
BRANCH  14  15
ATOM     15  C   UNL     1     -15.563  18.877 -10.917  1.00  0.00    -0.003 C 
ATOM     16  C   UNL     1     -16.099  19.905 -11.912  1.00  0.00     0.004 C 
ENDBRANCH  14  15
ENDBRANCH  13  14
ENDBRANCH  12  13
ENDBRANCH  11  12
ENDBRANCH  10  11
ENDBRANCH   1  10
TORSDOF 12
ENDMDL
MODEL 4
REMARK VINA RESULT:    -2.787      2.872      6.100
REMARK INTER + INTRA:          -5.400
REMARK INTER:                  -4.844
REMARK INTRA:                  -0.556
REMARK UNBOUND:                -0.659
REMARK SMILES CCCCCCCCCCCCCC(=O)[O-]
REMARK SMILES IDX 8 1 9 2 10 3 11 4 12 5 13 6 14 7 15 8 16 9 7 10 6 11 5 12
REMARK SMILES IDX 4 13 3 14 2 15 1 16
REMARK H PARENT
REMARK Flexibility Score: inf
ROOT
ATOM      1  C   UNL     1     -14.486  13.130  -7.856  1.00  0.00     0.000 C 
ENDROOT
BRANCH   1   2
ATOM      2  C   UNL     1     -15.677  13.256  -6.899  1.00  0.00     0.000 C 
BRANCH   2   3
ATOM      3  C   UNL     1     -16.780  14.135  -7.503  1.00  0.00     0.000 C 
BRANCH   3   4
ATOM      4  C   UNL     1     -16.554  15.635  -7.253  1.00  0.00     0.000 C 
BRANCH   4   5
ATOM      5  C   UNL     1     -17.002  16.533  -8.425  1.00  0.00     0.006 C 
BRANCH   5   6
ATOM      6  C   UNL     1     -15.849  17.380  -8.981  1.00  0.00     0.053 C 
BRANCH   6   7
ATOM      7  C   UNL     1     -16.292  18.137 -10.192  1.00  0.00     0.041 C 
ATOM      8  O   UNL     1     -16.289  19.396 -10.190  1.00  0.00    -0.550 OA
ATOM      9  O   UNL     1     -16.663  17.452 -11.342  1.00  0.00    -0.550 OA
ENDBRANCH   6   7
ENDBRANCH   5   6
ENDBRANCH   4   5
ENDBRANCH   3   4
ENDBRANCH   2   3
ENDBRANCH   1   2
BRANCH   1  10
ATOM     10  C   UNL     1     -14.894  13.473  -9.294  1.00  0.00     0.000 C 
BRANCH  10  11
ATOM     11  C   UNL     1     -15.179  12.203 -10.104  1.00  0.00    -0.000 C 
BRANCH  11  12
ATOM     12  C   UNL     1     -16.479  12.344 -10.909  1.00  0.00    -0.000 C 
BRANCH  12  13
ATOM     13  C   UNL     1     -16.568  11.350 -12.081  1.00  0.00    -0.000 C 
BRANCH  13  14
ATOM     14  C   UNL     1     -15.437  11.465 -13.123  1.00  0.00    -0.000 C 
BRANCH  14  15
ATOM     15  C   UNL     1     -14.689  12.810 -13.125  1.00  0.00    -0.003 C 
ATOM     16  C   UNL     1     -13.175  12.649 -13.008  1.00  0.00     0.004 C 
ENDBRANCH  14  15
ENDBRANCH  13  14
ENDBRANCH  12  13
ENDBRANCH  11  12
ENDBRANCH  10  11
ENDBRANCH   1  10
TORSDOF 12
ENDMDL
MODEL 5
REMARK VINA RESULT:    -2.779      1.711      3.671
REMARK INTER + INTRA:          -5.387
REMARK INTER:                  -4.464
REMARK INTRA:                  -0.923
REMARK UNBOUND:                -0.659
REMARK SMILES CCCCCCCCCCCCCC(=O)[O-]
REMARK SMILES IDX 8 1 9 2 10 3 11 4 12 5 13 6 14 7 15 8 16 9 7 10 6 11 5 12
REMARK SMILES IDX 4 13 3 14 2 15 1 16
REMARK H PARENT
REMARK Flexibility Score: inf
ROOT
ATOM      1  C   UNL     1     -15.080  13.584  -8.402  1.00  0.00     0.000 C 
ENDROOT
BRANCH   1   2
ATOM      2  C   UNL     1     -15.306  13.296  -9.891  1.00  0.00     0.000 C 
BRANCH   2   3
ATOM      3  C   UNL     1     -16.760  13.574 -10.292  1.00  0.00     0.000 C 
BRANCH   3   4
ATOM      4  C   UNL     1     -16.877  14.421 -11.570  1.00  0.00     0.000 C 
BRANCH   4   5
ATOM      5  C   UNL     1     -16.443  13.675 -12.849  1.00  0.00     0.006 C 
BRANCH   5   6
ATOM      6  C   UNL     1     -14.941  13.822 -13.125  1.00  0.00     0.053 C 
BRANCH   6   7
ATOM      7  C   UNL     1     -14.270  12.485 -13.094  1.00  0.00     0.041 C 
ATOM      8  O   UNL     1     -14.956  11.430 -13.125  1.00  0.00    -0.550 OA
ATOM      9  O   UNL     1     -12.883  12.405 -13.080  1.00  0.00    -0.550 OA
ENDBRANCH   6   7
ENDBRANCH   5   6
ENDBRANCH   4   5
ENDBRANCH   3   4
ENDBRANCH   2   3
ENDBRANCH   1   2
BRANCH   1  10
ATOM     10  C   UNL     1     -16.370  14.071  -7.732  1.00  0.00     0.000 C 
BRANCH  10  11
ATOM     11  C   UNL     1     -16.207  15.493  -7.185  1.00  0.00    -0.000 C 
BRANCH  11  12
ATOM     12  C   UNL     1     -16.927  16.513  -8.079  1.00  0.00    -0.000 C 
BRANCH  12  13
ATOM     13  C   UNL     1     -15.957  17.378  -8.902  1.00  0.00    -0.000 C 
BRANCH  13  14
ATOM     14  C   UNL     1     -16.578  18.064 -10.136  1.00  0.00    -0.000 C 
BRANCH  14  15
ATOM     15  C   UNL     1     -15.684  19.120 -10.812  1.00  0.00    -0.003 C 
ATOM     16  C   UNL     1     -16.452  20.372 -11.228  1.00  0.00     0.004 C 
ENDBRANCH  14  15
ENDBRANCH  13  14
ENDBRANCH  12  13
ENDBRANCH  11  12
ENDBRANCH  10  11
ENDBRANCH   1  10
TORSDOF 12
ENDMDL
MODEL 6
REMARK VINA RESULT:    -2.770      2.828      6.207
REMARK INTER + INTRA:          -5.372
REMARK INTER:                  -4.279
REMARK INTRA:                  -1.094
REMARK UNBOUND:                -0.659
REMARK SMILES CCCCCCCCCCCCCC(=O)[O-]
REMARK SMILES IDX 8 1 9 2 10 3 11 4 12 5 13 6 14 7 15 8 16 9 7 10 6 11 5 12
REMARK SMILES IDX 4 13 3 14 2 15 1 16
REMARK H PARENT
REMARK Flexibility Score: inf
ROOT
ATOM      1  C   UNL     1     -15.843  14.320  -7.498  1.00  0.00     0.000 C 
ENDROOT
BRANCH   1   2
ATOM      2  C   UNL     1     -16.550  15.666  -7.300  1.00  0.00     0.000 C 
BRANCH   2   3
ATOM      3  C   UNL     1     -17.095  16.203  -8.630  1.00  0.00     0.000 C 
BRANCH   3   4
ATOM      4  C   UNL     1     -16.864  17.714  -8.804  1.00  0.00     0.000 C 
BRANCH   4   5
ATOM      5  C   UNL     1     -16.007  18.071 -10.037  1.00  0.00     0.006 C 
BRANCH   5   6
ATOM      6  C   UNL     1     -16.172  19.539 -10.453  1.00  0.00     0.053 C 
BRANCH   6   7
ATOM      7  C   UNL     1     -15.291  19.855 -11.620  1.00  0.00     0.041 C 
ATOM      8  O   UNL     1     -14.711  20.970 -11.693  1.00  0.00    -0.550 OA
ATOM      9  O   UNL     1     -15.071  18.899 -12.603  1.00  0.00    -0.550 OA
ENDBRANCH   6   7
ENDBRANCH   5   6
ENDBRANCH   4   5
ENDBRANCH   3   4
ENDBRANCH   2   3
ENDBRANCH   1   2
BRANCH   1  10
ATOM     10  C   UNL     1     -15.249  14.210  -8.906  1.00  0.00     0.000 C 
BRANCH  10  11
ATOM     11  C   UNL     1     -15.463  12.808  -9.489  1.00  0.00    -0.000 C 
BRANCH  11  12
ATOM     12  C   UNL     1     -16.439  12.848 -10.674  1.00  0.00    -0.000 C 
BRANCH  12  13
ATOM     13  C   UNL     1     -16.057  13.903 -11.728  1.00  0.00    -0.000 C 
BRANCH  13  14
ATOM     14  C   UNL     1     -15.723  13.340 -13.125  1.00  0.00    -0.000 C 
BRANCH  14  15
ATOM     15  C   UNL     1     -14.799  12.109 -13.125  1.00  0.00    -0.003 C 
ATOM     16  C   UNL     1     -13.351  12.451 -12.780  1.00  0.00     0.004 C 
ENDBRANCH  14  15
ENDBRANCH  13  14
ENDBRANCH  12  13
ENDBRANCH  11  12
ENDBRANCH  10  11
ENDBRANCH   1  10
TORSDOF 12
ENDMDL
MODEL 7
REMARK VINA RESULT:    -2.674      2.195      2.875
REMARK INTER + INTRA:          -5.209
REMARK INTER:                  -4.525
REMARK INTRA:                  -0.684
REMARK UNBOUND:                -0.659
REMARK SMILES CCCCCCCCCCCCCC(=O)[O-]
REMARK SMILES IDX 8 1 9 2 10 3 11 4 12 5 13 6 14 7 15 8 16 9 7 10 6 11 5 12
REMARK SMILES IDX 4 13 3 14 2 15 1 16
REMARK H PARENT
REMARK Flexibility Score: inf
ROOT
ATOM      1  C   UNL     1     -16.971  16.540  -9.467  1.00  0.00     0.000 C 
ENDROOT
BRANCH   1   2
ATOM      2  C   UNL     1     -17.020  16.182 -10.957  1.00  0.00     0.000 C 
BRANCH   2   3
ATOM      3  C   UNL     1     -16.721  14.693 -11.177  1.00  0.00     0.000 C 
BRANCH   3   4
ATOM      4  C   UNL     1     -16.478  13.931  -9.863  1.00  0.00     0.000 C 
BRANCH   4   5
ATOM      5  C   UNL     1     -14.985  13.777  -9.504  1.00  0.00     0.006 C 
BRANCH   5   6
ATOM      6  C   UNL     1     -14.783  13.174  -8.107  1.00  0.00     0.053 C 
BRANCH   6   7
ATOM      7  C   UNL     1     -15.768  13.752  -7.141  1.00  0.00     0.041 C 
ATOM      8  O   UNL     1     -16.636  13.015  -6.603  1.00  0.00    -0.550 OA
ATOM      9  O   UNL     1     -15.696  15.095  -6.796  1.00  0.00    -0.550 OA
ENDBRANCH   6   7
ENDBRANCH   5   6
ENDBRANCH   4   5
ENDBRANCH   3   4
ENDBRANCH   2   3
ENDBRANCH   1   2
BRANCH   1  10
ATOM     10  C   UNL     1     -16.588  18.010  -9.265  1.00  0.00     0.000 C 
BRANCH  10  11
ATOM     11  C   UNL     1     -16.022  18.616 -10.555  1.00  0.00    -0.000 C 
BRANCH  11  12
ATOM     12  C   UNL     1     -16.469  20.076 -10.720  1.00  0.00    -0.000 C 
BRANCH  12  13
ATOM     13  C   UNL     1     -16.795  20.440 -12.179  1.00  0.00    -0.000 C 
BRANCH  13  14
ATOM     14  C   UNL     1     -15.621  21.036 -12.982  1.00  0.00    -0.000 C 
BRANCH  14  15
ATOM     15  C   UNL     1     -14.439  21.535 -12.132  1.00  0.00    -0.003 C 
ATOM     16  C   UNL     1     -13.152  20.751 -12.382  1.00  0.00     0.004 C 
ENDBRANCH  14  15
ENDBRANCH  13  14
ENDBRANCH  12  13
ENDBRANCH  11  12
ENDBRANCH  10  11
ENDBRANCH   1  10
TORSDOF 12
ENDMDL
MODEL 8
REMARK VINA RESULT:    -2.661      3.015      6.996
REMARK INTER + INTRA:          -5.187
REMARK INTER:                  -4.908
REMARK INTRA:                  -0.279
REMARK UNBOUND:                -0.659
REMARK SMILES CCCCCCCCCCCCCC(=O)[O-]
REMARK SMILES IDX 8 1 9 2 10 3 11 4 12 5 13 6 14 7 15 8 16 9 7 10 6 11 5 12
REMARK SMILES IDX 4 13 3 14 2 15 1 16
REMARK H PARENT
REMARK Flexibility Score: inf
ROOT
ATOM      1  C   UNL     1     -16.010  15.835  -9.169  1.00  0.00     0.000 C 
ENDROOT
BRANCH   1   2
ATOM      2  C   UNL     1     -15.719  17.248  -8.649  1.00  0.00     0.000 C 
BRANCH   2   3
ATOM      3  C   UNL     1     -16.572  18.292  -9.382  1.00  0.00     0.000 C 
BRANCH   3   4
ATOM      4  C   UNL     1     -15.924  18.785 -10.687  1.00  0.00     0.000 C 
BRANCH   4   5
ATOM      5  C   UNL     1     -15.982  20.317 -10.865  1.00  0.00     0.006 C 
BRANCH   5   6
ATOM      6  C   UNL     1     -15.421  20.764 -12.222  1.00  0.00     0.053 C 
BRANCH   6   7
ATOM      7  C   UNL     1     -13.944  20.982 -12.132  1.00  0.00     0.041 C 
ATOM      8  O   UNL     1     -13.487  22.123 -11.860  1.00  0.00    -0.550 OA
ATOM      9  O   UNL     1     -13.073  19.914 -12.302  1.00  0.00    -0.550 OA
ENDBRANCH   6   7
ENDBRANCH   5   6
ENDBRANCH   4   5
ENDBRANCH   3   4
ENDBRANCH   2   3
ENDBRANCH   1   2
BRANCH   1  10
ATOM     10  C   UNL     1     -16.852  15.040  -8.166  1.00  0.00     0.000 C 
BRANCH  10  11
ATOM     11  C   UNL     1     -16.623  13.532  -8.324  1.00  0.00    -0.000 C 
BRANCH  11  12
ATOM     12  C   UNL     1     -16.104  13.200  -9.731  1.00  0.00    -0.000 C 
BRANCH  12  13
ATOM     13  C   UNL     1     -14.645  12.711  -9.730  1.00  0.00    -0.000 C 
BRANCH  13  14
ATOM     14  C   UNL     1     -14.283  11.730 -10.864  1.00  0.00    -0.000 C 
BRANCH  14  15
ATOM     15  C   UNL     1     -13.868  12.393 -12.189  1.00  0.00    -0.003 C 
ATOM     16  C   UNL     1     -15.018  13.131 -12.871  1.00  0.00     0.004 C 
ENDBRANCH  14  15
ENDBRANCH  13  14
ENDBRANCH  12  13
ENDBRANCH  11  12
ENDBRANCH  10  11
ENDBRANCH   1  10
TORSDOF 12
ENDMDL
