MODEL 1
REMARK VINA RESULT:    -4.388      0.000      0.000
REMARK INTER + INTRA:         -10.847
REMARK INTER:                  -8.493
REMARK INTRA:                  -2.354
REMARK UNBOUND:                -2.354
REMARK SMILES CCCCCCCCCCCCCCCCCC(=O)[O-]
REMARK SMILES IDX 10 1 11 2 12 3 13 4 14 5 15 6 16 7 17 8 18 9 19 10 20 11
REMARK SMILES IDX 9 12 8 13 7 14 6 15 5 16 4 17 3 18 2 19 1 20
REMARK H PARENT
REMARK Flexibility Score: inf
ROOT
ATOM      1  C   UNL     1     -12.539   3.835  20.858  1.00  0.00     0.000 C 
ENDROOT
BRANCH   1   2
ATOM      2  C   UNL     1     -12.028   4.940  19.917  1.00  0.00     0.000 C 
BRANCH   2   3
ATOM      3  C   UNL     1     -12.537   4.769  18.477  1.00  0.00     0.000 C 
BRANCH   3   4
ATOM      4  C   UNL     1     -11.452   5.056  17.428  1.00  0.00     0.000 C 
BRANCH   4   5
ATOM      5  C   UNL     1     -11.375   3.928  16.394  1.00  0.00     0.000 C 
BRANCH   5   6
ATOM      6  C   UNL     1     -12.508   2.915  16.597  1.00  0.00     0.000 C 
BRANCH   6   7
ATOM      7  C   UNL     1     -12.126   1.540  16.037  1.00  0.00     0.006 C 
BRANCH   7   8
ATOM      8  C   UNL     1     -10.676   1.530  15.546  1.00  0.00     0.053 C 
BRANCH   8   9
ATOM      9  C   UNL     1     -10.540   0.662  14.336  1.00  0.00     0.041 C 
ATOM     10  O   UNL     1     -11.565   0.193  13.774  1.00  0.00    -0.550 OA
ATOM     11  O   UNL     1      -9.284   0.413  13.796  1.00  0.00    -0.550 OA
ENDBRANCH   8   9
ENDBRANCH   7   8
ENDBRANCH   6   7
ENDBRANCH   5   6
ENDBRANCH   4   5
ENDBRANCH   3   4
ENDBRANCH   2   3
ENDBRANCH   1   2
BRANCH   1  12
ATOM     12  C   UNL     1     -12.025   2.440  20.464  1.00  0.00     0.000 C 
BRANCH  12  13
ATOM     13  C   UNL     1     -10.497   2.317  20.595  1.00  0.00    -0.000 C 
BRANCH  13  14
ATOM     14  C   UNL     1      -9.885   1.386  19.535  1.00  0.00    -0.000 C 
BRANCH  14  15
ATOM     15  C   UNL     1      -8.982   2.131  18.538  1.00  0.00    -0.000 C 
BRANCH  15  16
ATOM     16  C   UNL     1      -8.506   3.494  19.085  1.00  0.00    -0.000 C 
BRANCH  16  17
ATOM     17  C   UNL     1      -7.012   3.773  18.837  1.00  0.00    -0.000 C 
BRANCH  17  18
ATOM     18  C   UNL     1      -6.421   4.929  19.666  1.00  0.00    -0.000 C 
BRANCH  18  19
ATOM     19  C   UNL     1      -4.920   5.186  19.438  1.00  0.00    -0.003 C 
ATOM     20  C   UNL     1      -4.292   4.210  18.444  1.00  0.00     0.004 C 
ENDBRANCH  18  19
ENDBRANCH  17  18
ENDBRANCH  16  17
ENDBRANCH  15  16
ENDBRANCH  14  15
ENDBRANCH  13  14
ENDBRANCH  12  13
ENDBRANCH   1  12
TORSDOF 16
ENDMDL
MODEL 2
REMARK VINA RESULT:    -4.384      2.555      4.491
REMARK INTER + INTRA:         -10.838
REMARK INTER:                  -8.497
REMARK INTRA:                  -2.341
REMARK UNBOUND:                -2.354
REMARK SMILES CCCCCCCCCCCCCCCCCC(=O)[O-]
REMARK SMILES IDX 10 1 11 2 12 3 13 4 14 5 15 6 16 7 17 8 18 9 19 10 20 11
REMARK SMILES IDX 9 12 8 13 7 14 6 15 5 16 4 17 3 18 2 19 1 20
REMARK H PARENT
REMARK Flexibility Score: inf
ROOT
ATOM      1  C   UNL     1     -10.765   1.388  19.831  1.00  0.00     0.000 C 
ENDROOT
BRANCH   1   2
ATOM      2  C   UNL     1     -10.958   2.835  20.318  1.00  0.00     0.000 C 
BRANCH   2   3
ATOM      3  C   UNL     1     -11.128   3.830  19.157  1.00  0.00     0.000 C 
BRANCH   3   4
ATOM      4  C   UNL     1     -12.603   4.093  18.817  1.00  0.00     0.000 C 
BRANCH   4   5
ATOM      5  C   UNL     1     -12.960   3.517  17.442  1.00  0.00     0.000 C 
BRANCH   5   6
ATOM      6  C   UNL     1     -11.700   3.268  16.604  1.00  0.00     0.000 C 
BRANCH   6   7
ATOM      7  C   UNL     1     -11.620   1.806  16.149  1.00  0.00     0.006 C 
BRANCH   7   8
ATOM      8  C   UNL     1     -10.227   1.474  15.607  1.00  0.00     0.053 C 
BRANCH   8   9
ATOM      9  C   UNL     1     -10.333   0.635  14.373  1.00  0.00     0.041 C 
ATOM     10  O   UNL     1     -11.462   0.373  13.880  1.00  0.00    -0.550 OA
ATOM     11  O   UNL     1      -9.182   0.185  13.737  1.00  0.00    -0.550 OA
ENDBRANCH   8   9
ENDBRANCH   7   8
ENDBRANCH   6   7
ENDBRANCH   5   6
ENDBRANCH   4   5
ENDBRANCH   3   4
ENDBRANCH   2   3
ENDBRANCH   1   2
BRANCH   1  12
ATOM     12  C   UNL     1      -9.351   1.133  19.285  1.00  0.00     0.000 C 
BRANCH  12  13
ATOM     13  C   UNL     1      -8.842  -0.283  19.608  1.00  0.00    -0.000 C 
BRANCH  13  14
ATOM     14  C   UNL     1      -9.447  -0.849  20.903  1.00  0.00    -0.000 C 
BRANCH  14  15
ATOM     15  C   UNL     1      -8.398  -1.058  22.009  1.00  0.00    -0.000 C 
BRANCH  15  16
ATOM     16  C   UNL     1      -8.856  -0.482  23.367  1.00  0.00    -0.000 C 
BRANCH  16  17
ATOM     17  C   UNL     1      -9.660   0.825  23.245  1.00  0.00    -0.000 C 
BRANCH  17  18
ATOM     18  C   UNL     1     -11.027   0.815  23.955  1.00  0.00    -0.000 C 
BRANCH  18  19
ATOM     19  C   UNL     1     -12.199   0.316  23.090  1.00  0.00    -0.003 C 
ATOM     20  C   UNL     1     -13.275   1.378  22.872  1.00  0.00     0.004 C 
ENDBRANCH  18  19
ENDBRANCH  17  18
ENDBRANCH  16  17
ENDBRANCH  15  16
ENDBRANCH  14  15
ENDBRANCH  13  14
ENDBRANCH  12  13
ENDBRANCH   1  12
TORSDOF 16
ENDMDL
MODEL 3
REMARK VINA RESULT:    -4.303      2.042      3.915
REMARK INTER + INTRA:         -10.683
REMARK INTER:                  -8.441
REMARK INTRA:                  -2.242
REMARK UNBOUND:                -2.354
REMARK SMILES CCCCCCCCCCCCCCCCCC(=O)[O-]
REMARK SMILES IDX 10 1 11 2 12 3 13 4 14 5 15 6 16 7 17 8 18 9 19 10 20 11
REMARK SMILES IDX 9 12 8 13 7 14 6 15 5 16 4 17 3 18 2 19 1 20
REMARK H PARENT
REMARK Flexibility Score: inf
ROOT
ATOM      1  C   UNL     1      -9.685   5.085  19.545  1.00  0.00     0.000 C 
ENDROOT
BRANCH   1   2
ATOM      2  C   UNL     1     -10.037   5.142  18.048  1.00  0.00     0.000 C 
BRANCH   2   3
ATOM      3  C   UNL     1     -11.550   5.270  17.804  1.00  0.00     0.000 C 
BRANCH   3   4
ATOM      4  C   UNL     1     -12.304   3.957  18.063  1.00  0.00     0.000 C 
BRANCH   4   5
ATOM      5  C   UNL     1     -12.847   3.369  16.756  1.00  0.00     0.000 C 
BRANCH   5   6
ATOM      6  C   UNL     1     -12.160   2.039  16.422  1.00  0.00     0.000 C 
BRANCH   6   7
ATOM      7  C   UNL     1     -10.810   2.274  15.735  1.00  0.00     0.006 C 
BRANCH   7   8
ATOM      8  C   UNL     1      -9.981   0.987  15.696  1.00  0.00     0.053 C 
BRANCH   8   9
ATOM      9  C   UNL     1     -10.003   0.392  14.324  1.00  0.00     0.041 C 
ATOM     10  O   UNL     1      -9.008   0.520  13.562  1.00  0.00    -0.550 OA
ATOM     11  O   UNL     1     -11.101  -0.348  13.904  1.00  0.00    -0.550 OA
ENDBRANCH   8   9
ENDBRANCH   7   8
ENDBRANCH   6   7
ENDBRANCH   5   6
ENDBRANCH   4   5
ENDBRANCH   3   4
ENDBRANCH   2   3
ENDBRANCH   1   2
BRANCH   1  12
ATOM     12  C   UNL     1      -8.873   3.833  19.913  1.00  0.00     0.000 C 
BRANCH  12  13
ATOM     13  C   UNL     1      -8.751   2.844  18.740  1.00  0.00    -0.000 C 
BRANCH  13  14
ATOM     14  C   UNL     1      -9.157   1.413  19.127  1.00  0.00    -0.000 C 
BRANCH  14  15
ATOM     15  C   UNL     1     -10.496   1.356  19.882  1.00  0.00    -0.000 C 
BRANCH  15  16
ATOM     16  C   UNL     1     -10.403   0.519  21.177  1.00  0.00    -0.000 C 
BRANCH  16  17
ATOM     17  C   UNL     1      -9.361  -0.613  21.109  1.00  0.00    -0.000 C 
BRANCH  17  18
ATOM     18  C   UNL     1      -8.663  -0.934  22.444  1.00  0.00    -0.000 C 
BRANCH  18  19
ATOM     19  C   UNL     1      -8.895   0.103  23.559  1.00  0.00    -0.003 C 
ATOM     20  C   UNL     1      -9.296  -0.532  24.890  1.00  0.00     0.004 C 
ENDBRANCH  18  19
ENDBRANCH  17  18
ENDBRANCH  16  17
ENDBRANCH  15  16
ENDBRANCH  14  15
ENDBRANCH  13  14
ENDBRANCH  12  13
ENDBRANCH   1  12
TORSDOF 16
ENDMDL
MODEL 4
REMARK VINA RESULT:    -4.187      1.881      2.684
REMARK INTER + INTRA:         -10.457
REMARK INTER:                  -7.515
REMARK INTRA:                  -2.942
REMARK UNBOUND:                -2.354
REMARK SMILES CCCCCCCCCCCCCCCCCC(=O)[O-]
REMARK SMILES IDX 10 1 11 2 12 3 13 4 14 5 15 6 16 7 17 8 18 9 19 10 20 11
REMARK SMILES IDX 9 12 8 13 7 14 6 15 5 16 4 17 3 18 2 19 1 20
REMARK H PARENT
REMARK Flexibility Score: inf
ROOT
ATOM      1  C   UNL     1     -13.538   3.780  20.471  1.00  0.00     0.000 C 
ENDROOT
BRANCH   1   2
ATOM      2  C   UNL     1     -13.024   4.992  19.675  1.00  0.00     0.000 C 
BRANCH   2   3
ATOM      3  C   UNL     1     -12.461   4.598  18.299  1.00  0.00     0.000 C 
BRANCH   3   4
ATOM      4  C   UNL     1     -12.693   3.115  17.970  1.00  0.00     0.000 C 
BRANCH   4   5
ATOM      5  C   UNL     1     -12.382   2.825  16.497  1.00  0.00     0.000 C 
BRANCH   5   6
ATOM      6  C   UNL     1     -11.185   3.652  16.013  1.00  0.00     0.000 C 
BRANCH   6   7
ATOM      7  C   UNL     1      -9.981   2.753  15.709  1.00  0.00     0.006 C 
BRANCH   7   8
ATOM      8  C   UNL     1     -10.372   1.274  15.762  1.00  0.00     0.053 C 
BRANCH   8   9
ATOM      9  C   UNL     1     -10.365   0.682  14.387  1.00  0.00     0.041 C 
ATOM     10  O   UNL     1      -9.275   0.487  13.787  1.00  0.00    -0.550 OA
ATOM     11  O   UNL     1     -11.559   0.298  13.789  1.00  0.00    -0.550 OA
ENDBRANCH   8   9
ENDBRANCH   7   8
ENDBRANCH   6   7
ENDBRANCH   5   6
ENDBRANCH   4   5
ENDBRANCH   3   4
ENDBRANCH   2   3
ENDBRANCH   1   2
BRANCH   1  12
ATOM     12  C   UNL     1     -13.045   3.778  21.928  1.00  0.00     0.000 C 
BRANCH  12  13
ATOM     13  C   UNL     1     -11.868   2.812  22.150  1.00  0.00    -0.000 C 
BRANCH  13  14
ATOM     14  C   UNL     1     -12.219   1.359  21.792  1.00  0.00    -0.000 C 
BRANCH  14  15
ATOM     15  C   UNL     1     -11.477   0.858  20.540  1.00  0.00    -0.000 C 
BRANCH  15  16
ATOM     16  C   UNL     1      -9.951   1.077  20.638  1.00  0.00    -0.000 C 
BRANCH  16  17
ATOM     17  C   UNL     1      -9.315   1.587  19.332  1.00  0.00    -0.000 C 
BRANCH  17  18
ATOM     18  C   UNL     1      -9.244   3.121  19.201  1.00  0.00    -0.000 C 
BRANCH  18  19
ATOM     19  C   UNL     1      -8.873   3.863  20.498  1.00  0.00    -0.003 C 
ATOM     20  C   UNL     1      -9.420   5.289  20.547  1.00  0.00     0.004 C 
ENDBRANCH  18  19
ENDBRANCH  17  18
ENDBRANCH  16  17
ENDBRANCH  15  16
ENDBRANCH  14  15
ENDBRANCH  13  14
ENDBRANCH  12  13
ENDBRANCH   1  12
TORSDOF 16
ENDMDL
MODEL 5
REMARK VINA RESULT:    -4.142      1.025      2.245
REMARK INTER + INTRA:         -10.371
REMARK INTER:                  -7.887
REMARK INTRA:                  -2.484
REMARK UNBOUND:                -2.354
REMARK SMILES CCCCCCCCCCCCCCCCCC(=O)[O-]
REMARK SMILES IDX 10 1 11 2 12 3 13 4 14 5 15 6 16 7 17 8 18 9 19 10 20 11
REMARK SMILES IDX 9 12 8 13 7 14 6 15 5 16 4 17 3 18 2 19 1 20
REMARK H PARENT
REMARK Flexibility Score: inf
ROOT
ATOM      1  C   UNL     1      -9.877   2.881  20.615  1.00  0.00     0.000 C 
ENDROOT
BRANCH   1   2
ATOM      2  C   UNL     1     -11.415   2.936  20.650  1.00  0.00     0.000 C 
BRANCH   2   3
ATOM      3  C   UNL     1     -12.045   2.694  19.268  1.00  0.00     0.000 C 
BRANCH   3   4
ATOM      4  C   UNL     1     -12.578   3.985  18.629  1.00  0.00     0.000 C 
BRANCH   4   5
ATOM      5  C   UNL     1     -12.487   3.918  17.100  1.00  0.00     0.000 C 
BRANCH   5   6
ATOM      6  C   UNL     1     -12.000   2.541  16.636  1.00  0.00     0.000 C 
BRANCH   6   7
ATOM      7  C   UNL     1     -10.826   2.672  15.659  1.00  0.00     0.006 C 
BRANCH   7   8
ATOM      8  C   UNL     1      -9.953   1.415  15.676  1.00  0.00     0.053 C 
BRANCH   8   9
ATOM      9  C   UNL     1     -10.133   0.634  14.413  1.00  0.00     0.041 C 
ATOM     10  O   UNL     1      -9.129   0.244  13.760  1.00  0.00    -0.550 OA
ATOM     11  O   UNL     1     -11.410   0.293  13.983  1.00  0.00    -0.550 OA
ENDBRANCH   8   9
ENDBRANCH   7   8
ENDBRANCH   6   7
ENDBRANCH   5   6
ENDBRANCH   4   5
ENDBRANCH   3   4
ENDBRANCH   2   3
ENDBRANCH   1   2
BRANCH   1  12
ATOM     12  C   UNL     1      -9.337   2.329  19.286  1.00  0.00     0.000 C 
BRANCH  12  13
ATOM     13  C   UNL     1      -8.206   3.196  18.705  1.00  0.00    -0.000 C 
BRANCH  13  14
ATOM     14  C   UNL     1      -8.729   4.457  17.998  1.00  0.00    -0.000 C 
BRANCH  14  15
ATOM     15  C   UNL     1      -8.674   5.708  18.892  1.00  0.00    -0.000 C 
BRANCH  15  16
ATOM     16  C   UNL     1      -7.599   5.592  19.994  1.00  0.00    -0.000 C 
BRANCH  16  17
ATOM     17  C   UNL     1      -6.195   6.029  19.537  1.00  0.00    -0.000 C 
BRANCH  17  18
ATOM     18  C   UNL     1      -5.080   4.996  19.787  1.00  0.00    -0.000 C 
BRANCH  18  19
ATOM     19  C   UNL     1      -4.608   4.239  18.532  1.00  0.00    -0.003 C 
ATOM     20  C   UNL     1      -4.100   5.167  17.430  1.00  0.00     0.004 C 
ENDBRANCH  18  19
ENDBRANCH  17  18
ENDBRANCH  16  17
ENDBRANCH  15  16
ENDBRANCH  14  15
ENDBRANCH  13  14
ENDBRANCH  12  13
ENDBRANCH   1  12
TORSDOF 16
ENDMDL
MODEL 6
REMARK VINA RESULT:    -4.102      1.568      2.919
REMARK INTER + INTRA:         -10.294
REMARK INTER:                  -7.391
REMARK INTRA:                  -2.902
REMARK UNBOUND:                -2.354
REMARK SMILES CCCCCCCCCCCCCCCCCC(=O)[O-]
REMARK SMILES IDX 10 1 11 2 12 3 13 4 14 5 15 6 16 7 17 8 18 9 19 10 20 11
REMARK SMILES IDX 9 12 8 13 7 14 6 15 5 16 4 17 3 18 2 19 1 20
REMARK H PARENT
REMARK Flexibility Score: inf
ROOT
ATOM      1  C   UNL     1     -11.859   5.962  19.929  1.00  0.00     0.000 C 
ENDROOT
BRANCH   1   2
ATOM      2  C   UNL     1     -11.686   6.855  18.687  1.00  0.00     0.000 C 
BRANCH   2   3
ATOM      3  C   UNL     1     -11.743   6.055  17.375  1.00  0.00     0.000 C 
BRANCH   3   4
ATOM      4  C   UNL     1     -11.521   4.551  17.590  1.00  0.00     0.000 C 
BRANCH   4   5
ATOM      5  C   UNL     1     -12.730   3.742  17.106  1.00  0.00     0.000 C 
BRANCH   5   6
ATOM      6  C   UNL     1     -12.286   2.473  16.370  1.00  0.00     0.000 C 
BRANCH   6   7
ATOM      7  C   UNL     1     -10.850   2.612  15.848  1.00  0.00     0.006 C 
BRANCH   7   8
ATOM      8  C   UNL     1     -10.134   1.259  15.842  1.00  0.00     0.053 C 
BRANCH   8   9
ATOM      9  C   UNL     1     -10.257   0.608  14.501  1.00  0.00     0.041 C 
ATOM     10  O   UNL     1      -9.260   0.544  13.734  1.00  0.00    -0.550 OA
ATOM     11  O   UNL     1     -11.459   0.025  14.118  1.00  0.00    -0.550 OA
ENDBRANCH   8   9
ENDBRANCH   7   8
ENDBRANCH   6   7
ENDBRANCH   5   6
ENDBRANCH   4   5
ENDBRANCH   3   4
ENDBRANCH   2   3
ENDBRANCH   1   2
BRANCH   1  12
ATOM     12  C   UNL     1     -13.322   5.870  20.390  1.00  0.00     0.000 C 
BRANCH  12  13
ATOM     13  C   UNL     1     -13.563   4.693  21.352  1.00  0.00    -0.000 C 
BRANCH  13  14
ATOM     14  C   UNL     1     -13.493   3.328  20.648  1.00  0.00    -0.000 C 
BRANCH  14  15
ATOM     15  C   UNL     1     -12.298   2.478  21.116  1.00  0.00    -0.000 C 
BRANCH  15  16
ATOM     16  C   UNL     1     -11.676   1.660  19.963  1.00  0.00    -0.000 C 
BRANCH  16  17
ATOM     17  C   UNL     1     -10.148   1.815  19.850  1.00  0.00    -0.000 C 
BRANCH  17  18
ATOM     18  C   UNL     1      -9.557   3.009  20.623  1.00  0.00    -0.000 C 
BRANCH  18  19
ATOM     19  C   UNL     1      -8.722   3.981  19.770  1.00  0.00    -0.003 C 
ATOM     20  C   UNL     1      -8.028   3.297  18.593  1.00  0.00     0.004 C 
ENDBRANCH  18  19
ENDBRANCH  17  18
ENDBRANCH  16  17
ENDBRANCH  15  16
ENDBRANCH  14  15
ENDBRANCH  13  14
ENDBRANCH  12  13
ENDBRANCH   1  12
TORSDOF 16
ENDMDL
MODEL 7
REMARK VINA RESULT:    -4.073      3.568      6.780
REMARK INTER + INTRA:         -10.236
REMARK INTER:                  -7.867
REMARK INTRA:                  -2.370
REMARK UNBOUND:                -2.354
REMARK SMILES CCCCCCCCCCCCCCCCCC(=O)[O-]
REMARK SMILES IDX 10 1 11 2 12 3 13 4 14 5 15 6 16 7 17 8 18 9 19 10 20 11
REMARK SMILES IDX 9 12 8 13 7 14 6 15 5 16 4 17 3 18 2 19 1 20
REMARK H PARENT
REMARK Flexibility Score: inf
ROOT
ATOM      1  C   UNL     1     -10.078   1.401  19.418  1.00  0.00     0.000 C 
ENDROOT
BRANCH   1   2
ATOM      2  C   UNL     1      -8.877   0.549  18.970  1.00  0.00     0.000 C 
BRANCH   2   3
ATOM      3  C   UNL     1      -8.772  -0.774  19.746  1.00  0.00     0.000 C 
BRANCH   3   4
ATOM      4  C   UNL     1      -9.532  -0.739  21.080  1.00  0.00     0.000 C 
BRANCH   4   5
ATOM      5  C   UNL     1      -8.591  -1.022  22.256  1.00  0.00     0.000 C 
BRANCH   5   6
ATOM      6  C   UNL     1      -9.021  -0.245  23.506  1.00  0.00     0.000 C 
BRANCH   6   7
ATOM      7  C   UNL     1      -9.699   1.077  23.127  1.00  0.00     0.006 C 
BRANCH   7   8
ATOM      8  C   UNL     1     -10.951   1.315  23.975  1.00  0.00     0.053 C 
BRANCH   8   9
ATOM      9  C   UNL     1     -12.179   1.260  23.121  1.00  0.00     0.041 C 
ATOM     10  O   UNL     1     -12.500   0.189  22.541  1.00  0.00    -0.550 OA
ATOM     11  O   UNL     1     -12.998   2.376  23.008  1.00  0.00    -0.550 OA
ENDBRANCH   8   9
ENDBRANCH   7   8
ENDBRANCH   6   7
ENDBRANCH   5   6
ENDBRANCH   4   5
ENDBRANCH   3   4
ENDBRANCH   2   3
ENDBRANCH   1   2
BRANCH   1  12
ATOM     12  C   UNL     1      -9.714   2.883  19.605  1.00  0.00     0.000 C 
BRANCH  12  13
ATOM     13  C   UNL     1      -8.649   3.358  18.601  1.00  0.00    -0.000 C 
BRANCH  13  14
ATOM     14  C   UNL     1      -9.171   4.454  17.658  1.00  0.00    -0.000 C 
BRANCH  14  15
ATOM     15  C   UNL     1     -10.708   4.526  17.621  1.00  0.00    -0.000 C 
BRANCH  15  16
ATOM     16  C   UNL     1     -11.286   4.017  16.283  1.00  0.00    -0.000 C 
BRANCH  16  17
ATOM     17  C   UNL     1     -12.198   2.785  16.432  1.00  0.00    -0.000 C 
BRANCH  17  18
ATOM     18  C   UNL     1     -11.594   1.464  15.918  1.00  0.00    -0.000 C 
BRANCH  18  19
ATOM     19  C   UNL     1     -10.093   1.528  15.584  1.00  0.00    -0.003 C 
ATOM     20  C   UNL     1      -9.706   0.643  14.400  1.00  0.00     0.004 C 
ENDBRANCH  18  19
ENDBRANCH  17  18
ENDBRANCH  16  17
ENDBRANCH  15  16
ENDBRANCH  14  15
ENDBRANCH  13  14
ENDBRANCH  12  13
ENDBRANCH   1  12
TORSDOF 16
ENDMDL
MODEL 8
REMARK VINA RESULT:    -4.058      2.134      4.148
REMARK INTER + INTRA:         -10.208
REMARK INTER:                  -7.701
REMARK INTRA:                  -2.508
REMARK UNBOUND:                -2.354
REMARK SMILES CCCCCCCCCCCCCCCCCC(=O)[O-]
REMARK SMILES IDX 10 1 11 2 12 3 13 4 14 5 15 6 16 7 17 8 18 9 19 10 20 11
REMARK SMILES IDX 9 12 8 13 7 14 6 15 5 16 4 17 3 18 2 19 1 20
REMARK H PARENT
REMARK Flexibility Score: inf
ROOT
ATOM      1  C   UNL     1     -10.619   3.489  19.977  1.00  0.00     0.000 C 
ENDROOT
BRANCH   1   2
ATOM      2  C   UNL     1     -11.480   4.233  18.940  1.00  0.00     0.000 C 
BRANCH   2   3
ATOM      3  C   UNL     1     -12.552   3.329  18.309  1.00  0.00     0.000 C 
BRANCH   3   4
ATOM      4  C   UNL     1     -12.152   2.825  16.914  1.00  0.00     0.000 C 
BRANCH   4   5
ATOM      5  C   UNL     1     -11.007   3.664  16.335  1.00  0.00     0.000 C 
BRANCH   5   6
ATOM      6  C   UNL     1     -10.214   2.868  15.291  1.00  0.00     0.000 C 
BRANCH   6   7
ATOM      7  C   UNL     1     -10.302   1.361  15.564  1.00  0.00     0.006 C 
BRANCH   7   8
ATOM      8  C   UNL     1     -10.390   0.571  14.256  1.00  0.00     0.053 C 
BRANCH   8   9
ATOM      9  C   UNL     1     -11.744  -0.047  14.107  1.00  0.00     0.041 C 
ATOM     10  O   UNL     1     -12.779   0.631  14.343  1.00  0.00    -0.550 OA
ATOM     11  O   UNL     1     -11.866  -1.357  13.659  1.00  0.00    -0.550 OA
ENDBRANCH   8   9
ENDBRANCH   7   8
ENDBRANCH   6   7
ENDBRANCH   5   6
ENDBRANCH   4   5
ENDBRANCH   3   4
ENDBRANCH   2   3
ENDBRANCH   1   2
BRANCH   1  12
ATOM     12  C   UNL     1      -9.127   3.477  19.605  1.00  0.00     0.000 C 
BRANCH  12  13
ATOM     13  C   UNL     1      -8.728   2.218  18.816  1.00  0.00    -0.000 C 
BRANCH  13  14
ATOM     14  C   UNL     1      -9.631   1.013  19.126  1.00  0.00    -0.000 C 
BRANCH  14  15
ATOM     15  C   UNL     1      -8.856  -0.176  19.721  1.00  0.00    -0.000 C 
BRANCH  15  16
ATOM     16  C   UNL     1      -9.447  -0.645  21.068  1.00  0.00    -0.000 C 
BRANCH  16  17
ATOM     17  C   UNL     1      -9.628   0.489  22.093  1.00  0.00    -0.000 C 
BRANCH  17  18
ATOM     18  C   UNL     1     -10.815   0.309  23.058  1.00  0.00    -0.000 C 
BRANCH  18  19
ATOM     19  C   UNL     1     -12.198   0.282  22.382  1.00  0.00    -0.003 C 
ATOM     20  C   UNL     1     -12.743   1.678  22.083  1.00  0.00     0.004 C 
ENDBRANCH  18  19
ENDBRANCH  17  18
ENDBRANCH  16  17
ENDBRANCH  15  16
ENDBRANCH  14  15
ENDBRANCH  13  14
ENDBRANCH  12  13
ENDBRANCH   1  12
TORSDOF 16
ENDMDL
MODEL 9
REMARK VINA RESULT:    -4.031      3.042      6.041
REMARK INTER + INTRA:         -10.155
REMARK INTER:                  -7.349
REMARK INTRA:                  -2.806
REMARK UNBOUND:                -2.354
REMARK SMILES CCCCCCCCCCCCCCCCCC(=O)[O-]
REMARK SMILES IDX 10 1 11 2 12 3 13 4 14 5 15 6 16 7 17 8 18 9 19 10 20 11
REMARK SMILES IDX 9 12 8 13 7 14 6 15 5 16 4 17 3 18 2 19 1 20
REMARK H PARENT
REMARK Flexibility Score: inf
ROOT
ATOM      1  C   UNL     1      -8.284   5.059  18.704  1.00  0.00     0.000 C 
ENDROOT
BRANCH   1   2
ATOM      2  C   UNL     1      -8.658   3.772  19.462  1.00  0.00     0.000 C 
BRANCH   2   3
ATOM      3  C   UNL     1      -8.410   2.504  18.628  1.00  0.00     0.000 C 
BRANCH   3   4
ATOM      4  C   UNL     1      -9.434   1.397  18.919  1.00  0.00     0.000 C 
BRANCH   4   5
ATOM      5  C   UNL     1     -10.121   1.626  20.270  1.00  0.00     0.000 C 
BRANCH   5   6
ATOM      6  C   UNL     1     -11.647   1.578  20.127  1.00  0.00     0.000 C 
BRANCH   6   7
ATOM      7  C   UNL     1     -12.332   2.301  21.293  1.00  0.00     0.006 C 
BRANCH   7   8
ATOM      8  C   UNL     1     -12.089   3.810  21.223  1.00  0.00     0.053 C 
BRANCH   8   9
ATOM      9  C   UNL     1     -13.376   4.537  20.990  1.00  0.00     0.041 C 
ATOM     10  O   UNL     1     -13.659   5.560  21.669  1.00  0.00    -0.550 OA
ATOM     11  O   UNL     1     -14.241   4.116  19.987  1.00  0.00    -0.550 OA
ENDBRANCH   8   9
ENDBRANCH   7   8
ENDBRANCH   6   7
ENDBRANCH   5   6
ENDBRANCH   4   5
ENDBRANCH   3   4
ENDBRANCH   2   3
ENDBRANCH   1   2
BRANCH   1  12
ATOM     12  C   UNL     1      -9.147   5.277  17.451  1.00  0.00     0.000 C 
BRANCH  12  13
ATOM     13  C   UNL     1     -10.338   6.215  17.713  1.00  0.00    -0.000 C 
BRANCH  13  14
ATOM     14  C   UNL     1     -11.662   5.455  17.895  1.00  0.00    -0.000 C 
BRANCH  14  15
ATOM     15  C   UNL     1     -12.073   4.665  16.641  1.00  0.00    -0.000 C 
BRANCH  15  16
ATOM     16  C   UNL     1     -12.657   3.278  16.989  1.00  0.00    -0.000 C 
BRANCH  16  17
ATOM     17  C   UNL     1     -11.884   2.105  16.357  1.00  0.00    -0.000 C 
BRANCH  17  18
ATOM     18  C   UNL     1     -10.634   2.510  15.553  1.00  0.00    -0.000 C 
BRANCH  18  19
ATOM     19  C   UNL     1      -9.652   1.359  15.266  1.00  0.00    -0.003 C 
ATOM     20  C   UNL     1     -10.103   0.462  14.115  1.00  0.00     0.004 C 
ENDBRANCH  18  19
ENDBRANCH  17  18
ENDBRANCH  16  17
ENDBRANCH  15  16
ENDBRANCH  14  15
ENDBRANCH  13  14
ENDBRANCH  12  13
ENDBRANCH   1  12
TORSDOF 16
ENDMDL
