MODEL 1
REMARK VINA RESULT:    -3.286      0.000      0.000
REMARK INTER + INTRA:          -7.442
REMARK INTER:                  -5.592
REMARK INTRA:                  -1.850
REMARK UNBOUND:                -1.850
REMARK SMILES CCCCCCCCCCCCCC(=O)[O-]
REMARK SMILES IDX 8 1 9 2 10 3 11 4 12 5 13 6 14 7 15 8 16 9 7 10 6 11 5 12
REMARK SMILES IDX 4 13 3 14 2 15 1 16
REMARK H PARENT
REMARK Flexibility Score: inf
ROOT
ATOM      1  C   UNL     1      58.195   1.335  96.011  1.00  0.00     0.000 C 
ENDROOT
BRANCH   1   2
ATOM      2  C   UNL     1      59.398   1.646  96.917  1.00  0.00     0.000 C 
BRANCH   2   3
ATOM      3  C   UNL     1      60.531   0.617  96.775  1.00  0.00     0.000 C 
BRANCH   3   4
ATOM      4  C   UNL     1      60.065  -0.600  95.961  1.00  0.00     0.000 C 
BRANCH   4   5
ATOM      5  C   UNL     1      61.063  -0.993  94.859  1.00  0.00     0.006 C 
BRANCH   5   6
ATOM      6  C   UNL     1      60.434  -0.978  93.460  1.00  0.00     0.053 C 
BRANCH   6   7
ATOM      7  C   UNL     1      60.529  -2.332  92.832  1.00  0.00     0.041 C 
ATOM      8  O   UNL     1      60.290  -2.479  91.603  1.00  0.00    -0.550 OA
ATOM      9  O   UNL     1      60.929  -3.425  93.590  1.00  0.00    -0.550 OA
ENDBRANCH   6   7
ENDBRANCH   5   6
ENDBRANCH   4   5
ENDBRANCH   3   4
ENDBRANCH   2   3
ENDBRANCH   1   2
BRANCH   1  10
ATOM     10  C   UNL     1      56.851   1.477  96.745  1.00  0.00     0.000 C 
BRANCH  10  11
ATOM     11  C   UNL     1      55.918   0.278  96.504  1.00  0.00    -0.000 C 
BRANCH  11  12
ATOM     12  C   UNL     1      56.610  -1.071  96.754  1.00  0.00    -0.000 C 
BRANCH  12  13
ATOM     13  C   UNL     1      56.150  -2.119  95.732  1.00  0.00    -0.000 C 
BRANCH  13  14
ATOM     14  C   UNL     1      57.218  -2.342  94.654  1.00  0.00    -0.000 C 
BRANCH  14  15
ATOM     15  C   UNL     1      56.682  -1.973  93.265  1.00  0.00    -0.003 C 
ATOM     16  C   UNL     1      56.883  -0.490  92.973  1.00  0.00     0.004 C 
ENDBRANCH  14  15
ENDBRANCH  13  14
ENDBRANCH  12  13
ENDBRANCH  11  12
ENDBRANCH  10  11
ENDBRANCH   1  10
TORSDOF 12
ENDMDL
MODEL 2
REMARK VINA RESULT:    -3.253      5.766      7.119
REMARK INTER + INTRA:          -7.386
REMARK INTER:                  -6.582
REMARK INTRA:                  -0.803
REMARK UNBOUND:                -1.850
REMARK SMILES CCCCCCCCCCCCCC(=O)[O-]
REMARK SMILES IDX 8 1 9 2 10 3 11 4 12 5 13 6 14 7 15 8 16 9 7 10 6 11 5 12
REMARK SMILES IDX 4 13 3 14 2 15 1 16
REMARK H PARENT
REMARK Flexibility Score: inf
ROOT
ATOM      1  C   UNL     1      57.899   4.007  95.851  1.00  0.00     0.000 C 
ENDROOT
BRANCH   1   2
ATOM      2  C   UNL     1      58.471   5.420  96.048  1.00  0.00     0.000 C 
BRANCH   2   3
ATOM      3  C   UNL     1      59.864   5.412  96.696  1.00  0.00     0.000 C 
BRANCH   3   4
ATOM      4  C   UNL     1      60.796   6.418  96.003  1.00  0.00     0.000 C 
BRANCH   4   5
ATOM      5  C   UNL     1      60.337   6.764  94.577  1.00  0.00     0.006 C 
BRANCH   5   6
ATOM      6  C   UNL     1      60.569   8.239  94.222  1.00  0.00     0.053 C 
BRANCH   6   7
ATOM      7  C   UNL     1      59.605   9.110  94.962  1.00  0.00     0.041 C 
ATOM      8  O   UNL     1      60.024  10.080  95.648  1.00  0.00    -0.550 OA
ATOM      9  O   UNL     1      58.239   8.882  94.857  1.00  0.00    -0.550 OA
ENDBRANCH   6   7
ENDBRANCH   5   6
ENDBRANCH   4   5
ENDBRANCH   3   4
ENDBRANCH   2   3
ENDBRANCH   1   2
BRANCH   1  10
ATOM     10  C   UNL     1      58.408   3.011  96.905  1.00  0.00     0.000 C 
BRANCH  10  11
ATOM     11  C   UNL     1      58.805   1.656  96.294  1.00  0.00    -0.000 C 
BRANCH  11  12
ATOM     12  C   UNL     1      60.168   1.154  96.797  1.00  0.00    -0.000 C 
BRANCH  12  13
ATOM     13  C   UNL     1      60.329  -0.348  96.532  1.00  0.00    -0.000 C 
BRANCH  13  14
ATOM     14  C   UNL     1      60.908  -0.602  95.135  1.00  0.00    -0.000 C 
BRANCH  14  15
ATOM     15  C   UNL     1      60.089  -1.660  94.385  1.00  0.00    -0.003 C 
ATOM     16  C   UNL     1      60.384  -1.626  92.889  1.00  0.00     0.004 C 
ENDBRANCH  14  15
ENDBRANCH  13  14
ENDBRANCH  12  13
ENDBRANCH  11  12
ENDBRANCH  10  11
ENDBRANCH   1  10
TORSDOF 12
ENDMDL
MODEL 3
REMARK VINA RESULT:    -3.241      1.101      2.122
REMARK INTER + INTRA:          -7.364
REMARK INTER:                  -5.556
REMARK INTRA:                  -1.808
REMARK UNBOUND:                -1.850
REMARK SMILES CCCCCCCCCCCCCC(=O)[O-]
REMARK SMILES IDX 8 1 9 2 10 3 11 4 12 5 13 6 14 7 15 8 16 9 7 10 6 11 5 12
REMARK SMILES IDX 4 13 3 14 2 15 1 16
REMARK H PARENT
REMARK Flexibility Score: inf
ROOT
ATOM      1  C   UNL     1      58.153   1.191  96.464  1.00  0.00     0.000 C 
ENDROOT
BRANCH   1   2
ATOM      2  C   UNL     1      59.546   1.676  96.896  1.00  0.00     0.000 C 
BRANCH   2   3
ATOM      3  C   UNL     1      60.598   0.555  96.878  1.00  0.00     0.000 C 
BRANCH   3   4
ATOM      4  C   UNL     1      60.144  -0.607  95.981  1.00  0.00     0.000 C 
BRANCH   4   5
ATOM      5  C   UNL     1      60.849  -0.610  94.615  1.00  0.00     0.006 C 
BRANCH   5   6
ATOM      6  C   UNL     1      60.594  -1.898  93.821  1.00  0.00     0.053 C 
BRANCH   6   7
ATOM      7  C   UNL     1      60.080  -1.575  92.455  1.00  0.00     0.041 C 
ATOM      8  O   UNL     1      59.702  -2.499  91.685  1.00  0.00    -0.550 OA
ATOM      9  O   UNL     1      59.971  -0.252  92.046  1.00  0.00    -0.550 OA
ENDBRANCH   6   7
ENDBRANCH   5   6
ENDBRANCH   4   5
ENDBRANCH   3   4
ENDBRANCH   2   3
ENDBRANCH   1   2
BRANCH   1  10
ATOM     10  C   UNL     1      57.628   1.933  95.223  1.00  0.00     0.000 C 
BRANCH  10  11
ATOM     11  C   UNL     1      57.422   0.997  94.020  1.00  0.00    -0.000 C 
BRANCH  11  12
ATOM     12  C   UNL     1      56.242   0.033  94.212  1.00  0.00    -0.000 C 
BRANCH  12  13
ATOM     13  C   UNL     1      56.581  -1.362  93.673  1.00  0.00    -0.000 C 
BRANCH  13  14
ATOM     14  C   UNL     1      57.121  -2.266  94.787  1.00  0.00    -0.000 C 
BRANCH  14  15
ATOM     15  C   UNL     1      56.450  -1.946  96.128  1.00  0.00    -0.003 C 
ATOM     16  C   UNL     1      55.838  -3.196  96.751  1.00  0.00     0.004 C 
ENDBRANCH  14  15
ENDBRANCH  13  14
ENDBRANCH  12  13
ENDBRANCH  11  12
ENDBRANCH  10  11
ENDBRANCH   1  10
TORSDOF 12
ENDMDL
MODEL 4
REMARK VINA RESULT:    -3.219      2.654      4.797
REMARK INTER + INTRA:          -7.327
REMARK INTER:                  -6.260
REMARK INTRA:                  -1.067
REMARK UNBOUND:                -1.850
REMARK SMILES CCCCCCCCCCCCCC(=O)[O-]
REMARK SMILES IDX 8 1 9 2 10 3 11 4 12 5 13 6 14 7 15 8 16 9 7 10 6 11 5 12
REMARK SMILES IDX 4 13 3 14 2 15 1 16
REMARK H PARENT
REMARK Flexibility Score: inf
ROOT
ATOM      1  C   UNL     1      59.999   1.533  96.843  1.00  0.00     0.000 C 
ENDROOT
BRANCH   1   2
ATOM      2  C   UNL     1      60.732   0.182  96.825  1.00  0.00     0.000 C 
BRANCH   2   3
ATOM      3  C   UNL     1      60.133  -0.806  95.812  1.00  0.00     0.000 C 
BRANCH   3   4
ATOM      4  C   UNL     1      61.095  -1.033  94.635  1.00  0.00     0.000 C 
BRANCH   4   5
ATOM      5  C   UNL     1      60.385  -1.587  93.389  1.00  0.00     0.006 C 
BRANCH   5   6
ATOM      6  C   UNL     1      58.901  -1.201  93.333  1.00  0.00     0.053 C 
BRANCH   6   7
ATOM      7  C   UNL     1      58.719   0.054  92.540  1.00  0.00     0.041 C 
ATOM      8  O   UNL     1      59.403   0.252  91.500  1.00  0.00    -0.550 OA
ATOM      9  O   UNL     1      57.761   0.985  92.919  1.00  0.00    -0.550 OA
ENDBRANCH   6   7
ENDBRANCH   5   6
ENDBRANCH   4   5
ENDBRANCH   3   4
ENDBRANCH   2   3
ENDBRANCH   1   2
BRANCH   1  10
ATOM     10  C   UNL     1      58.522   1.409  96.434  1.00  0.00     0.000 C 
BRANCH  10  11
ATOM     11  C   UNL     1      57.637   2.483  97.088  1.00  0.00    -0.000 C 
BRANCH  11  12
ATOM     12  C   UNL     1      57.130   3.529  96.082  1.00  0.00    -0.000 C 
BRANCH  12  13
ATOM     13  C   UNL     1      57.503   4.947  96.532  1.00  0.00    -0.000 C 
BRANCH  13  14
ATOM     14  C   UNL     1      58.711   5.474  95.746  1.00  0.00    -0.000 C 
BRANCH  14  15
ATOM     15  C   UNL     1      59.976   5.463  96.612  1.00  0.00    -0.003 C 
ATOM     16  C   UNL     1      61.031   6.416  96.059  1.00  0.00     0.004 C 
ENDBRANCH  14  15
ENDBRANCH  13  14
ENDBRANCH  12  13
ENDBRANCH  11  12
ENDBRANCH  10  11
ENDBRANCH   1  10
TORSDOF 12
ENDMDL
MODEL 5
REMARK VINA RESULT:    -3.171      4.319      6.549
REMARK INTER + INTRA:          -7.246
REMARK INTER:                  -6.421
REMARK INTRA:                  -0.825
REMARK UNBOUND:                -1.850
REMARK SMILES CCCCCCCCCCCCCC(=O)[O-]
REMARK SMILES IDX 8 1 9 2 10 3 11 4 12 5 13 6 14 7 15 8 16 9 7 10 6 11 5 12
REMARK SMILES IDX 4 13 3 14 2 15 1 16
REMARK H PARENT
REMARK Flexibility Score: inf
ROOT
ATOM      1  C   UNL     1      57.154   3.950  96.629  1.00  0.00     0.000 C 
ENDROOT
BRANCH   1   2
ATOM      2  C   UNL     1      58.125   2.941  95.994  1.00  0.00     0.000 C 
BRANCH   2   3
ATOM      3  C   UNL     1      58.559   1.838  96.973  1.00  0.00     0.000 C 
BRANCH   3   4
ATOM      4  C   UNL     1      60.090   1.723  97.023  1.00  0.00     0.000 C 
BRANCH   4   5
ATOM      5  C   UNL     1      60.585   0.290  96.764  1.00  0.00     0.006 C 
BRANCH   5   6
ATOM      6  C   UNL     1      59.628  -0.514  95.875  1.00  0.00     0.053 C 
BRANCH   6   7
ATOM      7  C   UNL     1      60.177  -0.630  94.489  1.00  0.00     0.041 C 
ATOM      8  O   UNL     1      61.125  -1.424  94.246  1.00  0.00    -0.550 OA
ATOM      9  O   UNL     1      59.613   0.103  93.453  1.00  0.00    -0.550 OA
ENDBRANCH   6   7
ENDBRANCH   5   6
ENDBRANCH   4   5
ENDBRANCH   3   4
ENDBRANCH   2   3
ENDBRANCH   1   2
BRANCH   1  10
ATOM     10  C   UNL     1      57.523   5.408  96.307  1.00  0.00     0.000 C 
BRANCH  10  11
ATOM     11  C   UNL     1      58.875   5.529  95.585  1.00  0.00    -0.000 C 
BRANCH  11  12
ATOM     12  C   UNL     1      59.919   6.303  96.405  1.00  0.00    -0.000 C 
BRANCH  12  13
ATOM     13  C   UNL     1      59.366   7.663  96.851  1.00  0.00    -0.000 C 
BRANCH  13  14
ATOM     14  C   UNL     1      60.464   8.733  96.843  1.00  0.00    -0.000 C 
BRANCH  14  15
ATOM     15  C   UNL     1      60.316   9.663  95.633  1.00  0.00    -0.003 C 
ATOM     16  C   UNL     1      59.161   9.223  94.739  1.00  0.00     0.004 C 
ENDBRANCH  14  15
ENDBRANCH  13  14
ENDBRANCH  12  13
ENDBRANCH  11  12
ENDBRANCH  10  11
ENDBRANCH   1  10
TORSDOF 12
ENDMDL
MODEL 6
REMARK VINA RESULT:    -3.166      2.314      4.307
REMARK INTER + INTRA:          -7.237
REMARK INTER:                  -5.518
REMARK INTRA:                  -1.719
REMARK UNBOUND:                -1.850
REMARK SMILES CCCCCCCCCCCCCC(=O)[O-]
REMARK SMILES IDX 8 1 9 2 10 3 11 4 12 5 13 6 14 7 15 8 16 9 7 10 6 11 5 12
REMARK SMILES IDX 4 13 3 14 2 15 1 16
REMARK H PARENT
REMARK Flexibility Score: inf
ROOT
ATOM      1  C   UNL     1      60.000   1.244  96.993  1.00  0.00     0.000 C 
ENDROOT
BRANCH   1   2
ATOM      2  C   UNL     1      58.833   1.767  96.140  1.00  0.00     0.000 C 
BRANCH   2   3
ATOM      3  C   UNL     1      57.463   1.528  96.796  1.00  0.00     0.000 C 
BRANCH   3   4
ATOM      4  C   UNL     1      56.658   0.480  96.013  1.00  0.00     0.000 C 
BRANCH   4   5
ATOM      5  C   UNL     1      56.205  -0.697  96.893  1.00  0.00     0.006 C 
BRANCH   5   6
ATOM      6  C   UNL     1      56.930  -2.005  96.549  1.00  0.00     0.053 C 
BRANCH   6   7
ATOM      7  C   UNL     1      55.960  -3.016  96.025  1.00  0.00     0.041 C 
ATOM      8  O   UNL     1      54.764  -3.013  96.422  1.00  0.00    -0.550 OA
ATOM      9  O   UNL     1      56.362  -3.931  95.061  1.00  0.00    -0.550 OA
ENDBRANCH   6   7
ENDBRANCH   5   6
ENDBRANCH   4   5
ENDBRANCH   3   4
ENDBRANCH   2   3
ENDBRANCH   1   2
BRANCH   1  10
ATOM     10  C   UNL     1      60.362  -0.215  96.668  1.00  0.00     0.000 C 
BRANCH  10  11
ATOM     11  C   UNL     1      60.828  -0.396  95.213  1.00  0.00    -0.000 C 
BRANCH  11  12
ATOM     12  C   UNL     1      59.903  -1.317  94.404  1.00  0.00    -0.000 C 
BRANCH  12  13
ATOM     13  C   UNL     1      60.252  -1.270  92.911  1.00  0.00    -0.000 C 
BRANCH  13  14
ATOM     14  C   UNL     1      59.501  -0.134  92.206  1.00  0.00    -0.000 C 
BRANCH  14  15
ATOM     15  C   UNL     1      58.041  -0.071  92.669  1.00  0.00    -0.003 C 
ATOM     16  C   UNL     1      57.458   1.325  92.467  1.00  0.00     0.004 C 
ENDBRANCH  14  15
ENDBRANCH  13  14
ENDBRANCH  12  13
ENDBRANCH  11  12
ENDBRANCH  10  11
ENDBRANCH   1  10
TORSDOF 12
ENDMDL
MODEL 7
REMARK VINA RESULT:    -3.104      3.470      5.261
REMARK INTER + INTRA:          -7.131
REMARK INTER:                  -5.469
REMARK INTRA:                  -1.663
REMARK UNBOUND:                -1.850
REMARK SMILES CCCCCCCCCCCCCC(=O)[O-]
REMARK SMILES IDX 8 1 9 2 10 3 11 4 12 5 13 6 14 7 15 8 16 9 7 10 6 11 5 12
REMARK SMILES IDX 4 13 3 14 2 15 1 16
REMARK H PARENT
REMARK Flexibility Score: inf
ROOT
ATOM      1  C   UNL     1      60.757  -0.604  94.568  1.00  0.00     0.000 C 
ENDROOT
BRANCH   1   2
ATOM      2  C   UNL     1      60.769  -0.661  96.104  1.00  0.00     0.000 C 
BRANCH   2   3
ATOM      3  C   UNL     1      60.360   0.671  96.752  1.00  0.00     0.000 C 
BRANCH   3   4
ATOM      4  C   UNL     1      59.165   1.295  96.014  1.00  0.00     0.000 C 
BRANCH   4   5
ATOM      5  C   UNL     1      58.396   2.305  96.881  1.00  0.00     0.006 C 
BRANCH   5   6
ATOM      6  C   UNL     1      59.186   3.597  97.125  1.00  0.00     0.053 C 
BRANCH   6   7
ATOM      7  C   UNL     1      58.589   4.727  96.348  1.00  0.00     0.041 C 
ATOM      8  O   UNL     1      58.816   5.919  96.687  1.00  0.00    -0.550 OA
ATOM      9  O   UNL     1      57.821   4.467  95.220  1.00  0.00    -0.550 OA
ENDBRANCH   6   7
ENDBRANCH   5   6
ENDBRANCH   4   5
ENDBRANCH   3   4
ENDBRANCH   2   3
ENDBRANCH   1   2
BRANCH   1  10
ATOM     10  C   UNL     1      60.739  -2.001  93.925  1.00  0.00     0.000 C 
BRANCH  10  11
ATOM     11  C   UNL     1      59.701  -2.117  92.796  1.00  0.00    -0.000 C 
BRANCH  11  12
ATOM     12  C   UNL     1      58.716  -0.938  92.771  1.00  0.00    -0.000 C 
BRANCH  12  13
ATOM     13  C   UNL     1      57.272  -1.428  92.934  1.00  0.00    -0.000 C 
BRANCH  13  14
ATOM     14  C   UNL     1      56.664  -0.922  94.248  1.00  0.00    -0.000 C 
BRANCH  14  15
ATOM     15  C   UNL     1      57.123  -1.780  95.433  1.00  0.00    -0.003 C 
ATOM     16  C   UNL     1      56.647  -1.191  96.757  1.00  0.00     0.004 C 
ENDBRANCH  14  15
ENDBRANCH  13  14
ENDBRANCH  12  13
ENDBRANCH  11  12
ENDBRANCH  10  11
ENDBRANCH   1  10
TORSDOF 12
ENDMDL
MODEL 8
REMARK VINA RESULT:    -1.120      3.643      5.661
REMARK INTER + INTRA:          -3.756
REMARK INTER:                  -2.861
REMARK INTRA:                  -0.895
REMARK UNBOUND:                -1.850
REMARK SMILES CCCCCCCCCCCCCC(=O)[O-]
REMARK SMILES IDX 8 1 9 2 10 3 11 4 12 5 13 6 14 7 15 8 16 9 7 10 6 11 5 12
REMARK SMILES IDX 4 13 3 14 2 15 1 16
REMARK H PARENT
REMARK Flexibility Score: inf
ROOT
ATOM      1  C   UNL     1      58.153   3.192  96.001  1.00  0.00     0.000 C 
ENDROOT
BRANCH   1   2
ATOM      2  C   UNL     1      58.571   1.741  96.291  1.00  0.00     0.000 C 
BRANCH   2   3
ATOM      3  C   UNL     1      59.858   1.649  97.125  1.00  0.00     0.000 C 
BRANCH   3   4
ATOM      4  C   UNL     1      60.665   0.396  96.749  1.00  0.00     0.000 C 
BRANCH   4   5
ATOM      5  C   UNL     1      59.912  -0.522  95.772  1.00  0.00     0.006 C 
BRANCH   5   6
ATOM      6  C   UNL     1      60.718  -0.821  94.502  1.00  0.00     0.053 C 
BRANCH   6   7
ATOM      7  C   UNL     1      59.801  -1.021  93.338  1.00  0.00     0.041 C 
ATOM      8  O   UNL     1      58.860  -1.857  93.408  1.00  0.00    -0.550 OA
ATOM      9  O   UNL     1      59.953  -0.252  92.191  1.00  0.00    -0.550 OA
ENDBRANCH   6   7
ENDBRANCH   5   6
ENDBRANCH   4   5
ENDBRANCH   3   4
ENDBRANCH   2   3
ENDBRANCH   1   2
BRANCH   1  10
ATOM     10  C   UNL     1      58.912   4.210  96.869  1.00  0.00     0.000 C 
BRANCH  10  11
ATOM     11  C   UNL     1      58.233   5.590  96.890  1.00  0.00    -0.000 C 
BRANCH  11  12
ATOM     12  C   UNL     1      59.239   6.748  96.796  1.00  0.00    -0.000 C 
BRANCH  12  13
ATOM     13  C   UNL     1      60.572   6.269  96.207  1.00  0.00    -0.000 C 
BRANCH  13  14
ATOM     14  C   UNL     1      61.071   7.231  95.122  1.00  0.00    -0.000 C 
BRANCH  14  15
ATOM     15  C   UNL     1      59.898   7.840  94.346  1.00  0.00    -0.003 C 
ATOM     16  C   UNL     1      59.466   6.933  93.198  1.00  0.00     0.004 C 
ENDBRANCH  14  15
ENDBRANCH  13  14
ENDBRANCH  12  13
ENDBRANCH  11  12
ENDBRANCH  10  11
ENDBRANCH   1  10
TORSDOF 12
ENDMDL
