MODEL 1
REMARK VINA RESULT:    -4.460      0.000      0.000
REMARK INTER + INTRA:         -14.687
REMARK INTER:                 -11.238
REMARK INTRA:                  -3.449
REMARK UNBOUND:                -3.449
REMARK SMILES CCCCCCCCCCCCCCCCCCCCCCCCCCCC(=O)[O-]
REMARK SMILES IDX 15 1 16 2 17 3 18 4 19 5 20 6 21 7 22 8 23 9 24 10 25 11
REMARK SMILES IDX 26 12 27 13 28 14 29 15 30 16 14 17 13 18 12 19 11 20 10 21
REMARK SMILES IDX 9 22 8 23 7 24 6 25 5 26 4 27 3 28 2 29 1 30
REMARK H PARENT
REMARK Flexibility Score: inf
ROOT
ATOM      1  C   UNL     1     165.870 174.542 150.597  1.00  0.00     0.000 C 
ENDROOT
BRANCH   1   2
ATOM      2  C   UNL     1     166.806 174.902 149.427  1.00  0.00     0.000 C 
BRANCH   2   3
ATOM      3  C   UNL     1     167.494 176.278 149.544  1.00  0.00     0.000 C 
BRANCH   3   4
ATOM      4  C   UNL     1     167.909 176.677 150.975  1.00  0.00     0.000 C 
BRANCH   4   5
ATOM      5  C   UNL     1     169.407 177.000 151.151  1.00  0.00     0.000 C 
BRANCH   5   6
ATOM      6  C   UNL     1     170.066 176.381 152.401  1.00  0.00     0.000 C 
BRANCH   6   7
ATOM      7  C   UNL     1     171.526 176.803 152.646  1.00  0.00     0.000 C 
BRANCH   7   8
ATOM      8  C   UNL     1     171.899 178.105 151.917  1.00  0.00     0.000 C 
BRANCH   8   9
ATOM      9  C   UNL     1     173.362 178.125 151.444  1.00  0.00     0.000 C 
BRANCH   9  10
ATOM     10  C   UNL     1     173.788 176.841 150.699  1.00  0.00     0.000 C 
BRANCH  10  11
ATOM     11  C   UNL     1     175.146 176.311 151.192  1.00  0.00     0.000 C 
BRANCH  11  12
ATOM     12  C   UNL     1     175.021 175.006 151.993  1.00  0.00     0.006 C 
BRANCH  12  13
ATOM     13  C   UNL     1     174.849 173.773 151.097  1.00  0.00     0.053 C 
BRANCH  13  14
ATOM     14  C   UNL     1     176.169 173.112 150.854  1.00  0.00     0.041 C 
ATOM     15  O   UNL     1     176.265 172.178 150.015  1.00  0.00    -0.550 OA
ATOM     16  O   UNL     1     177.289 173.508 151.576  1.00  0.00    -0.550 OA
ENDBRANCH  13  14
ENDBRANCH  12  13
ENDBRANCH  11  12
ENDBRANCH  10  11
ENDBRANCH   9  10
ENDBRANCH   8   9
ENDBRANCH   7   8
ENDBRANCH   6   7
ENDBRANCH   5   6
ENDBRANCH   4   5
ENDBRANCH   3   4
ENDBRANCH   2   3
ENDBRANCH   1   2
BRANCH   1  17
ATOM     17  C   UNL     1     164.401 174.968 150.407  1.00  0.00     0.000 C 
BRANCH  17  18
ATOM     18  C   UNL     1     163.860 175.944 151.471  1.00  0.00     0.000 C 
BRANCH  18  19
ATOM     19  C   UNL     1     163.518 177.352 150.949  1.00  0.00     0.000 C 
BRANCH  19  20
ATOM     20  C   UNL     1     162.102 177.804 151.336  1.00  0.00     0.000 C 
BRANCH  20  21
ATOM     21  C   UNL     1     161.048 177.121 150.456  1.00  0.00     0.000 C 
BRANCH  21  22
ATOM     22  C   UNL     1     160.161 176.183 151.287  1.00  0.00    -0.000 C 
BRANCH  22  23
ATOM     23  C   UNL     1     160.232 176.480 152.794  1.00  0.00    -0.000 C 
BRANCH  23  24
ATOM     24  C   UNL     1     160.699 175.268 153.615  1.00  0.00    -0.000 C 
BRANCH  24  25
ATOM     25  C   UNL     1     161.730 175.685 154.671  1.00  0.00    -0.000 C 
BRANCH  25  26
ATOM     26  C   UNL     1     161.712 177.205 154.890  1.00  0.00    -0.000 C 
BRANCH  26  27
ATOM     27  C   UNL     1     163.118 177.830 154.775  1.00  0.00    -0.000 C 
BRANCH  27  28
ATOM     28  C   UNL     1     164.194 177.090 155.592  1.00  0.00    -0.000 C 
BRANCH  28  29
ATOM     29  C   UNL     1     165.401 176.604 154.773  1.00  0.00    -0.003 C 
ATOM     30  C   UNL     1     166.107 177.736 154.027  1.00  0.00     0.004 C 
ENDBRANCH  28  29
ENDBRANCH  27  28
ENDBRANCH  26  27
ENDBRANCH  25  26
ENDBRANCH  24  25
ENDBRANCH  23  24
ENDBRANCH  22  23
ENDBRANCH  21  22
ENDBRANCH  20  21
ENDBRANCH  19  20
ENDBRANCH  18  19
ENDBRANCH  17  18
ENDBRANCH   1  17
TORSDOF 26
ENDMDL
MODEL 2
REMARK VINA RESULT:    -4.453      2.742      8.127
REMARK INTER + INTRA:         -14.671
REMARK INTER:                 -10.666
REMARK INTRA:                  -4.005
REMARK UNBOUND:                -3.449
REMARK SMILES CCCCCCCCCCCCCCCCCCCCCCCCCCCC(=O)[O-]
REMARK SMILES IDX 15 1 16 2 17 3 18 4 19 5 20 6 21 7 22 8 23 9 24 10 25 11
REMARK SMILES IDX 26 12 27 13 28 14 29 15 30 16 14 17 13 18 12 19 11 20 10 21
REMARK SMILES IDX 9 22 8 23 7 24 6 25 5 26 4 27 3 28 2 29 1 30
REMARK H PARENT
REMARK Flexibility Score: inf
ROOT
ATOM      1  C   UNL     1     173.614 175.609 150.799  1.00  0.00     0.000 C 
ENDROOT
BRANCH   1   2
ATOM      2  C   UNL     1     174.652 174.608 151.346  1.00  0.00     0.000 C 
BRANCH   2   3
ATOM      3  C   UNL     1     176.124 175.011 151.122  1.00  0.00     0.000 C 
BRANCH   3   4
ATOM      4  C   UNL     1     177.121 173.836 151.086  1.00  0.00     0.000 C 
BRANCH   4   5
ATOM      5  C   UNL     1     177.175 173.071 149.748  1.00  0.00     0.000 C 
BRANCH   5   6
ATOM      6  C   UNL     1     176.260 171.832 149.667  1.00  0.00     0.000 C 
BRANCH   6   7
ATOM      7  C   UNL     1     176.700 170.637 150.533  1.00  0.00     0.000 C 
BRANCH   7   8
ATOM      8  C   UNL     1     175.537 170.012 151.320  1.00  0.00     0.000 C 
BRANCH   8   9
ATOM      9  C   UNL     1     174.598 171.065 151.933  1.00  0.00     0.000 C 
BRANCH   9  10
ATOM     10  C   UNL     1     174.736 171.198 153.465  1.00  0.00     0.000 C 
BRANCH  10  11
ATOM     11  C   UNL     1     176.207 171.183 153.915  1.00  0.00     0.000 C 
BRANCH  11  12
ATOM     12  C   UNL     1     176.722 172.574 154.316  1.00  0.00     0.006 C 
BRANCH  12  13
ATOM     13  C   UNL     1     175.592 173.536 154.707  1.00  0.00     0.053 C 
BRANCH  13  14
ATOM     14  C   UNL     1     176.138 174.711 155.455  1.00  0.00     0.041 C 
ATOM     15  O   UNL     1     176.444 175.767 154.840  1.00  0.00    -0.550 OA
ATOM     16  O   UNL     1     176.334 174.631 156.828  1.00  0.00    -0.550 OA
ENDBRANCH  13  14
ENDBRANCH  12  13
ENDBRANCH  11  12
ENDBRANCH  10  11
ENDBRANCH   9  10
ENDBRANCH   8   9
ENDBRANCH   7   8
ENDBRANCH   6   7
ENDBRANCH   5   6
ENDBRANCH   4   5
ENDBRANCH   3   4
ENDBRANCH   2   3
ENDBRANCH   1   2
BRANCH   1  17
ATOM     17  C   UNL     1     174.134 177.048 150.618  1.00  0.00     0.000 C 
BRANCH  17  18
ATOM     18  C   UNL     1     173.689 178.045 151.707  1.00  0.00     0.000 C 
BRANCH  18  19
ATOM     19  C   UNL     1     174.245 177.762 153.115  1.00  0.00     0.000 C 
BRANCH  19  20
ATOM     20  C   UNL     1     173.141 177.583 154.167  1.00  0.00     0.000 C 
BRANCH  20  21
ATOM     21  C   UNL     1     172.764 176.104 154.322  1.00  0.00     0.000 C 
BRANCH  21  22
ATOM     22  C   UNL     1     171.241 175.916 154.279  1.00  0.00    -0.000 C 
BRANCH  22  23
ATOM     23  C   UNL     1     170.688 175.882 152.845  1.00  0.00    -0.000 C 
BRANCH  23  24
ATOM     24  C   UNL     1     169.941 177.170 152.468  1.00  0.00    -0.000 C 
BRANCH  24  25
ATOM     25  C   UNL     1     169.103 176.968 151.199  1.00  0.00    -0.000 C 
BRANCH  25  26
ATOM     26  C   UNL     1     168.474 175.567 151.170  1.00  0.00    -0.000 C 
BRANCH  26  27
ATOM     27  C   UNL     1     166.933 175.619 151.107  1.00  0.00    -0.000 C 
BRANCH  27  28
ATOM     28  C   UNL     1     166.360 177.050 151.117  1.00  0.00    -0.000 C 
BRANCH  28  29
ATOM     29  C   UNL     1     164.839 177.134 150.909  1.00  0.00    -0.003 C 
ATOM     30  C   UNL     1     164.110 177.746 152.104  1.00  0.00     0.004 C 
ENDBRANCH  28  29
ENDBRANCH  27  28
ENDBRANCH  26  27
ENDBRANCH  25  26
ENDBRANCH  24  25
ENDBRANCH  23  24
ENDBRANCH  22  23
ENDBRANCH  21  22
ENDBRANCH  20  21
ENDBRANCH  19  20
ENDBRANCH  18  19
ENDBRANCH  17  18
ENDBRANCH   1  17
TORSDOF 26
ENDMDL
MODEL 3
REMARK VINA RESULT:    -4.435      1.834      3.191
REMARK INTER + INTRA:         -14.625
REMARK INTER:                 -11.641
REMARK INTRA:                  -2.983
REMARK UNBOUND:                -3.449
REMARK SMILES CCCCCCCCCCCCCCCCCCCCCCCCCCCC(=O)[O-]
REMARK SMILES IDX 15 1 16 2 17 3 18 4 19 5 20 6 21 7 22 8 23 9 24 10 25 11
REMARK SMILES IDX 26 12 27 13 28 14 29 15 30 16 14 17 13 18 12 19 11 20 10 21
REMARK SMILES IDX 9 22 8 23 7 24 6 25 5 26 4 27 3 28 2 29 1 30
REMARK H PARENT
REMARK Flexibility Score: inf
ROOT
ATOM      1  C   UNL     1     167.165 174.530 150.882  1.00  0.00     0.000 C 
ENDROOT
BRANCH   1   2
ATOM      2  C   UNL     1     168.604 175.023 151.133  1.00  0.00     0.000 C 
BRANCH   2   3
ATOM      3  C   UNL     1     168.864 175.572 152.551  1.00  0.00     0.000 C 
BRANCH   3   4
ATOM      4  C   UNL     1     169.589 176.933 152.598  1.00  0.00     0.000 C 
BRANCH   4   5
ATOM      5  C   UNL     1     170.856 177.024 151.724  1.00  0.00     0.000 C 
BRANCH   5   6
ATOM      6  C   UNL     1     172.013 177.842 152.333  1.00  0.00     0.000 C 
BRANCH   6   7
ATOM      7  C   UNL     1     173.266 177.963 151.447  1.00  0.00     0.000 C 
BRANCH   7   8
ATOM      8  C   UNL     1     173.645 176.636 150.770  1.00  0.00     0.000 C 
BRANCH   8   9
ATOM      9  C   UNL     1     175.116 176.247 151.001  1.00  0.00     0.000 C 
BRANCH   9  10
ATOM     10  C   UNL     1     175.521 176.225 152.491  1.00  0.00     0.000 C 
BRANCH  10  11
ATOM     11  C   UNL     1     174.724 175.179 153.290  1.00  0.00     0.000 C 
BRANCH  11  12
ATOM     12  C   UNL     1     175.627 174.172 154.020  1.00  0.00     0.006 C 
BRANCH  12  13
ATOM     13  C   UNL     1     175.550 172.762 153.421  1.00  0.00     0.053 C 
BRANCH  13  14
ATOM     14  C   UNL     1     176.896 172.110 153.436  1.00  0.00     0.041 C 
ATOM     15  O   UNL     1     177.034 170.928 153.022  1.00  0.00    -0.550 OA
ATOM     16  O   UNL     1     177.997 172.798 153.934  1.00  0.00    -0.550 OA
ENDBRANCH  13  14
ENDBRANCH  12  13
ENDBRANCH  11  12
ENDBRANCH  10  11
ENDBRANCH   9  10
ENDBRANCH   8   9
ENDBRANCH   7   8
ENDBRANCH   6   7
ENDBRANCH   5   6
ENDBRANCH   4   5
ENDBRANCH   3   4
ENDBRANCH   2   3
ENDBRANCH   1   2
BRANCH   1  17
ATOM     17  C   UNL     1     166.321 175.434 149.962  1.00  0.00     0.000 C 
BRANCH  17  18
ATOM     18  C   UNL     1     166.964 176.792 149.613  1.00  0.00     0.000 C 
BRANCH  18  19
ATOM     19  C   UNL     1     166.505 177.973 150.488  1.00  0.00     0.000 C 
BRANCH  19  20
ATOM     20  C   UNL     1     164.977 178.065 150.613  1.00  0.00     0.000 C 
BRANCH  20  21
ATOM     21  C   UNL     1     164.531 177.848 152.065  1.00  0.00     0.000 C 
BRANCH  21  22
ATOM     22  C   UNL     1     163.012 177.642 152.149  1.00  0.00    -0.000 C 
BRANCH  22  23
ATOM     23  C   UNL     1     162.370 177.391 150.775  1.00  0.00    -0.000 C 
BRANCH  23  24
ATOM     24  C   UNL     1     160.848 177.598 150.786  1.00  0.00    -0.000 C 
BRANCH  24  25
ATOM     25  C   UNL     1     160.263 177.302 152.173  1.00  0.00    -0.000 C 
BRANCH  25  26
ATOM     26  C   UNL     1     159.928 175.811 152.324  1.00  0.00    -0.000 C 
BRANCH  26  27
ATOM     27  C   UNL     1     160.488 175.215 153.633  1.00  0.00    -0.000 C 
BRANCH  27  28
ATOM     28  C   UNL     1     161.414 174.003 153.414  1.00  0.00    -0.000 C 
BRANCH  28  29
ATOM     29  C   UNL     1     161.770 173.724 151.945  1.00  0.00    -0.003 C 
ATOM     30  C   UNL     1     163.239 174.002 151.627  1.00  0.00     0.004 C 
ENDBRANCH  28  29
ENDBRANCH  27  28
ENDBRANCH  26  27
ENDBRANCH  25  26
ENDBRANCH  24  25
ENDBRANCH  23  24
ENDBRANCH  22  23
ENDBRANCH  21  22
ENDBRANCH  20  21
ENDBRANCH  19  20
ENDBRANCH  18  19
ENDBRANCH  17  18
ENDBRANCH   1  17
TORSDOF 26
ENDMDL
MODEL 4
REMARK VINA RESULT:    -4.428      5.279      9.757
REMARK INTER + INTRA:         -14.607
REMARK INTER:                 -10.447
REMARK INTRA:                  -4.160
REMARK UNBOUND:                -3.449
REMARK SMILES CCCCCCCCCCCCCCCCCCCCCCCCCCCC(=O)[O-]
REMARK SMILES IDX 15 1 16 2 17 3 18 4 19 5 20 6 21 7 22 8 23 9 24 10 25 11
REMARK SMILES IDX 26 12 27 13 28 14 29 15 30 16 14 17 13 18 12 19 11 20 10 21
REMARK SMILES IDX 9 22 8 23 7 24 6 25 5 26 4 27 3 28 2 29 1 30
REMARK H PARENT
REMARK Flexibility Score: inf
ROOT
ATOM      1  C   UNL     1     164.252 174.713 151.667  1.00  0.00     0.000 C 
ENDROOT
BRANCH   1   2
ATOM      2  C   UNL     1     163.554 175.756 150.773  1.00  0.00     0.000 C 
BRANCH   2   3
ATOM      3  C   UNL     1     163.795 177.225 151.178  1.00  0.00     0.000 C 
BRANCH   3   4
ATOM      4  C   UNL     1     162.617 177.899 151.911  1.00  0.00     0.000 C 
BRANCH   4   5
ATOM      5  C   UNL     1     161.223 177.577 151.334  1.00  0.00     0.000 C 
BRANCH   5   6
ATOM      6  C   UNL     1     160.308 176.751 152.260  1.00  0.00     0.000 C 
BRANCH   6   7
ATOM      7  C   UNL     1     159.745 175.460 151.639  1.00  0.00     0.000 C 
BRANCH   7   8
ATOM      8  C   UNL     1     159.764 174.273 152.616  1.00  0.00     0.000 C 
BRANCH   8   9
ATOM      9  C   UNL     1     161.108 173.525 152.621  1.00  0.00     0.000 C 
BRANCH   9  10
ATOM     10  C   UNL     1     161.087 172.211 151.811  1.00  0.00     0.000 C 
BRANCH  10  11
ATOM     11  C   UNL     1     159.732 171.981 151.119  1.00  0.00     0.000 C 
BRANCH  11  12
ATOM     12  C   UNL     1     159.535 170.528 150.660  1.00  0.00     0.006 C 
BRANCH  12  13
ATOM     13  C   UNL     1     160.829 169.888 150.141  1.00  0.00     0.053 C 
BRANCH  13  14
ATOM     14  C   UNL     1     160.638 168.422 149.915  1.00  0.00     0.041 C 
ATOM     15  O   UNL     1     161.330 167.817 149.054  1.00  0.00    -0.550 OA
ATOM     16  O   UNL     1     159.675 167.727 150.637  1.00  0.00    -0.550 OA
ENDBRANCH  13  14
ENDBRANCH  12  13
ENDBRANCH  11  12
ENDBRANCH  10  11
ENDBRANCH   9  10
ENDBRANCH   8   9
ENDBRANCH   7   8
ENDBRANCH   6   7
ENDBRANCH   5   6
ENDBRANCH   4   5
ENDBRANCH   3   4
ENDBRANCH   2   3
ENDBRANCH   1   2
BRANCH   1  17
ATOM     17  C   UNL     1     165.605 174.204 151.134  1.00  0.00     0.000 C 
BRANCH  17  18
ATOM     18  C   UNL     1     165.858 174.468 149.636  1.00  0.00     0.000 C 
BRANCH  18  19
ATOM     19  C   UNL     1     167.256 175.021 149.299  1.00  0.00     0.000 C 
BRANCH  19  20
ATOM     20  C   UNL     1     167.257 176.538 149.064  1.00  0.00     0.000 C 
BRANCH  20  21
ATOM     21  C   UNL     1     167.504 177.297 150.374  1.00  0.00     0.000 C 
BRANCH  21  22
ATOM     22  C   UNL     1     168.649 176.657 151.173  1.00  0.00    -0.000 C 
BRANCH  22  23
ATOM     23  C   UNL     1     168.431 176.742 152.693  1.00  0.00    -0.000 C 
BRANCH  23  24
ATOM     24  C   UNL     1     167.086 177.387 153.062  1.00  0.00    -0.000 C 
BRANCH  24  25
ATOM     25  C   UNL     1     166.309 176.507 154.050  1.00  0.00    -0.000 C 
BRANCH  25  26
ATOM     26  C   UNL     1     165.346 177.349 154.899  1.00  0.00    -0.000 C 
BRANCH  26  27
ATOM     27  C   UNL     1     163.942 176.714 154.994  1.00  0.00    -0.000 C 
BRANCH  27  28
ATOM     28  C   UNL     1     162.892 177.630 155.652  1.00  0.00    -0.000 C 
BRANCH  28  29
ATOM     29  C   UNL     1     161.859 176.899 156.524  1.00  0.00    -0.003 C 
ATOM     30  C   UNL     1     160.454 176.916 155.922  1.00  0.00     0.004 C 
ENDBRANCH  28  29
ENDBRANCH  27  28
ENDBRANCH  26  27
ENDBRANCH  25  26
ENDBRANCH  24  25
ENDBRANCH  23  24
ENDBRANCH  22  23
ENDBRANCH  21  22
ENDBRANCH  20  21
ENDBRANCH  19  20
ENDBRANCH  18  19
ENDBRANCH  17  18
ENDBRANCH   1  17
TORSDOF 26
ENDMDL
MODEL 5
REMARK VINA RESULT:    -4.418      5.201     10.183
REMARK INTER + INTRA:         -14.581
REMARK INTER:                  -9.282
REMARK INTRA:                  -5.298
REMARK UNBOUND:                -3.449
REMARK SMILES CCCCCCCCCCCCCCCCCCCCCCCCCCCC(=O)[O-]
REMARK SMILES IDX 15 1 16 2 17 3 18 4 19 5 20 6 21 7 22 8 23 9 24 10 25 11
REMARK SMILES IDX 26 12 27 13 28 14 29 15 30 16 14 17 13 18 12 19 11 20 10 21
REMARK SMILES IDX 9 22 8 23 7 24 6 25 5 26 4 27 3 28 2 29 1 30
REMARK H PARENT
REMARK Flexibility Score: inf
ROOT
ATOM      1  C   UNL     1     175.065 171.206 150.073  1.00  0.00     0.000 C 
ENDROOT
BRANCH   1   2
ATOM      2  C   UNL     1     175.169 169.925 150.925  1.00  0.00     0.000 C 
BRANCH   2   3
ATOM      3  C   UNL     1     176.553 169.677 151.560  1.00  0.00     0.000 C 
BRANCH   3   4
ATOM      4  C   UNL     1     176.624 169.925 153.080  1.00  0.00     0.000 C 
BRANCH   4   5
ATOM      5  C   UNL     1     176.576 171.408 153.500  1.00  0.00     0.000 C 
BRANCH   5   6
ATOM      6  C   UNL     1     175.379 171.797 154.391  1.00  0.00     0.000 C 
BRANCH   6   7
ATOM      7  C   UNL     1     174.326 172.693 153.715  1.00  0.00     0.000 C 
BRANCH   7   8
ATOM      8  C   UNL     1     173.083 171.911 153.260  1.00  0.00     0.000 C 
BRANCH   8   9
ATOM      9  C   UNL     1     172.336 172.599 152.105  1.00  0.00     0.000 C 
BRANCH   9  10
ATOM     10  C   UNL     1     171.934 174.058 152.410  1.00  0.00     0.000 C 
BRANCH  10  11
ATOM     11  C   UNL     1     170.550 174.408 151.837  1.00  0.00     0.000 C 
BRANCH  11  12
ATOM     12  C   UNL     1     169.922 175.642 152.505  1.00  0.00     0.006 C 
BRANCH  12  13
ATOM     13  C   UNL     1     169.736 176.813 151.532  1.00  0.00     0.053 C 
BRANCH  13  14
ATOM     14  C   UNL     1     168.305 176.930 151.116  1.00  0.00     0.041 C 
ATOM     15  O   UNL     1     167.988 176.842 149.900  1.00  0.00    -0.550 OA
ATOM     16  O   UNL     1     167.320 177.162 152.069  1.00  0.00    -0.550 OA
ENDBRANCH  13  14
ENDBRANCH  12  13
ENDBRANCH  11  12
ENDBRANCH  10  11
ENDBRANCH   9  10
ENDBRANCH   8   9
ENDBRANCH   7   8
ENDBRANCH   6   7
ENDBRANCH   5   6
ENDBRANCH   4   5
ENDBRANCH   3   4
ENDBRANCH   2   3
ENDBRANCH   1   2
BRANCH   1  17
ATOM     17  C   UNL     1     176.416 171.827 149.669  1.00  0.00     0.000 C 
BRANCH  17  18
ATOM     18  C   UNL     1     176.752 173.166 150.358  1.00  0.00     0.000 C 
BRANCH  18  19
ATOM     19  C   UNL     1     175.532 174.021 150.748  1.00  0.00     0.000 C 
BRANCH  19  20
ATOM     20  C   UNL     1     175.919 175.322 151.464  1.00  0.00     0.000 C 
BRANCH  20  21
ATOM     21  C   UNL     1     175.308 176.540 150.760  1.00  0.00     0.000 C 
BRANCH  21  22
ATOM     22  C   UNL     1     173.788 176.591 150.969  1.00  0.00    -0.000 C 
BRANCH  22  23
ATOM     23  C   UNL     1     173.325 177.891 151.646  1.00  0.00    -0.000 C 
BRANCH  23  24
ATOM     24  C   UNL     1     172.944 177.687 153.121  1.00  0.00    -0.000 C 
BRANCH  24  25
ATOM     25  C   UNL     1     174.179 177.782 154.025  1.00  0.00    -0.000 C 
BRANCH  25  26
ATOM     26  C   UNL     1     174.575 176.400 154.565  1.00  0.00    -0.000 C 
BRANCH  26  27
ATOM     27  C   UNL     1     174.335 176.273 156.084  1.00  0.00    -0.000 C 
BRANCH  27  28
ATOM     28  C   UNL     1     173.387 175.120 156.467  1.00  0.00    -0.000 C 
BRANCH  28  29
ATOM     29  C   UNL     1     172.134 175.000 155.583  1.00  0.00    -0.003 C 
ATOM     30  C   UNL     1     171.134 173.970 156.108  1.00  0.00     0.004 C 
ENDBRANCH  28  29
ENDBRANCH  27  28
ENDBRANCH  26  27
ENDBRANCH  25  26
ENDBRANCH  24  25
ENDBRANCH  23  24
ENDBRANCH  22  23
ENDBRANCH  21  22
ENDBRANCH  20  21
ENDBRANCH  19  20
ENDBRANCH  18  19
ENDBRANCH  17  18
ENDBRANCH   1  17
TORSDOF 26
ENDMDL
MODEL 6
REMARK VINA RESULT:    -4.410      8.926     14.978
REMARK INTER + INTRA:         -14.562
REMARK INTER:                 -11.041
REMARK INTRA:                  -3.521
REMARK UNBOUND:                -3.449
REMARK SMILES CCCCCCCCCCCCCCCCCCCCCCCCCCCC(=O)[O-]
REMARK SMILES IDX 15 1 16 2 17 3 18 4 19 5 20 6 21 7 22 8 23 9 24 10 25 11
REMARK SMILES IDX 26 12 27 13 28 14 29 15 30 16 14 17 13 18 12 19 11 20 10 21
REMARK SMILES IDX 9 22 8 23 7 24 6 25 5 26 4 27 3 28 2 29 1 30
REMARK H PARENT
REMARK Flexibility Score: inf
ROOT
ATOM      1  C   UNL     1     176.030 164.546 150.751  1.00  0.00     0.000 C 
ENDROOT
BRANCH   1   2
ATOM      2  C   UNL     1     176.290 163.351 151.689  1.00  0.00     0.000 C 
BRANCH   2   3
ATOM      3  C   UNL     1     177.024 162.161 151.037  1.00  0.00     0.000 C 
BRANCH   3   4
ATOM      4  C   UNL     1     176.117 161.183 150.261  1.00  0.00     0.000 C 
BRANCH   4   5
ATOM      5  C   UNL     1     174.644 161.166 150.715  1.00  0.00     0.000 C 
BRANCH   5   6
ATOM      6  C   UNL     1     173.608 161.233 149.575  1.00  0.00     0.000 C 
BRANCH   6   7
ATOM      7  C   UNL     1     173.172 162.653 149.172  1.00  0.00     0.000 C 
BRANCH   7   8
ATOM      8  C   UNL     1     172.515 163.425 150.328  1.00  0.00     0.000 C 
BRANCH   8   9
ATOM      9  C   UNL     1     171.531 162.563 151.137  1.00  0.00     0.000 C 
BRANCH   9  10
ATOM     10  C   UNL     1     171.783 162.602 152.659  1.00  0.00     0.000 C 
BRANCH  10  11
ATOM     11  C   UNL     1     172.961 163.521 153.026  1.00  0.00     0.000 C 
BRANCH  11  12
ATOM     12  C   UNL     1     173.737 163.033 154.259  1.00  0.00     0.006 C 
BRANCH  12  13
ATOM     13  C   UNL     1     173.798 161.503 154.356  1.00  0.00     0.053 C 
BRANCH  13  14
ATOM     14  C   UNL     1     175.218 161.035 154.394  1.00  0.00     0.041 C 
ATOM     15  O   UNL     1     176.104 161.742 154.945  1.00  0.00    -0.550 OA
ATOM     16  O   UNL     1     175.571 159.831 153.797  1.00  0.00    -0.550 OA
ENDBRANCH  13  14
ENDBRANCH  12  13
ENDBRANCH  11  12
ENDBRANCH  10  11
ENDBRANCH   9  10
ENDBRANCH   8   9
ENDBRANCH   7   8
ENDBRANCH   6   7
ENDBRANCH   5   6
ENDBRANCH   4   5
ENDBRANCH   3   4
ENDBRANCH   2   3
ENDBRANCH   1   2
BRANCH   1  17
ATOM     17  C   UNL     1     175.434 165.791 151.437  1.00  0.00     0.000 C 
BRANCH  17  18
ATOM     18  C   UNL     1     176.074 166.159 152.791  1.00  0.00     0.000 C 
BRANCH  18  19
ATOM     19  C   UNL     1     177.557 166.569 152.720  1.00  0.00     0.000 C 
BRANCH  19  20
ATOM     20  C   UNL     1     177.761 167.971 152.128  1.00  0.00     0.000 C 
BRANCH  20  21
ATOM     21  C   UNL     1     176.765 168.972 152.727  1.00  0.00     0.000 C 
BRANCH  21  22
ATOM     22  C   UNL     1     176.000 169.715 151.622  1.00  0.00    -0.000 C 
BRANCH  22  23
ATOM     23  C   UNL     1     176.925 170.538 150.711  1.00  0.00    -0.000 C 
BRANCH  23  24
ATOM     24  C   UNL     1     176.160 171.574 149.873  1.00  0.00    -0.000 C 
BRANCH  24  25
ATOM     25  C   UNL     1     176.845 172.945 149.936  1.00  0.00    -0.000 C 
BRANCH  25  26
ATOM     26  C   UNL     1     176.914 173.461 151.381  1.00  0.00    -0.000 C 
BRANCH  26  27
ATOM     27  C   UNL     1     176.087 174.748 151.584  1.00  0.00    -0.000 C 
BRANCH  27  28
ATOM     28  C   UNL     1     174.668 174.672 150.987  1.00  0.00    -0.000 C 
BRANCH  28  29
ATOM     29  C   UNL     1     173.760 175.863 151.337  1.00  0.00    -0.003 C 
ATOM     30  C   UNL     1     174.113 177.128 150.556  1.00  0.00     0.004 C 
ENDBRANCH  28  29
ENDBRANCH  27  28
ENDBRANCH  26  27
ENDBRANCH  25  26
ENDBRANCH  24  25
ENDBRANCH  23  24
ENDBRANCH  22  23
ENDBRANCH  21  22
ENDBRANCH  20  21
ENDBRANCH  19  20
ENDBRANCH  18  19
ENDBRANCH  17  18
ENDBRANCH   1  17
TORSDOF 26
ENDMDL
MODEL 7
REMARK VINA RESULT:    -4.364      8.127     11.128
REMARK INTER + INTRA:         -14.446
REMARK INTER:                  -9.462
REMARK INTRA:                  -4.984
REMARK UNBOUND:                -3.449
REMARK SMILES CCCCCCCCCCCCCCCCCCCCCCCCCCCC(=O)[O-]
REMARK SMILES IDX 15 1 16 2 17 3 18 4 19 5 20 6 21 7 22 8 23 9 24 10 25 11
REMARK SMILES IDX 26 12 27 13 28 14 29 15 30 16 14 17 13 18 12 19 11 20 10 21
REMARK SMILES IDX 9 22 8 23 7 24 6 25 5 26 4 27 3 28 2 29 1 30
REMARK H PARENT
REMARK Flexibility Score: inf
ROOT
ATOM      1  C   UNL     1     173.392 171.478 151.149  1.00  0.00     0.000 C 
ENDROOT
BRANCH   1   2
ATOM      2  C   UNL     1     173.291 172.911 150.587  1.00  0.00     0.000 C 
BRANCH   2   3
ATOM      3  C   UNL     1     173.324 174.029 151.649  1.00  0.00     0.000 C 
BRANCH   3   4
ATOM      4  C   UNL     1     172.979 175.437 151.122  1.00  0.00     0.000 C 
BRANCH   4   5
ATOM      5  C   UNL     1     174.196 176.301 150.734  1.00  0.00     0.000 C 
BRANCH   5   6
ATOM      6  C   UNL     1     174.095 177.787 151.132  1.00  0.00     0.000 C 
BRANCH   6   7
ATOM      7  C   UNL     1     174.619 178.123 152.541  1.00  0.00     0.000 C 
BRANCH   7   8
ATOM      8  C   UNL     1     175.727 177.164 153.008  1.00  0.00     0.000 C 
BRANCH   8   9
ATOM      9  C   UNL     1     175.695 176.909 154.524  1.00  0.00     0.000 C 
BRANCH   9  10
ATOM     10  C   UNL     1     174.306 176.489 155.051  1.00  0.00     0.000 C 
BRANCH  10  11
ATOM     11  C   UNL     1     174.403 175.382 156.115  1.00  0.00     0.000 C 
BRANCH  11  12
ATOM     12  C   UNL     1     175.756 175.372 156.843  1.00  0.00     0.006 C 
BRANCH  12  13
ATOM     13  C   UNL     1     175.625 175.036 158.334  1.00  0.00     0.053 C 
BRANCH  13  14
ATOM     14  C   UNL     1     176.778 174.198 158.788  1.00  0.00     0.041 C 
ATOM     15  O   UNL     1     177.935 174.693 158.853  1.00  0.00    -0.550 OA
ATOM     16  O   UNL     1     176.582 172.861 159.112  1.00  0.00    -0.550 OA
ENDBRANCH  13  14
ENDBRANCH  12  13
ENDBRANCH  11  12
ENDBRANCH  10  11
ENDBRANCH   9  10
ENDBRANCH   8   9
ENDBRANCH   7   8
ENDBRANCH   6   7
ENDBRANCH   5   6
ENDBRANCH   4   5
ENDBRANCH   3   4
ENDBRANCH   2   3
ENDBRANCH   1   2
BRANCH   1  17
ATOM     17  C   UNL     1     174.314 170.534 150.353  1.00  0.00     0.000 C 
BRANCH  17  18
ATOM     18  C   UNL     1     175.324 171.238 149.423  1.00  0.00     0.000 C 
BRANCH  18  19
ATOM     19  C   UNL     1     176.657 171.629 150.088  1.00  0.00     0.000 C 
BRANCH  19  20
ATOM     20  C   UNL     1     177.011 173.110 149.890  1.00  0.00     0.000 C 
BRANCH  20  21
ATOM     21  C   UNL     1     176.961 173.870 151.221  1.00  0.00     0.000 C 
BRANCH  21  22
ATOM     22  C   UNL     1     176.992 172.899 152.410  1.00  0.00    -0.000 C 
BRANCH  22  23
ATOM     23  C   UNL     1     176.188 173.411 153.616  1.00  0.00    -0.000 C 
BRANCH  23  24
ATOM     24  C   UNL     1     176.030 172.350 154.716  1.00  0.00    -0.000 C 
BRANCH  24  25
ATOM     25  C   UNL     1     174.625 171.734 154.687  1.00  0.00    -0.000 C 
BRANCH  25  26
ATOM     26  C   UNL     1     174.685 170.237 154.351  1.00  0.00    -0.000 C 
BRANCH  26  27
ATOM     27  C   UNL     1     176.112 169.775 153.985  1.00  0.00    -0.000 C 
BRANCH  27  28
ATOM     28  C   UNL     1     176.273 168.244 153.936  1.00  0.00    -0.000 C 
BRANCH  28  29
ATOM     29  C   UNL     1     177.491 167.752 153.138  1.00  0.00    -0.003 C 
ATOM     30  C   UNL     1     177.606 168.411 151.764  1.00  0.00     0.004 C 
ENDBRANCH  28  29
ENDBRANCH  27  28
ENDBRANCH  26  27
ENDBRANCH  25  26
ENDBRANCH  24  25
ENDBRANCH  23  24
ENDBRANCH  22  23
ENDBRANCH  21  22
ENDBRANCH  20  21
ENDBRANCH  19  20
ENDBRANCH  18  19
ENDBRANCH  17  18
ENDBRANCH   1  17
TORSDOF 26
ENDMDL
MODEL 8
REMARK VINA RESULT:    -4.353      2.591      6.959
REMARK INTER + INTRA:         -14.418
REMARK INTER:                 -10.896
REMARK INTRA:                  -3.522
REMARK UNBOUND:                -3.449
REMARK SMILES CCCCCCCCCCCCCCCCCCCCCCCCCCCC(=O)[O-]
REMARK SMILES IDX 15 1 16 2 17 3 18 4 19 5 20 6 21 7 22 8 23 9 24 10 25 11
REMARK SMILES IDX 26 12 27 13 28 14 29 15 30 16 14 17 13 18 12 19 11 20 10 21
REMARK SMILES IDX 9 22 8 23 7 24 6 25 5 26 4 27 3 28 2 29 1 30
REMARK H PARENT
REMARK Flexibility Score: inf
ROOT
ATOM      1  C   UNL     1     173.661 171.831 150.682  1.00  0.00     0.000 C 
ENDROOT
BRANCH   1   2
ATOM      2  C   UNL     1     174.772 171.257 149.780  1.00  0.00     0.000 C 
BRANCH   2   3
ATOM      3  C   UNL     1     176.206 171.449 150.314  1.00  0.00     0.000 C 
BRANCH   3   4
ATOM      4  C   UNL     1     177.004 172.584 149.641  1.00  0.00     0.000 C 
BRANCH   4   5
ATOM      5  C   UNL     1     177.349 173.771 150.563  1.00  0.00     0.000 C 
BRANCH   5   6
ATOM      6  C   UNL     1     176.590 173.797 151.905  1.00  0.00     0.000 C 
BRANCH   6   7
ATOM      7  C   UNL     1     175.851 175.112 152.211  1.00  0.00     0.000 C 
BRANCH   7   8
ATOM      8  C   UNL     1     175.699 176.012 150.973  1.00  0.00     0.000 C 
BRANCH   8   9
ATOM      9  C   UNL     1     175.166 177.413 151.316  1.00  0.00     0.000 C 
BRANCH   9  10
ATOM     10  C   UNL     1     173.847 177.766 150.595  1.00  0.00     0.000 C 
BRANCH  10  11
ATOM     11  C   UNL     1     172.637 177.709 151.544  1.00  0.00     0.000 C 
BRANCH  11  12
ATOM     12  C   UNL     1     173.034 177.836 153.024  1.00  0.00     0.006 C 
BRANCH  12  13
ATOM     13  C   UNL     1     172.101 177.054 153.958  1.00  0.00     0.053 C 
BRANCH  13  14
ATOM     14  C   UNL     1     172.891 176.163 154.863  1.00  0.00     0.041 C 
ATOM     15  O   UNL     1     174.130 176.341 155.006  1.00  0.00    -0.550 OA
ATOM     16  O   UNL     1     172.264 175.117 155.529  1.00  0.00    -0.550 OA
ENDBRANCH  13  14
ENDBRANCH  12  13
ENDBRANCH  11  12
ENDBRANCH  10  11
ENDBRANCH   9  10
ENDBRANCH   8   9
ENDBRANCH   7   8
ENDBRANCH   6   7
ENDBRANCH   5   6
ENDBRANCH   4   5
ENDBRANCH   3   4
ENDBRANCH   2   3
ENDBRANCH   1   2
BRANCH   1  17
ATOM     17  C   UNL     1     173.239 173.275 150.351  1.00  0.00     0.000 C 
BRANCH  17  18
ATOM     18  C   UNL     1     172.523 174.025 151.493  1.00  0.00     0.000 C 
BRANCH  18  19
ATOM     19  C   UNL     1     171.272 173.321 152.050  1.00  0.00     0.000 C 
BRANCH  19  20
ATOM     20  C   UNL     1     170.210 174.305 152.561  1.00  0.00     0.000 C 
BRANCH  20  21
ATOM     21  C   UNL     1     169.215 174.665 151.450  1.00  0.00     0.000 C 
BRANCH  21  22
ATOM     22  C   UNL     1     168.923 176.172 151.439  1.00  0.00    -0.000 C 
BRANCH  22  23
ATOM     23  C   UNL     1     167.824 176.556 150.435  1.00  0.00    -0.000 C 
BRANCH  23  24
ATOM     24  C   UNL     1     166.801 177.539 151.025  1.00  0.00    -0.000 C 
BRANCH  24  25
ATOM     25  C   UNL     1     165.369 177.120 150.668  1.00  0.00    -0.000 C 
BRANCH  25  26
ATOM     26  C   UNL     1     165.149 175.624 150.935  1.00  0.00    -0.000 C 
BRANCH  26  27
ATOM     27  C   UNL     1     163.688 175.193 150.682  1.00  0.00    -0.000 C 
BRANCH  27  28
ATOM     28  C   UNL     1     162.648 176.094 151.376  1.00  0.00    -0.000 C 
BRANCH  28  29
ATOM     29  C   UNL     1     161.291 176.177 150.658  1.00  0.00    -0.003 C 
ATOM     30  C   UNL     1     160.130 176.447 151.614  1.00  0.00     0.004 C 
ENDBRANCH  28  29
ENDBRANCH  27  28
ENDBRANCH  26  27
ENDBRANCH  25  26
ENDBRANCH  24  25
ENDBRANCH  23  24
ENDBRANCH  22  23
ENDBRANCH  21  22
ENDBRANCH  20  21
ENDBRANCH  19  20
ENDBRANCH  18  19
ENDBRANCH  17  18
ENDBRANCH   1  17
TORSDOF 26
ENDMDL
MODEL 9
REMARK VINA RESULT:    -4.329      4.973     10.779
REMARK INTER + INTRA:         -14.358
REMARK INTER:                  -8.988
REMARK INTRA:                  -5.370
REMARK UNBOUND:                -3.449
REMARK SMILES CCCCCCCCCCCCCCCCCCCCCCCCCCCC(=O)[O-]
REMARK SMILES IDX 15 1 16 2 17 3 18 4 19 5 20 6 21 7 22 8 23 9 24 10 25 11
REMARK SMILES IDX 26 12 27 13 28 14 29 15 30 16 14 17 13 18 12 19 11 20 10 21
REMARK SMILES IDX 9 22 8 23 7 24 6 25 5 26 4 27 3 28 2 29 1 30
REMARK H PARENT
REMARK Flexibility Score: inf
ROOT
ATOM      1  C   UNL     1     175.805 174.786 151.711  1.00  0.00     0.000 C 
ENDROOT
BRANCH   1   2
ATOM      2  C   UNL     1     177.139 174.284 151.123  1.00  0.00     0.000 C 
BRANCH   2   3
ATOM      3  C   UNL     1     177.000 173.336 149.914  1.00  0.00     0.000 C 
BRANCH   3   4
ATOM      4  C   UNL     1     176.465 171.929 150.249  1.00  0.00     0.000 C 
BRANCH   4   5
ATOM      5  C   UNL     1     175.094 171.591 149.630  1.00  0.00     0.000 C 
BRANCH   5   6
ATOM      6  C   UNL     1     173.988 171.235 150.646  1.00  0.00     0.000 C 
BRANCH   6   7
ATOM      7  C   UNL     1     173.030 172.387 150.998  1.00  0.00     0.000 C 
BRANCH   7   8
ATOM      8  C   UNL     1     172.706 172.454 152.499  1.00  0.00     0.000 C 
BRANCH   8   9
ATOM      9  C   UNL     1     172.463 173.890 152.994  1.00  0.00     0.000 C 
BRANCH   9  10
ATOM     10  C   UNL     1     171.739 174.784 151.963  1.00  0.00     0.000 C 
BRANCH  10  11
ATOM     11  C   UNL     1     170.633 175.633 152.613  1.00  0.00     0.000 C 
BRANCH  11  12
ATOM     12  C   UNL     1     170.124 176.754 151.693  1.00  0.00     0.006 C 
BRANCH  12  13
ATOM     13  C   UNL     1     168.605 176.951 151.782  1.00  0.00     0.053 C 
BRANCH  13  14
ATOM     14  C   UNL     1     167.933 176.410 150.560  1.00  0.00     0.041 C 
ATOM     15  O   UNL     1     168.043 175.191 150.263  1.00  0.00    -0.550 OA
ATOM     16  O   UNL     1     167.207 177.259 149.732  1.00  0.00    -0.550 OA
ENDBRANCH  13  14
ENDBRANCH  12  13
ENDBRANCH  11  12
ENDBRANCH  10  11
ENDBRANCH   9  10
ENDBRANCH   8   9
ENDBRANCH   7   8
ENDBRANCH   6   7
ENDBRANCH   5   6
ENDBRANCH   4   5
ENDBRANCH   3   4
ENDBRANCH   2   3
ENDBRANCH   1   2
BRANCH   1  17
ATOM     17  C   UNL     1     174.922 175.581 150.729  1.00  0.00     0.000 C 
BRANCH  17  18
ATOM     18  C   UNL     1     175.102 177.112 150.782  1.00  0.00     0.000 C 
BRANCH  18  19
ATOM     19  C   UNL     1     175.174 177.711 152.199  1.00  0.00     0.000 C 
BRANCH  19  20
ATOM     20  C   UNL     1     173.790 178.000 152.797  1.00  0.00     0.000 C 
BRANCH  20  21
ATOM     21  C   UNL     1     173.605 177.269 154.132  1.00  0.00     0.000 C 
BRANCH  21  22
ATOM     22  C   UNL     1     174.959 176.858 154.727  1.00  0.00    -0.000 C 
BRANCH  22  23
ATOM     23  C   UNL     1     174.959 175.417 155.263  1.00  0.00    -0.000 C 
BRANCH  23  24
ATOM     24  C   UNL     1     176.202 175.101 156.110  1.00  0.00    -0.000 C 
BRANCH  24  25
ATOM     25  C   UNL     1     176.643 173.645 155.915  1.00  0.00    -0.000 C 
BRANCH  25  26
ATOM     26  C   UNL     1     175.862 172.979 154.773  1.00  0.00    -0.000 C 
BRANCH  26  27
ATOM     27  C   UNL     1     176.728 171.982 153.974  1.00  0.00    -0.000 C 
BRANCH  27  28
ATOM     28  C   UNL     1     176.001 170.668 153.631  1.00  0.00    -0.000 C 
BRANCH  28  29
ATOM     29  C   UNL     1     174.842 170.311 154.575  1.00  0.00    -0.003 C 
ATOM     30  C   UNL     1     174.117 169.028 154.167  1.00  0.00     0.004 C 
ENDBRANCH  28  29
ENDBRANCH  27  28
ENDBRANCH  26  27
ENDBRANCH  25  26
ENDBRANCH  24  25
ENDBRANCH  23  24
ENDBRANCH  22  23
ENDBRANCH  21  22
ENDBRANCH  20  21
ENDBRANCH  19  20
ENDBRANCH  18  19
ENDBRANCH  17  18
ENDBRANCH   1  17
TORSDOF 26
ENDMDL
