MODEL 1
REMARK VINA RESULT:    -4.453      0.000      0.000
REMARK INTER + INTRA:         -11.987
REMARK INTER:                  -9.660
REMARK INTRA:                  -2.327
REMARK UNBOUND:                -2.327
REMARK SMILES CCCCCCCCCCCCCCCCCCCCCC(=O)[O-]
REMARK SMILES IDX 12 1 11 2 10 3 9 4 8 5 7 6 6 7 5 8 4 9 3 10 2 11 1 12 13 13
REMARK SMILES IDX 14 14 15 15 16 16 17 17 18 18 19 19 20 20 21 21 22 22 23 23
REMARK SMILES IDX 24 24
REMARK H PARENT
REMARK Flexibility Score: inf
ROOT
ATOM      1  C   UNL     1      -0.166  58.451  23.430  1.00  0.00     0.000 C 
ENDROOT
BRANCH   1   2
ATOM      2  C   UNL     1       0.511  57.136  23.012  1.00  0.00     0.000 C 
BRANCH   2   3
ATOM      3  C   UNL     1       1.274  57.266  21.682  1.00  0.00     0.000 C 
BRANCH   3   4
ATOM      4  C   UNL     1       2.790  57.428  21.880  1.00  0.00    -0.000 C 
BRANCH   4   5
ATOM      5  C   UNL     1       3.159  58.762  22.554  1.00  0.00    -0.000 C 
BRANCH   5   6
ATOM      6  C   UNL     1       3.437  58.604  24.058  1.00  0.00    -0.000 C 
BRANCH   6   7
ATOM      7  C   UNL     1       3.885  57.178  24.429  1.00  0.00    -0.000 C 
BRANCH   7   8
ATOM      8  C   UNL     1       2.920  56.494  25.413  1.00  0.00    -0.000 C 
BRANCH   8   9
ATOM      9  C   UNL     1       3.024  54.960  25.366  1.00  0.00    -0.000 C 
BRANCH   9  10
ATOM     10  C   UNL     1       3.372  54.424  23.965  1.00  0.00    -0.000 C 
BRANCH  10  11
ATOM     11  C   UNL     1       2.169  53.948  23.133  1.00  0.00    -0.003 C 
ATOM     12  C   UNL     1       2.511  53.719  21.662  1.00  0.00     0.004 C 
ENDBRANCH  10  11
ENDBRANCH   9  10
ENDBRANCH   8   9
ENDBRANCH   7   8
ENDBRANCH   6   7
ENDBRANCH   5   6
ENDBRANCH   4   5
ENDBRANCH   3   4
ENDBRANCH   2   3
ENDBRANCH   1   2
BRANCH   1  13
ATOM     13  C   UNL     1       0.006  58.758  24.928  1.00  0.00     0.000 C 
BRANCH  13  14
ATOM     14  C   UNL     1       0.107  60.264  25.215  1.00  0.00     0.000 C 
BRANCH  14  15
ATOM     15  C   UNL     1      -0.199  61.120  23.971  1.00  0.00     0.000 C 
BRANCH  15  16
ATOM     16  C   UNL     1      -0.172  62.628  24.267  1.00  0.00     0.000 C 
BRANCH  16  17
ATOM     17  C   UNL     1      -0.986  63.447  23.250  1.00  0.00     0.000 C 
BRANCH  17  18
ATOM     18  C   UNL     1      -0.947  64.960  23.530  1.00  0.00     0.000 C 
BRANCH  18  19
ATOM     19  C   UNL     1      -1.079  65.862  22.289  1.00  0.00     0.000 C 
BRANCH  19  20
ATOM     20  C   UNL     1      -2.371  66.696  22.287  1.00  0.00     0.006 C 
BRANCH  20  21
ATOM     21  C   UNL     1      -3.443  66.107  23.215  1.00  0.00     0.053 C 
BRANCH  21  22
ATOM     22  C   UNL     1      -4.509  65.386  22.448  1.00  0.00     0.041 C 
ATOM     23  O   UNL     1      -5.075  65.947  21.471  1.00  0.00    -0.550 OA
ATOM     24  O   UNL     1      -4.860  64.087  22.794  1.00  0.00    -0.550 OA
ENDBRANCH  21  22
ENDBRANCH  20  21
ENDBRANCH  19  20
ENDBRANCH  18  19
ENDBRANCH  17  18
ENDBRANCH  16  17
ENDBRANCH  15  16
ENDBRANCH  14  15
ENDBRANCH  13  14
ENDBRANCH   1  13
TORSDOF 20
ENDMDL
MODEL 2
REMARK VINA RESULT:    -4.340      6.650     12.235
REMARK INTER + INTRA:         -11.742
REMARK INTER:                  -9.940
REMARK INTRA:                  -1.802
REMARK UNBOUND:                -2.327
REMARK SMILES CCCCCCCCCCCCCCCCCCCCCC(=O)[O-]
REMARK SMILES IDX 12 1 11 2 10 3 9 4 8 5 7 6 6 7 5 8 4 9 3 10 2 11 1 12 13 13
REMARK SMILES IDX 14 14 15 15 16 16 17 17 18 18 19 19 20 20 21 21 22 22 23 23
REMARK SMILES IDX 24 24
REMARK H PARENT
REMARK Flexibility Score: inf
ROOT
ATOM      1  C   UNL     1       2.488  54.182  20.971  1.00  0.00     0.000 C 
ENDROOT
BRANCH   1   2
ATOM      2  C   UNL     1       2.350  55.694  20.732  1.00  0.00     0.000 C 
BRANCH   2   3
ATOM      3  C   UNL     1       1.973  56.459  22.013  1.00  0.00     0.000 C 
BRANCH   3   4
ATOM      4  C   UNL     1       2.806  57.736  22.210  1.00  0.00    -0.000 C 
BRANCH   4   5
ATOM      5  C   UNL     1       3.476  57.797  23.595  1.00  0.00    -0.000 C 
BRANCH   5   6
ATOM      6  C   UNL     1       2.938  56.726  24.557  1.00  0.00    -0.000 C 
BRANCH   6   7
ATOM      7  C   UNL     1       1.980  57.307  25.614  1.00  0.00    -0.000 C 
BRANCH   7   8
ATOM      8  C   UNL     1       0.599  57.653  25.033  1.00  0.00    -0.000 C 
BRANCH   8   9
ATOM      9  C   UNL     1       0.255  59.144  25.182  1.00  0.00    -0.000 C 
BRANCH   9  10
ATOM     10  C   UNL     1       0.412  59.930  23.867  1.00  0.00    -0.000 C 
BRANCH  10  11
ATOM     11  C   UNL     1       1.148  61.276  23.998  1.00  0.00    -0.003 C 
ATOM     12  C   UNL     1       2.488  61.300  23.264  1.00  0.00     0.004 C 
ENDBRANCH  10  11
ENDBRANCH   9  10
ENDBRANCH   8   9
ENDBRANCH   7   8
ENDBRANCH   6   7
ENDBRANCH   5   6
ENDBRANCH   4   5
ENDBRANCH   3   4
ENDBRANCH   2   3
ENDBRANCH   1   2
BRANCH   1  13
ATOM     13  C   UNL     1       2.156  53.777  22.418  1.00  0.00     0.000 C 
BRANCH  13  14
ATOM     14  C   UNL     1       1.401  52.440  22.499  1.00  0.00     0.000 C 
BRANCH  14  15
ATOM     15  C   UNL     1       2.336  51.258  22.814  1.00  0.00     0.000 C 
BRANCH  15  16
ATOM     16  C   UNL     1       1.597  49.910  22.850  1.00  0.00     0.000 C 
BRANCH  16  17
ATOM     17  C   UNL     1       2.556  48.709  22.919  1.00  0.00     0.000 C 
BRANCH  17  18
ATOM     18  C   UNL     1       2.154  47.682  23.993  1.00  0.00     0.000 C 
BRANCH  18  19
ATOM     19  C   UNL     1       3.069  47.633  25.230  1.00  0.00     0.000 C 
BRANCH  19  20
ATOM     20  C   UNL     1       4.540  47.353  24.879  1.00  0.00     0.006 C 
BRANCH  20  21
ATOM     21  C   UNL     1       5.508  47.990  25.886  1.00  0.00     0.053 C 
BRANCH  21  22
ATOM     22  C   UNL     1       6.633  48.705  25.202  1.00  0.00     0.041 C 
ATOM     23  O   UNL     1       6.733  48.672  23.946  1.00  0.00    -0.550 OA
ATOM     24  O   UNL     1       7.554  49.430  25.948  1.00  0.00    -0.550 OA
ENDBRANCH  21  22
ENDBRANCH  20  21
ENDBRANCH  19  20
ENDBRANCH  18  19
ENDBRANCH  17  18
ENDBRANCH  16  17
ENDBRANCH  15  16
ENDBRANCH  14  15
ENDBRANCH  13  14
ENDBRANCH   1  13
TORSDOF 20
ENDMDL
MODEL 3
REMARK VINA RESULT:    -4.338      4.564      7.937
REMARK INTER + INTRA:         -11.738
REMARK INTER:                 -10.181
REMARK INTRA:                  -1.557
REMARK UNBOUND:                -2.327
REMARK SMILES CCCCCCCCCCCCCCCCCCCCCC(=O)[O-]
REMARK SMILES IDX 12 1 11 2 10 3 9 4 8 5 7 6 6 7 5 8 4 9 3 10 2 11 1 12 13 13
REMARK SMILES IDX 14 14 15 15 16 16 17 17 18 18 19 19 20 20 21 21 22 22 23 23
REMARK SMILES IDX 24 24
REMARK H PARENT
REMARK Flexibility Score: inf
ROOT
ATOM      1  C   UNL     1       2.370  53.084  22.125  1.00  0.00     0.000 C 
ENDROOT
BRANCH   1   2
ATOM      2  C   UNL     1       1.525  51.860  22.516  1.00  0.00     0.000 C 
BRANCH   2   3
ATOM      3  C   UNL     1       2.391  50.647  22.896  1.00  0.00     0.000 C 
BRANCH   3   4
ATOM      4  C   UNL     1       1.601  49.328  22.893  1.00  0.00    -0.000 C 
BRANCH   4   5
ATOM      5  C   UNL     1       2.477  48.113  23.253  1.00  0.00    -0.000 C 
BRANCH   5   6
ATOM      6  C   UNL     1       2.176  47.566  24.657  1.00  0.00    -0.000 C 
BRANCH   6   7
ATOM      7  C   UNL     1       3.366  47.723  25.622  1.00  0.00    -0.000 C 
BRANCH   7   8
ATOM      8  C   UNL     1       4.717  47.772  24.889  1.00  0.00    -0.000 C 
BRANCH   8   9
ATOM      9  C   UNL     1       5.423  49.130  25.047  1.00  0.00    -0.000 C 
BRANCH   9  10
ATOM     10  C   UNL     1       6.925  49.067  24.714  1.00  0.00    -0.000 C 
BRANCH  10  11
ATOM     11  C   UNL     1       7.867  49.406  25.883  1.00  0.00    -0.003 C 
ATOM     12  C   UNL     1       7.499  48.682  27.177  1.00  0.00     0.004 C 
ENDBRANCH  10  11
ENDBRANCH   9  10
ENDBRANCH   8   9
ENDBRANCH   7   8
ENDBRANCH   6   7
ENDBRANCH   5   6
ENDBRANCH   4   5
ENDBRANCH   3   4
ENDBRANCH   2   3
ENDBRANCH   1   2
BRANCH   1  13
ATOM     13  C   UNL     1       2.223  54.249  23.119  1.00  0.00     0.000 C 
BRANCH  13  14
ATOM     14  C   UNL     1       3.437  54.387  24.051  1.00  0.00     0.000 C 
BRANCH  14  15
ATOM     15  C   UNL     1       3.075  55.056  25.390  1.00  0.00     0.000 C 
BRANCH  15  16
ATOM     16  C   UNL     1       2.713  56.542  25.232  1.00  0.00     0.000 C 
BRANCH  16  17
ATOM     17  C   UNL     1       3.750  57.321  24.405  1.00  0.00     0.000 C 
BRANCH  17  18
ATOM     18  C   UNL     1       3.112  58.380  23.488  1.00  0.00     0.000 C 
BRANCH  18  19
ATOM     19  C   UNL     1       2.029  57.852  22.529  1.00  0.00     0.000 C 
BRANCH  19  20
ATOM     20  C   UNL     1       0.612  57.928  23.122  1.00  0.00     0.006 C 
BRANCH  20  21
ATOM     21  C   UNL     1       0.177  59.374  23.401  1.00  0.00     0.053 C 
BRANCH  21  22
ATOM     22  C   UNL     1       0.047  59.644  24.869  1.00  0.00     0.041 C 
ATOM     23  O   UNL     1       0.114  60.825  25.304  1.00  0.00    -0.550 OA
ATOM     24  O   UNL     1      -0.175  58.595  25.754  1.00  0.00    -0.550 OA
ENDBRANCH  21  22
ENDBRANCH  20  21
ENDBRANCH  19  20
ENDBRANCH  18  19
ENDBRANCH  17  18
ENDBRANCH  16  17
ENDBRANCH  15  16
ENDBRANCH  14  15
ENDBRANCH  13  14
ENDBRANCH   1  13
TORSDOF 20
ENDMDL
MODEL 4
REMARK VINA RESULT:    -4.311      1.166      2.771
REMARK INTER + INTRA:         -11.679
REMARK INTER:                 -10.086
REMARK INTRA:                  -1.592
REMARK UNBOUND:                -2.327
REMARK SMILES CCCCCCCCCCCCCCCCCCCCCC(=O)[O-]
REMARK SMILES IDX 12 1 11 2 10 3 9 4 8 5 7 6 6 7 5 8 4 9 3 10 2 11 1 12 13 13
REMARK SMILES IDX 14 14 15 15 16 16 17 17 18 18 19 19 20 20 21 21 22 22 23 23
REMARK SMILES IDX 24 24
REMARK H PARENT
REMARK Flexibility Score: inf
ROOT
ATOM      1  C   UNL     1       0.140  60.490  23.978  1.00  0.00     0.000 C 
ENDROOT
BRANCH   1   2
ATOM      2  C   UNL     1      -0.170  60.107  25.434  1.00  0.00     0.000 C 
BRANCH   2   3
ATOM      3  C   UNL     1      -0.125  58.586  25.662  1.00  0.00     0.000 C 
BRANCH   3   4
ATOM      4  C   UNL     1       0.724  57.851  24.611  1.00  0.00    -0.000 C 
BRANCH   4   5
ATOM      5  C   UNL     1       2.059  57.338  25.182  1.00  0.00    -0.000 C 
BRANCH   5   6
ATOM      6  C   UNL     1       3.275  57.898  24.428  1.00  0.00    -0.000 C 
BRANCH   6   7
ATOM      7  C   UNL     1       2.878  58.680  23.162  1.00  0.00    -0.000 C 
BRANCH   7   8
ATOM      8  C   UNL     1       3.109  57.875  21.873  1.00  0.00    -0.000 C 
BRANCH   8   9
ATOM      9  C   UNL     1       1.945  56.918  21.560  1.00  0.00    -0.000 C 
BRANCH   9  10
ATOM     10  C   UNL     1       2.399  55.457  21.392  1.00  0.00    -0.000 C 
BRANCH  10  11
ATOM     11  C   UNL     1       2.310  54.597  22.665  1.00  0.00    -0.003 C 
ATOM     12  C   UNL     1       2.031  53.123  22.374  1.00  0.00     0.004 C 
ENDBRANCH  10  11
ENDBRANCH   9  10
ENDBRANCH   8   9
ENDBRANCH   7   8
ENDBRANCH   6   7
ENDBRANCH   5   6
ENDBRANCH   4   5
ENDBRANCH   3   4
ENDBRANCH   2   3
ENDBRANCH   1   2
BRANCH   1  13
ATOM     13  C   UNL     1      -0.726  61.658  23.475  1.00  0.00     0.000 C 
BRANCH  13  14
ATOM     14  C   UNL     1      -0.252  63.018  24.011  1.00  0.00     0.000 C 
BRANCH  14  15
ATOM     15  C   UNL     1      -0.830  64.198  23.208  1.00  0.00     0.000 C 
BRANCH  15  16
ATOM     16  C   UNL     1      -0.983  65.473  24.054  1.00  0.00     0.000 C 
BRANCH  16  17
ATOM     17  C   UNL     1      -0.317  66.699  23.405  1.00  0.00     0.000 C 
BRANCH  17  18
ATOM     18  C   UNL     1      -0.175  66.566  21.878  1.00  0.00     0.000 C 
BRANCH  18  19
ATOM     19  C   UNL     1      -1.352  67.125  21.057  1.00  0.00     0.000 C 
BRANCH  19  20
ATOM     20  C   UNL     1      -2.569  66.184  21.034  1.00  0.00     0.006 C 
BRANCH  20  21
ATOM     21  C   UNL     1      -3.734  66.721  21.878  1.00  0.00     0.053 C 
BRANCH  21  22
ATOM     22  C   UNL     1      -4.278  65.677  22.804  1.00  0.00     0.041 C 
ATOM     23  O   UNL     1      -4.369  64.479  22.425  1.00  0.00    -0.550 OA
ATOM     24  O   UNL     1      -4.661  66.022  24.095  1.00  0.00    -0.550 OA
ENDBRANCH  21  22
ENDBRANCH  20  21
ENDBRANCH  19  20
ENDBRANCH  18  19
ENDBRANCH  17  18
ENDBRANCH  16  17
ENDBRANCH  15  16
ENDBRANCH  14  15
ENDBRANCH  13  14
ENDBRANCH   1  13
TORSDOF 20
ENDMDL
MODEL 5
REMARK VINA RESULT:    -4.299      7.062     12.886
REMARK INTER + INTRA:         -11.652
REMARK INTER:                 -10.039
REMARK INTRA:                  -1.613
REMARK UNBOUND:                -2.327
REMARK SMILES CCCCCCCCCCCCCCCCCCCCCC(=O)[O-]
REMARK SMILES IDX 12 1 11 2 10 3 9 4 8 5 7 6 6 7 5 8 4 9 3 10 2 11 1 12 13 13
REMARK SMILES IDX 14 14 15 15 16 16 17 17 18 18 19 19 20 20 21 21 22 22 23 23
REMARK SMILES IDX 24 24
REMARK H PARENT
REMARK Flexibility Score: inf
ROOT
ATOM      1  C   UNL     1       1.602  51.853  22.486  1.00  0.00     0.000 C 
ENDROOT
BRANCH   1   2
ATOM      2  C   UNL     1       2.403  53.144  22.250  1.00  0.00     0.000 C 
BRANCH   2   3
ATOM      3  C   UNL     1       2.030  54.256  23.246  1.00  0.00     0.000 C 
BRANCH   3   4
ATOM      4  C   UNL     1       3.233  54.746  24.069  1.00  0.00    -0.000 C 
BRANCH   4   5
ATOM      5  C   UNL     1       2.811  55.439  25.377  1.00  0.00    -0.000 C 
BRANCH   5   6
ATOM      6  C   UNL     1       2.760  56.969  25.242  1.00  0.00    -0.000 C 
BRANCH   6   7
ATOM      7  C   UNL     1       3.611  57.488  24.068  1.00  0.00    -0.000 C 
BRANCH   7   8
ATOM      8  C   UNL     1       2.754  58.010  22.903  1.00  0.00    -0.000 C 
BRANCH   8   9
ATOM      9  C   UNL     1       1.375  58.511  23.365  1.00  0.00    -0.000 C 
BRANCH   9  10
ATOM     10  C   UNL     1       1.345  60.027  23.630  1.00  0.00    -0.000 C 
BRANCH  10  11
ATOM     11  C   UNL     1       0.099  60.533  24.377  1.00  0.00    -0.003 C 
ATOM     12  C   UNL     1      -0.627  61.657  23.639  1.00  0.00     0.004 C 
ENDBRANCH  10  11
ENDBRANCH   9  10
ENDBRANCH   8   9
ENDBRANCH   7   8
ENDBRANCH   6   7
ENDBRANCH   5   6
ENDBRANCH   4   5
ENDBRANCH   3   4
ENDBRANCH   2   3
ENDBRANCH   1   2
BRANCH   1  13
ATOM     13  C   UNL     1       2.496  50.664  22.878  1.00  0.00     0.000 C 
BRANCH  13  14
ATOM     14  C   UNL     1       1.733  49.329  22.886  1.00  0.00     0.000 C 
BRANCH  14  15
ATOM     15  C   UNL     1       2.583  48.165  22.345  1.00  0.00     0.000 C 
BRANCH  15  16
ATOM     16  C   UNL     1       2.732  47.018  23.358  1.00  0.00     0.000 C 
BRANCH  16  17
ATOM     17  C   UNL     1       2.212  47.392  24.757  1.00  0.00     0.000 C 
BRANCH  17  18
ATOM     18  C   UNL     1       3.343  47.649  25.768  1.00  0.00     0.000 C 
BRANCH  18  19
ATOM     19  C   UNL     1       4.766  47.637  25.179  1.00  0.00     0.000 C 
BRANCH  19  20
ATOM     20  C   UNL     1       5.409  49.034  25.131  1.00  0.00     0.006 C 
BRANCH  20  21
ATOM     21  C   UNL     1       6.867  48.985  24.654  1.00  0.00     0.053 C 
BRANCH  21  22
ATOM     22  C   UNL     1       7.827  49.278  25.765  1.00  0.00     0.041 C 
ATOM     23  O   UNL     1       8.825  50.020  25.561  1.00  0.00    -0.550 OA
ATOM     24  O   UNL     1       7.607  48.754  27.034  1.00  0.00    -0.550 OA
ENDBRANCH  21  22
ENDBRANCH  20  21
ENDBRANCH  19  20
ENDBRANCH  18  19
ENDBRANCH  17  18
ENDBRANCH  16  17
ENDBRANCH  15  16
ENDBRANCH  14  15
ENDBRANCH  13  14
ENDBRANCH   1  13
TORSDOF 20
ENDMDL
MODEL 6
REMARK VINA RESULT:    -4.276      5.062      8.439
REMARK INTER + INTRA:         -11.603
REMARK INTER:                  -9.715
REMARK INTRA:                  -1.888
REMARK UNBOUND:                -2.327
REMARK SMILES CCCCCCCCCCCCCCCCCCCCCC(=O)[O-]
REMARK SMILES IDX 12 1 11 2 10 3 9 4 8 5 7 6 6 7 5 8 4 9 3 10 2 11 1 12 13 13
REMARK SMILES IDX 14 14 15 15 16 16 17 17 18 18 19 19 20 20 21 21 22 22 23 23
REMARK SMILES IDX 24 24
REMARK H PARENT
REMARK Flexibility Score: inf
ROOT
ATOM      1  C   UNL     1       2.514  51.648  22.846  1.00  0.00     0.000 C 
ENDROOT
BRANCH   1   2
ATOM      2  C   UNL     1       1.599  50.413  22.849  1.00  0.00     0.000 C 
BRANCH   2   3
ATOM      3  C   UNL     1       2.385  49.101  22.683  1.00  0.00     0.000 C 
BRANCH   3   4
ATOM      4  C   UNL     1       1.478  47.859  22.688  1.00  0.00    -0.000 C 
BRANCH   4   5
ATOM      5  C   UNL     1       1.523  47.100  24.027  1.00  0.00    -0.000 C 
BRANCH   5   6
ATOM      6  C   UNL     1       2.953  46.945  24.568  1.00  0.00    -0.000 C 
BRANCH   6   7
ATOM      7  C   UNL     1       3.135  47.591  25.954  1.00  0.00    -0.000 C 
BRANCH   7   8
ATOM      8  C   UNL     1       4.481  48.321  26.094  1.00  0.00    -0.000 C 
BRANCH   8   9
ATOM      9  C   UNL     1       5.022  48.821  24.743  1.00  0.00    -0.000 C 
BRANCH   9  10
ATOM     10  C   UNL     1       6.468  48.366  24.471  1.00  0.00    -0.000 C 
BRANCH  10  11
ATOM     11  C   UNL     1       6.647  47.471  23.232  1.00  0.00    -0.003 C 
ATOM     12  C   UNL     1       5.699  47.834  22.090  1.00  0.00     0.004 C 
ENDBRANCH  10  11
ENDBRANCH   9  10
ENDBRANCH   8   9
ENDBRANCH   7   8
ENDBRANCH   6   7
ENDBRANCH   5   6
ENDBRANCH   4   5
ENDBRANCH   3   4
ENDBRANCH   2   3
ENDBRANCH   1   2
BRANCH   1  13
ATOM     13  C   UNL     1       1.898  52.841  22.094  1.00  0.00     0.000 C 
BRANCH  13  14
ATOM     14  C   UNL     1       2.254  54.191  22.736  1.00  0.00     0.000 C 
BRANCH  14  15
ATOM     15  C   UNL     1       3.361  54.062  23.799  1.00  0.00     0.000 C 
BRANCH  15  16
ATOM     16  C   UNL     1       3.234  55.107  24.919  1.00  0.00     0.000 C 
BRANCH  16  17
ATOM     17  C   UNL     1       2.961  56.523  24.381  1.00  0.00     0.000 C 
BRANCH  17  18
ATOM     18  C   UNL     1       2.076  57.361  25.321  1.00  0.00     0.000 C 
BRANCH  18  19
ATOM     19  C   UNL     1       0.664  57.671  24.789  1.00  0.00     0.000 C 
BRANCH  19  20
ATOM     20  C   UNL     1       0.676  58.556  23.531  1.00  0.00     0.006 C 
BRANCH  20  21
ATOM     21  C   UNL     1       1.005  60.020  23.855  1.00  0.00     0.053 C 
BRANCH  21  22
ATOM     22  C   UNL     1       2.297  60.452  23.232  1.00  0.00     0.041 C 
ATOM     23  O   UNL     1       2.730  61.621  23.418  1.00  0.00    -0.550 OA
ATOM     24  O   UNL     1       3.036  59.557  22.467  1.00  0.00    -0.550 OA
ENDBRANCH  21  22
ENDBRANCH  20  21
ENDBRANCH  19  20
ENDBRANCH  18  19
ENDBRANCH  17  18
ENDBRANCH  16  17
ENDBRANCH  15  16
ENDBRANCH  14  15
ENDBRANCH  13  14
ENDBRANCH   1  13
TORSDOF 20
ENDMDL
MODEL 7
REMARK VINA RESULT:    -4.272      4.946      8.311
REMARK INTER + INTRA:         -11.594
REMARK INTER:                  -9.804
REMARK INTRA:                  -1.790
REMARK UNBOUND:                -2.327
REMARK SMILES CCCCCCCCCCCCCCCCCCCCCC(=O)[O-]
REMARK SMILES IDX 12 1 11 2 10 3 9 4 8 5 7 6 6 7 5 8 4 9 3 10 2 11 1 12 13 13
REMARK SMILES IDX 14 14 15 15 16 16 17 17 18 18 19 19 20 20 21 21 22 22 23 23
REMARK SMILES IDX 24 24
REMARK H PARENT
REMARK Flexibility Score: inf
ROOT
ATOM      1  C   UNL     1       2.399  51.437  22.780  1.00  0.00     0.000 C 
ENDROOT
BRANCH   1   2
ATOM      2  C   UNL     1       1.478  50.207  22.800  1.00  0.00     0.000 C 
BRANCH   2   3
ATOM      3  C   UNL     1       2.250  48.900  23.053  1.00  0.00     0.000 C 
BRANCH   3   4
ATOM      4  C   UNL     1       1.735  47.730  22.199  1.00  0.00    -0.000 C 
BRANCH   4   5
ATOM      5  C   UNL     1       2.877  46.908  21.573  1.00  0.00    -0.000 C 
BRANCH   5   6
ATOM      6  C   UNL     1       4.140  47.748  21.326  1.00  0.00    -0.000 C 
BRANCH   6   7
ATOM      7  C   UNL     1       5.428  47.019  21.753  1.00  0.00    -0.000 C 
BRANCH   7   8
ATOM      8  C   UNL     1       5.606  46.980  23.280  1.00  0.00    -0.000 C 
BRANCH   8   9
ATOM      9  C   UNL     1       6.252  48.263  23.830  1.00  0.00    -0.000 C 
BRANCH   9  10
ATOM     10  C   UNL     1       5.607  48.744  25.143  1.00  0.00    -0.000 C 
BRANCH  10  11
ATOM     11  C   UNL     1       5.080  47.623  26.058  1.00  0.00    -0.003 C 
ATOM     12  C   UNL     1       3.555  47.534  26.079  1.00  0.00     0.004 C 
ENDBRANCH  10  11
ENDBRANCH   9  10
ENDBRANCH   8   9
ENDBRANCH   7   8
ENDBRANCH   6   7
ENDBRANCH   5   6
ENDBRANCH   4   5
ENDBRANCH   3   4
ENDBRANCH   2   3
ENDBRANCH   1   2
BRANCH   1  13
ATOM     13  C   UNL     1       1.643  52.740  22.466  1.00  0.00     0.000 C 
BRANCH  13  14
ATOM     14  C   UNL     1       2.498  53.993  22.713  1.00  0.00     0.000 C 
BRANCH  14  15
ATOM     15  C   UNL     1       2.354  55.032  21.585  1.00  0.00     0.000 C 
BRANCH  15  16
ATOM     16  C   UNL     1       2.037  56.440  22.113  1.00  0.00     0.000 C 
BRANCH  16  17
ATOM     17  C   UNL     1       2.420  56.620  23.592  1.00  0.00     0.000 C 
BRANCH  17  18
ATOM     18  C   UNL     1       3.249  57.892  23.846  1.00  0.00     0.000 C 
BRANCH  18  19
ATOM     19  C   UNL     1       3.022  59.036  22.841  1.00  0.00     0.000 C 
BRANCH  19  20
ATOM     20  C   UNL     1       2.261  60.227  23.447  1.00  0.00     0.006 C 
BRANCH  20  21
ATOM     21  C   UNL     1       0.747  59.979  23.504  1.00  0.00     0.053 C 
BRANCH  21  22
ATOM     22  C   UNL     1       0.247  59.899  24.914  1.00  0.00     0.041 C 
ATOM     23  O   UNL     1      -0.081  60.948  25.530  1.00  0.00    -0.550 OA
ATOM     24  O   UNL     1       0.120  58.664  25.540  1.00  0.00    -0.550 OA
ENDBRANCH  21  22
ENDBRANCH  20  21
ENDBRANCH  19  20
ENDBRANCH  18  19
ENDBRANCH  17  18
ENDBRANCH  16  17
ENDBRANCH  15  16
ENDBRANCH  14  15
ENDBRANCH  13  14
ENDBRANCH   1  13
TORSDOF 20
ENDMDL
MODEL 8
REMARK VINA RESULT:    -4.231      4.989      8.437
REMARK INTER + INTRA:         -11.506
REMARK INTER:                  -9.698
REMARK INTRA:                  -1.808
REMARK UNBOUND:                -2.327
REMARK SMILES CCCCCCCCCCCCCCCCCCCCCC(=O)[O-]
REMARK SMILES IDX 12 1 11 2 10 3 9 4 8 5 7 6 6 7 5 8 4 9 3 10 2 11 1 12 13 13
REMARK SMILES IDX 14 14 15 15 16 16 17 17 18 18 19 19 20 20 21 21 22 22 23 23
REMARK SMILES IDX 24 24
REMARK H PARENT
REMARK Flexibility Score: inf
ROOT
ATOM      1  C   UNL     1       1.663  51.084  22.789  1.00  0.00     0.000 C 
ENDROOT
BRANCH   1   2
ATOM      2  C   UNL     1       2.361  49.715  22.833  1.00  0.00     0.000 C 
BRANCH   2   3
ATOM      3  C   UNL     1       1.368  48.547  22.710  1.00  0.00     0.000 C 
BRANCH   3   4
ATOM      4  C   UNL     1       1.375  47.628  23.943  1.00  0.00    -0.000 C 
BRANCH   4   5
ATOM      5  C   UNL     1       2.799  47.243  24.385  1.00  0.00    -0.000 C 
BRANCH   5   6
ATOM      6  C   UNL     1       3.109  47.691  25.822  1.00  0.00    -0.000 C 
BRANCH   6   7
ATOM      7  C   UNL     1       4.602  48.008  26.034  1.00  0.00    -0.000 C 
BRANCH   7   8
ATOM      8  C   UNL     1       5.505  47.313  25.001  1.00  0.00    -0.000 C 
BRANCH   8   9
ATOM      9  C   UNL     1       6.466  48.293  24.306  1.00  0.00    -0.000 C 
BRANCH   9  10
ATOM     10  C   UNL     1       6.397  48.214  22.770  1.00  0.00    -0.000 C 
BRANCH  10  11
ATOM     11  C   UNL     1       5.323  47.261  22.216  1.00  0.00    -0.003 C 
ATOM     12  C   UNL     1       4.682  47.768  20.925  1.00  0.00     0.004 C 
ENDBRANCH  10  11
ENDBRANCH   9  10
ENDBRANCH   8   9
ENDBRANCH   7   8
ENDBRANCH   6   7
ENDBRANCH   5   6
ENDBRANCH   4   5
ENDBRANCH   3   4
ENDBRANCH   2   3
ENDBRANCH   1   2
BRANCH   1  13
ATOM     13  C   UNL     1       2.600  52.215  22.331  1.00  0.00     0.000 C 
BRANCH  13  14
ATOM     14  C   UNL     1       1.975  53.608  22.505  1.00  0.00     0.000 C 
BRANCH  14  15
ATOM     15  C   UNL     1       2.811  54.514  23.428  1.00  0.00     0.000 C 
BRANCH  15  16
ATOM     16  C   UNL     1       2.019  55.727  23.944  1.00  0.00     0.000 C 
BRANCH  16  17
ATOM     17  C   UNL     1       2.841  56.608  24.901  1.00  0.00     0.000 C 
BRANCH  17  18
ATOM     18  C   UNL     1       3.697  57.655  24.164  1.00  0.00     0.000 C 
BRANCH  18  19
ATOM     19  C   UNL     1       2.985  58.397  23.018  1.00  0.00     0.000 C 
BRANCH  19  20
ATOM     20  C   UNL     1       2.128  59.577  23.507  1.00  0.00     0.006 C 
BRANCH  20  21
ATOM     21  C   UNL     1       0.645  59.204  23.635  1.00  0.00     0.053 C 
BRANCH  21  22
ATOM     22  C   UNL     1       0.140  59.395  25.032  1.00  0.00     0.041 C 
ATOM     23  O   UNL     1      -0.183  58.398  25.731  1.00  0.00    -0.550 OA
ATOM     24  O   UNL     1       0.050  60.673  25.572  1.00  0.00    -0.550 OA
ENDBRANCH  21  22
ENDBRANCH  20  21
ENDBRANCH  19  20
ENDBRANCH  18  19
ENDBRANCH  17  18
ENDBRANCH  16  17
ENDBRANCH  15  16
ENDBRANCH  14  15
ENDBRANCH  13  14
ENDBRANCH   1  13
TORSDOF 20
ENDMDL
MODEL 9
REMARK VINA RESULT:    -4.158      7.177     13.049
REMARK INTER + INTRA:         -11.347
REMARK INTER:                  -9.914
REMARK INTRA:                  -1.433
REMARK UNBOUND:                -2.327
REMARK SMILES CCCCCCCCCCCCCCCCCCCCCC(=O)[O-]
REMARK SMILES IDX 12 1 11 2 10 3 9 4 8 5 7 6 6 7 5 8 4 9 3 10 2 11 1 12 13 13
REMARK SMILES IDX 14 14 15 15 16 16 17 17 18 18 19 19 20 20 21 21 22 22 23 23
REMARK SMILES IDX 24 24
REMARK H PARENT
REMARK Flexibility Score: inf
ROOT
ATOM      1  C   UNL     1       1.597  51.861  22.515  1.00  0.00     0.000 C 
ENDROOT
BRANCH   1   2
ATOM      2  C   UNL     1       2.411  53.138  22.252  1.00  0.00     0.000 C 
BRANCH   2   3
ATOM      3  C   UNL     1       2.058  54.271  23.231  1.00  0.00     0.000 C 
BRANCH   3   4
ATOM      4  C   UNL     1       3.293  54.845  23.946  1.00  0.00    -0.000 C 
BRANCH   4   5
ATOM      5  C   UNL     1       3.170  54.783  25.479  1.00  0.00    -0.000 C 
BRANCH   5   6
ATOM      6  C   UNL     1       2.782  56.136  26.095  1.00  0.00    -0.000 C 
BRANCH   6   7
ATOM      7  C   UNL     1       2.752  57.272  25.054  1.00  0.00    -0.000 C 
BRANCH   7   8
ATOM      8  C   UNL     1       1.331  57.805  24.804  1.00  0.00    -0.000 C 
BRANCH   8   9
ATOM      9  C   UNL     1       1.269  58.775  23.611  1.00  0.00    -0.000 C 
BRANCH   9  10
ATOM     10  C   UNL     1       2.635  59.399  23.274  1.00  0.00    -0.000 C 
BRANCH  10  11
ATOM     11  C   UNL     1       2.572  60.802  22.643  1.00  0.00    -0.003 C 
ATOM     12  C   UNL     1       3.179  61.886  23.531  1.00  0.00     0.004 C 
ENDBRANCH  10  11
ENDBRANCH   9  10
ENDBRANCH   8   9
ENDBRANCH   7   8
ENDBRANCH   6   7
ENDBRANCH   5   6
ENDBRANCH   4   5
ENDBRANCH   3   4
ENDBRANCH   2   3
ENDBRANCH   1   2
BRANCH   1  13
ATOM     13  C   UNL     1       2.483  50.653  22.864  1.00  0.00     0.000 C 
BRANCH  13  14
ATOM     14  C   UNL     1       1.712  49.324  22.825  1.00  0.00     0.000 C 
BRANCH  14  15
ATOM     15  C   UNL     1       2.625  48.110  23.079  1.00  0.00     0.000 C 
BRANCH  15  16
ATOM     16  C   UNL     1       2.880  47.283  21.808  1.00  0.00     0.000 C 
BRANCH  16  17
ATOM     17  C   UNL     1       4.368  46.946  21.609  1.00  0.00     0.000 C 
BRANCH  17  18
ATOM     18  C   UNL     1       5.308  47.971  22.269  1.00  0.00     0.000 C 
BRANCH  18  19
ATOM     19  C   UNL     1       6.225  47.407  23.370  1.00  0.00     0.000 C 
BRANCH  19  20
ATOM     20  C   UNL     1       5.977  48.050  24.745  1.00  0.00     0.006 C 
BRANCH  20  21
ATOM     21  C   UNL     1       6.728  49.379  24.908  1.00  0.00     0.053 C 
BRANCH  21  22
ATOM     22  C   UNL     1       7.823  49.280  25.925  1.00  0.00     0.041 C 
ATOM     23  O   UNL     1       7.575  48.847  27.082  1.00  0.00    -0.550 OA
ATOM     24  O   UNL     1       9.122  49.641  25.588  1.00  0.00    -0.550 OA
ENDBRANCH  21  22
ENDBRANCH  20  21
ENDBRANCH  19  20
ENDBRANCH  18  19
ENDBRANCH  17  18
ENDBRANCH  16  17
ENDBRANCH  15  16
ENDBRANCH  14  15
ENDBRANCH  13  14
ENDBRANCH   1  13
TORSDOF 20
ENDMDL
