MODEL 1
REMARK VINA RESULT:     3.529      0.000      0.000
REMARK INTER + INTRA:           7.191
REMARK INTER:                   9.306
REMARK INTRA:                  -2.116
REMARK UNBOUND:                -2.116
REMARK SMILES CCCCCCCCCCCCCCCCCCCCCCCCCCCCCC(=O)[O-]
REMARK SMILES IDX 16 1 17 2 18 3 19 4 20 5 21 6 22 7 23 8 24 9 25 10 26 11
REMARK SMILES IDX 27 12 28 13 29 14 30 15 31 16 32 17 15 18 14 19 13 20 12 21
REMARK SMILES IDX 11 22 10 23 9 24 8 25 7 26 6 27 5 28 4 29 3 30 2 31 1 32
REMARK H PARENT
REMARK Flexibility Score: inf
ROOT
ATOM      1  C   UNL     1       1.084  -6.148   3.128  1.00  0.00     0.000 C 
ENDROOT
BRANCH   1   2
ATOM      2  C   UNL     1       0.855  -7.254   4.171  1.00  0.00     0.000 C 
BRANCH   2   3
ATOM      3  C   UNL     1      -0.137  -8.326   3.684  1.00  0.00     0.000 C 
BRANCH   3   4
ATOM      4  C   UNL     1      -1.362  -8.476   4.611  1.00  0.00     0.000 C 
BRANCH   4   5
ATOM      5  C   UNL     1      -2.655  -8.897   3.886  1.00  0.00     0.000 C 
BRANCH   5   6
ATOM      6  C   UNL     1      -3.503  -9.956   4.615  1.00  0.00     0.000 C 
BRANCH   6   7
ATOM      7  C   UNL     1      -4.482 -10.744   3.721  1.00  0.00     0.000 C 
BRANCH   7   8
ATOM      8  C   UNL     1      -4.131 -10.762   2.219  1.00  0.00     0.000 C 
BRANCH   8   9
ATOM      9  C   UNL     1      -5.339 -10.800   1.268  1.00  0.00     0.000 C 
BRANCH   9  10
ATOM     10  C   UNL     1      -5.572  -9.457   0.555  1.00  0.00     0.000 C 
BRANCH  10  11
ATOM     11  C   UNL     1      -6.910  -8.804   0.942  1.00  0.00     0.000 C 
BRANCH  11  12
ATOM     12  C   UNL     1      -6.913  -8.275   2.388  1.00  0.00     0.000 C 
BRANCH  12  13
ATOM     13  C   UNL     1      -5.631  -7.497   2.745  1.00  0.00     0.006 C 
BRANCH  13  14
ATOM     14  C   UNL     1      -5.828  -6.443   3.845  1.00  0.00     0.053 C 
BRANCH  14  15
ATOM     15  C   UNL     1      -4.954  -5.243   3.661  1.00  0.00     0.041 C 
ATOM     16  O   UNL     1      -5.444  -4.160   3.245  1.00  0.00    -0.550 OA
ATOM     17  O   UNL     1      -3.601  -5.311   3.972  1.00  0.00    -0.550 OA
ENDBRANCH  14  15
ENDBRANCH  13  14
ENDBRANCH  12  13
ENDBRANCH  11  12
ENDBRANCH  10  11
ENDBRANCH   9  10
ENDBRANCH   8   9
ENDBRANCH   7   8
ENDBRANCH   6   7
ENDBRANCH   5   6
ENDBRANCH   4   5
ENDBRANCH   3   4
ENDBRANCH   2   3
ENDBRANCH   1   2
BRANCH   1  18
ATOM     18  C   UNL     1       0.712  -6.592   1.703  1.00  0.00     0.000 C 
BRANCH  18  19
ATOM     19  C   UNL     1       0.897  -5.476   0.658  1.00  0.00     0.000 C 
BRANCH  19  20
ATOM     20  C   UNL     1       0.270  -5.759  -0.720  1.00  0.00     0.000 C 
BRANCH  20  21
ATOM     21  C   UNL     1      -0.225  -4.487  -1.430  1.00  0.00     0.000 C 
BRANCH  21  22
ATOM     22  C   UNL     1       0.920  -3.680  -2.070  1.00  0.00     0.000 C 
BRANCH  22  23
ATOM     23  C   UNL     1       0.545  -2.257  -2.531  1.00  0.00     0.000 C 
BRANCH  23  24
ATOM     24  C   UNL     1       1.209  -1.800  -3.843  1.00  0.00    -0.000 C 
BRANCH  24  25
ATOM     25  C   UNL     1       0.186  -1.345  -4.899  1.00  0.00    -0.000 C 
BRANCH  25  26
ATOM     26  C   UNL     1       0.813  -1.163  -6.290  1.00  0.00    -0.000 C 
BRANCH  26  27
ATOM     27  C   UNL     1       1.047   0.314  -6.641  1.00  0.00    -0.000 C 
BRANCH  27  28
ATOM     28  C   UNL     1       0.255   1.234  -5.697  1.00  0.00    -0.000 C 
BRANCH  28  29
ATOM     29  C   UNL     1       0.943   2.590  -5.478  1.00  0.00    -0.000 C 
BRANCH  29  30
ATOM     30  C   UNL     1       0.064   3.777  -5.907  1.00  0.00    -0.000 C 
BRANCH  30  31
ATOM     31  C   UNL     1      -1.418   3.562  -5.566  1.00  0.00    -0.003 C 
ATOM     32  C   UNL     1      -2.331   4.598  -6.223  1.00  0.00     0.004 C 
ENDBRANCH  30  31
ENDBRANCH  29  30
ENDBRANCH  28  29
ENDBRANCH  27  28
ENDBRANCH  26  27
ENDBRANCH  25  26
ENDBRANCH  24  25
ENDBRANCH  23  24
ENDBRANCH  22  23
ENDBRANCH  21  22
ENDBRANCH  20  21
ENDBRANCH  19  20
ENDBRANCH  18  19
ENDBRANCH   1  18
TORSDOF 28
ENDMDL
MODEL 2
REMARK VINA RESULT:     3.863      3.343     11.301
REMARK INTER + INTRA:           8.069
REMARK INTER:                  10.322
REMARK INTRA:                  -2.253
REMARK UNBOUND:                -2.116
REMARK SMILES CCCCCCCCCCCCCCCCCCCCCCCCCCCCCC(=O)[O-]
REMARK SMILES IDX 16 1 17 2 18 3 19 4 20 5 21 6 22 7 23 8 24 9 25 10 26 11
REMARK SMILES IDX 27 12 28 13 29 14 30 15 31 16 32 17 15 18 14 19 13 20 12 21
REMARK SMILES IDX 11 22 10 23 9 24 8 25 7 26 6 27 5 28 4 29 3 30 2 31 1 32
REMARK H PARENT
REMARK Flexibility Score: inf
ROOT
ATOM      1  C   UNL     1      -0.035  -8.838   3.825  1.00  0.00     0.000 C 
ENDROOT
BRANCH   1   2
ATOM      2  C   UNL     1       0.067  -7.899   2.612  1.00  0.00     0.000 C 
BRANCH   2   3
ATOM      3  C   UNL     1       0.895  -6.635   2.914  1.00  0.00     0.000 C 
BRANCH   3   4
ATOM      4  C   UNL     1       1.201  -5.802   1.651  1.00  0.00     0.000 C 
BRANCH   4   5
ATOM      5  C   UNL     1       0.194  -6.004   0.502  1.00  0.00     0.000 C 
BRANCH   5   6
ATOM      6  C   UNL     1       0.688  -5.568  -0.890  1.00  0.00     0.000 C 
BRANCH   6   7
ATOM      7  C   UNL     1       0.082  -4.252  -1.420  1.00  0.00     0.000 C 
BRANCH   7   8
ATOM      8  C   UNL     1       1.052  -3.353  -2.212  1.00  0.00     0.000 C 
BRANCH   8   9
ATOM      9  C   UNL     1       0.404  -2.137  -2.895  1.00  0.00     0.000 C 
BRANCH   9  10
ATOM     10  C   UNL     1       1.094  -1.764  -4.218  1.00  0.00     0.000 C 
BRANCH  10  11
ATOM     11  C   UNL     1       0.645  -0.395  -4.757  1.00  0.00     0.000 C 
BRANCH  11  12
ATOM     12  C   UNL     1       0.389  -0.412  -6.275  1.00  0.00     0.000 C 
BRANCH  12  13
ATOM     13  C   UNL     1      -0.039   0.963  -6.825  1.00  0.00     0.006 C 
BRANCH  13  14
ATOM     14  C   UNL     1       0.770   2.140  -6.259  1.00  0.00     0.053 C 
BRANCH  14  15
ATOM     15  C   UNL     1      -0.095   3.203  -5.660  1.00  0.00     0.041 C 
ATOM     16  O   UNL     1       0.235   3.754  -4.577  1.00  0.00    -0.550 OA
ATOM     17  O   UNL     1      -1.257   3.605  -6.309  1.00  0.00    -0.550 OA
ENDBRANCH  14  15
ENDBRANCH  13  14
ENDBRANCH  12  13
ENDBRANCH  11  12
ENDBRANCH  10  11
ENDBRANCH   9  10
ENDBRANCH   8   9
ENDBRANCH   7   8
ENDBRANCH   6   7
ENDBRANCH   5   6
ENDBRANCH   4   5
ENDBRANCH   3   4
ENDBRANCH   2   3
ENDBRANCH   1   2
BRANCH   1  18
ATOM     18  C   UNL     1      -0.399  -8.093   5.121  1.00  0.00     0.000 C 
BRANCH  18  19
ATOM     19  C   UNL     1      -1.776  -7.406   5.053  1.00  0.00     0.000 C 
BRANCH  19  20
ATOM     20  C   UNL     1      -2.859  -8.187   4.286  1.00  0.00     0.000 C 
BRANCH  20  21
ATOM     21  C   UNL     1      -3.419  -9.380   5.078  1.00  0.00     0.000 C 
BRANCH  21  22
ATOM     22  C   UNL     1      -3.260 -10.718   4.331  1.00  0.00     0.000 C 
BRANCH  22  23
ATOM     23  C   UNL     1      -3.348 -10.627   2.793  1.00  0.00     0.000 C 
BRANCH  23  24
ATOM     24  C   UNL     1      -4.767 -10.766   2.212  1.00  0.00    -0.000 C 
BRANCH  24  25
ATOM     25  C   UNL     1      -5.062  -9.727   1.115  1.00  0.00    -0.000 C 
BRANCH  25  26
ATOM     26  C   UNL     1      -5.487  -8.366   1.689  1.00  0.00    -0.000 C 
BRANCH  26  27
ATOM     27  C   UNL     1      -6.940  -8.367   2.188  1.00  0.00    -0.000 C 
BRANCH  27  28
ATOM     28  C   UNL     1      -7.033  -8.950   3.606  1.00  0.00    -0.000 C 
BRANCH  28  29
ATOM     29  C   UNL     1      -7.125  -7.862   4.688  1.00  0.00    -0.000 C 
BRANCH  29  30
ATOM     30  C   UNL     1      -5.942  -6.880   4.642  1.00  0.00    -0.000 C 
BRANCH  30  31
ATOM     31  C   UNL     1      -6.376  -5.458   4.255  1.00  0.00    -0.003 C 
ATOM     32  C   UNL     1      -5.298  -4.704   3.474  1.00  0.00     0.004 C 
ENDBRANCH  30  31
ENDBRANCH  29  30
ENDBRANCH  28  29
ENDBRANCH  27  28
ENDBRANCH  26  27
ENDBRANCH  25  26
ENDBRANCH  24  25
ENDBRANCH  23  24
ENDBRANCH  22  23
ENDBRANCH  21  22
ENDBRANCH  20  21
ENDBRANCH  19  20
ENDBRANCH  18  19
ENDBRANCH   1  18
TORSDOF 28
ENDMDL
MODEL 3
REMARK VINA RESULT:     4.102      3.464     11.540
REMARK INTER + INTRA:           8.702
REMARK INTER:                  10.545
REMARK INTRA:                  -1.843
REMARK UNBOUND:                -2.116
REMARK SMILES CCCCCCCCCCCCCCCCCCCCCCCCCCCCCC(=O)[O-]
REMARK SMILES IDX 16 1 17 2 18 3 19 4 20 5 21 6 22 7 23 8 24 9 25 10 26 11
REMARK SMILES IDX 27 12 28 13 29 14 30 15 31 16 32 17 15 18 14 19 13 20 12 21
REMARK SMILES IDX 11 22 10 23 9 24 8 25 7 26 6 27 5 28 4 29 3 30 2 31 1 32
REMARK H PARENT
REMARK Flexibility Score: inf
ROOT
ATOM      1  C   UNL     1       0.802  -6.041   3.496  1.00  0.00     0.000 C 
ENDROOT
BRANCH   1   2
ATOM      2  C   UNL     1       0.788  -6.675   2.096  1.00  0.00     0.000 C 
BRANCH   2   3
ATOM      3  C   UNL     1       0.934  -5.629   0.974  1.00  0.00     0.000 C 
BRANCH   3   4
ATOM      4  C   UNL     1       0.439  -6.143  -0.394  1.00  0.00     0.000 C 
BRANCH   4   5
ATOM      5  C   UNL     1      -0.172  -5.052  -1.295  1.00  0.00     0.000 C 
BRANCH   5   6
ATOM      6  C   UNL     1       0.538  -3.686  -1.248  1.00  0.00     0.000 C 
BRANCH   6   7
ATOM      7  C   UNL     1       1.182  -3.234  -2.575  1.00  0.00     0.000 C 
BRANCH   7   8
ATOM      8  C   UNL     1       1.403  -1.715  -2.713  1.00  0.00     0.000 C 
BRANCH   8   9
ATOM      9  C   UNL     1       0.430  -0.999  -3.667  1.00  0.00     0.000 C 
BRANCH   9  10
ATOM     10  C   UNL     1      -0.185   0.265  -3.043  1.00  0.00     0.000 C 
BRANCH  10  11
ATOM     11  C   UNL     1       0.865   1.347  -2.736  1.00  0.00     0.000 C 
BRANCH  11  12
ATOM     12  C   UNL     1       1.061   2.330  -3.904  1.00  0.00     0.000 C 
BRANCH  12  13
ATOM     13  C   UNL     1       0.548   1.774  -5.247  1.00  0.00     0.006 C 
BRANCH  13  14
ATOM     14  C   UNL     1       0.203   2.859  -6.279  1.00  0.00     0.053 C 
BRANCH  14  15
ATOM     15  C   UNL     1      -0.754   3.879  -5.749  1.00  0.00     0.041 C 
ATOM     16  O   UNL     1      -1.993   3.654  -5.763  1.00  0.00    -0.550 OA
ATOM     17  O   UNL     1      -0.278   5.071  -5.214  1.00  0.00    -0.550 OA
ENDBRANCH  14  15
ENDBRANCH  13  14
ENDBRANCH  12  13
ENDBRANCH  11  12
ENDBRANCH  10  11
ENDBRANCH   9  10
ENDBRANCH   8   9
ENDBRANCH   7   8
ENDBRANCH   6   7
ENDBRANCH   5   6
ENDBRANCH   4   5
ENDBRANCH   3   4
ENDBRANCH   2   3
ENDBRANCH   1   2
BRANCH   1  18
ATOM     18  C   UNL     1       0.332  -7.015   4.591  1.00  0.00     0.000 C 
BRANCH  18  19
ATOM     19  C   UNL     1      -1.131  -6.784   5.012  1.00  0.00     0.000 C 
BRANCH  19  20
ATOM     20  C   UNL     1      -2.000  -8.053   5.082  1.00  0.00     0.000 C 
BRANCH  20  21
ATOM     21  C   UNL     1      -1.173  -9.350   5.101  1.00  0.00     0.000 C 
BRANCH  21  22
ATOM     22  C   UNL     1      -1.512 -10.289   3.928  1.00  0.00     0.000 C 
BRANCH  22  23
ATOM     23  C   UNL     1      -2.702  -9.846   3.053  1.00  0.00     0.000 C 
BRANCH  23  24
ATOM     24  C   UNL     1      -3.448 -10.988   2.339  1.00  0.00    -0.000 C 
BRANCH  24  25
ATOM     25  C   UNL     1      -4.847 -10.570   1.851  1.00  0.00    -0.000 C 
BRANCH  25  26
ATOM     26  C   UNL     1      -5.946 -10.869   2.882  1.00  0.00    -0.000 C 
BRANCH  26  27
ATOM     27  C   UNL     1      -6.454  -9.600   3.585  1.00  0.00    -0.000 C 
BRANCH  27  28
ATOM     28  C   UNL     1      -6.453  -8.402   2.622  1.00  0.00    -0.000 C 
BRANCH  28  29
ATOM     29  C   UNL     1      -5.689  -7.193   3.184  1.00  0.00    -0.000 C 
BRANCH  29  30
ATOM     30  C   UNL     1      -6.480  -6.445   4.270  1.00  0.00    -0.000 C 
BRANCH  30  31
ATOM     31  C   UNL     1      -6.256  -4.926   4.218  1.00  0.00    -0.003 C 
ATOM     32  C   UNL     1      -4.974  -4.545   3.478  1.00  0.00     0.004 C 
ENDBRANCH  30  31
ENDBRANCH  29  30
ENDBRANCH  28  29
ENDBRANCH  27  28
ENDBRANCH  26  27
ENDBRANCH  25  26
ENDBRANCH  24  25
ENDBRANCH  23  24
ENDBRANCH  22  23
ENDBRANCH  21  22
ENDBRANCH  20  21
ENDBRANCH  19  20
ENDBRANCH  18  19
ENDBRANCH   1  18
TORSDOF 28
ENDMDL
MODEL 4
REMARK VINA RESULT:     4.349      3.454     11.864
REMARK INTER + INTRA:           9.351
REMARK INTER:                   8.847
REMARK INTRA:                   0.504
REMARK UNBOUND:                -2.116
REMARK SMILES CCCCCCCCCCCCCCCCCCCCCCCCCCCCCC(=O)[O-]
REMARK SMILES IDX 16 1 17 2 18 3 19 4 20 5 21 6 22 7 23 8 24 9 25 10 26 11
REMARK SMILES IDX 27 12 28 13 29 14 30 15 31 16 32 17 15 18 14 19 13 20 12 21
REMARK SMILES IDX 11 22 10 23 9 24 8 25 7 26 6 27 5 28 4 29 3 30 2 31 1 32
REMARK H PARENT
REMARK Flexibility Score: inf
ROOT
ATOM      1  C   UNL     1       0.854  -5.857   2.927  1.00  0.00     0.000 C 
ENDROOT
BRANCH   1   2
ATOM      2  C   UNL     1       0.763  -6.329   1.467  1.00  0.00     0.000 C 
BRANCH   2   3
ATOM      3  C   UNL     1       0.776  -5.157   0.467  1.00  0.00     0.000 C 
BRANCH   3   4
ATOM      4  C   UNL     1       0.432  -5.593  -0.973  1.00  0.00     0.000 C 
BRANCH   4   5
ATOM      5  C   UNL     1      -0.543  -4.648  -1.703  1.00  0.00     0.000 C 
BRANCH   5   6
ATOM      6  C   UNL     1      -0.104  -3.174  -1.770  1.00  0.00     0.000 C 
BRANCH   6   7
ATOM      7  C   UNL     1       1.072  -2.881  -2.724  1.00  0.00     0.000 C 
BRANCH   7   8
ATOM      8  C   UNL     1       0.906  -1.627  -3.606  1.00  0.00     0.000 C 
BRANCH   8   9
ATOM      9  C   UNL     1       1.315  -1.807  -5.079  1.00  0.00     0.000 C 
BRANCH   9  10
ATOM     10  C   UNL     1       0.401  -1.032  -6.044  1.00  0.00     0.000 C 
BRANCH  10  11
ATOM     11  C   UNL     1       1.102   0.179  -6.682  1.00  0.00     0.000 C 
BRANCH  11  12
ATOM     12  C   UNL     1       0.326   1.492  -6.470  1.00  0.00     0.000 C 
BRANCH  12  13
ATOM     13  C   UNL     1       1.146   2.555  -5.712  1.00  0.00     0.006 C 
BRANCH  13  14
ATOM     14  C   UNL     1       0.325   3.366  -4.696  1.00  0.00     0.053 C 
BRANCH  14  15
ATOM     15  C   UNL     1      -0.749   4.184  -5.340  1.00  0.00     0.041 C 
ATOM     16  O   UNL     1      -0.487   5.329  -5.795  1.00  0.00    -0.550 OA
ATOM     17  O   UNL     1      -2.037   3.674  -5.462  1.00  0.00    -0.550 OA
ENDBRANCH  14  15
ENDBRANCH  13  14
ENDBRANCH  12  13
ENDBRANCH  11  12
ENDBRANCH  10  11
ENDBRANCH   9  10
ENDBRANCH   8   9
ENDBRANCH   7   8
ENDBRANCH   6   7
ENDBRANCH   5   6
ENDBRANCH   4   5
ENDBRANCH   3   4
ENDBRANCH   2   3
ENDBRANCH   1   2
BRANCH   1  18
ATOM     18  C   UNL     1       0.853  -7.026   3.927  1.00  0.00     0.000 C 
BRANCH  18  19
ATOM     19  C   UNL     1      -0.463  -7.137   4.720  1.00  0.00     0.000 C 
BRANCH  19  20
ATOM     20  C   UNL     1      -0.902  -8.574   5.060  1.00  0.00     0.000 C 
BRANCH  20  21
ATOM     21  C   UNL     1      -0.473  -9.603   4.000  1.00  0.00     0.000 C 
BRANCH  21  22
ATOM     22  C   UNL     1      -1.626 -10.529   3.570  1.00  0.00     0.000 C 
BRANCH  22  23
ATOM     23  C   UNL     1      -3.035  -9.905   3.645  1.00  0.00     0.000 C 
BRANCH  23  24
ATOM     24  C   UNL     1      -3.132  -8.611   4.474  1.00  0.00    -0.000 C 
BRANCH  24  25
ATOM     25  C   UNL     1      -4.579  -8.269   4.871  1.00  0.00    -0.000 C 
BRANCH  25  26
ATOM     26  C   UNL     1      -5.254  -7.314   3.874  1.00  0.00    -0.000 C 
BRANCH  26  27
ATOM     27  C   UNL     1      -6.547  -7.899   3.284  1.00  0.00    -0.000 C 
BRANCH  27  28
ATOM     28  C   UNL     1      -6.347  -9.366   2.874  1.00  0.00    -0.000 C 
BRANCH  28  29
ATOM     29  C   UNL     1      -7.114  -9.731   1.593  1.00  0.00    -0.000 C 
BRANCH  29  30
ATOM     30  C   UNL     1      -6.750  -8.824   0.406  1.00  0.00    -0.000 C 
BRANCH  30  31
ATOM     31  C   UNL     1      -6.300  -9.623  -0.827  1.00  0.00    -0.003 C 
ATOM     32  C   UNL     1      -6.914 -11.022  -0.879  1.00  0.00     0.004 C 
ENDBRANCH  30  31
ENDBRANCH  29  30
ENDBRANCH  28  29
ENDBRANCH  27  28
ENDBRANCH  26  27
ENDBRANCH  25  26
ENDBRANCH  24  25
ENDBRANCH  23  24
ENDBRANCH  22  23
ENDBRANCH  21  22
ENDBRANCH  20  21
ENDBRANCH  19  20
ENDBRANCH  18  19
ENDBRANCH   1  18
TORSDOF 28
ENDMDL
MODEL 5
REMARK VINA RESULT:     4.672      1.375      2.409
REMARK INTER + INTRA:          10.203
REMARK INTER:                  12.389
REMARK INTRA:                  -2.185
REMARK UNBOUND:                -2.116
REMARK SMILES CCCCCCCCCCCCCCCCCCCCCCCCCCCCCC(=O)[O-]
REMARK SMILES IDX 16 1 17 2 18 3 19 4 20 5 21 6 22 7 23 8 24 9 25 10 26 11
REMARK SMILES IDX 27 12 28 13 29 14 30 15 31 16 32 17 15 18 14 19 13 20 12 21
REMARK SMILES IDX 11 22 10 23 9 24 8 25 7 26 6 27 5 28 4 29 3 30 2 31 1 32
REMARK H PARENT
REMARK Flexibility Score: inf
ROOT
ATOM      1  C   UNL     1       1.010  -5.799   2.872  1.00  0.00     0.000 C 
ENDROOT
BRANCH   1   2
ATOM      2  C   UNL     1       0.837  -6.857   3.973  1.00  0.00     0.000 C 
BRANCH   2   3
ATOM      3  C   UNL     1      -0.475  -6.679   4.760  1.00  0.00     0.000 C 
BRANCH   3   4
ATOM      4  C   UNL     1      -1.159  -8.020   5.099  1.00  0.00     0.000 C 
BRANCH   4   5
ATOM      5  C   UNL     1      -2.207  -8.473   4.063  1.00  0.00     0.000 C 
BRANCH   5   6
ATOM      6  C   UNL     1      -1.665  -9.351   2.920  1.00  0.00     0.000 C 
BRANCH   6   7
ATOM      7  C   UNL     1      -2.049 -10.843   2.998  1.00  0.00     0.000 C 
BRANCH   7   8
ATOM      8  C   UNL     1      -3.518 -11.125   3.373  1.00  0.00     0.000 C 
BRANCH   8   9
ATOM      9  C   UNL     1      -4.552 -10.707   2.313  1.00  0.00     0.000 C 
BRANCH   9  10
ATOM     10  C   UNL     1      -5.998 -10.791   2.834  1.00  0.00     0.000 C 
BRANCH  10  11
ATOM     11  C   UNL     1      -6.076 -10.796   4.370  1.00  0.00     0.000 C 
BRANCH  11  12
ATOM     12  C   UNL     1      -6.186  -9.379   4.962  1.00  0.00     0.000 C 
BRANCH  12  13
ATOM     13  C   UNL     1      -7.114  -8.459   4.144  1.00  0.00     0.006 C 
BRANCH  13  14
ATOM     14  C   UNL     1      -6.378  -7.594   3.109  1.00  0.00     0.053 C 
BRANCH  14  15
ATOM     15  C   UNL     1      -5.784  -6.358   3.705  1.00  0.00     0.041 C 
ATOM     16  O   UNL     1      -4.539  -6.173   3.671  1.00  0.00    -0.550 OA
ATOM     17  O   UNL     1      -6.607  -5.394   4.278  1.00  0.00    -0.550 OA
ENDBRANCH  14  15
ENDBRANCH  13  14
ENDBRANCH  12  13
ENDBRANCH  11  12
ENDBRANCH  10  11
ENDBRANCH   9  10
ENDBRANCH   8   9
ENDBRANCH   7   8
ENDBRANCH   6   7
ENDBRANCH   5   6
ENDBRANCH   4   5
ENDBRANCH   3   4
ENDBRANCH   2   3
ENDBRANCH   1   2
BRANCH   1  18
ATOM     18  C   UNL     1       0.732  -6.357   1.465  1.00  0.00     0.000 C 
BRANCH  18  19
ATOM     19  C   UNL     1       0.766  -5.273   0.371  1.00  0.00     0.000 C 
BRANCH  19  20
ATOM     20  C   UNL     1      -0.194  -5.506  -0.810  1.00  0.00     0.000 C 
BRANCH  20  21
ATOM     21  C   UNL     1       0.099  -4.596  -2.014  1.00  0.00     0.000 C 
BRANCH  21  22
ATOM     22  C   UNL     1       0.951  -3.369  -1.639  1.00  0.00     0.000 C 
BRANCH  22  23
ATOM     23  C   UNL     1       1.396  -2.488  -2.824  1.00  0.00     0.000 C 
BRANCH  23  24
ATOM     24  C   UNL     1       0.451  -1.318  -3.156  1.00  0.00    -0.000 C 
BRANCH  24  25
ATOM     25  C   UNL     1       0.723  -0.072  -2.293  1.00  0.00    -0.000 C 
BRANCH  25  26
ATOM     26  C   UNL     1      -0.074   1.155  -2.760  1.00  0.00    -0.000 C 
BRANCH  26  27
ATOM     27  C   UNL     1       0.808   2.195  -3.468  1.00  0.00    -0.000 C 
BRANCH  27  28
ATOM     28  C   UNL     1       0.136   2.699  -4.755  1.00  0.00    -0.000 C 
BRANCH  28  29
ATOM     29  C   UNL     1       0.960   2.384  -6.013  1.00  0.00    -0.000 C 
BRANCH  29  30
ATOM     30  C   UNL     1       0.169   1.570  -7.051  1.00  0.00    -0.000 C 
BRANCH  30  31
ATOM     31  C   UNL     1      -0.146   0.147  -6.566  1.00  0.00    -0.003 C 
ATOM     32  C   UNL     1       1.105  -0.723  -6.442  1.00  0.00     0.004 C 
ENDBRANCH  30  31
ENDBRANCH  29  30
ENDBRANCH  28  29
ENDBRANCH  27  28
ENDBRANCH  26  27
ENDBRANCH  25  26
ENDBRANCH  24  25
ENDBRANCH  23  24
ENDBRANCH  22  23
ENDBRANCH  21  22
ENDBRANCH  20  21
ENDBRANCH  19  20
ENDBRANCH  18  19
ENDBRANCH   1  18
TORSDOF 28
ENDMDL
MODEL 6
REMARK VINA RESULT:     4.924      1.085      1.806
REMARK INTER + INTRA:          10.869
REMARK INTER:                  12.887
REMARK INTRA:                  -2.018
REMARK UNBOUND:                -2.116
REMARK SMILES CCCCCCCCCCCCCCCCCCCCCCCCCCCCCC(=O)[O-]
REMARK SMILES IDX 16 1 17 2 18 3 19 4 20 5 21 6 22 7 23 8 24 9 25 10 26 11
REMARK SMILES IDX 27 12 28 13 29 14 30 15 31 16 32 17 15 18 14 19 13 20 12 21
REMARK SMILES IDX 11 22 10 23 9 24 8 25 7 26 6 27 5 28 4 29 3 30 2 31 1 32
REMARK H PARENT
REMARK Flexibility Score: inf
ROOT
ATOM      1  C   UNL     1       1.128  -5.687   2.211  1.00  0.00     0.000 C 
ENDROOT
BRANCH   1   2
ATOM      2  C   UNL     1       1.005  -7.000   3.000  1.00  0.00     0.000 C 
BRANCH   2   3
ATOM      3  C   UNL     1       0.593  -6.770   4.467  1.00  0.00     0.000 C 
BRANCH   3   4
ATOM      4  C   UNL     1      -0.845  -6.228   4.608  1.00  0.00     0.000 C 
BRANCH   4   5
ATOM      5  C   UNL     1      -1.943  -7.263   4.297  1.00  0.00     0.000 C 
BRANCH   5   6
ATOM      6  C   UNL     1      -1.865  -8.569   5.110  1.00  0.00     0.000 C 
BRANCH   6   7
ATOM      7  C   UNL     1      -1.144  -9.738   4.408  1.00  0.00     0.000 C 
BRANCH   7   8
ATOM      8  C   UNL     1      -1.950 -10.432   3.292  1.00  0.00     0.000 C 
BRANCH   8   9
ATOM      9  C   UNL     1      -3.478 -10.379   3.463  1.00  0.00     0.000 C 
BRANCH   9  10
ATOM     10  C   UNL     1      -4.205  -9.995   2.163  1.00  0.00     0.000 C 
BRANCH  10  11
ATOM     11  C   UNL     1      -4.544  -8.496   2.093  1.00  0.00     0.000 C 
BRANCH  11  12
ATOM     12  C   UNL     1      -5.966  -8.187   2.596  1.00  0.00     0.000 C 
BRANCH  12  13
ATOM     13  C   UNL     1      -5.980  -7.573   4.010  1.00  0.00     0.006 C 
BRANCH  13  14
ATOM     14  C   UNL     1      -7.047  -6.484   4.205  1.00  0.00     0.053 C 
BRANCH  14  15
ATOM     15  C   UNL     1      -6.461  -5.113   4.321  1.00  0.00     0.041 C 
ATOM     16  O   UNL     1      -7.021  -4.243   5.039  1.00  0.00    -0.550 OA
ATOM     17  O   UNL     1      -5.281  -4.800   3.655  1.00  0.00    -0.550 OA
ENDBRANCH  14  15
ENDBRANCH  13  14
ENDBRANCH  12  13
ENDBRANCH  11  12
ENDBRANCH  10  11
ENDBRANCH   9  10
ENDBRANCH   8   9
ENDBRANCH   7   8
ENDBRANCH   6   7
ENDBRANCH   5   6
ENDBRANCH   4   5
ENDBRANCH   3   4
ENDBRANCH   2   3
ENDBRANCH   1   2
BRANCH   1  18
ATOM     18  C   UNL     1       0.443  -5.756   0.835  1.00  0.00     0.000 C 
BRANCH  18  19
ATOM     19  C   UNL     1       1.100  -4.836  -0.210  1.00  0.00     0.000 C 
BRANCH  19  20
ATOM     20  C   UNL     1       0.192  -4.430  -1.386  1.00  0.00     0.000 C 
BRANCH  20  21
ATOM     21  C   UNL     1       0.950  -3.703  -2.510  1.00  0.00     0.000 C 
BRANCH  21  22
ATOM     22  C   UNL     1       0.676  -2.187  -2.527  1.00  0.00     0.000 C 
BRANCH  22  23
ATOM     23  C   UNL     1       0.973  -1.479  -3.865  1.00  0.00     0.000 C 
BRANCH  23  24
ATOM     24  C   UNL     1      -0.174  -1.519  -4.892  1.00  0.00    -0.000 C 
BRANCH  24  25
ATOM     25  C   UNL     1       0.292  -1.162  -6.315  1.00  0.00    -0.000 C 
BRANCH  25  26
ATOM     26  C   UNL     1       1.237   0.049  -6.340  1.00  0.00    -0.000 C 
BRANCH  26  27
ATOM     27  C   UNL     1       0.481   1.386  -6.372  1.00  0.00    -0.000 C 
BRANCH  27  28
ATOM     28  C   UNL     1       1.198   2.443  -5.517  1.00  0.00    -0.000 C 
BRANCH  28  29
ATOM     29  C   UNL     1       0.351   3.708  -5.309  1.00  0.00    -0.000 C 
BRANCH  29  30
ATOM     30  C   UNL     1      -1.149   3.400  -5.161  1.00  0.00    -0.000 C 
BRANCH  30  31
ATOM     31  C   UNL     1      -1.979   3.948  -6.332  1.00  0.00    -0.003 C 
ATOM     32  C   UNL     1      -3.391   4.359  -5.912  1.00  0.00     0.004 C 
ENDBRANCH  30  31
ENDBRANCH  29  30
ENDBRANCH  28  29
ENDBRANCH  27  28
ENDBRANCH  26  27
ENDBRANCH  25  26
ENDBRANCH  24  25
ENDBRANCH  23  24
ENDBRANCH  22  23
ENDBRANCH  21  22
ENDBRANCH  20  21
ENDBRANCH  19  20
ENDBRANCH  18  19
ENDBRANCH   1  18
TORSDOF 28
ENDMDL
MODEL 7
REMARK VINA RESULT:     5.051      3.217     12.093
REMARK INTER + INTRA:          11.203
REMARK INTER:                  13.068
REMARK INTRA:                  -1.865
REMARK UNBOUND:                -2.116
REMARK SMILES CCCCCCCCCCCCCCCCCCCCCCCCCCCCCC(=O)[O-]
REMARK SMILES IDX 16 1 17 2 18 3 19 4 20 5 21 6 22 7 23 8 24 9 25 10 26 11
REMARK SMILES IDX 27 12 28 13 29 14 30 15 31 16 32 17 15 18 14 19 13 20 12 21
REMARK SMILES IDX 11 22 10 23 9 24 8 25 7 26 6 27 5 28 4 29 3 30 2 31 1 32
REMARK H PARENT
REMARK Flexibility Score: inf
ROOT
ATOM      1  C   UNL     1       0.326  -5.911   0.492  1.00  0.00     0.000 C 
ENDROOT
BRANCH   1   2
ATOM      2  C   UNL     1       0.767  -5.469  -0.912  1.00  0.00     0.000 C 
BRANCH   2   3
ATOM      3  C   UNL     1      -0.096  -4.319  -1.465  1.00  0.00     0.000 C 
BRANCH   3   4
ATOM      4  C   UNL     1       0.744  -3.183  -2.086  1.00  0.00     0.000 C 
BRANCH   4   5
ATOM      5  C   UNL     1      -0.092  -2.033  -2.681  1.00  0.00     0.000 C 
BRANCH   5   6
ATOM      6  C   UNL     1       0.640  -1.151  -3.709  1.00  0.00     0.000 C 
BRANCH   6   7
ATOM      7  C   UNL     1       0.917  -1.821  -5.071  1.00  0.00     0.000 C 
BRANCH   7   8
ATOM      8  C   UNL     1       1.056  -0.852  -6.263  1.00  0.00     0.000 C 
BRANCH   8   9
ATOM      9  C   UNL     1      -0.115   0.129  -6.445  1.00  0.00     0.000 C 
BRANCH   9  10
ATOM     10  C   UNL     1       0.348   1.522  -6.907  1.00  0.00     0.000 C 
BRANCH  10  11
ATOM     11  C   UNL     1       1.427   2.123  -5.990  1.00  0.00     0.000 C 
BRANCH  11  12
ATOM     12  C   UNL     1       0.844   2.695  -4.686  1.00  0.00     0.000 C 
BRANCH  12  13
ATOM     13  C   UNL     1       0.395   4.163  -4.824  1.00  0.00     0.006 C 
BRANCH  13  14
ATOM     14  C   UNL     1      -0.567   4.412  -5.997  1.00  0.00     0.053 C 
BRANCH  14  15
ATOM     15  C   UNL     1      -1.954   3.924  -5.722  1.00  0.00     0.041 C 
ATOM     16  O   UNL     1      -2.150   3.013  -4.876  1.00  0.00    -0.550 OA
ATOM     17  O   UNL     1      -3.037   4.494  -6.382  1.00  0.00    -0.550 OA
ENDBRANCH  14  15
ENDBRANCH  13  14
ENDBRANCH  12  13
ENDBRANCH  11  12
ENDBRANCH  10  11
ENDBRANCH   9  10
ENDBRANCH   8   9
ENDBRANCH   7   8
ENDBRANCH   6   7
ENDBRANCH   5   6
ENDBRANCH   4   5
ENDBRANCH   3   4
ENDBRANCH   2   3
ENDBRANCH   1   2
BRANCH   1  18
ATOM     18  C   UNL     1       1.245  -5.367   1.600  1.00  0.00     0.000 C 
BRANCH  18  19
ATOM     19  C   UNL     1       1.141  -6.165   2.913  1.00  0.00     0.000 C 
BRANCH  19  20
ATOM     20  C   UNL     1       0.272  -5.516   4.006  1.00  0.00     0.000 C 
BRANCH  20  21
ATOM     21  C   UNL     1      -0.133  -6.498   5.118  1.00  0.00     0.000 C 
BRANCH  21  22
ATOM     22  C   UNL     1       0.646  -7.826   5.051  1.00  0.00     0.000 C 
BRANCH  22  23
ATOM     23  C   UNL     1      -0.224  -9.095   4.950  1.00  0.00     0.000 C 
BRANCH  23  24
ATOM     24  C   UNL     1      -1.697  -8.848   4.578  1.00  0.00    -0.000 C 
BRANCH  24  25
ATOM     25  C   UNL     1      -1.990  -9.134   3.094  1.00  0.00    -0.000 C 
BRANCH  25  26
ATOM     26  C   UNL     1      -2.701 -10.479   2.880  1.00  0.00    -0.000 C 
BRANCH  26  27
ATOM     27  C   UNL     1      -4.195 -10.311   2.564  1.00  0.00    -0.000 C 
BRANCH  27  28
ATOM     28  C   UNL     1      -4.443  -9.030   1.753  1.00  0.00    -0.000 C 
BRANCH  28  29
ATOM     29  C   UNL     1      -5.853  -8.458   1.967  1.00  0.00    -0.000 C 
BRANCH  29  30
ATOM     30  C   UNL     1      -6.104  -8.032   3.423  1.00  0.00    -0.000 C 
BRANCH  30  31
ATOM     31  C   UNL     1      -5.000  -7.112   3.964  1.00  0.00    -0.003 C 
ATOM     32  C   UNL     1      -5.073  -5.698   3.386  1.00  0.00     0.004 C 
ENDBRANCH  30  31
ENDBRANCH  29  30
ENDBRANCH  28  29
ENDBRANCH  27  28
ENDBRANCH  26  27
ENDBRANCH  25  26
ENDBRANCH  24  25
ENDBRANCH  23  24
ENDBRANCH  22  23
ENDBRANCH  21  22
ENDBRANCH  20  21
ENDBRANCH  19  20
ENDBRANCH  18  19
ENDBRANCH   1  18
TORSDOF 28
ENDMDL
MODEL 8
REMARK VINA RESULT:     5.079      3.447     12.188
REMARK INTER + INTRA:          11.278
REMARK INTER:                  12.748
REMARK INTRA:                  -1.470
REMARK UNBOUND:                -2.116
REMARK SMILES CCCCCCCCCCCCCCCCCCCCCCCCCCCCCC(=O)[O-]
REMARK SMILES IDX 16 1 17 2 18 3 19 4 20 5 21 6 22 7 23 8 24 9 25 10 26 11
REMARK SMILES IDX 27 12 28 13 29 14 30 15 31 16 32 17 15 18 14 19 13 20 12 21
REMARK SMILES IDX 11 22 10 23 9 24 8 25 7 26 6 27 5 28 4 29 3 30 2 31 1 32
REMARK H PARENT
REMARK Flexibility Score: inf
ROOT
ATOM      1  C   UNL     1       0.365  -5.941   0.476  1.00  0.00     0.000 C 
ENDROOT
BRANCH   1   2
ATOM      2  C   UNL     1       0.776  -5.346  -0.880  1.00  0.00     0.000 C 
BRANCH   2   3
ATOM      3  C   UNL     1      -0.135  -4.183  -1.315  1.00  0.00     0.000 C 
BRANCH   3   4
ATOM      4  C   UNL     1       0.562  -3.205  -2.284  1.00  0.00     0.000 C 
BRANCH   4   5
ATOM      5  C   UNL     1      -0.143  -1.841  -2.419  1.00  0.00     0.000 C 
BRANCH   5   6
ATOM      6  C   UNL     1       0.295  -0.991  -3.626  1.00  0.00     0.000 C 
BRANCH   6   7
ATOM      7  C   UNL     1       0.783  -1.791  -4.851  1.00  0.00     0.000 C 
BRANCH   7   8
ATOM      8  C   UNL     1       1.088  -0.949  -6.106  1.00  0.00     0.000 C 
BRANCH   8   9
ATOM      9  C   UNL     1      -0.086  -0.096  -6.619  1.00  0.00     0.000 C 
BRANCH   9  10
ATOM     10  C   UNL     1       0.321   1.361  -6.900  1.00  0.00     0.000 C 
BRANCH  10  11
ATOM     11  C   UNL     1       1.446   1.852  -5.972  1.00  0.00     0.000 C 
BRANCH  11  12
ATOM     12  C   UNL     1       0.926   2.762  -4.845  1.00  0.00     0.000 C 
BRANCH  12  13
ATOM     13  C   UNL     1      -0.068   3.828  -5.345  1.00  0.00     0.006 C 
BRANCH  13  14
ATOM     14  C   UNL     1      -1.541   3.485  -5.068  1.00  0.00     0.053 C 
BRANCH  14  15
ATOM     15  C   UNL     1      -2.483   4.183  -5.996  1.00  0.00     0.041 C 
ATOM     16  O   UNL     1      -3.724   3.996  -5.898  1.00  0.00    -0.550 OA
ATOM     17  O   UNL     1      -1.994   5.063  -6.956  1.00  0.00    -0.550 OA
ENDBRANCH  14  15
ENDBRANCH  13  14
ENDBRANCH  12  13
ENDBRANCH  11  12
ENDBRANCH  10  11
ENDBRANCH   9  10
ENDBRANCH   8   9
ENDBRANCH   7   8
ENDBRANCH   6   7
ENDBRANCH   5   6
ENDBRANCH   4   5
ENDBRANCH   3   4
ENDBRANCH   2   3
ENDBRANCH   1   2
BRANCH   1  18
ATOM     18  C   UNL     1       1.205  -5.392   1.643  1.00  0.00     0.000 C 
BRANCH  18  19
ATOM     19  C   UNL     1       1.136  -6.276   2.901  1.00  0.00     0.000 C 
BRANCH  19  20
ATOM     20  C   UNL     1       0.281  -5.713   4.051  1.00  0.00     0.000 C 
BRANCH  20  21
ATOM     21  C   UNL     1      -0.582  -6.782   4.742  1.00  0.00     0.000 C 
BRANCH  21  22
ATOM     22  C   UNL     1      -0.276  -8.207   4.241  1.00  0.00     0.000 C 
BRANCH  22  23
ATOM     23  C   UNL     1      -1.472  -9.181   4.258  1.00  0.00     0.000 C 
BRANCH  23  24
ATOM     24  C   UNL     1      -2.638  -8.799   3.327  1.00  0.00    -0.000 C 
BRANCH  24  25
ATOM     25  C   UNL     1      -3.869  -8.289   4.097  1.00  0.00    -0.000 C 
BRANCH  25  26
ATOM     26  C   UNL     1      -4.477  -7.025   3.469  1.00  0.00    -0.000 C 
BRANCH  26  27
ATOM     27  C   UNL     1      -5.869  -6.701   4.032  1.00  0.00    -0.000 C 
BRANCH  27  28
ATOM     28  C   UNL     1      -6.959  -7.488   3.287  1.00  0.00    -0.000 C 
BRANCH  28  29
ATOM     29  C   UNL     1      -6.443  -8.822   2.724  1.00  0.00    -0.000 C 
BRANCH  29  30
ATOM     30  C   UNL     1      -6.718  -8.975   1.218  1.00  0.00    -0.000 C 
BRANCH  30  31
ATOM     31  C   UNL     1      -5.686  -9.874   0.522  1.00  0.00    -0.003 C 
ATOM     32  C   UNL     1      -6.229 -10.518  -0.755  1.00  0.00     0.004 C 
ENDBRANCH  30  31
ENDBRANCH  29  30
ENDBRANCH  28  29
ENDBRANCH  27  28
ENDBRANCH  26  27
ENDBRANCH  25  26
ENDBRANCH  24  25
ENDBRANCH  23  24
ENDBRANCH  22  23
ENDBRANCH  21  22
ENDBRANCH  20  21
ENDBRANCH  19  20
ENDBRANCH  18  19
ENDBRANCH   1  18
TORSDOF 28
ENDMDL
MODEL 9
REMARK VINA RESULT:     5.177      1.693      2.849
REMARK INTER + INTRA:          11.535
REMARK INTER:                  13.455
REMARK INTRA:                  -1.920
REMARK UNBOUND:                -2.116
REMARK SMILES CCCCCCCCCCCCCCCCCCCCCCCCCCCCCC(=O)[O-]
REMARK SMILES IDX 16 1 17 2 18 3 19 4 20 5 21 6 22 7 23 8 24 9 25 10 26 11
REMARK SMILES IDX 27 12 28 13 29 14 30 15 31 16 32 17 15 18 14 19 13 20 12 21
REMARK SMILES IDX 11 22 10 23 9 24 8 25 7 26 6 27 5 28 4 29 3 30 2 31 1 32
REMARK H PARENT
REMARK Flexibility Score: inf
ROOT
ATOM      1  C   UNL     1       0.833  -5.676   1.086  1.00  0.00     0.000 C 
ENDROOT
BRANCH   1   2
ATOM      2  C   UNL     1       0.634  -6.878   2.023  1.00  0.00     0.000 C 
BRANCH   2   3
ATOM      3  C   UNL     1       1.106  -6.588   3.460  1.00  0.00     0.000 C 
BRANCH   3   4
ATOM      4  C   UNL     1      -0.063  -6.360   4.441  1.00  0.00     0.000 C 
BRANCH   4   5
ATOM      5  C   UNL     1      -0.729  -7.656   4.943  1.00  0.00     0.000 C 
BRANCH   5   6
ATOM      6  C   UNL     1       0.081  -8.944   4.709  1.00  0.00     0.000 C 
BRANCH   6   7
ATOM      7  C   UNL     1      -0.758 -10.230   4.555  1.00  0.00     0.000 C 
BRANCH   7   8
ATOM      8  C   UNL     1      -1.526 -10.359   3.224  1.00  0.00     0.000 C 
BRANCH   8   9
ATOM      9  C   UNL     1      -2.936 -10.963   3.341  1.00  0.00     0.000 C 
BRANCH   9  10
ATOM     10  C   UNL     1      -3.620 -10.613   4.673  1.00  0.00     0.000 C 
BRANCH  10  11
ATOM     11  C   UNL     1      -4.740  -9.570   4.509  1.00  0.00     0.000 C 
BRANCH  11  12
ATOM     12  C   UNL     1      -4.195  -8.150   4.268  1.00  0.00     0.000 C 
BRANCH  12  13
ATOM     13  C   UNL     1      -4.960  -7.395   3.163  1.00  0.00     0.006 C 
BRANCH  13  14
ATOM     14  C   UNL     1      -6.191  -8.148   2.632  1.00  0.00     0.053 C 
BRANCH  14  15
ATOM     15  C   UNL     1      -6.039  -8.575   1.207  1.00  0.00     0.041 C 
ATOM     16  O   UNL     1      -4.922  -8.481   0.633  1.00  0.00    -0.550 OA
ATOM     17  O   UNL     1      -7.125  -9.101   0.516  1.00  0.00    -0.550 OA
ENDBRANCH  14  15
ENDBRANCH  13  14
ENDBRANCH  12  13
ENDBRANCH  11  12
ENDBRANCH  10  11
ENDBRANCH   9  10
ENDBRANCH   8   9
ENDBRANCH   7   8
ENDBRANCH   6   7
ENDBRANCH   5   6
ENDBRANCH   4   5
ENDBRANCH   3   4
ENDBRANCH   2   3
ENDBRANCH   1   2
BRANCH   1  18
ATOM     18  C   UNL     1       0.190  -5.890  -0.296  1.00  0.00     0.000 C 
BRANCH  18  19
ATOM     19  C   UNL     1       0.734  -4.927  -1.367  1.00  0.00     0.000 C 
BRANCH  19  20
ATOM     20  C   UNL     1      -0.313  -3.988  -1.995  1.00  0.00     0.000 C 
BRANCH  20  21
ATOM     21  C   UNL     1       0.071  -2.502  -1.891  1.00  0.00     0.000 C 
BRANCH  21  22
ATOM     22  C   UNL     1      -0.358  -1.689  -3.128  1.00  0.00     0.000 C 
BRANCH  22  23
ATOM     23  C   UNL     1       0.798  -1.109  -3.968  1.00  0.00     0.000 C 
BRANCH  23  24
ATOM     24  C   UNL     1       1.062  -1.831  -5.302  1.00  0.00    -0.000 C 
BRANCH  24  25
ATOM     25  C   UNL     1       0.768  -0.943  -6.525  1.00  0.00    -0.000 C 
BRANCH  25  26
ATOM     26  C   UNL     1       0.137   0.404  -6.139  1.00  0.00    -0.000 C 
BRANCH  26  27
ATOM     27  C   UNL     1       0.955   1.602  -6.643  1.00  0.00    -0.000 C 
BRANCH  27  28
ATOM     28  C   UNL     1       1.278   2.569  -5.492  1.00  0.00    -0.000 C 
BRANCH  28  29
ATOM     29  C   UNL     1       0.042   3.344  -5.007  1.00  0.00    -0.000 C 
BRANCH  29  30
ATOM     30  C   UNL     1      -1.081   3.385  -6.058  1.00  0.00    -0.000 C 
BRANCH  30  31
ATOM     31  C   UNL     1      -2.043   4.563  -5.841  1.00  0.00    -0.003 C 
ATOM     32  C   UNL     1      -3.508   4.172  -6.042  1.00  0.00     0.004 C 
ENDBRANCH  30  31
ENDBRANCH  29  30
ENDBRANCH  28  29
ENDBRANCH  27  28
ENDBRANCH  26  27
ENDBRANCH  25  26
ENDBRANCH  24  25
ENDBRANCH  23  24
ENDBRANCH  22  23
ENDBRANCH  21  22
ENDBRANCH  20  21
ENDBRANCH  19  20
ENDBRANCH  18  19
ENDBRANCH   1  18
TORSDOF 28
ENDMDL
