MODEL 1
REMARK VINA RESULT:    -8.391      0.000      0.000
REMARK INTER + INTRA:         -11.930
REMARK INTER:                 -11.580
REMARK INTRA:                  -0.350
REMARK UNBOUND:                -0.350
REMARK SMILES CC[C@H](CC[C@@H](C)[C@@H]1CC[C@@H]2[C@@H]3CC=C4C[C@H](O)CC[C@@]4(C)[C@H]3CC[C@@]21C)C(C)C
REMARK SMILES IDX 5 1 4 2 3 3 2 4 1 5 28 6 29 7 30 8 6 9 7 10 8 11 9 12 26 13
REMARK SMILES IDX 10 14 11 15 25 16 27 17 12 18 24 19 23 20 13 21 21 22 14 23
REMARK SMILES IDX 15 24 20 25 22 26 16 27 19 28 17 29 18 30
REMARK H PARENT 18 31
REMARK Flexibility Score: inf
ROOT
ATOM      1  C   UNL     1     -13.056 -26.378  -9.941  1.00  0.00     0.004 C 
ENDROOT
BRANCH   1   2
ATOM      2  C   UNL     1     -14.177 -26.156 -10.992  1.00  0.00     0.004 C 
BRANCH   2   3
ATOM      3  C   UNL     1     -14.098 -27.121 -12.215  1.00  0.00    -0.009 C 
BRANCH   3   4
ATOM      4  C   UNL     1     -15.483 -27.785 -12.459  1.00  0.00     0.000 C 
ATOM      5  C   UNL     1     -15.424 -29.300 -12.680  1.00  0.00     0.004 C 
ENDBRANCH   3   4
BRANCH   3   6
ATOM      6  C   UNL     1     -13.514 -26.427 -13.496  1.00  0.00    -0.014 C 
ATOM      7  C   UNL     1     -13.647 -27.315 -14.745  1.00  0.00     0.007 C 
ATOM      8  C   UNL     1     -14.192 -25.074 -13.780  1.00  0.00     0.007 C 
ENDBRANCH   3   6
ENDBRANCH   2   3
ENDBRANCH   1   2
BRANCH   1   9
ATOM      9  C   UNL     1     -13.564 -26.706  -8.513  1.00  0.00    -0.011 C 
ATOM     10  C   UNL     1     -15.104 -26.709  -8.466  1.00  0.00     0.008 C 
BRANCH   9  11
ATOM     11  C   UNL     1     -12.850 -27.971  -7.900  1.00  0.00    -0.002 C 
ATOM     12  C   UNL     1     -11.354 -27.846  -7.553  1.00  0.00     0.005 C 
ATOM     13  C   UNL     1     -12.964 -29.287  -8.720  1.00  0.00    -0.026 C 
ATOM     14  C   UNL     1     -10.773 -29.260  -7.638  1.00  0.00     0.005 C 
ATOM     15  C   UNL     1     -11.937 -30.195  -8.009  1.00  0.00    -0.001 C 
ATOM     16  C   UNL     1     -12.552 -29.074 -10.209  1.00  0.00     0.007 C 
ATOM     17  C   UNL     1     -14.393 -29.876  -8.616  1.00  0.00     0.012 C 
ATOM     18  C   UNL     1     -11.546 -31.487  -8.795  1.00  0.00     0.000 C 
ATOM     19  C   UNL     1     -12.310 -30.390 -10.951  1.00  0.00     0.005 C 
ATOM     20  C   UNL     1     -11.196 -31.229 -10.278  1.00  0.00     0.003 C 
ATOM     21  C   UNL     1     -10.373 -32.207  -8.116  1.00  0.00     0.031 C 
ATOM     22  C   UNL     1     -10.847 -32.568 -11.063  1.00  0.00    -0.008 C 
ATOM     23  C   UNL     1     -10.030 -33.473  -8.831  1.00  0.00    -0.027 C 
ATOM     24  C   UNL     1     -10.169 -33.623 -10.165  1.00  0.00    -0.065 C 
ATOM     25  C   UNL     1     -12.130 -33.240 -11.657  1.00  0.00     0.014 C 
ATOM     26  C   UNL     1      -9.875 -32.195 -12.212  1.00  0.00     0.016 C 
ATOM     27  C   UNL     1      -9.882 -34.984 -10.766  1.00  0.00     0.063 C 
ATOM     28  C   UNL     1     -11.888 -34.631 -12.278  1.00  0.00     0.033 C 
ATOM     29  C   UNL     1     -11.192 -35.587 -11.293  1.00  0.00     0.118 C 
BRANCH  29  30
ATOM     30  O   UNL     1     -10.957 -36.836 -11.894  1.00  0.00    -0.393 OA
ATOM     31  H   UNL     1     -11.797 -37.115 -12.346  1.00  0.00     0.210 HD
ENDBRANCH  29  30
ENDBRANCH   9  11
ENDBRANCH   1   9
TORSDOF 7
ENDMDL
MODEL 2
REMARK VINA RESULT:    -8.187      2.721      7.317
REMARK INTER + INTRA:         -11.648
REMARK INTER:                 -11.374
REMARK INTRA:                  -0.274
REMARK UNBOUND:                -0.350
REMARK SMILES CC[C@H](CC[C@@H](C)[C@@H]1CC[C@@H]2[C@@H]3CC=C4C[C@H](O)CC[C@@]4(C)[C@H]3CC[C@@]21C)C(C)C
REMARK SMILES IDX 5 1 4 2 3 3 2 4 1 5 28 6 29 7 30 8 6 9 7 10 8 11 9 12 26 13
REMARK SMILES IDX 10 14 11 15 25 16 27 17 12 18 24 19 23 20 13 21 21 22 14 23
REMARK SMILES IDX 15 24 20 25 22 26 16 27 19 28 17 29 18 30
REMARK H PARENT 18 31
REMARK Flexibility Score: inf
ROOT
ATOM      1  C   UNL     1     -10.254 -33.558 -10.648  1.00  0.00     0.004 C 
ENDROOT
BRANCH   1   2
ATOM      2  C   UNL     1     -11.141 -34.491 -11.514  1.00  0.00     0.004 C 
BRANCH   2   3
ATOM      3  C   UNL     1     -10.457 -34.973 -12.831  1.00  0.00    -0.009 C 
BRANCH   3   4
ATOM      4  C   UNL     1     -10.212 -36.508 -12.774  1.00  0.00     0.000 C 
ATOM      5  C   UNL     1     -10.412 -37.125 -11.386  1.00  0.00     0.004 C 
ENDBRANCH   3   4
BRANCH   3   6
ATOM      6  C   UNL     1     -11.235 -34.521 -14.117  1.00  0.00    -0.014 C 
ATOM      7  C   UNL     1     -12.430 -35.440 -14.421  1.00  0.00     0.007 C 
ATOM      8  C   UNL     1     -11.745 -33.072 -14.004  1.00  0.00     0.007 C 
ENDBRANCH   3   6
ENDBRANCH   2   3
ENDBRANCH   1   2
BRANCH   1   9
ATOM      9  C   UNL     1     -10.825 -33.247  -9.240  1.00  0.00    -0.011 C 
ATOM     10  C   UNL     1     -10.072 -34.041  -8.155  1.00  0.00     0.008 C 
BRANCH   9  11
ATOM     11  C   UNL     1     -10.975 -31.698  -8.984  1.00  0.00    -0.002 C 
ATOM     12  C   UNL     1     -12.019 -31.245  -7.945  1.00  0.00     0.005 C 
ATOM     13  C   UNL     1     -11.250 -30.820 -10.238  1.00  0.00    -0.026 C 
ATOM     14  C   UNL     1     -12.443 -29.831  -8.349  1.00  0.00     0.005 C 
ATOM     15  C   UNL     1     -11.629 -29.465  -9.600  1.00  0.00    -0.001 C 
ATOM     16  C   UNL     1     -12.444 -31.371 -11.076  1.00  0.00     0.007 C 
ATOM     17  C   UNL     1      -9.974 -30.689 -11.106  1.00  0.00     0.012 C 
ATOM     18  C   UNL     1     -12.301 -28.445 -10.575  1.00  0.00     0.000 C 
ATOM     19  C   UNL     1     -12.968 -30.361 -12.098  1.00  0.00     0.005 C 
ATOM     20  C   UNL     1     -13.445 -29.053 -11.417  1.00  0.00     0.003 C 
ATOM     21  C   UNL     1     -12.832 -27.225  -9.809  1.00  0.00     0.031 C 
ATOM     22  C   UNL     1     -14.078 -28.004 -12.431  1.00  0.00    -0.008 C 
ATOM     23  C   UNL     1     -13.425 -26.221 -10.740  1.00  0.00    -0.027 C 
ATOM     24  C   UNL     1     -14.053 -26.562 -11.885  1.00  0.00    -0.065 C 
ATOM     25  C   UNL     1     -13.311 -27.983 -13.795  1.00  0.00     0.014 C 
ATOM     26  C   UNL     1     -15.553 -28.419 -12.670  1.00  0.00     0.016 C 
ATOM     27  C   UNL     1     -14.531 -25.452 -12.799  1.00  0.00     0.063 C 
ATOM     28  C   UNL     1     -13.760 -26.865 -14.759  1.00  0.00     0.033 C 
ATOM     29  C   UNL     1     -13.708 -25.478 -14.095  1.00  0.00     0.118 C 
BRANCH  29  30
ATOM     30  O   UNL     1     -14.151 -24.484 -14.984  1.00  0.00    -0.393 OA
ATOM     31  H   UNL     1     -15.142 -24.539 -15.028  1.00  0.00     0.210 HD
ENDBRANCH  29  30
ENDBRANCH   9  11
ENDBRANCH   1   9
TORSDOF 7
ENDMDL
MODEL 3
REMARK VINA RESULT:    -8.007      3.284      7.206
REMARK INTER + INTRA:         -11.400
REMARK INTER:                 -10.771
REMARK INTRA:                  -0.629
REMARK UNBOUND:                -0.350
REMARK SMILES CC[C@H](CC[C@@H](C)[C@@H]1CC[C@@H]2[C@@H]3CC=C4C[C@H](O)CC[C@@]4(C)[C@H]3CC[C@@]21C)C(C)C
REMARK SMILES IDX 5 1 4 2 3 3 2 4 1 5 28 6 29 7 30 8 6 9 7 10 8 11 9 12 26 13
REMARK SMILES IDX 10 14 11 15 25 16 27 17 12 18 24 19 23 20 13 21 21 22 14 23
REMARK SMILES IDX 15 24 20 25 22 26 16 27 19 28 17 29 18 30
REMARK H PARENT 18 31
REMARK Flexibility Score: inf
ROOT
ATOM      1  C   UNL     1     -11.065 -32.892 -12.327  1.00  0.00     0.004 C 
ENDROOT
BRANCH   1   2
ATOM      2  C   UNL     1     -12.057 -32.757 -13.513  1.00  0.00     0.004 C 
BRANCH   2   3
ATOM      3  C   UNL     1     -13.002 -33.986 -13.691  1.00  0.00    -0.009 C 
BRANCH   3   4
ATOM      4  C   UNL     1     -14.444 -33.506 -14.022  1.00  0.00     0.000 C 
ATOM      5  C   UNL     1     -14.765 -32.092 -13.526  1.00  0.00     0.004 C 
ENDBRANCH   3   4
BRANCH   3   6
ATOM      6  C   UNL     1     -12.449 -35.030 -14.724  1.00  0.00    -0.014 C 
ATOM      7  C   UNL     1     -11.681 -36.172 -14.036  1.00  0.00     0.007 C 
ATOM      8  C   UNL     1     -13.570 -35.640 -15.585  1.00  0.00     0.007 C 
ENDBRANCH   3   6
ENDBRANCH   2   3
ENDBRANCH   1   2
BRANCH   1   9
ATOM      9  C   UNL     1     -11.526 -33.857 -11.204  1.00  0.00    -0.011 C 
ATOM     10  C   UNL     1     -10.387 -34.812 -10.800  1.00  0.00     0.008 C 
BRANCH   9  11
ATOM     11  C   UNL     1     -12.247 -33.100 -10.023  1.00  0.00    -0.002 C 
ATOM     12  C   UNL     1     -13.730 -32.728 -10.216  1.00  0.00     0.005 C 
ATOM     13  C   UNL     1     -11.566 -31.791  -9.531  1.00  0.00    -0.026 C 
ATOM     14  C   UNL     1     -13.984 -31.502  -9.335  1.00  0.00     0.005 C 
ATOM     15  C   UNL     1     -12.659 -31.186  -8.622  1.00  0.00    -0.001 C 
ATOM     16  C   UNL     1     -11.255 -30.824 -10.714  1.00  0.00     0.007 C 
ATOM     17  C   UNL     1     -10.284 -32.111  -8.722  1.00  0.00     0.012 C 
ATOM     18  C   UNL     1     -12.435 -29.690  -8.234  1.00  0.00     0.000 C 
ATOM     19  C   UNL     1     -10.921 -29.406 -10.248  1.00  0.00     0.005 C 
ATOM     20  C   UNL     1     -12.082 -28.783  -9.434  1.00  0.00     0.003 C 
ATOM     21  C   UNL     1     -13.668 -29.121  -7.517  1.00  0.00     0.031 C 
ATOM     22  C   UNL     1     -11.815 -27.276  -9.000  1.00  0.00    -0.008 C 
ATOM     23  C   UNL     1     -13.441 -27.708  -7.092  1.00  0.00    -0.027 C 
ATOM     24  C   UNL     1     -12.670 -26.847  -7.790  1.00  0.00    -0.065 C 
ATOM     25  C   UNL     1     -10.320 -27.045  -8.600  1.00  0.00     0.014 C 
ATOM     26  C   UNL     1     -12.176 -26.373 -10.207  1.00  0.00     0.016 C 
ATOM     27  C   UNL     1     -12.434 -25.467  -7.211  1.00  0.00     0.063 C 
ATOM     28  C   UNL     1     -10.031 -25.653  -8.001  1.00  0.00     0.033 C 
ATOM     29  C   UNL     1     -10.957 -25.334  -6.814  1.00  0.00     0.118 C 
BRANCH  29  30
ATOM     30  O   UNL     1     -10.692 -24.050  -6.308  1.00  0.00    -0.393 OA
ATOM     31  H   UNL     1     -11.237 -23.932  -5.485  1.00  0.00     0.210 HD
ENDBRANCH  29  30
ENDBRANCH   9  11
ENDBRANCH   1   9
TORSDOF 7
ENDMDL
MODEL 4
REMARK VINA RESULT:    -7.750      3.270      7.103
REMARK INTER + INTRA:         -11.044
REMARK INTER:                 -10.201
REMARK INTRA:                  -0.843
REMARK UNBOUND:                -0.350
REMARK SMILES CC[C@H](CC[C@@H](C)[C@@H]1CC[C@@H]2[C@@H]3CC=C4C[C@H](O)CC[C@@]4(C)[C@H]3CC[C@@]21C)C(C)C
REMARK SMILES IDX 5 1 4 2 3 3 2 4 1 5 28 6 29 7 30 8 6 9 7 10 8 11 9 12 26 13
REMARK SMILES IDX 10 14 11 15 25 16 27 17 12 18 24 19 23 20 13 21 21 22 14 23
REMARK SMILES IDX 15 24 20 25 22 26 16 27 19 28 17 29 18 30
REMARK H PARENT 18 31
REMARK Flexibility Score: inf
ROOT
ATOM      1  C   UNL     1     -14.630 -32.983 -13.651  1.00  0.00     0.004 C 
ENDROOT
BRANCH   1   2
ATOM      2  C   UNL     1     -13.290 -33.367 -14.334  1.00  0.00     0.004 C 
BRANCH   2   3
ATOM      3  C   UNL     1     -12.907 -34.872 -14.176  1.00  0.00    -0.009 C 
BRANCH   3   4
ATOM      4  C   UNL     1     -13.227 -35.643 -15.489  1.00  0.00     0.000 C 
ATOM      5  C   UNL     1     -14.627 -35.375 -16.050  1.00  0.00     0.004 C 
ENDBRANCH   3   4
BRANCH   3   6
ATOM      6  C   UNL     1     -11.428 -35.071 -13.690  1.00  0.00    -0.014 C 
ATOM      7  C   UNL     1     -10.660 -33.741 -13.618  1.00  0.00     0.007 C 
ATOM      8  C   UNL     1     -11.362 -35.753 -12.310  1.00  0.00     0.007 C 
ENDBRANCH   3   6
ENDBRANCH   2   3
ENDBRANCH   1   2
BRANCH   1   9
ATOM      9  C   UNL     1     -14.557 -31.727 -12.745  1.00  0.00    -0.011 C 
ATOM     10  C   UNL     1     -15.841 -31.582 -11.905  1.00  0.00     0.008 C 
BRANCH   9  11
ATOM     11  C   UNL     1     -13.198 -31.640 -11.951  1.00  0.00    -0.002 C 
ATOM     12  C   UNL     1     -12.933 -32.708 -10.871  1.00  0.00     0.005 C 
ATOM     13  C   UNL     1     -12.896 -30.282 -11.255  1.00  0.00    -0.026 C 
ATOM     14  C   UNL     1     -11.986 -32.066  -9.855  1.00  0.00     0.005 C 
ATOM     15  C   UNL     1     -11.689 -30.645 -10.361  1.00  0.00    -0.001 C 
ATOM     16  C   UNL     1     -14.093 -29.808 -10.376  1.00  0.00     0.007 C 
ATOM     17  C   UNL     1     -12.510 -29.206 -12.300  1.00  0.00     0.012 C 
ATOM     18  C   UNL     1     -11.346 -29.589  -9.262  1.00  0.00     0.000 C 
ATOM     19  C   UNL     1     -13.711 -28.683  -9.412  1.00  0.00     0.005 C 
ATOM     20  C   UNL     1     -12.574 -29.114  -8.453  1.00  0.00     0.003 C 
ATOM     21  C   UNL     1     -10.283 -30.130  -8.297  1.00  0.00     0.031 C 
ATOM     22  C   UNL     1     -12.200 -28.007  -7.374  1.00  0.00    -0.008 C 
ATOM     23  C   UNL     1      -9.909 -29.106  -7.277  1.00  0.00    -0.027 C 
ATOM     24  C   UNL     1     -10.781 -28.193  -6.799  1.00  0.00    -0.065 C 
ATOM     25  C   UNL     1     -12.255 -26.566  -7.981  1.00  0.00     0.014 C 
ATOM     26  C   UNL     1     -13.224 -28.122  -6.215  1.00  0.00     0.016 C 
ATOM     27  C   UNL     1     -10.263 -27.142  -5.839  1.00  0.00     0.063 C 
ATOM     28  C   UNL     1     -11.733 -25.460  -7.040  1.00  0.00     0.033 C 
ATOM     29  C   UNL     1     -10.317 -25.767  -6.521  1.00  0.00     0.118 C 
BRANCH  29  30
ATOM     30  O   UNL     1      -9.880 -24.760  -5.644  1.00  0.00    -0.393 OA
ATOM     31  H   UNL     1     -10.152 -25.022  -4.724  1.00  0.00     0.210 HD
ENDBRANCH  29  30
ENDBRANCH   9  11
ENDBRANCH   1   9
TORSDOF 7
ENDMDL
MODEL 5
REMARK VINA RESULT:    -7.729      3.185      7.143
REMARK INTER + INTRA:         -11.016
REMARK INTER:                 -10.097
REMARK INTRA:                  -0.919
REMARK UNBOUND:                -0.350
REMARK SMILES CC[C@H](CC[C@@H](C)[C@@H]1CC[C@@H]2[C@@H]3CC=C4C[C@H](O)CC[C@@]4(C)[C@H]3CC[C@@]21C)C(C)C
REMARK SMILES IDX 5 1 4 2 3 3 2 4 1 5 28 6 29 7 30 8 6 9 7 10 8 11 9 12 26 13
REMARK SMILES IDX 10 14 11 15 25 16 27 17 12 18 24 19 23 20 13 21 21 22 14 23
REMARK SMILES IDX 15 24 20 25 22 26 16 27 19 28 17 29 18 30
REMARK H PARENT 18 31
REMARK Flexibility Score: inf
ROOT
ATOM      1  C   UNL     1     -11.067 -34.517 -13.437  1.00  0.00     0.004 C 
ENDROOT
BRANCH   1   2
ATOM      2  C   UNL     1     -12.114 -35.117 -14.413  1.00  0.00     0.004 C 
BRANCH   2   3
ATOM      3  C   UNL     1     -13.569 -34.603 -14.175  1.00  0.00    -0.009 C 
BRANCH   3   4
ATOM      4  C   UNL     1     -13.546 -33.093 -13.805  1.00  0.00     0.000 C 
ATOM      5  C   UNL     1     -14.901 -32.533 -13.362  1.00  0.00     0.004 C 
ENDBRANCH   3   4
BRANCH   3   6
ATOM      6  C   UNL     1     -14.529 -34.930 -15.372  1.00  0.00    -0.014 C 
ATOM      7  C   UNL     1     -13.877 -35.878 -16.393  1.00  0.00     0.007 C 
ATOM      8  C   UNL     1     -15.854 -35.554 -14.896  1.00  0.00     0.007 C 
ENDBRANCH   3   6
ENDBRANCH   2   3
ENDBRANCH   1   2
BRANCH   1   9
ATOM      9  C   UNL     1     -11.133 -35.077 -11.993  1.00  0.00    -0.011 C 
ATOM     10  C   UNL     1     -10.755 -36.571 -11.966  1.00  0.00     0.008 C 
BRANCH   9  11
ATOM     11  C   UNL     1     -10.381 -34.155 -10.958  1.00  0.00    -0.002 C 
ATOM     12  C   UNL     1     -10.281 -34.651  -9.503  1.00  0.00     0.005 C 
ATOM     13  C   UNL     1     -10.891 -32.689 -10.849  1.00  0.00    -0.026 C 
ATOM     14  C   UNL     1     -10.156 -33.399  -8.630  1.00  0.00     0.005 C 
ATOM     15  C   UNL     1     -10.161 -32.193  -9.582  1.00  0.00    -0.001 C 
ATOM     16  C   UNL     1     -12.434 -32.632 -10.637  1.00  0.00     0.007 C 
ATOM     17  C   UNL     1     -10.468 -31.868 -12.093  1.00  0.00     0.012 C 
ATOM     18  C   UNL     1     -10.714 -30.858  -8.987  1.00  0.00     0.000 C 
ATOM     19  C   UNL     1     -12.918 -31.257 -10.175  1.00  0.00     0.005 C 
ATOM     20  C   UNL     1     -12.252 -30.833  -8.843  1.00  0.00     0.003 C 
ATOM     21  C   UNL     1     -10.074 -30.562  -7.623  1.00  0.00     0.031 C 
ATOM     22  C   UNL     1     -12.788 -29.446  -8.278  1.00  0.00    -0.008 C 
ATOM     23  C   UNL     1     -10.556 -29.260  -7.073  1.00  0.00    -0.027 C 
ATOM     24  C   UNL     1     -11.798 -28.783  -7.299  1.00  0.00    -0.065 C 
ATOM     25  C   UNL     1     -13.046 -28.415  -9.426  1.00  0.00     0.014 C 
ATOM     26  C   UNL     1     -14.114 -29.731  -7.526  1.00  0.00     0.016 C 
ATOM     27  C   UNL     1     -12.143 -27.405  -6.771  1.00  0.00     0.063 C 
ATOM     28  C   UNL     1     -13.398 -26.995  -8.936  1.00  0.00     0.033 C 
ATOM     29  C   UNL     1     -12.346 -26.449  -7.954  1.00  0.00     0.118 C 
BRANCH  29  30
ATOM     30  O   UNL     1     -12.706 -25.168  -7.502  1.00  0.00    -0.393 OA
ATOM     31  H   UNL     1     -13.108 -24.679  -8.269  1.00  0.00     0.210 HD
ENDBRANCH  29  30
ENDBRANCH   9  11
ENDBRANCH   1   9
TORSDOF 7
ENDMDL
MODEL 6
REMARK VINA RESULT:    -6.935      2.274      4.016
REMARK INTER + INTRA:          -9.921
REMARK INTER:                  -9.210
REMARK INTRA:                  -0.711
REMARK UNBOUND:                -0.350
REMARK SMILES CC[C@H](CC[C@@H](C)[C@@H]1CC[C@@H]2[C@@H]3CC=C4C[C@H](O)CC[C@@]4(C)[C@H]3CC[C@@]21C)C(C)C
REMARK SMILES IDX 5 1 4 2 3 3 2 4 1 5 28 6 29 7 30 8 6 9 7 10 8 11 9 12 26 13
REMARK SMILES IDX 10 14 11 15 25 16 27 17 12 18 24 19 23 20 13 21 21 22 14 23
REMARK SMILES IDX 15 24 20 25 22 26 16 27 19 28 17 29 18 30
REMARK H PARENT 18 31
REMARK Flexibility Score: inf
ROOT
ATOM      1  C   UNL     1     -12.997 -27.952  -6.815  1.00  0.00     0.004 C 
ENDROOT
BRANCH   1   2
ATOM      2  C   UNL     1     -13.097 -26.506  -7.371  1.00  0.00     0.004 C 
BRANCH   2   3
ATOM      3  C   UNL     1     -11.849 -26.055  -8.192  1.00  0.00    -0.009 C 
BRANCH   3   4
ATOM      4  C   UNL     1     -10.698 -25.647  -7.228  1.00  0.00     0.000 C 
ATOM      5  C   UNL     1     -10.998 -24.409  -6.378  1.00  0.00     0.004 C 
ENDBRANCH   3   4
BRANCH   3   6
ATOM      6  C   UNL     1     -11.410 -27.118  -9.260  1.00  0.00    -0.014 C 
ATOM      7  C   UNL     1     -12.001 -26.819 -10.648  1.00  0.00     0.007 C 
ATOM      8  C   UNL     1      -9.878 -27.212  -9.386  1.00  0.00     0.007 C 
ENDBRANCH   3   6
ENDBRANCH   2   3
ENDBRANCH   1   2
BRANCH   1   9
ATOM      9  C   UNL     1     -13.951 -28.972  -7.489  1.00  0.00    -0.011 C 
ATOM     10  C   UNL     1     -14.746 -28.308  -8.630  1.00  0.00     0.008 C 
BRANCH   9  11
ATOM     11  C   UNL     1     -13.224 -30.324  -7.848  1.00  0.00    -0.002 C 
ATOM     12  C   UNL     1     -11.697 -30.280  -8.051  1.00  0.00     0.005 C 
ATOM     13  C   UNL     1     -13.772 -31.090  -9.086  1.00  0.00    -0.026 C 
ATOM     14  C   UNL     1     -11.355 -31.437  -8.994  1.00  0.00     0.005 C 
ATOM     15  C   UNL     1     -12.677 -32.155  -9.311  1.00  0.00    -0.001 C 
ATOM     16  C   UNL     1     -13.883 -30.161 -10.333  1.00  0.00     0.007 C 
ATOM     17  C   UNL     1     -15.134 -31.752  -8.761  1.00  0.00     0.012 C 
ATOM     18  C   UNL     1     -12.742 -32.882 -10.692  1.00  0.00     0.000 C 
ATOM     19  C   UNL     1     -14.072 -30.940 -11.636  1.00  0.00     0.005 C 
ATOM     20  C   UNL     1     -12.901 -31.921 -11.892  1.00  0.00     0.003 C 
ATOM     21  C   UNL     1     -11.499 -33.758 -10.908  1.00  0.00     0.031 C 
ATOM     22  C   UNL     1     -13.010 -32.693 -13.279  1.00  0.00    -0.008 C 
ATOM     23  C   UNL     1     -11.581 -34.499 -12.202  1.00  0.00    -0.027 C 
ATOM     24  C   UNL     1     -12.192 -34.000 -13.296  1.00  0.00    -0.065 C 
ATOM     25  C   UNL     1     -14.489 -33.082 -13.609  1.00  0.00     0.014 C 
ATOM     26  C   UNL     1     -12.462 -31.749 -14.381  1.00  0.00     0.016 C 
ATOM     27  C   UNL     1     -12.297 -34.882 -14.524  1.00  0.00     0.063 C 
ATOM     28  C   UNL     1     -14.647 -33.985 -14.850  1.00  0.00     0.033 C 
ATOM     29  C   UNL     1     -13.770 -35.246 -14.758  1.00  0.00     0.118 C 
BRANCH  29  30
ATOM     30  O   UNL     1     -13.909 -36.034 -15.913  1.00  0.00    -0.393 OA
ATOM     31  H   UNL     1     -14.001 -35.419 -16.688  1.00  0.00     0.210 HD
ENDBRANCH  29  30
ENDBRANCH   9  11
ENDBRANCH   1   9
TORSDOF 7
ENDMDL
MODEL 7
REMARK VINA RESULT:    -6.887      1.714      4.173
REMARK INTER + INTRA:          -9.854
REMARK INTER:                  -9.298
REMARK INTRA:                  -0.556
REMARK UNBOUND:                -0.350
REMARK SMILES CC[C@H](CC[C@@H](C)[C@@H]1CC[C@@H]2[C@@H]3CC=C4C[C@H](O)CC[C@@]4(C)[C@H]3CC[C@@]21C)C(C)C
REMARK SMILES IDX 5 1 4 2 3 3 2 4 1 5 28 6 29 7 30 8 6 9 7 10 8 11 9 12 26 13
REMARK SMILES IDX 10 14 11 15 25 16 27 17 12 18 24 19 23 20 13 21 21 22 14 23
REMARK SMILES IDX 15 24 20 25 22 26 16 27 19 28 17 29 18 30
REMARK H PARENT 18 31
REMARK Flexibility Score: inf
ROOT
ATOM      1  C   UNL     1     -13.300 -25.818  -8.455  1.00  0.00     0.004 C 
ENDROOT
BRANCH   1   2
ATOM      2  C   UNL     1     -11.849 -26.249  -8.798  1.00  0.00     0.004 C 
BRANCH   2   3
ATOM      3  C   UNL     1     -10.859 -26.148  -7.596  1.00  0.00    -0.009 C 
BRANCH   3   4
ATOM      4  C   UNL     1     -11.404 -25.145  -6.539  1.00  0.00     0.000 C 
ATOM      5  C   UNL     1     -10.462 -23.976  -6.237  1.00  0.00     0.004 C 
ENDBRANCH   3   4
BRANCH   3   6
ATOM      6  C   UNL     1     -10.501 -27.550  -6.988  1.00  0.00    -0.014 C 
ATOM      7  C   UNL     1     -11.635 -28.104  -6.108  1.00  0.00     0.007 C 
ATOM      8  C   UNL     1     -10.174 -28.586  -8.079  1.00  0.00     0.007 C 
ENDBRANCH   3   6
ENDBRANCH   2   3
ENDBRANCH   1   2
BRANCH   1   9
ATOM      9  C   UNL     1     -14.369 -26.272  -9.483  1.00  0.00    -0.011 C 
ATOM     10  C   UNL     1     -13.995 -25.810 -10.904  1.00  0.00     0.008 C 
BRANCH   9  11
ATOM     11  C   UNL     1     -14.741 -27.797  -9.325  1.00  0.00    -0.002 C 
ATOM     12  C   UNL     1     -14.409 -28.476  -7.982  1.00  0.00     0.005 C 
ATOM     13  C   UNL     1     -14.175 -28.756 -10.411  1.00  0.00    -0.026 C 
ATOM     14  C   UNL     1     -14.222 -29.964  -8.287  1.00  0.00     0.005 C 
ATOM     15  C   UNL     1     -14.468 -30.142  -9.795  1.00  0.00    -0.001 C 
ATOM     16  C   UNL     1     -12.639 -28.567 -10.600  1.00  0.00     0.007 C 
ATOM     17  C   UNL     1     -14.928 -28.572 -11.751  1.00  0.00     0.012 C 
ATOM     18  C   UNL     1     -13.717 -31.333 -10.471  1.00  0.00     0.000 C 
ATOM     19  C   UNL     1     -11.993 -29.712 -11.382  1.00  0.00     0.005 C 
ATOM     20  C   UNL     1     -12.208 -31.077 -10.681  1.00  0.00     0.003 C 
ATOM     21  C   UNL     1     -13.902 -32.625  -9.662  1.00  0.00     0.031 C 
ATOM     22  C   UNL     1     -11.481 -32.288 -11.412  1.00  0.00    -0.008 C 
ATOM     23  C   UNL     1     -13.234 -33.780 -10.332  1.00  0.00    -0.027 C 
ATOM     24  C   UNL     1     -12.104 -33.654 -11.060  1.00  0.00    -0.065 C 
ATOM     25  C   UNL     1     -11.551 -32.149 -12.969  1.00  0.00     0.014 C 
ATOM     26  C   UNL     1      -9.999 -32.286 -10.956  1.00  0.00     0.016 C 
ATOM     27  C   UNL     1     -11.571 -34.879 -11.773  1.00  0.00     0.063 C 
ATOM     28  C   UNL     1     -11.021 -33.376 -13.741  1.00  0.00     0.033 C 
ATOM     29  C   UNL     1     -11.706 -34.678 -13.289  1.00  0.00     0.118 C 
BRANCH  29  30
ATOM     30  O   UNL     1     -11.184 -35.782 -13.985  1.00  0.00    -0.393 OA
ATOM     31  H   UNL     1     -10.254 -35.556 -14.253  1.00  0.00     0.210 HD
ENDBRANCH  29  30
ENDBRANCH   9  11
ENDBRANCH   1   9
TORSDOF 7
ENDMDL
MODEL 8
REMARK VINA RESULT:    -6.653      3.209      7.220
REMARK INTER + INTRA:          -9.532
REMARK INTER:                  -9.295
REMARK INTRA:                  -0.237
REMARK UNBOUND:                -0.350
REMARK SMILES CC[C@H](CC[C@@H](C)[C@@H]1CC[C@@H]2[C@@H]3CC=C4C[C@H](O)CC[C@@]4(C)[C@H]3CC[C@@]21C)C(C)C
REMARK SMILES IDX 5 1 4 2 3 3 2 4 1 5 28 6 29 7 30 8 6 9 7 10 8 11 9 12 26 13
REMARK SMILES IDX 10 14 11 15 25 16 27 17 12 18 24 19 23 20 13 21 21 22 14 23
REMARK SMILES IDX 15 24 20 25 22 26 16 27 19 28 17 29 18 30
REMARK H PARENT 18 31
REMARK Flexibility Score: inf
ROOT
ATOM      1  C   UNL     1     -14.144 -32.553 -13.340  1.00  0.00     0.004 C 
ENDROOT
BRANCH   1   2
ATOM      2  C   UNL     1     -12.651 -32.962 -13.441  1.00  0.00     0.004 C 
BRANCH   2   3
ATOM      3  C   UNL     1     -12.429 -34.456 -13.834  1.00  0.00    -0.009 C 
BRANCH   3   4
ATOM      4  C   UNL     1     -12.872 -34.690 -15.307  1.00  0.00     0.000 C 
ATOM      5  C   UNL     1     -13.588 -36.024 -15.543  1.00  0.00     0.004 C 
ENDBRANCH   3   4
BRANCH   3   6
ATOM      6  C   UNL     1     -10.966 -34.946 -13.546  1.00  0.00    -0.014 C 
ATOM      7  C   UNL     1     -10.013 -33.776 -13.247  1.00  0.00     0.007 C 
ATOM      8  C   UNL     1     -10.911 -35.939 -12.370  1.00  0.00     0.007 C 
ENDBRANCH   3   6
ENDBRANCH   2   3
ENDBRANCH   1   2
BRANCH   1   9
ATOM      9  C   UNL     1     -14.741 -32.631 -11.911  1.00  0.00    -0.011 C 
ATOM     10  C   UNL     1     -13.892 -33.549 -11.011  1.00  0.00     0.008 C 
BRANCH   9  11
ATOM     11  C   UNL     1     -15.079 -31.206 -11.325  1.00  0.00    -0.002 C 
ATOM     12  C   UNL     1     -15.169 -30.031 -12.317  1.00  0.00     0.005 C 
ATOM     13  C   UNL     1     -14.153 -30.698 -10.183  1.00  0.00    -0.026 C 
ATOM     14  C   UNL     1     -14.830 -28.768 -11.520  1.00  0.00     0.005 C 
ATOM     15  C   UNL     1     -14.570 -29.215 -10.072  1.00  0.00    -0.001 C 
ATOM     16  C   UNL     1     -12.647 -30.805 -10.573  1.00  0.00     0.007 C 
ATOM     17  C   UNL     1     -14.442 -31.458  -8.864  1.00  0.00     0.012 C 
ATOM     18  C   UNL     1     -13.592 -28.318  -9.248  1.00  0.00     0.000 C 
ATOM     19  C   UNL     1     -11.736 -30.000  -9.644  1.00  0.00     0.005 C 
ATOM     20  C   UNL     1     -12.108 -28.497  -9.639  1.00  0.00     0.003 C 
ATOM     21  C   UNL     1     -13.972 -26.836  -9.375  1.00  0.00     0.031 C 
ATOM     22  C   UNL     1     -11.134 -27.605  -8.753  1.00  0.00    -0.008 C 
ATOM     23  C   UNL     1     -13.076 -25.977  -8.546  1.00  0.00    -0.027 C 
ATOM     24  C   UNL     1     -11.778 -26.273  -8.320  1.00  0.00    -0.065 C 
ATOM     25  C   UNL     1     -10.704 -28.345  -7.443  1.00  0.00     0.014 C 
ATOM     26  C   UNL     1      -9.879 -27.293  -9.610  1.00  0.00     0.016 C 
ATOM     27  C   UNL     1     -10.992 -25.378  -7.383  1.00  0.00     0.063 C 
ATOM     28  C   UNL     1      -9.902 -27.472  -6.454  1.00  0.00     0.033 C 
ATOM     29  C   UNL     1     -10.641 -26.166  -6.113  1.00  0.00     0.118 C 
BRANCH  29  30
ATOM     30  O   UNL     1      -9.876 -25.377  -5.236  1.00  0.00    -0.393 OA
ATOM     31  H   UNL     1      -9.355 -24.734  -5.786  1.00  0.00     0.210 HD
ENDBRANCH  29  30
ENDBRANCH   9  11
ENDBRANCH   1   9
TORSDOF 7
ENDMDL
