MODEL 1
REMARK VINA RESULT:    -0.775      0.000      0.000
REMARK INTER + INTRA:          -3.499
REMARK INTER:                  -1.773
REMARK INTRA:                  -1.727
REMARK UNBOUND:                -1.727
REMARK SMILES CCCCCCCCCCCCCCCCCCCCCCCC(=O)[O-]
REMARK SMILES IDX 13 1 14 2 15 3 16 4 17 5 18 6 19 7 20 8 21 9 22 10 23 11
REMARK SMILES IDX 24 12 25 13 26 14 12 15 11 16 10 17 9 18 8 19 7 20 6 21 5 22
REMARK SMILES IDX 4 23 3 24 2 25 1 26
REMARK H PARENT
REMARK Flexibility Score: inf
ROOT
ATOM      1  C   UNL     1      27.615  -1.009  42.776  1.00  0.00     0.000 C 
ENDROOT
BRANCH   1   2
ATOM      2  C   UNL     1      28.532  -1.731  43.779  1.00  0.00     0.000 C 
BRANCH   2   3
ATOM      3  C   UNL     1      30.028  -1.477  43.517  1.00  0.00     0.000 C 
BRANCH   3   4
ATOM      4  C   UNL     1      30.341  -0.642  42.262  1.00  0.00     0.000 C 
BRANCH   4   5
ATOM      5  C   UNL     1      31.713  -0.967  41.650  1.00  0.00     0.000 C 
BRANCH   5   6
ATOM      6  C   UNL     1      31.854  -0.346  40.255  1.00  0.00     0.000 C 
BRANCH   6   7
ATOM      7  C   UNL     1      32.125   1.163  40.350  1.00  0.00     0.000 C 
BRANCH   7   8
ATOM      8  C   UNL     1      31.997   1.883  38.994  1.00  0.00     0.000 C 
BRANCH   8   9
ATOM      9  C   UNL     1      31.673   0.967  37.798  1.00  0.00     0.000 C 
BRANCH   9  10
ATOM     10  C   UNL     1      30.256   1.187  37.242  1.00  0.00     0.006 C 
BRANCH  10  11
ATOM     11  C   UNL     1      29.350  -0.031  37.470  1.00  0.00     0.053 C 
BRANCH  11  12
ATOM     12  C   UNL     1      28.751  -0.031  38.843  1.00  0.00     0.041 C 
ATOM     13  O   UNL     1      28.544   1.054  39.446  1.00  0.00    -0.550 OA
ATOM     14  O   UNL     1      28.417  -1.234  39.455  1.00  0.00    -0.550 OA
ENDBRANCH  11  12
ENDBRANCH  10  11
ENDBRANCH   9  10
ENDBRANCH   8   9
ENDBRANCH   7   8
ENDBRANCH   6   7
ENDBRANCH   5   6
ENDBRANCH   4   5
ENDBRANCH   3   4
ENDBRANCH   2   3
ENDBRANCH   1   2
BRANCH   1  15
ATOM     15  C   UNL     1      27.221   0.407  43.238  1.00  0.00     0.000 C 
BRANCH  15  16
ATOM     16  C   UNL     1      25.707   0.691  43.270  1.00  0.00     0.000 C 
BRANCH  16  17
ATOM     17  C   UNL     1      25.075   1.068  41.916  1.00  0.00     0.000 C 
BRANCH  17  18
ATOM     18  C   UNL     1      23.728   1.813  42.038  1.00  0.00    -0.000 C 
BRANCH  18  19
ATOM     19  C   UNL     1      23.385   2.638  40.784  1.00  0.00    -0.000 C 
BRANCH  19  20
ATOM     20  C   UNL     1      22.007   2.286  40.192  1.00  0.00    -0.000 C 
BRANCH  20  21
ATOM     21  C   UNL     1      21.601   0.806  40.313  1.00  0.00    -0.000 C 
BRANCH  21  22
ATOM     22  C   UNL     1      20.525   0.561  41.386  1.00  0.00    -0.000 C 
BRANCH  22  23
ATOM     23  C   UNL     1      19.800   1.854  41.797  1.00  0.00    -0.000 C 
BRANCH  23  24
ATOM     24  C   UNL     1      18.386   1.956  41.206  1.00  0.00    -0.000 C 
BRANCH  24  25
ATOM     25  C   UNL     1      18.441   2.198  39.693  1.00  0.00    -0.003 C 
ATOM     26  C   UNL     1      18.263   3.677  39.364  1.00  0.00     0.004 C 
ENDBRANCH  24  25
ENDBRANCH  23  24
ENDBRANCH  22  23
ENDBRANCH  21  22
ENDBRANCH  20  21
ENDBRANCH  19  20
ENDBRANCH  18  19
ENDBRANCH  17  18
ENDBRANCH  16  17
ENDBRANCH  15  16
ENDBRANCH   1  15
TORSDOF 22
ENDMDL
MODEL 2
REMARK VINA RESULT:    -0.756      3.384      9.605
REMARK INTER + INTRA:          -3.454
REMARK INTER:                  -2.597
REMARK INTRA:                  -0.857
REMARK UNBOUND:                -1.727
REMARK SMILES CCCCCCCCCCCCCCCCCCCCCCCC(=O)[O-]
REMARK SMILES IDX 13 1 14 2 15 3 16 4 17 5 18 6 19 7 20 8 21 9 22 10 23 11
REMARK SMILES IDX 24 12 25 13 26 14 12 15 11 16 10 17 9 18 8 19 7 20 6 21 5 22
REMARK SMILES IDX 4 23 3 24 2 25 1 26
REMARK H PARENT
REMARK Flexibility Score: inf
ROOT
ATOM      1  C   UNL     1      29.122   1.593  38.990  1.00  0.00     0.000 C 
ENDROOT
BRANCH   1   2
ATOM      2  C   UNL     1      27.643   1.955  38.768  1.00  0.00     0.000 C 
BRANCH   2   3
ATOM      3  C   UNL     1      27.443   3.414  38.318  1.00  0.00     0.000 C 
BRANCH   3   4
ATOM      4  C   UNL     1      26.158   4.088  38.834  1.00  0.00     0.000 C 
BRANCH   4   5
ATOM      5  C   UNL     1      24.983   3.109  38.985  1.00  0.00     0.000 C 
BRANCH   5   6
ATOM      6  C   UNL     1      23.880   3.706  39.867  1.00  0.00     0.000 C 
BRANCH   6   7
ATOM      7  C   UNL     1      23.259   2.632  40.774  1.00  0.00     0.000 C 
BRANCH   7   8
ATOM      8  C   UNL     1      21.936   2.071  40.221  1.00  0.00     0.000 C 
BRANCH   8   9
ATOM      9  C   UNL     1      21.611   0.627  40.648  1.00  0.00     0.000 C 
BRANCH   9  10
ATOM     10  C   UNL     1      20.413   0.542  41.609  1.00  0.00     0.006 C 
BRANCH  10  11
ATOM     11  C   UNL     1      19.723   1.900  41.797  1.00  0.00     0.053 C 
BRANCH  11  12
ATOM     12  C   UNL     1      18.497   2.025  40.945  1.00  0.00     0.041 C 
ATOM     13  O   UNL     1      17.401   1.542  41.334  1.00  0.00    -0.550 OA
ATOM     14  O   UNL     1      18.565   2.680  39.721  1.00  0.00    -0.550 OA
ENDBRANCH  11  12
ENDBRANCH  10  11
ENDBRANCH   9  10
ENDBRANCH   8   9
ENDBRANCH   7   8
ENDBRANCH   6   7
ENDBRANCH   5   6
ENDBRANCH   4   5
ENDBRANCH   3   4
ENDBRANCH   2   3
ENDBRANCH   1   2
BRANCH   1  15
ATOM     15  C   UNL     1      29.642   0.554  37.978  1.00  0.00     0.000 C 
BRANCH  15  16
ATOM     16  C   UNL     1      31.135   0.677  37.615  1.00  0.00     0.000 C 
BRANCH  16  17
ATOM     17  C   UNL     1      32.000   1.452  38.628  1.00  0.00     0.000 C 
BRANCH  17  18
ATOM     18  C   UNL     1      31.816   0.995  40.091  1.00  0.00    -0.000 C 
BRANCH  18  19
ATOM     19  C   UNL     1      31.955  -0.528  40.264  1.00  0.00    -0.000 C 
BRANCH  19  20
ATOM     20  C   UNL     1      30.675  -1.191  40.808  1.00  0.00    -0.000 C 
BRANCH  20  21
ATOM     21  C   UNL     1      30.062  -0.511  42.046  1.00  0.00    -0.000 C 
BRANCH  21  22
ATOM     22  C   UNL     1      28.651  -1.028  42.380  1.00  0.00    -0.000 C 
BRANCH  22  23
ATOM     23  C   UNL     1      28.391  -1.090  43.895  1.00  0.00    -0.000 C 
BRANCH  23  24
ATOM     24  C   UNL     1      29.423  -1.948  44.641  1.00  0.00    -0.000 C 
BRANCH  24  25
ATOM     25  C   UNL     1      30.254  -1.093  45.604  1.00  0.00    -0.003 C 
ATOM     26  C   UNL     1      30.477  -1.814  46.930  1.00  0.00     0.004 C 
ENDBRANCH  24  25
ENDBRANCH  23  24
ENDBRANCH  22  23
ENDBRANCH  21  22
ENDBRANCH  20  21
ENDBRANCH  19  20
ENDBRANCH  18  19
ENDBRANCH  17  18
ENDBRANCH  16  17
ENDBRANCH  15  16
ENDBRANCH   1  15
TORSDOF 22
ENDMDL
MODEL 3
REMARK VINA RESULT:    -0.630     14.180     15.611
REMARK INTER + INTRA:          -3.166
REMARK INTER:                  -2.883
REMARK INTRA:                  -0.283
REMARK UNBOUND:                -1.727
REMARK SMILES CCCCCCCCCCCCCCCCCCCCCCCC(=O)[O-]
REMARK SMILES IDX 13 1 14 2 15 3 16 4 17 5 18 6 19 7 20 8 21 9 22 10 23 11
REMARK SMILES IDX 24 12 25 13 26 14 12 15 11 16 10 17 9 18 8 19 7 20 6 21 5 22
REMARK SMILES IDX 4 23 3 24 2 25 1 26
REMARK H PARENT
REMARK Flexibility Score: inf
ROOT
ATOM      1  C   UNL     1      26.739  15.331  49.612  1.00  0.00     0.000 C 
ENDROOT
BRANCH   1   2
ATOM      2  C   UNL     1      27.223  16.792  49.619  1.00  0.00     0.000 C 
BRANCH   2   3
ATOM      3  C   UNL     1      26.979  17.511  48.279  1.00  0.00     0.000 C 
BRANCH   3   4
ATOM      4  C   UNL     1      28.226  17.686  47.392  1.00  0.00     0.000 C 
BRANCH   4   5
ATOM      5  C   UNL     1      29.163  16.468  47.426  1.00  0.00     0.000 C 
BRANCH   5   6
ATOM      6  C   UNL     1      30.127  16.548  48.616  1.00  0.00     0.000 C 
BRANCH   6   7
ATOM      7  C   UNL     1      31.551  16.150  48.199  1.00  0.00     0.000 C 
BRANCH   7   8
ATOM      8  C   UNL     1      32.050  14.876  48.906  1.00  0.00     0.000 C 
BRANCH   8   9
ATOM      9  C   UNL     1      31.147  14.366  50.044  1.00  0.00     0.000 C 
BRANCH   9  10
ATOM     10  C   UNL     1      31.092  12.830  50.123  1.00  0.00     0.006 C 
BRANCH  10  11
ATOM     11  C   UNL     1      29.965  12.246  49.261  1.00  0.00     0.053 C 
BRANCH  11  12
ATOM     12  C   UNL     1      30.218  12.451  47.798  1.00  0.00     0.041 C 
ATOM     13  O   UNL     1      29.296  12.861  47.045  1.00  0.00    -0.550 OA
ATOM     14  O   UNL     1      31.476  12.191  47.268  1.00  0.00    -0.550 OA
ENDBRANCH  11  12
ENDBRANCH  10  11
ENDBRANCH   9  10
ENDBRANCH   8   9
ENDBRANCH   7   8
ENDBRANCH   6   7
ENDBRANCH   5   6
ENDBRANCH   4   5
ENDBRANCH   3   4
ENDBRANCH   2   3
ENDBRANCH   1   2
BRANCH   1  15
ATOM     15  C   UNL     1      25.278  15.183  50.076  1.00  0.00     0.000 C 
BRANCH  15  16
ATOM     16  C   UNL     1      24.366  14.375  49.133  1.00  0.00     0.000 C 
BRANCH  16  17
ATOM     17  C   UNL     1      25.080  13.323  48.262  1.00  0.00     0.000 C 
BRANCH  17  18
ATOM     18  C   UNL     1      26.359  12.741  48.902  1.00  0.00    -0.000 C 
BRANCH  18  19
ATOM     19  C   UNL     1      26.179  11.291  49.385  1.00  0.00    -0.000 C 
BRANCH  19  20
ATOM     20  C   UNL     1      24.823  11.051  50.075  1.00  0.00    -0.000 C 
BRANCH  20  21
ATOM     21  C   UNL     1      23.871  10.096  49.331  1.00  0.00    -0.000 C 
BRANCH  21  22
ATOM     22  C   UNL     1      22.590   9.782  50.125  1.00  0.00    -0.000 C 
BRANCH  22  23
ATOM     23  C   UNL     1      21.489   9.167  49.245  1.00  0.00    -0.000 C 
BRANCH  23  24
ATOM     24  C   UNL     1      20.261   8.723  50.055  1.00  0.00    -0.000 C 
BRANCH  24  25
ATOM     25  C   UNL     1      19.912   7.259  49.762  1.00  0.00    -0.003 C 
ATOM     26  C   UNL     1      18.405   7.066  49.630  1.00  0.00     0.004 C 
ENDBRANCH  24  25
ENDBRANCH  23  24
ENDBRANCH  22  23
ENDBRANCH  21  22
ENDBRANCH  20  21
ENDBRANCH  19  20
ENDBRANCH  18  19
ENDBRANCH  17  18
ENDBRANCH  16  17
ENDBRANCH  15  16
ENDBRANCH   1  15
TORSDOF 22
ENDMDL
MODEL 4
REMARK VINA RESULT:    -0.482      2.359      4.751
REMARK INTER + INTRA:          -2.829
REMARK INTER:                  -1.304
REMARK INTRA:                  -1.525
REMARK UNBOUND:                -1.727
REMARK SMILES CCCCCCCCCCCCCCCCCCCCCCCC(=O)[O-]
REMARK SMILES IDX 13 1 14 2 15 3 16 4 17 5 18 6 19 7 20 8 21 9 22 10 23 11
REMARK SMILES IDX 24 12 25 13 26 14 12 15 11 16 10 17 9 18 8 19 7 20 6 21 5 22
REMARK SMILES IDX 4 23 3 24 2 25 1 26
REMARK H PARENT
REMARK Flexibility Score: inf
ROOT
ATOM      1  C   UNL     1      29.774   1.218  37.611  1.00  0.00     0.000 C 
ENDROOT
BRANCH   1   2
ATOM      2  C   UNL     1      31.174   0.625  37.847  1.00  0.00     0.000 C 
BRANCH   2   3
ATOM      3  C   UNL     1      32.107   1.577  38.619  1.00  0.00     0.000 C 
BRANCH   3   4
ATOM      4  C   UNL     1      31.470   2.278  39.833  1.00  0.00     0.000 C 
BRANCH   4   5
ATOM      5  C   UNL     1      31.179   1.318  40.998  1.00  0.00     0.000 C 
BRANCH   5   6
ATOM      6  C   UNL     1      31.707  -0.089  40.696  1.00  0.00     0.000 C 
BRANCH   6   7
ATOM      7  C   UNL     1      30.693  -1.161  41.125  1.00  0.00     0.000 C 
BRANCH   7   8
ATOM      8  C   UNL     1      29.300  -0.581  41.433  1.00  0.00     0.000 C 
BRANCH   8   9
ATOM      9  C   UNL     1      28.410  -1.463  42.328  1.00  0.00     0.000 C 
BRANCH   9  10
ATOM     10  C   UNL     1      28.284  -0.925  43.764  1.00  0.00     0.006 C 
BRANCH  10  11
ATOM     11  C   UNL     1      28.866  -1.896  44.800  1.00  0.00     0.053 C 
BRANCH  11  12
ATOM     12  C   UNL     1      30.170  -1.408  45.352  1.00  0.00     0.041 C 
ATOM     13  O   UNL     1      30.970  -0.766  44.620  1.00  0.00    -0.550 OA
ATOM     14  O   UNL     1      30.501  -1.659  46.678  1.00  0.00    -0.550 OA
ENDBRANCH  11  12
ENDBRANCH  10  11
ENDBRANCH   9  10
ENDBRANCH   8   9
ENDBRANCH   7   8
ENDBRANCH   6   7
ENDBRANCH   5   6
ENDBRANCH   4   5
ENDBRANCH   3   4
ENDBRANCH   2   3
ENDBRANCH   1   2
BRANCH   1  15
ATOM     15  C   UNL     1      28.699   0.593  38.521  1.00  0.00     0.000 C 
BRANCH  15  16
ATOM     16  C   UNL     1      27.636   1.573  39.054  1.00  0.00     0.000 C 
BRANCH  16  17
ATOM     17  C   UNL     1      27.530   2.911  38.296  1.00  0.00     0.000 C 
BRANCH  17  18
ATOM     18  C   UNL     1      26.436   3.855  38.840  1.00  0.00    -0.000 C 
BRANCH  18  19
ATOM     19  C   UNL     1      25.039   3.210  38.850  1.00  0.00    -0.000 C 
BRANCH  19  20
ATOM     20  C   UNL     1      24.279   3.442  40.170  1.00  0.00    -0.000 C 
BRANCH  20  21
ATOM     21  C   UNL     1      22.786   3.065  40.141  1.00  0.00    -0.000 C 
BRANCH  21  22
ATOM     22  C   UNL     1      22.543   1.551  40.271  1.00  0.00    -0.000 C 
BRANCH  22  23
ATOM     23  C   UNL     1      21.060   1.178  40.116  1.00  0.00    -0.000 C 
BRANCH  23  24
ATOM     24  C   UNL     1      20.296   1.210  41.448  1.00  0.00    -0.000 C 
BRANCH  24  25
ATOM     25  C   UNL     1      19.038   2.081  41.337  1.00  0.00    -0.003 C 
ATOM     26  C   UNL     1      18.688   2.363  39.880  1.00  0.00     0.004 C 
ENDBRANCH  24  25
ENDBRANCH  23  24
ENDBRANCH  22  23
ENDBRANCH  21  22
ENDBRANCH  20  21
ENDBRANCH  19  20
ENDBRANCH  18  19
ENDBRANCH  17  18
ENDBRANCH  16  17
ENDBRANCH  15  16
ENDBRANCH   1  15
TORSDOF 22
ENDMDL
MODEL 5
REMARK VINA RESULT:    -0.482      1.448      2.145
REMARK INTER + INTRA:          -2.828
REMARK INTER:                  -1.902
REMARK INTRA:                  -0.926
REMARK UNBOUND:                -1.727
REMARK SMILES CCCCCCCCCCCCCCCCCCCCCCCC(=O)[O-]
REMARK SMILES IDX 13 1 14 2 15 3 16 4 17 5 18 6 19 7 20 8 21 9 22 10 23 11
REMARK SMILES IDX 24 12 25 13 26 14 12 15 11 16 10 17 9 18 8 19 7 20 6 21 5 22
REMARK SMILES IDX 4 23 3 24 2 25 1 26
REMARK H PARENT
REMARK Flexibility Score: inf
ROOT
ATOM      1  C   UNL     1      27.525  -0.397  43.877  1.00  0.00     0.000 C 
ENDROOT
BRANCH   1   2
ATOM      2  C   UNL     1      28.256  -1.735  43.672  1.00  0.00     0.000 C 
BRANCH   2   3
ATOM      3  C   UNL     1      29.531  -1.860  44.526  1.00  0.00     0.000 C 
BRANCH   3   4
ATOM      4  C   UNL     1      30.562  -0.732  44.334  1.00  0.00     0.000 C 
BRANCH   4   5
ATOM      5  C   UNL     1      30.514  -0.106  42.930  1.00  0.00     0.000 C 
BRANCH   5   6
ATOM      6  C   UNL     1      31.368  -0.908  41.941  1.00  0.00     0.000 C 
BRANCH   6   7
ATOM      7  C   UNL     1      30.516  -1.424  40.771  1.00  0.00     0.000 C 
BRANCH   7   8
ATOM      8  C   UNL     1      29.298  -0.529  40.475  1.00  0.00     0.000 C 
BRANCH   8   9
ATOM      9  C   UNL     1      28.672  -0.720  39.081  1.00  0.00     0.000 C 
BRANCH   9  10
ATOM     10  C   UNL     1      29.172   0.309  38.054  1.00  0.00     0.006 C 
BRANCH  10  11
ATOM     11  C   UNL     1      29.858   1.509  38.722  1.00  0.00     0.053 C 
BRANCH  11  12
ATOM     12  C   UNL     1      31.349   1.369  38.724  1.00  0.00     0.041 C 
ATOM     13  O   UNL     1      31.907   0.494  38.011  1.00  0.00    -0.550 OA
ATOM     14  O   UNL     1      32.125   2.210  39.514  1.00  0.00    -0.550 OA
ENDBRANCH  11  12
ENDBRANCH  10  11
ENDBRANCH   9  10
ENDBRANCH   8   9
ENDBRANCH   7   8
ENDBRANCH   6   7
ENDBRANCH   5   6
ENDBRANCH   4   5
ENDBRANCH   3   4
ENDBRANCH   2   3
ENDBRANCH   1   2
BRANCH   1  15
ATOM     15  C   UNL     1      26.832   0.108  42.597  1.00  0.00     0.000 C 
BRANCH  15  16
ATOM     16  C   UNL     1      25.420   0.691  42.798  1.00  0.00     0.000 C 
BRANCH  16  17
ATOM     17  C   UNL     1      24.903   1.585  41.654  1.00  0.00     0.000 C 
BRANCH  17  18
ATOM     18  C   UNL     1      23.402   1.930  41.757  1.00  0.00    -0.000 C 
BRANCH  18  19
ATOM     19  C   UNL     1      22.794   2.365  40.411  1.00  0.00    -0.000 C 
BRANCH  19  20
ATOM     20  C   UNL     1      21.466   1.654  40.093  1.00  0.00    -0.000 C 
BRANCH  20  21
ATOM     21  C   UNL     1      21.311   0.251  40.709  1.00  0.00    -0.000 C 
BRANCH  21  22
ATOM     22  C   UNL     1      20.776   0.281  42.152  1.00  0.00    -0.000 C 
BRANCH  22  23
ATOM     23  C   UNL     1      19.240   0.289  42.210  1.00  0.00    -0.000 C 
BRANCH  23  24
ATOM     24  C   UNL     1      18.652   1.709  42.208  1.00  0.00    -0.000 C 
BRANCH  24  25
ATOM     25  C   UNL     1      17.736   1.920  40.997  1.00  0.00    -0.003 C 
ATOM     26  C   UNL     1      18.481   2.602  39.853  1.00  0.00     0.004 C 
ENDBRANCH  24  25
ENDBRANCH  23  24
ENDBRANCH  22  23
ENDBRANCH  21  22
ENDBRANCH  20  21
ENDBRANCH  19  20
ENDBRANCH  18  19
ENDBRANCH  17  18
ENDBRANCH  16  17
ENDBRANCH  15  16
ENDBRANCH   1  15
TORSDOF 22
ENDMDL
MODEL 6
REMARK VINA RESULT:    -0.372      2.428      4.470
REMARK INTER + INTRA:          -2.576
REMARK INTER:                  -1.540
REMARK INTRA:                  -1.036
REMARK UNBOUND:                -1.727
REMARK SMILES CCCCCCCCCCCCCCCCCCCCCCCC(=O)[O-]
REMARK SMILES IDX 13 1 14 2 15 3 16 4 17 5 18 6 19 7 20 8 21 9 22 10 23 11
REMARK SMILES IDX 24 12 25 13 26 14 12 15 11 16 10 17 9 18 8 19 7 20 6 21 5 22
REMARK SMILES IDX 4 23 3 24 2 25 1 26
REMARK H PARENT
REMARK Flexibility Score: inf
ROOT
ATOM      1  C   UNL     1      28.328   2.184  38.641  1.00  0.00     0.000 C 
ENDROOT
BRANCH   1   2
ATOM      2  C   UNL     1      28.770   0.754  38.282  1.00  0.00     0.000 C 
BRANCH   2   3
ATOM      3  C   UNL     1      30.272   0.652  37.962  1.00  0.00     0.000 C 
BRANCH   3   4
ATOM      4  C   UNL     1      31.174   1.644  38.719  1.00  0.00     0.000 C 
BRANCH   4   5
ATOM      5  C   UNL     1      31.230   1.373  40.231  1.00  0.00     0.000 C 
BRANCH   5   6
ATOM      6  C   UNL     1      31.806  -0.018  40.519  1.00  0.00     0.000 C 
BRANCH   6   7
ATOM      7  C   UNL     1      30.698  -1.082  40.523  1.00  0.00     0.000 C 
BRANCH   7   8
ATOM      8  C   UNL     1      30.141  -1.364  41.931  1.00  0.00     0.000 C 
BRANCH   8   9
ATOM      9  C   UNL     1      28.790  -0.695  42.244  1.00  0.00     0.000 C 
BRANCH   9  10
ATOM     10  C   UNL     1      28.441  -0.719  43.742  1.00  0.00     0.006 C 
BRANCH  10  11
ATOM     11  C   UNL     1      29.037  -1.940  44.455  1.00  0.00     0.053 C 
BRANCH  11  12
ATOM     12  C   UNL     1      30.045  -1.545  45.491  1.00  0.00     0.041 C 
ATOM     13  O   UNL     1      31.043  -0.846  45.173  1.00  0.00    -0.550 OA
ATOM     14  O   UNL     1      29.878  -1.947  46.811  1.00  0.00    -0.550 OA
ENDBRANCH  11  12
ENDBRANCH  10  11
ENDBRANCH   9  10
ENDBRANCH   8   9
ENDBRANCH   7   8
ENDBRANCH   6   7
ENDBRANCH   5   6
ENDBRANCH   4   5
ENDBRANCH   3   4
ENDBRANCH   2   3
ENDBRANCH   1   2
BRANCH   1  15
ATOM     15  C   UNL     1      26.809   2.301  38.871  1.00  0.00     0.000 C 
BRANCH  15  16
ATOM     16  C   UNL     1      26.227   3.720  38.718  1.00  0.00     0.000 C 
BRANCH  16  17
ATOM     17  C   UNL     1      24.699   3.829  38.880  1.00  0.00     0.000 C 
BRANCH  17  18
ATOM     18  C   UNL     1      24.171   3.301  40.231  1.00  0.00    -0.000 C 
BRANCH  18  19
ATOM     19  C   UNL     1      22.726   2.777  40.146  1.00  0.00    -0.000 C 
BRANCH  19  20
ATOM     20  C   UNL     1      22.499   1.504  40.983  1.00  0.00    -0.000 C 
BRANCH  20  21
ATOM     21  C   UNL     1      21.162   0.783  40.727  1.00  0.00    -0.000 C 
BRANCH  21  22
ATOM     22  C   UNL     1      20.582   0.123  41.990  1.00  0.00    -0.000 C 
BRANCH  22  23
ATOM     23  C   UNL     1      19.174   0.640  42.331  1.00  0.00    -0.000 C 
BRANCH  23  24
ATOM     24  C   UNL     1      18.920   2.061  41.807  1.00  0.00    -0.000 C 
BRANCH  24  25
ATOM     25  C   UNL     1      17.904   2.050  40.660  1.00  0.00    -0.003 C 
ATOM     26  C   UNL     1      18.369   2.927  39.501  1.00  0.00     0.004 C 
ENDBRANCH  24  25
ENDBRANCH  23  24
ENDBRANCH  22  23
ENDBRANCH  21  22
ENDBRANCH  20  21
ENDBRANCH  19  20
ENDBRANCH  18  19
ENDBRANCH  17  18
ENDBRANCH  16  17
ENDBRANCH  15  16
ENDBRANCH   1  15
TORSDOF 22
ENDMDL
MODEL 7
REMARK VINA RESULT:    -0.105      3.189      5.480
REMARK INTER + INTRA:          -1.968
REMARK INTER:                  -1.346
REMARK INTRA:                  -0.621
REMARK UNBOUND:                -1.727
REMARK SMILES CCCCCCCCCCCCCCCCCCCCCCCC(=O)[O-]
REMARK SMILES IDX 13 1 14 2 15 3 16 4 17 5 18 6 19 7 20 8 21 9 22 10 23 11
REMARK SMILES IDX 24 12 25 13 26 14 12 15 11 16 10 17 9 18 8 19 7 20 6 21 5 22
REMARK SMILES IDX 4 23 3 24 2 25 1 26
REMARK H PARENT
REMARK Flexibility Score: inf
ROOT
ATOM      1  C   UNL     1      22.477   2.340  40.870  1.00  0.00     0.000 C 
ENDROOT
BRANCH   1   2
ATOM      2  C   UNL     1      23.749   2.353  41.736  1.00  0.00     0.000 C 
BRANCH   2   3
ATOM      3  C   UNL     1      24.415   0.968  41.847  1.00  0.00     0.000 C 
BRANCH   3   4
ATOM      4  C   UNL     1      25.561   0.872  42.870  1.00  0.00     0.000 C 
BRANCH   4   5
ATOM      5  C   UNL     1      26.788   0.119  42.331  1.00  0.00     0.000 C 
BRANCH   5   6
ATOM      6  C   UNL     1      27.696  -0.345  43.476  1.00  0.00     0.000 C 
BRANCH   6   7
ATOM      7  C   UNL     1      28.706  -1.394  42.986  1.00  0.00     0.000 C 
BRANCH   7   8
ATOM      8  C   UNL     1      30.086  -0.794  42.662  1.00  0.00     0.000 C 
BRANCH   8   9
ATOM      9  C   UNL     1      30.542  -0.958  41.200  1.00  0.00     0.000 C 
BRANCH   9  10
ATOM     10  C   UNL     1      29.370  -0.963  40.204  1.00  0.00     0.006 C 
BRANCH  10  11
ATOM     11  C   UNL     1      29.577   0.039  39.060  1.00  0.00     0.053 C 
BRANCH  11  12
ATOM     12  C   UNL     1      30.751   0.936  39.311  1.00  0.00     0.041 C 
ATOM     13  O   UNL     1      31.794   0.828  38.614  1.00  0.00    -0.550 OA
ATOM     14  O   UNL     1      30.690   1.895  40.315  1.00  0.00    -0.550 OA
ENDBRANCH  11  12
ENDBRANCH  10  11
ENDBRANCH   9  10
ENDBRANCH   8   9
ENDBRANCH   7   8
ENDBRANCH   6   7
ENDBRANCH   5   6
ENDBRANCH   4   5
ENDBRANCH   3   4
ENDBRANCH   2   3
ENDBRANCH   1   2
BRANCH   1  15
ATOM     15  C   UNL     1      21.929   0.920  40.634  1.00  0.00     0.000 C 
BRANCH  15  16
ATOM     16  C   UNL     1      20.750   0.510  41.537  1.00  0.00     0.000 C 
BRANCH  16  17
ATOM     17  C   UNL     1      19.555   1.484  41.549  1.00  0.00     0.000 C 
BRANCH  17  18
ATOM     18  C   UNL     1      18.299   0.928  42.254  1.00  0.00    -0.000 C 
BRANCH  18  19
ATOM     19  C   UNL     1      18.624  -0.192  43.259  1.00  0.00    -0.000 C 
BRANCH  19  20
ATOM     20  C   UNL     1      18.333  -1.600  42.705  1.00  0.00    -0.000 C 
BRANCH  20  21
ATOM     21  C   UNL     1      16.908  -2.124  42.964  1.00  0.00    -0.000 C 
BRANCH  21  22
ATOM     22  C   UNL     1      15.815  -1.213  42.377  1.00  0.00    -0.000 C 
BRANCH  22  23
ATOM     23  C   UNL     1      14.707  -2.008  41.665  1.00  0.00    -0.000 C 
BRANCH  23  24
ATOM     24  C   UNL     1      13.362  -1.943  42.402  1.00  0.00    -0.000 C 
BRANCH  24  25
ATOM     25  C   UNL     1      12.192  -1.983  41.412  1.00  0.00    -0.003 C 
ATOM     26  C   UNL     1      11.984  -0.625  40.748  1.00  0.00     0.004 C 
ENDBRANCH  24  25
ENDBRANCH  23  24
ENDBRANCH  22  23
ENDBRANCH  21  22
ENDBRANCH  20  21
ENDBRANCH  19  20
ENDBRANCH  18  19
ENDBRANCH  17  18
ENDBRANCH  16  17
ENDBRANCH  15  16
ENDBRANCH   1  15
TORSDOF 22
ENDMDL
MODEL 8
REMARK VINA RESULT:    -0.063      1.507      2.859
REMARK INTER + INTRA:          -1.872
REMARK INTER:                  -0.163
REMARK INTRA:                  -1.709
REMARK UNBOUND:                -1.727
REMARK SMILES CCCCCCCCCCCCCCCCCCCCCCCC(=O)[O-]
REMARK SMILES IDX 13 1 14 2 15 3 16 4 17 5 18 6 19 7 20 8 21 9 22 10 23 11
REMARK SMILES IDX 24 12 25 13 26 14 12 15 11 16 10 17 9 18 8 19 7 20 6 21 5 22
REMARK SMILES IDX 4 23 3 24 2 25 1 26
REMARK H PARENT
REMARK Flexibility Score: inf
ROOT
ATOM      1  C   UNL     1      26.092   0.478  43.098  1.00  0.00     0.000 C 
ENDROOT
BRANCH   1   2
ATOM      2  C   UNL     1      26.911  -0.054  41.909  1.00  0.00     0.000 C 
BRANCH   2   3
ATOM      3  C   UNL     1      27.851  -1.211  42.297  1.00  0.00     0.000 C 
BRANCH   3   4
ATOM      4  C   UNL     1      28.468  -1.111  43.704  1.00  0.00     0.000 C 
BRANCH   4   5
ATOM      5  C   UNL     1      29.988  -0.882  43.679  1.00  0.00     0.000 C 
BRANCH   5   6
ATOM      6  C   UNL     1      30.421  -0.205  42.373  1.00  0.00     0.000 C 
BRANCH   6   7
ATOM      7  C   UNL     1      31.675  -0.878  41.794  1.00  0.00     0.000 C 
BRANCH   7   8
ATOM      8  C   UNL     1      31.999  -0.412  40.362  1.00  0.00     0.000 C 
BRANCH   8   9
ATOM      9  C   UNL     1      31.485   0.994  40.002  1.00  0.00     0.000 C 
BRANCH   9  10
ATOM     10  C   UNL     1      31.512   1.273  38.489  1.00  0.00     0.006 C 
BRANCH  10  11
ATOM     11  C   UNL     1      30.434   0.482  37.735  1.00  0.00     0.053 C 
BRANCH  11  12
ATOM     12  C   UNL     1      29.170   0.365  38.530  1.00  0.00     0.041 C 
ATOM     13  O   UNL     1      28.796  -0.755  38.969  1.00  0.00    -0.550 OA
ATOM     14  O   UNL     1      28.405   1.496  38.789  1.00  0.00    -0.550 OA
ENDBRANCH  11  12
ENDBRANCH  10  11
ENDBRANCH   9  10
ENDBRANCH   8   9
ENDBRANCH   7   8
ENDBRANCH   6   7
ENDBRANCH   5   6
ENDBRANCH   4   5
ENDBRANCH   3   4
ENDBRANCH   2   3
ENDBRANCH   1   2
BRANCH   1  15
ATOM     15  C   UNL     1      24.647   0.848  42.712  1.00  0.00     0.000 C 
BRANCH  15  16
ATOM     16  C   UNL     1      24.512   1.939  41.632  1.00  0.00     0.000 C 
BRANCH  16  17
ATOM     17  C   UNL     1      23.094   2.131  41.059  1.00  0.00     0.000 C 
BRANCH  17  18
ATOM     18  C   UNL     1      22.157   0.926  41.285  1.00  0.00    -0.000 C 
BRANCH  18  19
ATOM     19  C   UNL     1      21.172   0.708  40.122  1.00  0.00    -0.000 C 
BRANCH  19  20
ATOM     20  C   UNL     1      20.080   1.793  40.048  1.00  0.00    -0.000 C 
BRANCH  20  21
ATOM     21  C   UNL     1      19.425   2.156  41.393  1.00  0.00    -0.000 C 
BRANCH  21  22
ATOM     22  C   UNL     1      17.986   1.628  41.524  1.00  0.00    -0.000 C 
BRANCH  22  23
ATOM     23  C   UNL     1      17.796   0.735  42.762  1.00  0.00    -0.000 C 
BRANCH  23  24
ATOM     24  C   UNL     1      18.810  -0.417  42.824  1.00  0.00    -0.000 C 
BRANCH  24  25
ATOM     25  C   UNL     1      18.144  -1.707  43.318  1.00  0.00    -0.003 C 
ATOM     26  C   UNL     1      16.805  -1.938  42.624  1.00  0.00     0.004 C 
ENDBRANCH  24  25
ENDBRANCH  23  24
ENDBRANCH  22  23
ENDBRANCH  21  22
ENDBRANCH  20  21
ENDBRANCH  19  20
ENDBRANCH  18  19
ENDBRANCH  17  18
ENDBRANCH  16  17
ENDBRANCH  15  16
ENDBRANCH   1  15
TORSDOF 22
ENDMDL
MODEL 9
REMARK VINA RESULT:     0.018      1.139      3.257
REMARK INTER + INTRA:          -1.685
REMARK INTER:                  -0.116
REMARK INTRA:                  -1.568
REMARK UNBOUND:                -1.727
REMARK SMILES CCCCCCCCCCCCCCCCCCCCCCCC(=O)[O-]
REMARK SMILES IDX 13 1 14 2 15 3 16 4 17 5 18 6 19 7 20 8 21 9 22 10 23 11
REMARK SMILES IDX 24 12 25 13 26 14 12 15 11 16 10 17 9 18 8 19 7 20 6 21 5 22
REMARK SMILES IDX 4 23 3 24 2 25 1 26
REMARK H PARENT
REMARK Flexibility Score: inf
ROOT
ATOM      1  C   UNL     1      24.929   1.233  41.815  1.00  0.00     0.000 C 
ENDROOT
BRANCH   1   2
ATOM      2  C   UNL     1      25.351   0.824  43.237  1.00  0.00     0.000 C 
BRANCH   2   3
ATOM      3  C   UNL     1      26.833   0.413  43.329  1.00  0.00     0.000 C 
BRANCH   3   4
ATOM      4  C   UNL     1      27.283  -0.650  42.311  1.00  0.00     0.000 C 
BRANCH   4   5
ATOM      5  C   UNL     1      28.365  -1.592  42.864  1.00  0.00     0.000 C 
BRANCH   5   6
ATOM      6  C   UNL     1      29.318  -0.844  43.803  1.00  0.00     0.000 C 
BRANCH   6   7
ATOM      7  C   UNL     1      30.711  -0.698  43.172  1.00  0.00     0.000 C 
BRANCH   7   8
ATOM      8  C   UNL     1      30.730  -1.047  41.672  1.00  0.00     0.000 C 
BRANCH   8   9
ATOM      9  C   UNL     1      32.028  -0.673  40.932  1.00  0.00     0.000 C 
BRANCH   9  10
ATOM     10  C   UNL     1      31.781   0.221  39.705  1.00  0.00     0.006 C 
BRANCH  10  11
ATOM     11  C   UNL     1      30.384   0.857  39.723  1.00  0.00     0.053 C 
BRANCH  11  12
ATOM     12  C   UNL     1      29.492   0.273  38.671  1.00  0.00     0.041 C 
ATOM     13  O   UNL     1      28.667  -0.631  38.967  1.00  0.00    -0.550 OA
ATOM     14  O   UNL     1      29.570   0.731  37.361  1.00  0.00    -0.550 OA
ENDBRANCH  11  12
ENDBRANCH  10  11
ENDBRANCH   9  10
ENDBRANCH   8   9
ENDBRANCH   7   8
ENDBRANCH   6   7
ENDBRANCH   5   6
ENDBRANCH   4   5
ENDBRANCH   3   4
ENDBRANCH   2   3
ENDBRANCH   1   2
BRANCH   1  15
ATOM     15  C   UNL     1      23.755   2.230  41.803  1.00  0.00     0.000 C 
BRANCH  15  16
ATOM     16  C   UNL     1      23.138   2.505  40.418  1.00  0.00     0.000 C 
BRANCH  16  17
ATOM     17  C   UNL     1      21.689   2.013  40.230  1.00  0.00     0.000 C 
BRANCH  17  18
ATOM     18  C   UNL     1      21.503   0.501  40.477  1.00  0.00    -0.000 C 
BRANCH  18  19
ATOM     19  C   UNL     1      21.155   0.172  41.940  1.00  0.00    -0.000 C 
BRANCH  19  20
ATOM     20  C   UNL     1      20.248  -1.066  42.078  1.00  0.00    -0.000 C 
BRANCH  20  21
ATOM     21  C   UNL     1      18.863  -0.797  42.696  1.00  0.00    -0.000 C 
BRANCH  21  22
ATOM     22  C   UNL     1      18.692   0.653  43.183  1.00  0.00    -0.000 C 
BRANCH  22  23
ATOM     23  C   UNL     1      17.804   1.488  42.245  1.00  0.00    -0.000 C 
BRANCH  23  24
ATOM     24  C   UNL     1      18.616   2.420  41.334  1.00  0.00    -0.000 C 
BRANCH  24  25
ATOM     25  C   UNL     1      18.122   2.336  39.885  1.00  0.00    -0.003 C 
ATOM     26  C   UNL     1      18.357   3.649  39.144  1.00  0.00     0.004 C 
ENDBRANCH  24  25
ENDBRANCH  23  24
ENDBRANCH  22  23
ENDBRANCH  21  22
ENDBRANCH  20  21
ENDBRANCH  19  20
ENDBRANCH  18  19
ENDBRANCH  17  18
ENDBRANCH  16  17
ENDBRANCH  15  16
ENDBRANCH   1  15
TORSDOF 22
ENDMDL
