MODEL 1
REMARK VINA RESULT:    -4.973      0.000      0.000
REMARK INTER + INTRA:          -6.406
REMARK INTER:                  -5.990
REMARK INTRA:                  -0.416
REMARK UNBOUND:                -0.416
REMARK SMILES O=c1c(O)c(-c2ccc(O)cc2O)oc2cc(O)cc(O)c12
REMARK SMILES IDX 5 1 3 2 2 3 1 4 22 5 20 6 19 7 17 8 16 9 15 10 14 11 6 12
REMARK SMILES IDX 8 13 7 14 9 15 11 16 12 17 10 18 13 20 4 22 21 24 18 26
REMARK H PARENT 10 19 13 21 4 23 21 25 18 27
REMARK Flexibility Score: inf
ROOT
ATOM      1  C   UNL     1       2.382  -0.475  -8.487  1.00  0.00     0.184 A 
ATOM      2  C   UNL     1       1.757   0.257  -7.465  1.00  0.00     0.208 A 
ATOM      3  C   UNL     1       0.588  -0.253  -6.878  1.00  0.00     0.238 A 
ATOM      4  O   UNL     1       0.076   0.372  -5.914  1.00  0.00    -0.285 OA
ATOM      5  C   UNL     1       0.028  -1.461  -7.361  1.00  0.00     0.111 A 
ATOM      6  C   UNL     1      -1.178  -2.050  -6.871  1.00  0.00     0.134 A 
ATOM      7  C   UNL     1      -1.578  -3.302  -7.352  1.00  0.00     0.093 A 
ATOM      8  C   UNL     1      -0.853  -3.959  -8.348  1.00  0.00     0.123 A 
ATOM      9  C   UNL     1       0.294  -3.368  -8.871  1.00  0.00     0.094 A 
ATOM     10  C   UNL     1       0.742  -2.137  -8.386  1.00  0.00     0.146 A 
ATOM     11  O   UNL     1       1.853  -1.620  -8.898  1.00  0.00    -0.451 OA
ENDROOT
BRANCH   1  12
ATOM     12  C   UNL     1       3.617   0.002  -9.140  1.00  0.00     0.063 A 
ATOM     13  C   UNL     1       4.666   1.209 -10.972  1.00  0.00     0.047 A 
ATOM     14  C   UNL     1       3.516   0.749 -10.325  1.00  0.00     0.020 A 
ATOM     15  C   UNL     1       5.931   0.917 -10.451  1.00  0.00     0.119 A 
ATOM     16  C   UNL     1       6.042   0.153  -9.285  1.00  0.00     0.093 A 
ATOM     17  C   UNL     1       4.894  -0.318  -8.632  1.00  0.00     0.130 A 
BRANCH  15  18
ATOM     18  O   UNL     1       7.083   1.374 -11.086  1.00  0.00    -0.508 OA
ATOM     19  H   UNL     1       7.465   2.293 -10.894  1.00  0.00     0.293 HD
ENDBRANCH  15  18
BRANCH  17  20
ATOM     20  O   UNL     1       5.020  -1.119  -7.497  1.00  0.00    -0.507 OA
ATOM     21  H   UNL     1       4.547  -2.012  -7.422  1.00  0.00     0.293 HD
ENDBRANCH  17  20
ENDBRANCH   1  12
BRANCH   2  22
ATOM     22  O   UNL     1       2.291   1.483  -7.057  1.00  0.00    -0.502 OA
ATOM     23  H   UNL     1       1.721   2.216  -6.652  1.00  0.00     0.293 HD
ENDBRANCH   2  22
BRANCH   6  24
ATOM     24  O   UNL     1      -2.024  -1.440  -5.941  1.00  0.00    -0.507 OA
ATOM     25  H   UNL     1      -2.931  -1.787  -5.668  1.00  0.00     0.293 HD
ENDBRANCH   6  24
BRANCH   8  26
ATOM     26  O   UNL     1      -1.270  -5.197  -8.832  1.00  0.00    -0.508 OA
ATOM     27  H   UNL     1      -0.757  -6.046  -8.627  1.00  0.00     0.293 HD
ENDBRANCH   8  26
TORSDOF 6
ENDMDL
MODEL 2
REMARK VINA RESULT:    -4.942      3.723      7.664
REMARK INTER + INTRA:          -6.369
REMARK INTER:                  -5.953
REMARK INTRA:                  -0.416
REMARK UNBOUND:                -0.416
REMARK SMILES O=c1c(O)c(-c2ccc(O)cc2O)oc2cc(O)cc(O)c12
REMARK SMILES IDX 5 1 3 2 2 3 1 4 22 5 20 6 19 7 17 8 16 9 15 10 14 11 6 12
REMARK SMILES IDX 8 13 7 14 9 15 11 16 12 17 10 18 13 20 4 22 21 24 18 26
REMARK H PARENT 10 19 13 21 4 23 21 25 18 27
REMARK Flexibility Score: inf
ROOT
ATOM      1  C   UNL     1      -2.027   0.443  -8.396  1.00  0.00     0.184 A 
ATOM      2  C   UNL     1      -1.361  -0.267  -7.386  1.00  0.00     0.208 A 
ATOM      3  C   UNL     1      -0.191   0.274  -6.830  1.00  0.00     0.238 A 
ATOM      4  O   UNL     1       0.358  -0.333  -5.875  1.00  0.00    -0.285 OA
ATOM      5  C   UNL     1       0.328   1.492  -7.333  1.00  0.00     0.111 A 
ATOM      6  C   UNL     1       1.531   2.112  -6.876  1.00  0.00     0.134 A 
ATOM      7  C   UNL     1       1.891   3.371  -7.373  1.00  0.00     0.093 A 
ATOM      8  C   UNL     1       1.126   4.003  -8.355  1.00  0.00     0.123 A 
ATOM      9  C   UNL     1      -0.019   3.383  -8.847  1.00  0.00     0.094 A 
ATOM     10  C   UNL     1      -0.426   2.145  -8.345  1.00  0.00     0.146 A 
ATOM     11  O   UNL     1      -1.536   1.598  -8.827  1.00  0.00    -0.451 OA
ENDROOT
BRANCH   1  12
ATOM     12  C   UNL     1      -3.267  -0.067  -9.018  1.00  0.00     0.063 A 
ATOM     13  C   UNL     1      -4.326  -1.351 -10.789  1.00  0.00     0.047 A 
ATOM     14  C   UNL     1      -3.173  -0.858 -10.173  1.00  0.00     0.020 A 
ATOM     15  C   UNL     1      -5.588  -1.047 -10.267  1.00  0.00     0.119 A 
ATOM     16  C   UNL     1      -5.691  -0.239  -9.130  1.00  0.00     0.093 A 
ATOM     17  C   UNL     1      -4.540   0.265  -8.508  1.00  0.00     0.130 A 
BRANCH  15  18
ATOM     18  O   UNL     1      -6.743  -1.536 -10.871  1.00  0.00    -0.508 OA
ATOM     19  H   UNL     1      -7.350  -2.195 -10.398  1.00  0.00     0.293 HD
ENDBRANCH  15  18
BRANCH  17  20
ATOM     20  O   UNL     1      -4.659   1.109  -7.404  1.00  0.00    -0.507 OA
ATOM     21  H   UNL     1      -5.559   1.463  -7.101  1.00  0.00     0.293 HD
ENDBRANCH  17  20
ENDBRANCH   1  12
BRANCH   2  22
ATOM     22  O   UNL     1      -1.856  -1.503  -6.959  1.00  0.00    -0.502 OA
ATOM     23  H   UNL     1      -2.812  -1.627  -6.649  1.00  0.00     0.293 HD
ENDBRANCH   2  22
BRANCH   6  24
ATOM     24  O   UNL     1       2.414   1.528  -5.963  1.00  0.00    -0.507 OA
ATOM     25  H   UNL     1       2.863   0.633  -6.082  1.00  0.00     0.293 HD
ENDBRANCH   6  24
BRANCH   8  26
ATOM     26  O   UNL     1       1.502   5.248  -8.856  1.00  0.00    -0.508 OA
ATOM     27  H   UNL     1       1.937   5.345  -9.766  1.00  0.00     0.293 HD
ENDBRANCH   8  26
TORSDOF 6
ENDMDL
MODEL 3
REMARK VINA RESULT:    -4.918      5.731      9.292
REMARK INTER + INTRA:          -6.341
REMARK INTER:                  -5.925
REMARK INTRA:                  -0.416
REMARK UNBOUND:                -0.416
REMARK SMILES O=c1c(O)c(-c2ccc(O)cc2O)oc2cc(O)cc(O)c12
REMARK SMILES IDX 5 1 3 2 2 3 1 4 22 5 20 6 19 7 17 8 16 9 15 10 14 11 6 12
REMARK SMILES IDX 8 13 7 14 9 15 11 16 12 17 10 18 13 20 4 22 21 24 18 26
REMARK H PARENT 10 19 13 21 4 23 21 25 18 27
REMARK Flexibility Score: inf
ROOT
ATOM      1  C   UNL     1       5.544   4.326  -7.595  1.00  0.00     0.184 A 
ATOM      2  C   UNL     1       4.653   4.906  -8.510  1.00  0.00     0.208 A 
ATOM      3  C   UNL     1       4.719   6.289  -8.742  1.00  0.00     0.238 A 
ATOM      4  O   UNL     1       3.968   6.790  -9.618  1.00  0.00    -0.285 OA
ATOM      5  C   UNL     1       5.638   7.082  -8.011  1.00  0.00     0.111 A 
ATOM      6  C   UNL     1       5.763   8.500  -8.131  1.00  0.00     0.134 A 
ATOM      7  C   UNL     1       6.780   9.164  -7.436  1.00  0.00     0.093 A 
ATOM      8  C   UNL     1       7.636   8.474  -6.576  1.00  0.00     0.123 A 
ATOM      9  C   UNL     1       7.489   7.099  -6.410  1.00  0.00     0.094 A 
ATOM     10  C   UNL     1       6.509   6.401  -7.119  1.00  0.00     0.146 A 
ATOM     11  O   UNL     1       6.417   5.087  -6.947  1.00  0.00    -0.451 OA
ENDROOT
BRANCH   1  12
ATOM     12  C   UNL     1       5.532   2.876  -7.311  1.00  0.00     0.063 A 
ATOM     13  C   UNL     1       4.750   1.036  -5.928  1.00  0.00     0.047 A 
ATOM     14  C   UNL     1       4.777   2.401  -6.227  1.00  0.00     0.020 A 
ATOM     15  C   UNL     1       5.488   0.131  -6.699  1.00  0.00     0.119 A 
ATOM     16  C   UNL     1       6.262   0.599  -7.765  1.00  0.00     0.093 A 
ATOM     17  C   UNL     1       6.300   1.967  -8.070  1.00  0.00     0.130 A 
BRANCH  15  18
ATOM     18  O   UNL     1       5.464  -1.231  -6.411  1.00  0.00    -0.508 OA
ATOM     19  H   UNL     1       4.603  -1.707  -6.168  1.00  0.00     0.293 HD
ENDBRANCH  15  18
BRANCH  17  20
ATOM     20  O   UNL     1       7.114   2.426  -9.106  1.00  0.00    -0.507 OA
ATOM     21  H   UNL     1       6.783   2.467 -10.063  1.00  0.00     0.293 HD
ENDBRANCH  17  20
ENDBRANCH   1  12
BRANCH   2  22
ATOM     22  O   UNL     1       3.708   4.112  -9.165  1.00  0.00    -0.502 OA
ATOM     23  H   UNL     1       2.742   4.397  -9.276  1.00  0.00     0.293 HD
ENDBRANCH   2  22
BRANCH   6  24
ATOM     24  O   UNL     1       4.905   9.298  -8.893  1.00  0.00    -0.507 OA
ATOM     25  H   UNL     1       5.172   9.811  -9.718  1.00  0.00     0.293 HD
ENDBRANCH   6  24
BRANCH   8  26
ATOM     26  O   UNL     1       8.634   9.147  -5.875  1.00  0.00    -0.508 OA
ATOM     27  H   UNL     1       9.475   9.477  -6.334  1.00  0.00     0.293 HD
ENDBRANCH   8  26
TORSDOF 6
ENDMDL
MODEL 4
REMARK VINA RESULT:    -4.854      7.437      9.516
REMARK INTER + INTRA:          -6.263
REMARK INTER:                  -5.854
REMARK INTRA:                  -0.410
REMARK UNBOUND:                -0.416
REMARK SMILES O=c1c(O)c(-c2ccc(O)cc2O)oc2cc(O)cc(O)c12
REMARK SMILES IDX 5 1 3 2 2 3 1 4 22 5 20 6 19 7 17 8 16 9 15 10 14 11 6 12
REMARK SMILES IDX 8 13 7 14 9 15 11 16 12 17 10 18 13 20 4 22 21 24 18 26
REMARK H PARENT 10 19 13 21 4 23 21 25 18 27
REMARK Flexibility Score: inf
ROOT
ATOM      1  C   UNL     1      -5.261  -4.267  -7.551  1.00  0.00     0.184 A 
ATOM      2  C   UNL     1      -4.393  -4.821  -8.504  1.00  0.00     0.208 A 
ATOM      3  C   UNL     1      -4.465  -6.197  -8.772  1.00  0.00     0.238 A 
ATOM      4  O   UNL     1      -3.735  -6.673  -9.679  1.00  0.00    -0.285 OA
ATOM      5  C   UNL     1      -5.365  -7.011  -8.041  1.00  0.00     0.111 A 
ATOM      6  C   UNL     1      -5.493  -8.425  -8.197  1.00  0.00     0.134 A 
ATOM      7  C   UNL     1      -6.493  -9.109  -7.496  1.00  0.00     0.093 A 
ATOM      8  C   UNL     1      -7.328  -8.443  -6.597  1.00  0.00     0.123 A 
ATOM      9  C   UNL     1      -7.176  -7.074  -6.397  1.00  0.00     0.094 A 
ATOM     10  C   UNL     1      -6.214  -6.355  -7.109  1.00  0.00     0.146 A 
ATOM     11  O   UNL     1      -6.118  -5.047  -6.903  1.00  0.00    -0.451 OA
ENDROOT
BRANCH   1  12
ATOM     12  C   UNL     1      -5.242  -2.826  -7.227  1.00  0.00     0.063 A 
ATOM     13  C   UNL     1      -4.351  -1.011  -5.876  1.00  0.00     0.047 A 
ATOM     14  C   UNL     1      -4.389  -2.368  -6.211  1.00  0.00     0.020 A 
ATOM     15  C   UNL     1      -5.177  -0.099  -6.542  1.00  0.00     0.119 A 
ATOM     16  C   UNL     1      -6.047  -0.551  -7.539  1.00  0.00     0.093 A 
ATOM     17  C   UNL     1      -6.096  -1.910  -7.878  1.00  0.00     0.130 A 
BRANCH  15  18
ATOM     18  O   UNL     1      -5.145   1.255  -6.219  1.00  0.00    -0.508 OA
ATOM     19  H   UNL     1      -4.720   1.938  -6.836  1.00  0.00     0.293 HD
ENDBRANCH  15  18
BRANCH  17  20
ATOM     20  O   UNL     1      -7.003  -2.354  -8.840  1.00  0.00    -0.507 OA
ATOM     21  H   UNL     1      -6.835  -3.195  -9.381  1.00  0.00     0.293 HD
ENDBRANCH  17  20
ENDBRANCH   1  12
BRANCH   2  22
ATOM     22  O   UNL     1      -3.464  -4.008  -9.159  1.00  0.00    -0.502 OA
ATOM     23  H   UNL     1      -2.913  -3.312  -8.672  1.00  0.00     0.293 HD
ENDBRANCH   2  22
BRANCH   6  24
ATOM     24  O   UNL     1      -4.654  -9.201  -9.001  1.00  0.00    -0.507 OA
ATOM     25  H   UNL     1      -4.812 -10.168  -9.239  1.00  0.00     0.293 HD
ENDBRANCH   6  24
BRANCH   8  26
ATOM     26  O   UNL     1      -8.308  -9.136  -5.891  1.00  0.00    -0.508 OA
ATOM     27  H   UNL     1      -8.921  -9.801  -6.347  1.00  0.00     0.293 HD
ENDBRANCH   8  26
TORSDOF 6
ENDMDL
MODEL 5
REMARK VINA RESULT:    -4.815     14.659     15.811
REMARK INTER + INTRA:          -6.216
REMARK INTER:                  -5.840
REMARK INTRA:                  -0.376
REMARK UNBOUND:                -0.416
REMARK SMILES O=c1c(O)c(-c2ccc(O)cc2O)oc2cc(O)cc(O)c12
REMARK SMILES IDX 5 1 3 2 2 3 1 4 22 5 20 6 19 7 17 8 16 9 15 10 14 11 6 12
REMARK SMILES IDX 8 13 7 14 9 15 11 16 12 17 10 18 13 20 4 22 21 24 18 26
REMARK H PARENT 10 19 13 21 4 23 21 25 18 27
REMARK Flexibility Score: inf
ROOT
ATOM      1  C   UNL     1      -8.699   3.131 -19.119  1.00  0.00     0.184 A 
ATOM      2  C   UNL     1      -9.329   1.989 -19.636  1.00  0.00     0.208 A 
ATOM      3  C   UNL     1      -9.134   0.755 -18.995  1.00  0.00     0.238 A 
ATOM      4  O   UNL     1      -9.760  -0.250 -19.420  1.00  0.00    -0.285 OA
ATOM      5  C   UNL     1      -8.266   0.671 -17.879  1.00  0.00     0.111 A 
ATOM      6  C   UNL     1      -7.959  -0.535 -17.178  1.00  0.00     0.134 A 
ATOM      7  C   UNL     1      -7.170  -0.479 -16.022  1.00  0.00     0.093 A 
ATOM      8  C   UNL     1      -6.625   0.727 -15.578  1.00  0.00     0.123 A 
ATOM      9  C   UNL     1      -6.873   1.900 -16.286  1.00  0.00     0.094 A 
ATOM     10  C   UNL     1      -7.688   1.885 -17.421  1.00  0.00     0.146 A 
ATOM     11  O   UNL     1      -7.915   3.030 -18.053  1.00  0.00    -0.451 OA
ENDROOT
BRANCH   1  12
ATOM     12  C   UNL     1      -8.868   4.460 -19.741  1.00  0.00     0.063 A 
ATOM     13  C   UNL     1      -8.500   5.924 -21.648  1.00  0.00     0.047 A 
ATOM     14  C   UNL     1      -8.363   4.676 -21.033  1.00  0.00     0.020 A 
ATOM     15  C   UNL     1      -9.131   6.975 -20.973  1.00  0.00     0.119 A 
ATOM     16  C   UNL     1      -9.616   6.775 -19.677  1.00  0.00     0.093 A 
ATOM     17  C   UNL     1      -9.478   5.529 -19.050  1.00  0.00     0.130 A 
BRANCH  15  18
ATOM     18  O   UNL     1      -9.277   8.221 -21.578  1.00  0.00    -0.508 OA
ATOM     19  H   UNL     1      -8.759   8.469 -22.413  1.00  0.00     0.293 HD
ENDBRANCH  15  18
BRANCH  17  20
ATOM     20  O   UNL     1      -9.922   5.357 -17.739  1.00  0.00    -0.507 OA
ATOM     21  H   UNL     1      -9.276   5.328 -16.959  1.00  0.00     0.293 HD
ENDBRANCH  17  20
ENDBRANCH   1  12
BRANCH   2  22
ATOM     22  O   UNL     1     -10.123   2.087 -20.782  1.00  0.00    -0.502 OA
ATOM     23  H   UNL     1     -10.546   1.278 -21.220  1.00  0.00     0.293 HD
ENDBRANCH   2  22
BRANCH   6  24
ATOM     24  O   UNL     1      -8.379  -1.805 -17.584  1.00  0.00    -0.507 OA
ATOM     25  H   UNL     1      -7.791  -2.495 -18.024  1.00  0.00     0.293 HD
ENDBRANCH   6  24
BRANCH   8  26
ATOM     26  O   UNL     1      -5.827   0.769 -14.437  1.00  0.00    -0.508 OA
ATOM     27  H   UNL     1      -5.989   0.148 -13.654  1.00  0.00     0.293 HD
ENDBRANCH   8  26
TORSDOF 6
ENDMDL
MODEL 6
REMARK VINA RESULT:    -4.731      3.928      4.953
REMARK INTER + INTRA:          -6.115
REMARK INTER:                  -5.678
REMARK INTRA:                  -0.437
REMARK UNBOUND:                -0.416
REMARK SMILES O=c1c(O)c(-c2ccc(O)cc2O)oc2cc(O)cc(O)c12
REMARK SMILES IDX 5 1 3 2 2 3 1 4 22 5 20 6 19 7 17 8 16 9 15 10 14 11 6 12
REMARK SMILES IDX 8 13 7 14 9 15 11 16 12 17 10 18 13 20 4 22 21 24 18 26
REMARK H PARENT 10 19 13 21 4 23 21 25 18 27
REMARK Flexibility Score: inf
ROOT
ATOM      1  C   UNL     1      -2.242  -0.540  -7.748  1.00  0.00     0.184 A 
ATOM      2  C   UNL     1      -3.550  -0.492  -7.242  1.00  0.00     0.208 A 
ATOM      3  C   UNL     1      -4.249  -1.693  -7.044  1.00  0.00     0.238 A 
ATOM      4  O   UNL     1      -5.392  -1.646  -6.522  1.00  0.00    -0.285 OA
ATOM      5  C   UNL     1      -3.651  -2.924  -7.410  1.00  0.00     0.111 A 
ATOM      6  C   UNL     1      -4.282  -4.200  -7.296  1.00  0.00     0.134 A 
ATOM      7  C   UNL     1      -3.554  -5.359  -7.589  1.00  0.00     0.093 A 
ATOM      8  C   UNL     1      -2.238  -5.287  -8.053  1.00  0.00     0.123 A 
ATOM      9  C   UNL     1      -1.631  -4.045  -8.219  1.00  0.00     0.094 A 
ATOM     10  C   UNL     1      -2.318  -2.871  -7.899  1.00  0.00     0.146 A 
ATOM     11  O   UNL     1      -1.693  -1.709  -8.053  1.00  0.00    -0.451 OA
ENDROOT
BRANCH   1  12
ATOM     12  C   UNL     1      -1.449   0.686  -7.971  1.00  0.00     0.063 A 
ATOM     13  C   UNL     1      -0.976   2.631  -9.352  1.00  0.00     0.047 A 
ATOM     14  C   UNL     1      -1.712   1.468  -9.107  1.00  0.00     0.020 A 
ATOM     15  C   UNL     1       0.042   3.018  -8.472  1.00  0.00     0.119 A 
ATOM     16  C   UNL     1       0.326   2.231  -7.351  1.00  0.00     0.093 A 
ATOM     17  C   UNL     1      -0.404   1.060  -7.101  1.00  0.00     0.130 A 
BRANCH  15  18
ATOM     18  O   UNL     1       0.779   4.176  -8.704  1.00  0.00    -0.508 OA
ATOM     19  H   UNL     1       1.704   4.143  -9.116  1.00  0.00     0.293 HD
ENDBRANCH  15  18
BRANCH  17  20
ATOM     20  O   UNL     1      -0.078   0.259  -6.006  1.00  0.00    -0.507 OA
ATOM     21  H   UNL     1       0.757  -0.315  -5.998  1.00  0.00     0.293 HD
ENDBRANCH  17  20
ENDBRANCH   1  12
BRANCH   2  22
ATOM     22  O   UNL     1      -4.143   0.741  -6.956  1.00  0.00    -0.502 OA
ATOM     23  H   UNL     1      -3.600   1.568  -6.740  1.00  0.00     0.293 HD
ENDBRANCH   2  22
BRANCH   6  24
ATOM     24  O   UNL     1      -5.619  -4.381  -6.928  1.00  0.00    -0.507 OA
ATOM     25  H   UNL     1      -6.414  -4.151  -7.504  1.00  0.00     0.293 HD
ENDBRANCH   6  24
BRANCH   8  26
ATOM     26  O   UNL     1      -1.528  -6.445  -8.358  1.00  0.00    -0.508 OA
ATOM     27  H   UNL     1      -1.144  -6.605  -9.282  1.00  0.00     0.293 HD
ENDBRANCH   8  26
TORSDOF 6
ENDMDL
MODEL 7
REMARK VINA RESULT:    -4.711      2.903      6.716
REMARK INTER + INTRA:          -6.091
REMARK INTER:                  -5.658
REMARK INTRA:                  -0.433
REMARK UNBOUND:                -0.416
REMARK SMILES O=c1c(O)c(-c2ccc(O)cc2O)oc2cc(O)cc(O)c12
REMARK SMILES IDX 5 1 3 2 2 3 1 4 22 5 20 6 19 7 17 8 16 9 15 10 14 11 6 12
REMARK SMILES IDX 8 13 7 14 9 15 11 16 12 17 10 18 13 20 4 22 21 24 18 26
REMARK H PARENT 10 19 13 21 4 23 21 25 18 27
REMARK Flexibility Score: inf
ROOT
ATOM      1  C   UNL     1       2.480   0.520  -7.839  1.00  0.00     0.184 A 
ATOM      2  C   UNL     1       3.801   0.461  -7.368  1.00  0.00     0.208 A 
ATOM      3  C   UNL     1       4.500   1.659  -7.151  1.00  0.00     0.238 A 
ATOM      4  O   UNL     1       5.657   1.600  -6.660  1.00  0.00    -0.285 OA
ATOM      5  C   UNL     1       3.888   2.898  -7.462  1.00  0.00     0.111 A 
ATOM      6  C   UNL     1       4.518   4.172  -7.324  1.00  0.00     0.134 A 
ATOM      7  C   UNL     1       3.777   5.337  -7.561  1.00  0.00     0.093 A 
ATOM      8  C   UNL     1       2.451   5.273  -7.992  1.00  0.00     0.123 A 
ATOM      9  C   UNL     1       1.844   4.035  -8.182  1.00  0.00     0.094 A 
ATOM     10  C   UNL     1       2.543   2.855  -7.917  1.00  0.00     0.146 A 
ATOM     11  O   UNL     1       1.919   1.695  -8.092  1.00  0.00    -0.451 OA
ENDROOT
BRANCH   1  12
ATOM     12  C   UNL     1       1.686  -0.702  -8.081  1.00  0.00     0.063 A 
ATOM     13  C   UNL     1       1.218  -2.631  -9.485  1.00  0.00     0.047 A 
ATOM     14  C   UNL     1       1.955  -1.472  -9.223  1.00  0.00     0.020 A 
ATOM     15  C   UNL     1       0.194  -3.025  -8.617  1.00  0.00     0.119 A 
ATOM     16  C   UNL     1      -0.095  -2.251  -7.489  1.00  0.00     0.093 A 
ATOM     17  C   UNL     1       0.635  -1.084  -7.221  1.00  0.00     0.130 A 
BRANCH  15  18
ATOM     18  O   UNL     1      -0.543  -4.180  -8.866  1.00  0.00    -0.508 OA
ATOM     19  H   UNL     1      -0.367  -4.756  -9.681  1.00  0.00     0.293 HD
ENDBRANCH  15  18
BRANCH  17  20
ATOM     20  O   UNL     1       0.303  -0.294  -6.120  1.00  0.00    -0.507 OA
ATOM     21  H   UNL     1       0.857  -0.307  -5.271  1.00  0.00     0.293 HD
ENDBRANCH  17  20
ENDBRANCH   1  12
BRANCH   2  22
ATOM     22  O   UNL     1       4.406  -0.777  -7.138  1.00  0.00    -0.502 OA
ATOM     23  H   UNL     1       5.225  -0.881  -6.551  1.00  0.00     0.293 HD
ENDBRANCH   2  22
BRANCH   6  24
ATOM     24  O   UNL     1       5.862   4.348  -6.985  1.00  0.00    -0.507 OA
ATOM     25  H   UNL     1       6.249   5.176  -6.559  1.00  0.00     0.293 HD
ENDBRANCH   6  24
BRANCH   8  26
ATOM     26  O   UNL     1       1.728   6.438  -8.241  1.00  0.00    -0.508 OA
ATOM     27  H   UNL     1       2.150   7.354  -8.147  1.00  0.00     0.293 HD
ENDBRANCH   8  26
TORSDOF 6
ENDMDL
MODEL 8
REMARK VINA RESULT:    -4.677      2.261      3.678
REMARK INTER + INTRA:          -6.050
REMARK INTER:                  -5.616
REMARK INTRA:                  -0.434
REMARK UNBOUND:                -0.416
REMARK SMILES O=c1c(O)c(-c2ccc(O)cc2O)oc2cc(O)cc(O)c12
REMARK SMILES IDX 5 1 3 2 2 3 1 4 22 5 20 6 19 7 17 8 16 9 15 10 14 11 6 12
REMARK SMILES IDX 8 13 7 14 9 15 11 16 12 17 10 18 13 20 4 22 21 24 18 26
REMARK H PARENT 10 19 13 21 4 23 21 25 18 27
REMARK Flexibility Score: inf
ROOT
ATOM      1  C   UNL     1       1.002  -0.798  -8.910  1.00  0.00     0.184 A 
ATOM      2  C   UNL     1       0.749  -2.166  -9.093  1.00  0.00     0.208 A 
ATOM      3  C   UNL     1      -0.577  -2.624  -9.065  1.00  0.00     0.238 A 
ATOM      4  O   UNL     1      -0.800  -3.840  -9.303  1.00  0.00    -0.285 OA
ATOM      5  C   UNL     1      -1.630  -1.716  -8.797  1.00  0.00     0.111 A 
ATOM      6  C   UNL     1      -3.009  -2.075  -8.701  1.00  0.00     0.134 A 
ATOM      7  C   UNL     1      -3.974  -1.073  -8.538  1.00  0.00     0.093 A 
ATOM      8  C   UNL     1      -3.606   0.267  -8.404  1.00  0.00     0.123 A 
ATOM      9  C   UNL     1      -2.260   0.622  -8.442  1.00  0.00     0.094 A 
ATOM     10  C   UNL     1      -1.276  -0.348  -8.642  1.00  0.00     0.146 A 
ATOM     11  O   UNL     1      -0.006   0.037  -8.692  1.00  0.00    -0.451 OA
ENDROOT
BRANCH   1  12
ATOM     12  C   UNL     1       2.373  -0.251  -8.936  1.00  0.00     0.063 A 
ATOM     13  C   UNL     1       4.488   0.110  -7.791  1.00  0.00     0.047 A 
ATOM     14  C   UNL     1       3.187  -0.402  -7.803  1.00  0.00     0.020 A 
ATOM     15  C   UNL     1       4.985   0.793  -8.907  1.00  0.00     0.119 A 
ATOM     16  C   UNL     1       4.172   0.969 -10.031  1.00  0.00     0.093 A 
ATOM     17  C   UNL     1       2.864   0.463 -10.050  1.00  0.00     0.130 A 
BRANCH  15  18
ATOM     18  O   UNL     1       6.280   1.303  -8.908  1.00  0.00    -0.508 OA
ATOM     19  H   UNL     1       6.542   2.088  -8.322  1.00  0.00     0.293 HD
ENDBRANCH  15  18
BRANCH  17  20
ATOM     20  O   UNL     1       2.048   0.688 -11.158  1.00  0.00    -0.507 OA
ATOM     21  H   UNL     1       2.235   0.251 -12.053  1.00  0.00     0.293 HD
ENDBRANCH  17  20
ENDBRANCH   1  12
BRANCH   2  22
ATOM     22  O   UNL     1       1.813  -3.053  -9.284  1.00  0.00    -0.502 OA
ATOM     23  H   UNL     1       2.575  -2.858  -9.921  1.00  0.00     0.293 HD
ENDBRANCH   2  22
BRANCH   6  24
ATOM     24  O   UNL     1      -3.478  -3.392  -8.733  1.00  0.00    -0.507 OA
ATOM     25  H   UNL     1      -2.914  -4.211  -8.573  1.00  0.00     0.293 HD
ENDBRANCH   6  24
BRANCH   8  26
ATOM     26  O   UNL     1      -4.572   1.254  -8.225  1.00  0.00    -0.508 OA
ATOM     27  H   UNL     1      -5.251   1.469  -8.945  1.00  0.00     0.293 HD
ENDBRANCH   8  26
TORSDOF 6
ENDMDL
MODEL 9
REMARK VINA RESULT:    -4.669      3.195      6.649
REMARK INTER + INTRA:          -6.040
REMARK INTER:                  -5.715
REMARK INTRA:                  -0.326
REMARK UNBOUND:                -0.416
REMARK SMILES O=c1c(O)c(-c2ccc(O)cc2O)oc2cc(O)cc(O)c12
REMARK SMILES IDX 5 1 3 2 2 3 1 4 22 5 20 6 19 7 17 8 16 9 15 10 14 11 6 12
REMARK SMILES IDX 8 13 7 14 9 15 11 16 12 17 10 18 13 20 4 22 21 24 18 26
REMARK H PARENT 10 19 13 21 4 23 21 25 18 27
REMARK Flexibility Score: inf
ROOT
ATOM      1  C   UNL     1      -0.538   0.802  -8.987  1.00  0.00     0.184 A 
ATOM      2  C   UNL     1      -0.450   2.192  -8.821  1.00  0.00     0.208 A 
ATOM      3  C   UNL     1       0.730   2.743  -8.296  1.00  0.00     0.238 A 
ATOM      4  O   UNL     1       0.829   3.995  -8.220  1.00  0.00    -0.285 OA
ATOM      5  C   UNL     1       1.785   1.889  -7.890  1.00  0.00     0.111 A 
ATOM      6  C   UNL     1       3.009   2.333  -7.303  1.00  0.00     0.134 A 
ATOM      7  C   UNL     1       4.024   1.406  -7.040  1.00  0.00     0.093 A 
ATOM      8  C   UNL     1       3.837   0.043  -7.281  1.00  0.00     0.123 A 
ATOM      9  C   UNL     1       2.627  -0.407  -7.802  1.00  0.00     0.094 A 
ATOM     10  C   UNL     1       1.608   0.497  -8.112  1.00  0.00     0.146 A 
ATOM     11  O   UNL     1       0.478   0.027  -8.627  1.00  0.00    -0.451 OA
ENDROOT
BRANCH   1  12
ATOM     12  C   UNL     1      -1.747   0.160  -9.540  1.00  0.00     0.063 A 
ATOM     13  C   UNL     1      -2.833  -0.973 -11.397  1.00  0.00     0.047 A 
ATOM     14  C   UNL     1      -1.704  -0.365 -10.841  1.00  0.00     0.020 A 
ATOM     15  C   UNL     1      -4.023  -1.051 -10.665  1.00  0.00     0.119 A 
ATOM     16  C   UNL     1      -4.082  -0.509  -9.378  1.00  0.00     0.093 A 
ATOM     17  C   UNL     1      -2.956   0.108  -8.814  1.00  0.00     0.130 A 
BRANCH  15  18
ATOM     18  O   UNL     1      -5.152  -1.658 -11.208  1.00  0.00    -0.508 OA
ATOM     19  H   UNL     1      -5.093  -2.251 -12.028  1.00  0.00     0.293 HD
ENDBRANCH  15  18
BRANCH  17  20
ATOM     20  O   UNL     1      -3.042   0.687  -7.548  1.00  0.00    -0.507 OA
ATOM     21  H   UNL     1      -2.344   1.342  -7.214  1.00  0.00     0.293 HD
ENDBRANCH  17  20
ENDBRANCH   1  12
BRANCH   2  22
ATOM     22  O   UNL     1      -1.533   3.006  -9.163  1.00  0.00    -0.502 OA
ATOM     23  H   UNL     1      -1.601   3.973  -8.868  1.00  0.00     0.293 HD
ENDBRANCH   2  22
BRANCH   6  24
ATOM     24  O   UNL     1       3.267   3.659  -6.940  1.00  0.00    -0.507 OA
ATOM     25  H   UNL     1       3.648   4.363  -7.552  1.00  0.00     0.293 HD
ENDBRANCH   6  24
BRANCH   8  26
ATOM     26  O   UNL     1       4.847  -0.873  -6.999  1.00  0.00    -0.508 OA
ATOM     27  H   UNL     1       4.888  -1.362  -6.112  1.00  0.00     0.293 HD
ENDBRANCH   8  26
TORSDOF 6
ENDMDL
