MODEL 1
REMARK VINA RESULT:     1.656      0.000      0.000
REMARK INTER + INTRA:           2.262
REMARK INTER:                   4.367
REMARK INTRA:                  -2.105
REMARK UNBOUND:                -2.105
REMARK SMILES CCCCCCCCCCCCCCCCCCCCCCCCCCCCCC(=O)[O-]
REMARK SMILES IDX 16 1 17 2 18 3 19 4 20 5 21 6 22 7 23 8 24 9 25 10 26 11
REMARK SMILES IDX 27 12 28 13 29 14 30 15 31 16 32 17 15 18 14 19 13 20 12 21
REMARK SMILES IDX 11 22 10 23 9 24 8 25 7 26 6 27 5 28 4 29 3 30 2 31 1 32
REMARK H PARENT
REMARK Flexibility Score: inf
ROOT
ATOM      1  C   UNL     1     -10.464 -18.676   8.858  1.00  0.00     0.000 C 
ENDROOT
BRANCH   1   2
ATOM      2  C   UNL     1      -9.861 -18.949   7.465  1.00  0.00     0.000 C 
BRANCH   2   3
ATOM      3  C   UNL     1      -8.799 -20.061   7.426  1.00  0.00     0.000 C 
BRANCH   3   4
ATOM      4  C   UNL     1      -8.125 -20.195   6.050  1.00  0.00     0.000 C 
BRANCH   4   5
ATOM      5  C   UNL     1      -8.222 -21.620   5.484  1.00  0.00     0.000 C 
BRANCH   5   6
ATOM      6  C   UNL     1      -7.876 -21.685   3.985  1.00  0.00     0.000 C 
BRANCH   6   7
ATOM      7  C   UNL     1      -8.447 -22.939   3.300  1.00  0.00     0.000 C 
BRANCH   7   8
ATOM      8  C   UNL     1      -8.001 -23.113   1.829  1.00  0.00     0.000 C 
BRANCH   8   9
ATOM      9  C   UNL     1      -8.629 -22.089   0.865  1.00  0.00     0.000 C 
BRANCH   9  10
ATOM     10  C   UNL     1      -8.834 -22.595  -0.575  1.00  0.00     0.000 C 
BRANCH  10  11
ATOM     11  C   UNL     1      -9.697 -21.683  -1.467  1.00  0.00     0.000 C 
BRANCH  11  12
ATOM     12  C   UNL     1      -8.861 -20.742  -2.350  1.00  0.00     0.000 C 
BRANCH  12  13
ATOM     13  C   UNL     1      -9.701 -20.039  -3.431  1.00  0.00     0.006 C 
BRANCH  13  14
ATOM     14  C   UNL     1      -9.573 -18.507  -3.433  1.00  0.00     0.053 C 
BRANCH  14  15
ATOM     15  C   UNL     1      -9.634 -17.932  -2.050  1.00  0.00     0.041 C 
ATOM     16  O   UNL     1     -10.668 -18.081  -1.348  1.00  0.00    -0.550 OA
ATOM     17  O   UNL     1      -8.558 -17.213  -1.548  1.00  0.00    -0.550 OA
ENDBRANCH  14  15
ENDBRANCH  13  14
ENDBRANCH  12  13
ENDBRANCH  11  12
ENDBRANCH  10  11
ENDBRANCH   9  10
ENDBRANCH   8   9
ENDBRANCH   7   8
ENDBRANCH   6   7
ENDBRANCH   5   6
ENDBRANCH   4   5
ENDBRANCH   3   4
ENDBRANCH   2   3
ENDBRANCH   1   2
BRANCH   1  18
ATOM     18  C   UNL     1      -9.435 -18.430   9.979  1.00  0.00     0.000 C 
BRANCH  18  19
ATOM     19  C   UNL     1      -9.642 -19.272  11.256  1.00  0.00     0.000 C 
BRANCH  19  20
ATOM     20  C   UNL     1      -9.890 -20.772  11.019  1.00  0.00     0.000 C 
BRANCH  20  21
ATOM     21  C   UNL     1     -10.953 -21.358  11.963  1.00  0.00     0.000 C 
BRANCH  21  22
ATOM     22  C   UNL     1     -10.971 -20.662  13.333  1.00  0.00     0.000 C 
BRANCH  22  23
ATOM     23  C   UNL     1     -10.648 -21.620  14.495  1.00  0.00     0.000 C 
BRANCH  23  24
ATOM     24  C   UNL     1      -9.130 -21.842  14.658  1.00  0.00    -0.000 C 
BRANCH  24  25
ATOM     25  C   UNL     1      -8.524 -21.111  15.868  1.00  0.00    -0.000 C 
BRANCH  25  26
ATOM     26  C   UNL     1      -9.046 -19.671  16.009  1.00  0.00    -0.000 C 
BRANCH  26  27
ATOM     27  C   UNL     1      -7.921 -18.623  16.015  1.00  0.00    -0.000 C 
BRANCH  27  28
ATOM     28  C   UNL     1      -7.889 -17.688  14.790  1.00  0.00    -0.000 C 
BRANCH  28  29
ATOM     29  C   UNL     1      -8.913 -16.534  14.856  1.00  0.00    -0.000 C 
BRANCH  29  30
ATOM     30  C   UNL     1     -10.088 -16.740  13.889  1.00  0.00    -0.000 C 
BRANCH  30  31
ATOM     31  C   UNL     1     -11.191 -17.589  14.531  1.00  0.00    -0.003 C 
ATOM     32  C   UNL     1     -11.551 -17.067  15.920  1.00  0.00     0.004 C 
ENDBRANCH  30  31
ENDBRANCH  29  30
ENDBRANCH  28  29
ENDBRANCH  27  28
ENDBRANCH  26  27
ENDBRANCH  25  26
ENDBRANCH  24  25
ENDBRANCH  23  24
ENDBRANCH  22  23
ENDBRANCH  21  22
ENDBRANCH  20  21
ENDBRANCH  19  20
ENDBRANCH  18  19
ENDBRANCH   1  18
TORSDOF 28
ENDMDL
