MODEL 1
REMARK VINA RESULT:    -6.807      0.000      0.000
REMARK INTER + INTRA:          -7.544
REMARK INTER:                  -8.001
REMARK INTRA:                   0.457
REMARK UNBOUND:                 0.457
REMARK SMILES O=c1c(O)c(-c2ccc(O)cc2)oc2cc(O)cc(O)c12
REMARK SMILES IDX 5 1 3 2 2 3 1 4 21 5 19 6 18 7 16 8 15 9 14 10 13 11 6 12
REMARK SMILES IDX 7 13 8 14 9 15 12 16 11 17 10 18 4 20 20 22 17 24
REMARK H PARENT 10 19 4 21 20 23 17 25
REMARK Flexibility Score: inf
ROOT
ATOM      1  C   UNL     1      10.746  -7.118  -9.263  1.00  0.00     0.180 A 
ATOM      2  C   UNL     1       9.888  -8.222  -9.409  1.00  0.00     0.208 A 
ATOM      3  C   UNL     1       8.854  -8.409  -8.478  1.00  0.00     0.238 A 
ATOM      4  O   UNL     1       8.057  -9.368  -8.644  1.00  0.00    -0.285 OA
ATOM      5  C   UNL     1       8.701  -7.500  -7.403  1.00  0.00     0.111 A 
ATOM      6  C   UNL     1       7.714  -7.616  -6.379  1.00  0.00     0.134 A 
ATOM      7  C   UNL     1       7.571  -6.587  -5.439  1.00  0.00     0.093 A 
ATOM      8  C   UNL     1       8.423  -5.480  -5.448  1.00  0.00     0.123 A 
ATOM      9  C   UNL     1       9.427  -5.388  -6.407  1.00  0.00     0.094 A 
ATOM     10  C   UNL     1       9.572  -6.379  -7.380  1.00  0.00     0.146 A 
ATOM     11  O   UNL     1      10.536  -6.247  -8.283  1.00  0.00    -0.452 OA
ENDROOT
BRANCH   1  12
ATOM     12  C   UNL     1      11.873  -6.868 -10.190  1.00  0.00     0.021 A 
ATOM     13  C   UNL     1      12.587  -5.661 -10.103  1.00  0.00     0.016 A 
ATOM     14  C   UNL     1      13.669  -5.413 -10.954  1.00  0.00     0.047 A 
ATOM     15  C   UNL     1      14.060  -6.377 -11.891  1.00  0.00     0.115 A 
ATOM     16  C   UNL     1      12.285  -7.839 -11.122  1.00  0.00     0.016 A 
ATOM     17  C   UNL     1      13.368  -7.589 -11.971  1.00  0.00     0.047 A 
BRANCH  15  18
ATOM     18  O   UNL     1      15.136  -6.142 -12.745  1.00  0.00    -0.508 OA
ATOM     19  H   UNL     1      15.545  -5.220 -12.838  1.00  0.00     0.293 HD
ENDBRANCH  15  18
ENDBRANCH   1  12
BRANCH   2  20
ATOM     20  O   UNL     1      10.043  -9.095 -10.490  1.00  0.00    -0.502 OA
ATOM     21  H   UNL     1       9.286  -9.313 -11.127  1.00  0.00     0.293 HD
ENDBRANCH   2  20
BRANCH   6  22
ATOM     22  O   UNL     1       6.875  -8.722  -6.225  1.00  0.00    -0.507 OA
ATOM     23  H   UNL     1       7.160  -9.682  -6.351  1.00  0.00     0.293 HD
ENDBRANCH   6  22
BRANCH   8  24
ATOM     24  O   UNL     1       8.283  -4.469  -4.499  1.00  0.00    -0.508 OA
ATOM     25  H   UNL     1       7.718  -4.596  -3.668  1.00  0.00     0.293 HD
ENDBRANCH   8  24
TORSDOF 5
ENDMDL
MODEL 2
REMARK VINA RESULT:    -6.781      8.863     12.720
REMARK INTER + INTRA:          -7.513
REMARK INTER:                  -7.366
REMARK INTRA:                  -0.148
REMARK UNBOUND:                 0.457
REMARK SMILES O=c1c(O)c(-c2ccc(O)cc2)oc2cc(O)cc(O)c12
REMARK SMILES IDX 5 1 3 2 2 3 1 4 21 5 19 6 18 7 16 8 15 9 14 10 13 11 6 12
REMARK SMILES IDX 7 13 8 14 9 15 12 16 11 17 10 18 4 20 20 22 17 24
REMARK H PARENT 10 19 4 21 20 23 17 25
REMARK Flexibility Score: inf
ROOT
ATOM      1  C   UNL     1      18.532  -1.030 -16.735  1.00  0.00     0.180 A 
ATOM      2  C   UNL     1      17.912  -0.182 -15.800  1.00  0.00     0.208 A 
ATOM      3  C   UNL     1      17.179  -0.753 -14.747  1.00  0.00     0.238 A 
ATOM      4  O   UNL     1      16.672   0.009 -13.882  1.00  0.00    -0.285 OA
ATOM      5  C   UNL     1      17.062  -2.160 -14.649  1.00  0.00     0.111 A 
ATOM      6  C   UNL     1      16.311  -2.843 -13.647  1.00  0.00     0.134 A 
ATOM      7  C   UNL     1      16.372  -4.240 -13.570  1.00  0.00     0.093 A 
ATOM      8  C   UNL     1      17.105  -4.981 -14.501  1.00  0.00     0.123 A 
ATOM      9  C   UNL     1      17.793  -4.326 -15.519  1.00  0.00     0.094 A 
ATOM     10  C   UNL     1      17.780  -2.932 -15.600  1.00  0.00     0.146 A 
ATOM     11  O   UNL     1      18.459  -2.347 -16.580  1.00  0.00    -0.452 OA
ENDROOT
BRANCH   1  12
ATOM     12  C   UNL     1      19.300  -0.505 -17.887  1.00  0.00     0.021 A 
ATOM     13  C   UNL     1      18.792  -0.658 -19.187  1.00  0.00     0.016 A 
ATOM     14  C   UNL     1      19.491  -0.150 -20.287  1.00  0.00     0.047 A 
ATOM     15  C   UNL     1      20.699   0.532 -20.098  1.00  0.00     0.115 A 
ATOM     16  C   UNL     1      20.506   0.198 -17.703  1.00  0.00     0.016 A 
ATOM     17  C   UNL     1      21.203   0.706 -18.805  1.00  0.00     0.047 A 
BRANCH  15  18
ATOM     18  O   UNL     1      21.405   1.042 -21.185  1.00  0.00    -0.508 OA
ATOM     19  H   UNL     1      20.933   1.332 -22.033  1.00  0.00     0.293 HD
ENDBRANCH  15  18
ENDBRANCH   1  12
BRANCH   2  20
ATOM     20  O   UNL     1      18.059   1.203 -15.902  1.00  0.00    -0.502 OA
ATOM     21  H   UNL     1      17.544   1.757 -16.576  1.00  0.00     0.293 HD
ENDBRANCH   2  20
BRANCH   6  22
ATOM     22  O   UNL     1      15.475  -2.205 -12.728  1.00  0.00    -0.507 OA
ATOM     23  H   UNL     1      15.315  -1.209 -12.691  1.00  0.00     0.293 HD
ENDBRANCH   6  22
BRANCH   8  24
ATOM     24  O   UNL     1      17.148  -6.372 -14.427  1.00  0.00    -0.508 OA
ATOM     25  H   UNL     1      18.025  -6.877 -14.458  1.00  0.00     0.293 HD
ENDBRANCH   8  24
TORSDOF 5
ENDMDL
MODEL 3
REMARK VINA RESULT:    -6.573      2.301      2.544
REMARK INTER + INTRA:          -7.269
REMARK INTER:                  -6.983
REMARK INTRA:                  -0.286
REMARK UNBOUND:                 0.457
REMARK SMILES O=c1c(O)c(-c2ccc(O)cc2)oc2cc(O)cc(O)c12
REMARK SMILES IDX 5 1 3 2 2 3 1 4 21 5 19 6 18 7 16 8 15 9 14 10 13 11 6 12
REMARK SMILES IDX 7 13 8 14 9 15 12 16 11 17 10 18 4 20 20 22 17 24
REMARK H PARENT 10 19 4 21 20 23 17 25
REMARK Flexibility Score: inf
ROOT
ATOM      1  C   UNL     1      10.294  -7.646 -10.192  1.00  0.00     0.180 A 
ATOM      2  C   UNL     1      10.173  -8.430  -9.031  1.00  0.00     0.208 A 
ATOM      3  C   UNL     1       9.271  -8.030  -8.032  1.00  0.00     0.238 A 
ATOM      4  O   UNL     1       9.128  -8.764  -7.019  1.00  0.00    -0.285 OA
ATOM      5  C   UNL     1       8.514  -6.846  -8.198  1.00  0.00     0.111 A 
ATOM      6  C   UNL     1       7.601  -6.326  -7.232  1.00  0.00     0.134 A 
ATOM      7  C   UNL     1       6.809  -5.218  -7.557  1.00  0.00     0.093 A 
ATOM      8  C   UNL     1       6.945  -4.572  -8.789  1.00  0.00     0.123 A 
ATOM      9  C   UNL     1       7.876  -5.036  -9.714  1.00  0.00     0.094 A 
ATOM     10  C   UNL     1       8.654  -6.161  -9.433  1.00  0.00     0.146 A 
ATOM     11  O   UNL     1       9.522  -6.577 -10.348  1.00  0.00    -0.452 OA
ENDROOT
BRANCH   1  12
ATOM     12  C   UNL     1      11.240  -7.988 -11.279  1.00  0.00     0.021 A 
ATOM     13  C   UNL     1      12.576  -7.563 -11.194  1.00  0.00     0.016 A 
ATOM     14  C   UNL     1      13.491  -7.893 -12.198  1.00  0.00     0.047 A 
ATOM     15  C   UNL     1      13.085  -8.667 -13.292  1.00  0.00     0.115 A 
ATOM     16  C   UNL     1      10.844  -8.782 -12.371  1.00  0.00     0.016 A 
ATOM     17  C   UNL     1      11.762  -9.112 -13.374  1.00  0.00     0.047 A 
BRANCH  15  18
ATOM     18  O   UNL     1      13.987  -9.003 -14.299  1.00  0.00    -0.508 OA
ATOM     19  H   UNL     1      14.972  -8.775 -14.225  1.00  0.00     0.293 HD
ENDBRANCH  15  18
ENDBRANCH   1  12
BRANCH   2  20
ATOM     20  O   UNL     1      10.914  -9.607  -8.897  1.00  0.00    -0.502 OA
ATOM     21  H   UNL     1      10.683 -10.321  -8.216  1.00  0.00     0.293 HD
ENDBRANCH   2  20
BRANCH   6  22
ATOM     22  O   UNL     1       7.455  -6.839  -5.941  1.00  0.00    -0.507 OA
ATOM     23  H   UNL     1       6.958  -7.688  -5.712  1.00  0.00     0.293 HD
ENDBRANCH   6  22
BRANCH   8  24
ATOM     24  O   UNL     1       6.164  -3.460  -9.098  1.00  0.00    -0.508 OA
ATOM     25  H   UNL     1       5.152  -3.504  -9.087  1.00  0.00     0.293 HD
ENDBRANCH   8  24
TORSDOF 5
ENDMDL
MODEL 4
REMARK VINA RESULT:    -6.527      8.965     14.629
REMARK INTER + INTRA:          -7.214
REMARK INTER:                  -6.957
REMARK INTRA:                  -0.257
REMARK UNBOUND:                 0.457
REMARK SMILES O=c1c(O)c(-c2ccc(O)cc2)oc2cc(O)cc(O)c12
REMARK SMILES IDX 5 1 3 2 2 3 1 4 21 5 19 6 18 7 16 8 15 9 14 10 13 11 6 12
REMARK SMILES IDX 7 13 8 14 9 15 12 16 11 17 10 18 4 20 20 22 17 24
REMARK H PARENT 10 19 4 21 20 23 17 25
REMARK Flexibility Score: inf
ROOT
ATOM      1  C   UNL     1      18.014  -0.261 -15.511  1.00  0.00     0.180 A 
ATOM      2  C   UNL     1      19.052   0.549 -15.019  1.00  0.00     0.208 A 
ATOM      3  C   UNL     1      20.090   0.926 -15.886  1.00  0.00     0.238 A 
ATOM      4  O   UNL     1      20.988   1.695 -15.454  1.00  0.00    -0.285 OA
ATOM      5  C   UNL     1      20.087   0.476 -17.228  1.00  0.00     0.111 A 
ATOM      6  C   UNL     1      21.109   0.764 -18.182  1.00  0.00     0.134 A 
ATOM      7  C   UNL     1      20.936   0.376 -19.517  1.00  0.00     0.093 A 
ATOM      8  C   UNL     1      19.808  -0.346 -19.917  1.00  0.00     0.123 A 
ATOM      9  C   UNL     1      18.834  -0.683 -18.980  1.00  0.00     0.094 A 
ATOM     10  C   UNL     1      18.961  -0.279 -17.649  1.00  0.00     0.146 A 
ATOM     11  O   UNL     1      18.004  -0.612 -16.792  1.00  0.00    -0.452 OA
ENDROOT
BRANCH   1  12
ATOM     12  C   UNL     1      16.898  -0.720 -14.653  1.00  0.00     0.021 A 
ATOM     13  C   UNL     1      16.939  -2.006 -14.091  1.00  0.00     0.016 A 
ATOM     14  C   UNL     1      15.907  -2.451 -13.260  1.00  0.00     0.047 A 
ATOM     15  C   UNL     1      14.827  -1.609 -12.968  1.00  0.00     0.115 A 
ATOM     16  C   UNL     1      15.819   0.128 -14.339  1.00  0.00     0.016 A 
ATOM     17  C   UNL     1      14.787  -0.320 -13.507  1.00  0.00     0.047 A 
BRANCH  15  18
ATOM     18  O   UNL     1      13.792  -2.041 -12.142  1.00  0.00    -0.508 OA
ATOM     19  H   UNL     1      13.915  -2.815 -11.500  1.00  0.00     0.293 HD
ENDBRANCH  15  18
ENDBRANCH   1  12
BRANCH   2  20
ATOM     20  O   UNL     1      19.025   1.000 -13.696  1.00  0.00    -0.502 OA
ATOM     21  H   UNL     1      18.170   1.300 -13.241  1.00  0.00     0.293 HD
ENDBRANCH   2  20
BRANCH   6  22
ATOM     22  O   UNL     1      22.313   1.397 -17.867  1.00  0.00    -0.507 OA
ATOM     23  H   UNL     1      22.432   2.071 -17.126  1.00  0.00     0.293 HD
ENDBRANCH   6  22
BRANCH   8  24
ATOM     24  O   UNL     1      19.652  -0.741 -21.244  1.00  0.00    -0.508 OA
ATOM     25  H   UNL     1      20.440  -1.043 -21.803  1.00  0.00     0.293 HD
ENDBRANCH   8  24
TORSDOF 5
ENDMDL
MODEL 5
REMARK VINA RESULT:    -6.467     12.164     15.319
REMARK INTER + INTRA:          -7.144
REMARK INTER:                  -7.004
REMARK INTRA:                  -0.140
REMARK UNBOUND:                 0.457
REMARK SMILES O=c1c(O)c(-c2ccc(O)cc2)oc2cc(O)cc(O)c12
REMARK SMILES IDX 5 1 3 2 2 3 1 4 21 5 19 6 18 7 16 8 15 9 14 10 13 11 6 12
REMARK SMILES IDX 7 13 8 14 9 15 12 16 11 17 10 18 4 20 20 22 17 24
REMARK H PARENT 10 19 4 21 20 23 17 25
REMARK Flexibility Score: inf
ROOT
ATOM      1  C   UNL     1      20.627   0.643 -17.396  1.00  0.00     0.180 A 
ATOM      2  C   UNL     1      21.727   1.097 -16.647  1.00  0.00     0.208 A 
ATOM      3  C   UNL     1      21.526   1.491 -15.314  1.00  0.00     0.238 A 
ATOM      4  O   UNL     1      22.523   1.846 -14.633  1.00  0.00    -0.285 OA
ATOM      5  C   UNL     1      20.228   1.441 -14.752  1.00  0.00     0.111 A 
ATOM      6  C   UNL     1      19.903   1.854 -13.425  1.00  0.00     0.134 A 
ATOM      7  C   UNL     1      18.611   1.637 -12.931  1.00  0.00     0.093 A 
ATOM      8  C   UNL     1      17.615   1.083 -13.739  1.00  0.00     0.123 A 
ATOM      9  C   UNL     1      17.907   0.733 -15.054  1.00  0.00     0.094 A 
ATOM     10  C   UNL     1      19.196   0.903 -15.564  1.00  0.00     0.146 A 
ATOM     11  O   UNL     1      19.434   0.545 -16.820  1.00  0.00    -0.452 OA
ENDROOT
BRANCH   1  12
ATOM     12  C   UNL     1      20.753   0.234 -18.814  1.00  0.00     0.021 A 
ATOM     13  C   UNL     1      20.416  -1.077 -19.189  1.00  0.00     0.016 A 
ATOM     14  C   UNL     1      20.507  -1.477 -20.526  1.00  0.00     0.047 A 
ATOM     15  C   UNL     1      20.921  -0.567 -21.506  1.00  0.00     0.115 A 
ATOM     16  C   UNL     1      21.150   1.149 -19.807  1.00  0.00     0.016 A 
ATOM     17  C   UNL     1      21.239   0.745 -21.144  1.00  0.00     0.047 A 
BRANCH  15  18
ATOM     18  O   UNL     1      21.016  -0.954 -22.840  1.00  0.00    -0.508 OA
ATOM     19  H   UNL     1      20.279  -0.748 -23.505  1.00  0.00     0.293 HD
ENDBRANCH  15  18
ENDBRANCH   1  12
BRANCH   2  20
ATOM     20  O   UNL     1      23.003   1.118 -17.215  1.00  0.00    -0.502 OA
ATOM     21  H   UNL     1      23.348   0.370 -17.806  1.00  0.00     0.293 HD
ENDBRANCH   2  20
BRANCH   6  22
ATOM     22  O   UNL     1      20.798   2.500 -12.568  1.00  0.00    -0.507 OA
ATOM     23  H   UNL     1      21.225   3.396 -12.752  1.00  0.00     0.293 HD
ENDBRANCH   6  22
BRANCH   8  24
ATOM     24  O   UNL     1      16.327   0.886 -13.244  1.00  0.00    -0.508 OA
ATOM     25  H   UNL     1      15.594   0.488 -13.819  1.00  0.00     0.293 HD
ENDBRANCH   8  24
TORSDOF 5
ENDMDL
MODEL 6
REMARK VINA RESULT:    -6.455      1.917      3.367
REMARK INTER + INTRA:          -7.131
REMARK INTER:                  -6.834
REMARK INTRA:                  -0.297
REMARK UNBOUND:                 0.457
REMARK SMILES O=c1c(O)c(-c2ccc(O)cc2)oc2cc(O)cc(O)c12
REMARK SMILES IDX 5 1 3 2 2 3 1 4 21 5 19 6 18 7 16 8 15 9 14 10 13 11 6 12
REMARK SMILES IDX 7 13 8 14 9 15 12 16 11 17 10 18 4 20 20 22 17 24
REMARK H PARENT 10 19 4 21 20 23 17 25
REMARK Flexibility Score: inf
ROOT
ATOM      1  C   UNL     1      12.754  -5.966 -10.530  1.00  0.00     0.180 A 
ATOM      2  C   UNL     1      12.645  -7.234 -11.128  1.00  0.00     0.208 A 
ATOM      3  C   UNL     1      11.724  -8.156 -10.606  1.00  0.00     0.238 A 
ATOM      4  O   UNL     1      11.593  -9.269 -11.178  1.00  0.00    -0.285 OA
ATOM      5  C   UNL     1      10.935  -7.806  -9.484  1.00  0.00     0.111 A 
ATOM      6  C   UNL     1       9.999  -8.676  -8.848  1.00  0.00     0.134 A 
ATOM      7  C   UNL     1       9.178  -8.180  -7.828  1.00  0.00     0.093 A 
ATOM      8  C   UNL     1       9.306  -6.864  -7.376  1.00  0.00     0.123 A 
ATOM      9  C   UNL     1      10.258  -6.025  -7.950  1.00  0.00     0.094 A 
ATOM     10  C   UNL     1      11.066  -6.480  -8.995  1.00  0.00     0.146 A 
ATOM     11  O   UNL     1      11.953  -5.644  -9.521  1.00  0.00    -0.452 OA
ENDROOT
BRANCH   1  12
ATOM     12  C   UNL     1      13.718  -4.949 -11.008  1.00  0.00     0.021 A 
ATOM     13  C   UNL     1      13.308  -3.996 -11.954  1.00  0.00     0.016 A 
ATOM     14  C   UNL     1      14.197  -3.013 -12.402  1.00  0.00     0.047 A 
ATOM     15  C   UNL     1      15.502  -2.962 -11.896  1.00  0.00     0.115 A 
ATOM     16  C   UNL     1      15.025  -4.879 -10.490  1.00  0.00     0.016 A 
ATOM     17  C   UNL     1      15.912  -3.895 -10.939  1.00  0.00     0.047 A 
BRANCH  15  18
ATOM     18  O   UNL     1      16.396  -1.989 -12.335  1.00  0.00    -0.508 OA
ATOM     19  H   UNL     1      17.039  -2.166 -13.097  1.00  0.00     0.293 HD
ENDBRANCH  15  18
ENDBRANCH   1  12
BRANCH   2  20
ATOM     20  O   UNL     1      13.418  -7.551 -12.248  1.00  0.00    -0.502 OA
ATOM     21  H   UNL     1      13.459  -6.955 -13.067  1.00  0.00     0.293 HD
ENDBRANCH   2  20
BRANCH   6  22
ATOM     22  O   UNL     1       9.857 -10.030  -9.160  1.00  0.00    -0.507 OA
ATOM     23  H   UNL     1      10.263 -10.480  -9.967  1.00  0.00     0.293 HD
ENDBRANCH   6  22
BRANCH   8  24
ATOM     24  O   UNL     1       8.496  -6.383  -6.349  1.00  0.00    -0.508 OA
ATOM     25  H   UNL     1       7.496  -6.542  -6.345  1.00  0.00     0.293 HD
ENDBRANCH   8  24
TORSDOF 5
ENDMDL
MODEL 7
REMARK VINA RESULT:    -6.325      2.032      7.009
REMARK INTER + INTRA:          -6.977
REMARK INTER:                  -6.710
REMARK INTRA:                  -0.268
REMARK UNBOUND:                 0.457
REMARK SMILES O=c1c(O)c(-c2ccc(O)cc2)oc2cc(O)cc(O)c12
REMARK SMILES IDX 5 1 3 2 2 3 1 4 21 5 19 6 18 7 16 8 15 9 14 10 13 11 6 12
REMARK SMILES IDX 7 13 8 14 9 15 12 16 11 17 10 18 4 20 20 22 17 24
REMARK H PARENT 10 19 4 21 20 23 17 25
REMARK Flexibility Score: inf
ROOT
ATOM      1  C   UNL     1      11.719  -6.243 -10.222  1.00  0.00     0.180 A 
ATOM      2  C   UNL     1      11.821  -7.357 -11.074  1.00  0.00     0.208 A 
ATOM      3  C   UNL     1      12.973  -7.509 -11.861  1.00  0.00     0.238 A 
ATOM      4  O   UNL     1      13.082  -8.535 -12.581  1.00  0.00    -0.285 OA
ATOM      5  C   UNL     1      14.002  -6.539 -11.799  1.00  0.00     0.111 A 
ATOM      6  C   UNL     1      15.196  -6.571 -12.582  1.00  0.00     0.134 A 
ATOM      7  C   UNL     1      16.204  -5.630 -12.343  1.00  0.00     0.093 A 
ATOM      8  C   UNL     1      16.034  -4.617 -11.395  1.00  0.00     0.123 A 
ATOM      9  C   UNL     1      14.849  -4.542 -10.668  1.00  0.00     0.094 A 
ATOM     10  C   UNL     1      13.839  -5.488 -10.858  1.00  0.00     0.146 A 
ATOM     11  O   UNL     1      12.730  -5.386 -10.136  1.00  0.00    -0.452 OA
ENDROOT
BRANCH   1  12
ATOM     12  C   UNL     1      10.526  -6.001  -9.380  1.00  0.00     0.021 A 
ATOM     13  C   UNL     1      10.587  -6.258  -8.000  1.00  0.00     0.016 A 
ATOM     14  C   UNL     1       9.478  -6.015  -7.183  1.00  0.00     0.047 A 
ATOM     15  C   UNL     1       8.299  -5.497  -7.734  1.00  0.00     0.115 A 
ATOM     16  C   UNL     1       9.344  -5.463  -9.922  1.00  0.00     0.016 A 
ATOM     17  C   UNL     1       8.236  -5.220  -9.103  1.00  0.00     0.047 A 
BRANCH  15  18
ATOM     18  O   UNL     1       7.188  -5.252  -6.931  1.00  0.00    -0.508 OA
ATOM     19  H   UNL     1       6.833  -4.313  -6.793  1.00  0.00     0.293 HD
ENDBRANCH  15  18
ENDBRANCH   1  12
BRANCH   2  20
ATOM     20  O   UNL     1      10.803  -8.315 -11.103  1.00  0.00    -0.502 OA
ATOM     21  H   UNL     1      10.877  -9.171 -11.640  1.00  0.00     0.293 HD
ENDBRANCH   2  20
BRANCH   6  22
ATOM     22  O   UNL     1      15.425  -7.483 -13.615  1.00  0.00    -0.507 OA
ATOM     23  H   UNL     1      14.878  -8.315 -13.780  1.00  0.00     0.293 HD
ENDBRANCH   6  22
BRANCH   8  24
ATOM     24  O   UNL     1      17.037  -3.675 -11.175  1.00  0.00    -0.508 OA
ATOM     25  H   UNL     1      18.018  -3.922 -11.230  1.00  0.00     0.293 HD
ENDBRANCH   8  24
TORSDOF 5
ENDMDL
MODEL 8
REMARK VINA RESULT:    -6.145     13.169     15.638
REMARK INTER + INTRA:          -6.766
REMARK INTER:                  -6.503
REMARK INTRA:                  -0.263
REMARK UNBOUND:                 0.457
REMARK SMILES O=c1c(O)c(-c2ccc(O)cc2)oc2cc(O)cc(O)c12
REMARK SMILES IDX 5 1 3 2 2 3 1 4 21 5 19 6 18 7 16 8 15 9 14 10 13 11 6 12
REMARK SMILES IDX 7 13 8 14 9 15 12 16 11 17 10 18 4 20 20 22 17 24
REMARK H PARENT 10 19 4 21 20 23 17 25
REMARK Flexibility Score: inf
ROOT
ATOM      1  C   UNL     1       8.241   3.766 -17.845  1.00  0.00     0.180 A 
ATOM      2  C   UNL     1       7.891   5.121 -17.706  1.00  0.00     0.208 A 
ATOM      3  C   UNL     1       8.911   6.079 -17.591  1.00  0.00     0.238 A 
ATOM      4  O   UNL     1       8.594   7.294 -17.521  1.00  0.00    -0.285 OA
ATOM      5  C   UNL     1      10.266   5.670 -17.602  1.00  0.00     0.111 A 
ATOM      6  C   UNL     1      11.380   6.551 -17.452  1.00  0.00     0.134 A 
ATOM      7  C   UNL     1      12.679   6.053 -17.610  1.00  0.00     0.093 A 
ATOM      8  C   UNL     1      12.907   4.695 -17.846  1.00  0.00     0.123 A 
ATOM      9  C   UNL     1      11.829   3.818 -17.933  1.00  0.00     0.094 A 
ATOM     10  C   UNL     1      10.520   4.290 -17.817  1.00  0.00     0.146 A 
ATOM     11  O   UNL     1       9.521   3.422 -17.919  1.00  0.00    -0.452 OA
ENDROOT
BRANCH   1  12
ATOM     12  C   UNL     1       7.223   2.696 -17.947  1.00  0.00     0.021 A 
ATOM     13  C   UNL     1       6.613   2.434 -19.185  1.00  0.00     0.016 A 
ATOM     14  C   UNL     1       5.665   1.413 -19.307  1.00  0.00     0.047 A 
ATOM     15  C   UNL     1       5.328   0.630 -18.196  1.00  0.00     0.115 A 
ATOM     16  C   UNL     1       6.893   1.892 -16.839  1.00  0.00     0.016 A 
ATOM     17  C   UNL     1       5.945   0.871 -16.965  1.00  0.00     0.047 A 
BRANCH  15  18
ATOM     18  O   UNL     1       4.385  -0.389 -18.305  1.00  0.00    -0.508 OA
ATOM     19  H   UNL     1       4.145  -0.794 -19.203  1.00  0.00     0.293 HD
ENDBRANCH  15  18
ENDBRANCH   1  12
BRANCH   2  20
ATOM     20  O   UNL     1       6.547   5.505 -17.720  1.00  0.00    -0.502 OA
ATOM     21  H   UNL     1       5.789   4.832 -17.726  1.00  0.00     0.293 HD
ENDBRANCH   2  20
BRANCH   6  22
ATOM     22  O   UNL     1      11.265   7.904 -17.125  1.00  0.00    -0.507 OA
ATOM     23  H   UNL     1      10.881   8.612 -17.733  1.00  0.00     0.293 HD
ENDBRANCH   6  22
BRANCH   8  24
ATOM     24  O   UNL     1      14.205   4.206 -17.985  1.00  0.00    -0.508 OA
ATOM     25  H   UNL     1      14.694   3.772 -17.212  1.00  0.00     0.293 HD
ENDBRANCH   8  24
TORSDOF 5
ENDMDL
MODEL 9
REMARK VINA RESULT:    -6.100      7.945     10.437
REMARK INTER + INTRA:          -6.712
REMARK INTER:                  -6.470
REMARK INTRA:                  -0.242
REMARK UNBOUND:                 0.457
REMARK SMILES O=c1c(O)c(-c2ccc(O)cc2)oc2cc(O)cc(O)c12
REMARK SMILES IDX 5 1 3 2 2 3 1 4 21 5 19 6 18 7 16 8 15 9 14 10 13 11 6 12
REMARK SMILES IDX 7 13 8 14 9 15 12 16 11 17 10 18 4 20 20 22 17 24
REMARK H PARENT 10 19 4 21 20 23 17 25
REMARK Flexibility Score: inf
ROOT
ATOM      1  C   UNL     1      18.249  -1.879  -8.800  1.00  0.00     0.180 A 
ATOM      2  C   UNL     1      17.644  -0.614  -8.702  1.00  0.00     0.208 A 
ATOM      3  C   UNL     1      16.606  -0.286  -9.589  1.00  0.00     0.238 A 
ATOM      4  O   UNL     1      16.032   0.827  -9.462  1.00  0.00    -0.285 OA
ATOM      5  C   UNL     1      16.198  -1.218 -10.572  1.00  0.00     0.111 A 
ATOM      6  C   UNL     1      15.185  -0.976 -11.549  1.00  0.00     0.134 A 
ATOM      7  C   UNL     1      14.772  -2.018 -12.388  1.00  0.00     0.093 A 
ATOM      8  C   UNL     1      15.382  -3.274 -12.331  1.00  0.00     0.123 A 
ATOM      9  C   UNL     1      16.412  -3.502 -11.423  1.00  0.00     0.094 A 
ATOM     10  C   UNL     1      16.821  -2.494 -10.547  1.00  0.00     0.146 A 
ATOM     11  O   UNL     1      17.799  -2.757  -9.689  1.00  0.00    -0.452 OA
ENDROOT
BRANCH   1  12
ATOM     12  C   UNL     1      19.365  -2.290  -7.917  1.00  0.00     0.021 A 
ATOM     13  C   UNL     1      20.684  -2.233  -8.396  1.00  0.00     0.016 A 
ATOM     14  C   UNL     1      21.754  -2.595  -7.572  1.00  0.00     0.047 A 
ATOM     15  C   UNL     1      21.519  -3.003  -6.253  1.00  0.00     0.115 A 
ATOM     16  C   UNL     1      19.138  -2.682  -6.585  1.00  0.00     0.016 A 
ATOM     17  C   UNL     1      20.210  -3.043  -5.762  1.00  0.00     0.047 A 
BRANCH  15  18
ATOM     18  O   UNL     1      22.576  -3.367  -5.422  1.00  0.00    -0.508 OA
ATOM     19  H   UNL     1      22.967  -4.301  -5.442  1.00  0.00     0.293 HD
ENDBRANCH  15  18
ENDBRANCH   1  12
BRANCH   2  20
ATOM     20  O   UNL     1      18.047   0.283  -7.710  1.00  0.00    -0.502 OA
ATOM     21  H   UNL     1      18.204  -0.002  -6.750  1.00  0.00     0.293 HD
ENDBRANCH   2  20
BRANCH   6  22
ATOM     22  O   UNL     1      14.578   0.266 -11.750  1.00  0.00    -0.507 OA
ATOM     23  H   UNL     1      13.586   0.407 -11.878  1.00  0.00     0.293 HD
ENDBRANCH   6  22
BRANCH   8  24
ATOM     24  O   UNL     1      14.975  -4.300 -13.182  1.00  0.00    -0.508 OA
ATOM     25  H   UNL     1      14.043  -4.695 -13.128  1.00  0.00     0.293 HD
ENDBRANCH   8  24
TORSDOF 5
ENDMDL
