MODEL 1
REMARK VINA RESULT:    -6.479      0.000      0.000
REMARK INTER + INTRA:          -8.124
REMARK INTER:                  -7.805
REMARK INTRA:                  -0.319
REMARK UNBOUND:                -0.319
REMARK SMILES O=c1c(O)c(-c2ccc(O)c(O)c2)oc2cc(O)cc(O)c12
REMARK SMILES IDX 5 1 3 2 2 3 1 4 22 5 20 6 19 7 17 8 16 9 15 10 14 11 6 12
REMARK SMILES IDX 7 13 8 14 9 15 13 16 11 17 10 18 12 20 4 22 21 24 18 26
REMARK H PARENT 10 19 12 21 4 23 21 25 18 27
REMARK Flexibility Score: inf
ROOT
ATOM      1  C   UNL     1     -17.747  13.637  -8.192  1.00  0.00     0.180 A 
ATOM      2  C   UNL     1     -18.069  14.372  -7.038  1.00  0.00     0.208 A 
ATOM      3  C   UNL     1     -17.197  15.386  -6.611  1.00  0.00     0.238 A 
ATOM      4  O   UNL     1     -17.518  16.076  -5.609  1.00  0.00    -0.285 OA
ATOM      5  C   UNL     1     -16.007  15.641  -7.333  1.00  0.00     0.111 A 
ATOM      6  C   UNL     1     -15.031  16.618  -6.968  1.00  0.00     0.134 A 
ATOM      7  C   UNL     1     -13.956  16.874  -7.828  1.00  0.00     0.093 A 
ATOM      8  C   UNL     1     -13.786  16.145  -9.007  1.00  0.00     0.123 A 
ATOM      9  C   UNL     1     -14.700  15.149  -9.342  1.00  0.00     0.094 A 
ATOM     10  C   UNL     1     -15.803  14.895  -8.522  1.00  0.00     0.146 A 
ATOM     11  O   UNL     1     -16.657  13.944  -8.885  1.00  0.00    -0.452 OA
ENDROOT
BRANCH   1  12
ATOM     12  C   UNL     1     -18.604  12.536  -8.690  1.00  0.00     0.025 A 
ATOM     13  C   UNL     1     -19.606  12.765  -9.649  1.00  0.00     0.016 A 
ATOM     14  C   UNL     1     -20.418  11.715 -10.085  1.00  0.00     0.051 A 
ATOM     15  C   UNL     1     -20.251  10.426  -9.562  1.00  0.00     0.157 A 
ATOM     16  C   UNL     1     -18.455  11.247  -8.153  1.00  0.00     0.062 A 
ATOM     17  C   UNL     1     -19.265  10.193  -8.589  1.00  0.00     0.158 A 
BRANCH  15  18
ATOM     18  O   UNL     1     -21.061   9.381 -10.002  1.00  0.00    -0.504 OA
ATOM     19  H   UNL     1     -21.177   9.178 -10.988  1.00  0.00     0.293 HD
ENDBRANCH  15  18
BRANCH  17  20
ATOM     20  O   UNL     1     -19.078   8.923  -8.044  1.00  0.00    -0.504 OA
ATOM     21  H   UNL     1     -18.341   8.305  -8.360  1.00  0.00     0.293 HD
ENDBRANCH  17  20
ENDBRANCH   1  12
BRANCH   2  22
ATOM     22  O   UNL     1     -19.260  14.118  -6.352  1.00  0.00    -0.502 OA
ATOM     23  H   UNL     1     -19.982  14.818  -6.237  1.00  0.00     0.293 HD
ENDBRANCH   2  22
BRANCH   6  24
ATOM     24  O   UNL     1     -15.057  17.336  -5.769  1.00  0.00    -0.507 OA
ATOM     25  H   UNL     1     -15.805  17.949  -5.482  1.00  0.00     0.293 HD
ENDBRANCH   6  24
BRANCH   8  26
ATOM     26  O   UNL     1     -12.705  16.396  -9.849  1.00  0.00    -0.508 OA
ATOM     27  H   UNL     1     -12.302  15.668 -10.425  1.00  0.00     0.293 HD
ENDBRANCH   8  26
TORSDOF 6
ENDMDL
MODEL 2
REMARK VINA RESULT:    -6.386      2.012      7.149
REMARK INTER + INTRA:          -8.012
REMARK INTER:                  -7.691
REMARK INTRA:                  -0.321
REMARK UNBOUND:                -0.319
REMARK SMILES O=c1c(O)c(-c2ccc(O)c(O)c2)oc2cc(O)cc(O)c12
REMARK SMILES IDX 5 1 3 2 2 3 1 4 22 5 20 6 19 7 17 8 16 9 15 10 14 11 6 12
REMARK SMILES IDX 7 13 8 14 9 15 13 16 11 17 10 18 12 20 4 22 21 24 18 26
REMARK H PARENT 10 19 12 21 4 23 21 25 18 27
REMARK Flexibility Score: inf
ROOT
ATOM      1  C   UNL     1     -16.396  14.757  -7.433  1.00  0.00     0.180 A 
ATOM      2  C   UNL     1     -15.506  14.444  -8.475  1.00  0.00     0.208 A 
ATOM      3  C   UNL     1     -15.871  13.460  -9.409  1.00  0.00     0.238 A 
ATOM      4  O   UNL     1     -15.095  13.223 -10.370  1.00  0.00    -0.285 OA
ATOM      5  C   UNL     1     -17.111  12.791  -9.279  1.00  0.00     0.111 A 
ATOM      6  C   UNL     1     -17.565  11.750 -10.144  1.00  0.00     0.134 A 
ATOM      7  C   UNL     1     -18.866  11.250 -10.000  1.00  0.00     0.093 A 
ATOM      8  C   UNL     1     -19.704  11.708  -8.981  1.00  0.00     0.123 A 
ATOM      9  C   UNL     1     -19.249  12.681  -8.095  1.00  0.00     0.094 A 
ATOM     10  C   UNL     1     -17.970  13.225  -8.236  1.00  0.00     0.146 A 
ATOM     11  O   UNL     1     -17.580  14.159  -7.376  1.00  0.00    -0.452 OA
ENDROOT
BRANCH   1  12
ATOM     12  C   UNL     1     -16.071  15.765  -6.396  1.00  0.00     0.025 A 
ATOM     13  C   UNL     1     -15.509  15.390  -5.163  1.00  0.00     0.016 A 
ATOM     14  C   UNL     1     -15.235  16.355  -4.191  1.00  0.00     0.051 A 
ATOM     15  C   UNL     1     -15.528  17.704  -4.430  1.00  0.00     0.157 A 
ATOM     16  C   UNL     1     -16.383  17.115  -6.623  1.00  0.00     0.062 A 
ATOM     17  C   UNL     1     -16.108  18.084  -5.652  1.00  0.00     0.158 A 
BRANCH  15  18
ATOM     18  O   UNL     1     -15.250  18.665  -3.459  1.00  0.00    -0.504 OA
ATOM     19  H   UNL     1     -15.111  19.639  -3.701  1.00  0.00     0.293 HD
ENDBRANCH  15  18
BRANCH  17  20
ATOM     20  O   UNL     1     -16.418  19.417  -5.918  1.00  0.00    -0.504 OA
ATOM     21  H   UNL     1     -16.207  20.160  -5.264  1.00  0.00     0.293 HD
ENDBRANCH  17  20
ENDBRANCH   1  12
BRANCH   2  22
ATOM     22  O   UNL     1     -14.296  15.131  -8.598  1.00  0.00    -0.502 OA
ATOM     23  H   UNL     1     -13.625  15.192  -7.841  1.00  0.00     0.293 HD
ENDBRANCH   2  22
BRANCH   6  24
ATOM     24  O   UNL     1     -16.775  11.159 -11.134  1.00  0.00    -0.507 OA
ATOM     25  H   UNL     1     -16.647  11.528 -12.063  1.00  0.00     0.293 HD
ENDBRANCH   6  24
BRANCH   8  26
ATOM     26  O   UNL     1     -20.991  11.194  -8.835  1.00  0.00    -0.508 OA
ATOM     27  H   UNL     1     -21.352  10.485  -9.462  1.00  0.00     0.293 HD
ENDBRANCH   8  26
TORSDOF 6
ENDMDL
MODEL 3
REMARK VINA RESULT:    -6.366      2.290      6.546
REMARK INTER + INTRA:          -7.988
REMARK INTER:                  -7.683
REMARK INTRA:                  -0.305
REMARK UNBOUND:                -0.319
REMARK SMILES O=c1c(O)c(-c2ccc(O)c(O)c2)oc2cc(O)cc(O)c12
REMARK SMILES IDX 5 1 3 2 2 3 1 4 22 5 20 6 19 7 17 8 16 9 15 10 14 11 6 12
REMARK SMILES IDX 7 13 8 14 9 15 13 16 11 17 10 18 12 20 4 22 21 24 18 26
REMARK H PARENT 10 19 12 21 4 23 21 25 18 27
REMARK Flexibility Score: inf
ROOT
ATOM      1  C   UNL     1     -16.840  14.799  -7.091  1.00  0.00     0.180 A 
ATOM      2  C   UNL     1     -18.158  14.326  -6.978  1.00  0.00     0.208 A 
ATOM      3  C   UNL     1     -18.645  13.429  -7.943  1.00  0.00     0.238 A 
ATOM      4  O   UNL     1     -19.806  12.966  -7.806  1.00  0.00    -0.285 OA
ATOM      5  C   UNL     1     -17.813  13.031  -9.017  1.00  0.00     0.111 A 
ATOM      6  C   UNL     1     -18.215  12.159 -10.074  1.00  0.00     0.134 A 
ATOM      7  C   UNL     1     -17.269  11.730 -11.013  1.00  0.00     0.093 A 
ATOM      8  C   UNL     1     -15.951  12.193 -10.971  1.00  0.00     0.123 A 
ATOM      9  C   UNL     1     -15.565  13.091  -9.980  1.00  0.00     0.094 A 
ATOM     10  C   UNL     1     -16.476  13.509  -9.007  1.00  0.00     0.146 A 
ATOM     11  O   UNL     1     -16.063  14.357  -8.073  1.00  0.00    -0.452 OA
ENDROOT
BRANCH   1  12
ATOM     12  C   UNL     1     -16.264  15.766  -6.126  1.00  0.00     0.025 A 
ATOM     13  C   UNL     1     -15.481  15.337  -5.041  1.00  0.00     0.016 A 
ATOM     14  C   UNL     1     -14.969  16.265  -4.130  1.00  0.00     0.051 A 
ATOM     15  C   UNL     1     -15.242  17.631  -4.282  1.00  0.00     0.157 A 
ATOM     16  C   UNL     1     -16.553  17.134  -6.263  1.00  0.00     0.062 A 
ATOM     17  C   UNL     1     -16.041  18.066  -5.354  1.00  0.00     0.158 A 
BRANCH  15  18
ATOM     18  O   UNL     1     -14.728  18.554  -3.374  1.00  0.00    -0.504 OA
ATOM     19  H   UNL     1     -14.723  18.371  -2.377  1.00  0.00     0.293 HD
ENDBRANCH  15  18
BRANCH  17  20
ATOM     20  O   UNL     1     -16.336  19.417  -5.530  1.00  0.00    -0.504 OA
ATOM     21  H   UNL     1     -17.070  19.731  -6.152  1.00  0.00     0.293 HD
ENDBRANCH  17  20
ENDBRANCH   1  12
BRANCH   2  22
ATOM     22  O   UNL     1     -18.955  14.714  -5.898  1.00  0.00    -0.502 OA
ATOM     23  H   UNL     1     -18.961  14.214  -5.017  1.00  0.00     0.293 HD
ENDBRANCH   2  22
BRANCH   6  24
ATOM     24  O   UNL     1     -19.526  11.712 -10.260  1.00  0.00    -0.507 OA
ATOM     25  H   UNL     1     -20.296  12.295 -10.549  1.00  0.00     0.293 HD
ENDBRANCH   6  24
BRANCH   8  26
ATOM     26  O   UNL     1     -15.021  11.773 -11.919  1.00  0.00    -0.508 OA
ATOM     27  H   UNL     1     -15.282  11.617 -12.885  1.00  0.00     0.293 HD
ENDBRANCH   8  26
TORSDOF 6
ENDMDL
MODEL 4
REMARK VINA RESULT:    -6.361      1.248      2.899
REMARK INTER + INTRA:          -7.982
REMARK INTER:                  -7.666
REMARK INTRA:                  -0.316
REMARK UNBOUND:                -0.319
REMARK SMILES O=c1c(O)c(-c2ccc(O)c(O)c2)oc2cc(O)cc(O)c12
REMARK SMILES IDX 5 1 3 2 2 3 1 4 22 5 20 6 19 7 17 8 16 9 15 10 14 11 6 12
REMARK SMILES IDX 7 13 8 14 9 15 13 16 11 17 10 18 12 20 4 22 21 24 18 26
REMARK H PARENT 10 19 12 21 4 23 21 25 18 27
REMARK Flexibility Score: inf
ROOT
ATOM      1  C   UNL     1     -17.201  13.572  -8.459  1.00  0.00     0.180 A 
ATOM      2  C   UNL     1     -16.097  13.921  -9.255  1.00  0.00     0.208 A 
ATOM      3  C   UNL     1     -15.221  14.924  -8.804  1.00  0.00     0.238 A 
ATOM      4  O   UNL     1     -14.205  15.194  -9.495  1.00  0.00    -0.285 OA
ATOM      5  C   UNL     1     -15.472  15.574  -7.572  1.00  0.00     0.111 A 
ATOM      6  C   UNL     1     -14.674  16.631  -7.038  1.00  0.00     0.134 A 
ATOM      7  C   UNL     1     -14.939  17.112  -5.749  1.00  0.00     0.093 A 
ATOM      8  C   UNL     1     -16.012  16.619  -5.003  1.00  0.00     0.123 A 
ATOM      9  C   UNL     1     -16.832  15.630  -5.540  1.00  0.00     0.094 A 
ATOM     10  C   UNL     1     -16.571  15.105  -6.808  1.00  0.00     0.146 A 
ATOM     11  O   UNL     1     -17.372  14.154  -7.278  1.00  0.00    -0.452 OA
ENDROOT
BRANCH   1  12
ATOM     12  C   UNL     1     -18.181  12.543  -8.879  1.00  0.00     0.025 A 
ATOM     13  C   UNL     1     -19.215  12.844  -9.781  1.00  0.00     0.016 A 
ATOM     14  C   UNL     1     -20.142  11.864 -10.144  1.00  0.00     0.051 A 
ATOM     15  C   UNL     1     -20.058  10.575  -9.601  1.00  0.00     0.157 A 
ATOM     16  C   UNL     1     -18.113  11.256  -8.322  1.00  0.00     0.062 A 
ATOM     17  C   UNL     1     -19.039  10.271  -8.683  1.00  0.00     0.158 A 
BRANCH  15  18
ATOM     18  O   UNL     1     -20.983   9.598  -9.967  1.00  0.00    -0.504 OA
ATOM     19  H   UNL     1     -21.509   9.080  -9.273  1.00  0.00     0.293 HD
ENDBRANCH  15  18
BRANCH  17  20
ATOM     20  O   UNL     1     -18.931   9.000  -8.121  1.00  0.00    -0.504 OA
ATOM     21  H   UNL     1     -19.438   8.737  -7.285  1.00  0.00     0.293 HD
ENDBRANCH  17  20
ENDBRANCH   1  12
BRANCH   2  22
ATOM     22  O   UNL     1     -15.856  13.252 -10.458  1.00  0.00    -0.502 OA
ATOM     23  H   UNL     1     -15.620  12.268 -10.496  1.00  0.00     0.293 HD
ENDBRANCH   2  22
BRANCH   6  24
ATOM     24  O   UNL     1     -13.638  17.256  -7.736  1.00  0.00    -0.507 OA
ATOM     25  H   UNL     1     -12.656  17.119  -7.552  1.00  0.00     0.293 HD
ENDBRANCH   6  24
BRANCH   8  26
ATOM     26  O   UNL     1     -16.278  17.114  -3.728  1.00  0.00    -0.508 OA
ATOM     27  H   UNL     1     -16.034  16.592  -2.895  1.00  0.00     0.293 HD
ENDBRANCH   8  26
TORSDOF 6
ENDMDL
MODEL 5
REMARK VINA RESULT:    -6.095      1.959      2.293
REMARK INTER + INTRA:          -7.661
REMARK INTER:                  -7.348
REMARK INTRA:                  -0.313
REMARK UNBOUND:                -0.319
REMARK SMILES O=c1c(O)c(-c2ccc(O)c(O)c2)oc2cc(O)cc(O)c12
REMARK SMILES IDX 5 1 3 2 2 3 1 4 22 5 20 6 19 7 17 8 16 9 15 10 14 11 6 12
REMARK SMILES IDX 7 13 8 14 9 15 13 16 11 17 10 18 12 20 4 22 21 24 18 26
REMARK H PARENT 10 19 12 21 4 23 21 25 18 27
REMARK Flexibility Score: inf
ROOT
ATOM      1  C   UNL     1     -17.443  14.226  -8.100  1.00  0.00     0.180 A 
ATOM      2  C   UNL     1     -18.240  15.145  -7.398  1.00  0.00     0.208 A 
ATOM      3  C   UNL     1     -17.672  15.869  -6.336  1.00  0.00     0.238 A 
ATOM      4  O   UNL     1     -18.375  16.729  -5.747  1.00  0.00    -0.285 OA
ATOM      5  C   UNL     1     -16.319  15.651  -5.981  1.00  0.00     0.111 A 
ATOM      6  C   UNL     1     -15.651  16.298  -4.898  1.00  0.00     0.134 A 
ATOM      7  C   UNL     1     -14.276  16.104  -4.720  1.00  0.00     0.093 A 
ATOM      8  C   UNL     1     -13.558  15.235  -5.545  1.00  0.00     0.123 A 
ATOM      9  C   UNL     1     -14.213  14.553  -6.567  1.00  0.00     0.094 A 
ATOM     10  C   UNL     1     -15.577  14.754  -6.793  1.00  0.00     0.146 A 
ATOM     11  O   UNL     1     -16.160  14.092  -7.786  1.00  0.00    -0.452 OA
ENDROOT
BRANCH   1  12
ATOM     12  C   UNL     1     -17.978  13.409  -9.214  1.00  0.00     0.025 A 
ATOM     13  C   UNL     1     -18.046  13.913 -10.524  1.00  0.00     0.016 A 
ATOM     14  C   UNL     1     -18.578  13.133 -11.554  1.00  0.00     0.051 A 
ATOM     15  C   UNL     1     -19.060  11.845 -11.289  1.00  0.00     0.157 A 
ATOM     16  C   UNL     1     -18.483  12.125  -8.950  1.00  0.00     0.062 A 
ATOM     17  C   UNL     1     -19.014  11.340  -9.978  1.00  0.00     0.158 A 
BRANCH  15  18
ATOM     18  O   UNL     1     -19.587  11.068 -12.320  1.00  0.00    -0.504 OA
ATOM     19  H   UNL     1     -20.139  11.478 -13.064  1.00  0.00     0.293 HD
ENDBRANCH  15  18
BRANCH  17  20
ATOM     20  O   UNL     1     -19.492  10.065  -9.681  1.00  0.00    -0.504 OA
ATOM     21  H   UNL     1     -19.179   9.548  -8.868  1.00  0.00     0.293 HD
ENDBRANCH  17  20
ENDBRANCH   1  12
BRANCH   2  22
ATOM     22  O   UNL     1     -19.568  15.361  -7.778  1.00  0.00    -0.502 OA
ATOM     23  H   UNL     1     -20.202  14.602  -7.996  1.00  0.00     0.293 HD
ENDBRANCH   2  22
BRANCH   6  24
ATOM     24  O   UNL     1     -16.293  17.112  -3.961  1.00  0.00    -0.507 OA
ATOM     25  H   UNL     1     -16.048  17.168  -2.984  1.00  0.00     0.293 HD
ENDBRANCH   6  24
BRANCH   8  26
ATOM     26  O   UNL     1     -12.193  15.036  -5.351  1.00  0.00    -0.508 OA
ATOM     27  H   UNL     1     -11.780  15.062  -4.427  1.00  0.00     0.293 HD
ENDBRANCH   8  26
TORSDOF 6
ENDMDL
MODEL 6
REMARK VINA RESULT:    -6.059      2.172      6.709
REMARK INTER + INTRA:          -7.618
REMARK INTER:                  -7.295
REMARK INTRA:                  -0.323
REMARK UNBOUND:                -0.319
REMARK SMILES O=c1c(O)c(-c2ccc(O)c(O)c2)oc2cc(O)cc(O)c12
REMARK SMILES IDX 5 1 3 2 2 3 1 4 22 5 20 6 19 7 17 8 16 9 15 10 14 11 6 12
REMARK SMILES IDX 7 13 8 14 9 15 13 16 11 17 10 18 12 20 4 22 21 24 18 26
REMARK H PARENT 10 19 12 21 4 23 21 25 18 27
REMARK Flexibility Score: inf
ROOT
ATOM      1  C   UNL     1     -16.708  14.117  -7.177  1.00  0.00     0.180 A 
ATOM      2  C   UNL     1     -17.505  13.253  -6.408  1.00  0.00     0.208 A 
ATOM      3  C   UNL     1     -18.550  12.553  -7.034  1.00  0.00     0.238 A 
ATOM      4  O   UNL     1     -19.226  11.740  -6.352  1.00  0.00    -0.285 OA
ATOM      5  C   UNL     1     -18.793  12.739  -8.416  1.00  0.00     0.111 A 
ATOM      6  C   UNL     1     -19.849  12.112  -9.145  1.00  0.00     0.134 A 
ATOM      7  C   UNL     1     -19.916  12.268 -10.535  1.00  0.00     0.093 A 
ATOM      8  C   UNL     1     -19.003  13.079 -11.214  1.00  0.00     0.123 A 
ATOM      9  C   UNL     1     -18.006  13.743 -10.503  1.00  0.00     0.094 A 
ATOM     10  C   UNL     1     -17.892  13.579  -9.121  1.00  0.00     0.146 A 
ATOM     11  O   UNL     1     -16.919  14.221  -8.484  1.00  0.00    -0.452 OA
ENDROOT
BRANCH   1  12
ATOM     12  C   UNL     1     -15.604  14.908  -6.583  1.00  0.00     0.025 A 
ATOM     13  C   UNL     1     -14.294  14.403  -6.522  1.00  0.00     0.016 A 
ATOM     14  C   UNL     1     -13.274  15.158  -5.935  1.00  0.00     0.051 A 
ATOM     15  C   UNL     1     -13.551  16.419  -5.391  1.00  0.00     0.157 A 
ATOM     16  C   UNL     1     -15.880  16.163  -6.018  1.00  0.00     0.062 A 
ATOM     17  C   UNL     1     -14.862  16.922  -5.430  1.00  0.00     0.158 A 
BRANCH  15  18
ATOM     18  O   UNL     1     -12.531  17.169  -4.808  1.00  0.00    -0.504 OA
ATOM     19  H   UNL     1     -12.113  16.902  -3.925  1.00  0.00     0.293 HD
ENDBRANCH  15  18
BRANCH  17  20
ATOM     20  O   UNL     1     -15.171  18.170  -4.892  1.00  0.00    -0.504 OA
ATOM     21  H   UNL     1     -15.998  18.686  -5.166  1.00  0.00     0.293 HD
ENDBRANCH  17  20
ENDBRANCH   1  12
BRANCH   2  22
ATOM     22  O   UNL     1     -17.235  13.067  -5.050  1.00  0.00    -0.502 OA
ATOM     23  H   UNL     1     -16.438  13.490  -4.590  1.00  0.00     0.293 HD
ENDBRANCH   2  22
BRANCH   6  24
ATOM     24  O   UNL     1     -20.865  11.357  -8.552  1.00  0.00    -0.507 OA
ATOM     25  H   UNL     1     -21.851  11.496  -8.710  1.00  0.00     0.293 HD
ENDBRANCH   6  24
BRANCH   8  26
ATOM     26  O   UNL     1     -19.087  13.241 -12.595  1.00  0.00    -0.508 OA
ATOM     27  H   UNL     1     -18.820  12.500 -13.232  1.00  0.00     0.293 HD
ENDBRANCH   8  26
TORSDOF 6
ENDMDL
MODEL 7
REMARK VINA RESULT:    -5.986      1.953      3.735
REMARK INTER + INTRA:          -7.530
REMARK INTER:                  -7.412
REMARK INTRA:                  -0.118
REMARK UNBOUND:                -0.319
REMARK SMILES O=c1c(O)c(-c2ccc(O)c(O)c2)oc2cc(O)cc(O)c12
REMARK SMILES IDX 5 1 3 2 2 3 1 4 22 5 20 6 19 7 17 8 16 9 15 10 14 11 6 12
REMARK SMILES IDX 7 13 8 14 9 15 13 16 11 17 10 18 12 20 4 22 21 24 18 26
REMARK H PARENT 10 19 12 21 4 23 21 25 18 27
REMARK Flexibility Score: inf
ROOT
ATOM      1  C   UNL     1     -16.783  14.120  -8.253  1.00  0.00     0.180 A 
ATOM      2  C   UNL     1     -15.486  14.490  -8.645  1.00  0.00     0.208 A 
ATOM      3  C   UNL     1     -14.732  15.324  -7.802  1.00  0.00     0.238 A 
ATOM      4  O   UNL     1     -13.551  15.608  -8.133  1.00  0.00    -0.285 OA
ATOM      5  C   UNL     1     -15.291  15.790  -6.589  1.00  0.00     0.111 A 
ATOM      6  C   UNL     1     -14.633  16.672  -5.679  1.00  0.00     0.134 A 
ATOM      7  C   UNL     1     -15.231  16.963  -4.446  1.00  0.00     0.093 A 
ATOM      8  C   UNL     1     -16.490  16.457  -4.118  1.00  0.00     0.123 A 
ATOM      9  C   UNL     1     -17.167  15.644  -5.025  1.00  0.00     0.094 A 
ATOM     10  C   UNL     1     -16.581  15.306  -6.247  1.00  0.00     0.146 A 
ATOM     11  O   UNL     1     -17.256  14.519  -7.078  1.00  0.00    -0.452 OA
ENDROOT
BRANCH   1  12
ATOM     12  C   UNL     1     -17.648  13.264  -9.099  1.00  0.00     0.025 A 
ATOM     13  C   UNL     1     -18.079  12.000  -8.660  1.00  0.00     0.016 A 
ATOM     14  C   UNL     1     -18.874  11.200  -9.485  1.00  0.00     0.051 A 
ATOM     15  C   UNL     1     -19.238  11.644 -10.763  1.00  0.00     0.157 A 
ATOM     16  C   UNL     1     -17.998  13.695 -10.388  1.00  0.00     0.062 A 
ATOM     17  C   UNL     1     -18.794  12.897 -11.217  1.00  0.00     0.158 A 
BRANCH  15  18
ATOM     18  O   UNL     1     -20.033  10.844 -11.582  1.00  0.00    -0.504 OA
ATOM     19  H   UNL     1     -19.661  10.021 -12.042  1.00  0.00     0.293 HD
ENDBRANCH  15  18
BRANCH  17  20
ATOM     20  O   UNL     1     -19.134  13.365 -12.486  1.00  0.00    -0.504 OA
ATOM     21  H   UNL     1     -19.370  12.739 -13.245  1.00  0.00     0.293 HD
ENDBRANCH  17  20
ENDBRANCH   1  12
BRANCH   2  22
ATOM     22  O   UNL     1     -14.944  14.001  -9.837  1.00  0.00    -0.502 OA
ATOM     23  H   UNL     1     -15.488  13.470 -10.505  1.00  0.00     0.293 HD
ENDBRANCH   2  22
BRANCH   6  24
ATOM     24  O   UNL     1     -13.416  17.304  -5.948  1.00  0.00    -0.507 OA
ATOM     25  H   UNL     1     -12.599  16.844  -6.319  1.00  0.00     0.293 HD
ENDBRANCH   6  24
BRANCH   8  26
ATOM     26  O   UNL     1     -17.084  16.765  -2.896  1.00  0.00    -0.508 OA
ATOM     27  H   UNL     1     -17.067  16.115  -2.120  1.00  0.00     0.293 HD
ENDBRANCH   8  26
TORSDOF 6
ENDMDL
MODEL 8
REMARK VINA RESULT:    -5.811      1.429      6.806
REMARK INTER + INTRA:          -7.319
REMARK INTER:                  -7.465
REMARK INTRA:                   0.146
REMARK UNBOUND:                -0.319
REMARK SMILES O=c1c(O)c(-c2ccc(O)c(O)c2)oc2cc(O)cc(O)c12
REMARK SMILES IDX 5 1 3 2 2 3 1 4 22 5 20 6 19 7 17 8 16 9 15 10 14 11 6 12
REMARK SMILES IDX 7 13 8 14 9 15 13 16 11 17 10 18 12 20 4 22 21 24 18 26
REMARK H PARENT 10 19 12 21 4 23 21 25 18 27
REMARK Flexibility Score: inf
ROOT
ATOM      1  C   UNL     1     -17.237  13.657  -8.384  1.00  0.00     0.180 A 
ATOM      2  C   UNL     1     -17.706  13.065  -7.199  1.00  0.00     0.208 A 
ATOM      3  C   UNL     1     -18.701  12.076  -7.279  1.00  0.00     0.238 A 
ATOM      4  O   UNL     1     -19.078  11.512  -6.220  1.00  0.00    -0.285 OA
ATOM      5  C   UNL     1     -19.224  11.705  -8.541  1.00  0.00     0.111 A 
ATOM      6  C   UNL     1     -20.262  10.744  -8.736  1.00  0.00     0.134 A 
ATOM      7  C   UNL     1     -20.610  10.359 -10.038  1.00  0.00     0.093 A 
ATOM      8  C   UNL     1     -20.003  10.948 -11.150  1.00  0.00     0.123 A 
ATOM      9  C   UNL     1     -19.032  11.930 -10.969  1.00  0.00     0.094 A 
ATOM     10  C   UNL     1     -18.638  12.308  -9.684  1.00  0.00     0.146 A 
ATOM     11  O   UNL     1     -17.700  13.240  -9.556  1.00  0.00    -0.452 OA
ENDROOT
BRANCH   1  12
ATOM     12  C   UNL     1     -16.208  14.723  -8.378  1.00  0.00     0.025 A 
ATOM     13  C   UNL     1     -15.142  14.716  -9.294  1.00  0.00     0.016 A 
ATOM     14  C   UNL     1     -14.170  15.719  -9.254  1.00  0.00     0.051 A 
ATOM     15  C   UNL     1     -14.241  16.735  -8.292  1.00  0.00     0.157 A 
ATOM     16  C   UNL     1     -16.263  15.731  -7.402  1.00  0.00     0.062 A 
ATOM     17  C   UNL     1     -15.292  16.738  -7.359  1.00  0.00     0.158 A 
BRANCH  15  18
ATOM     18  O   UNL     1     -13.271  17.735  -8.256  1.00  0.00    -0.504 OA
ATOM     19  H   UNL     1     -13.004  18.245  -9.090  1.00  0.00     0.293 HD
ENDBRANCH  15  18
BRANCH  17  20
ATOM     20  O   UNL     1     -15.388  17.731  -6.385  1.00  0.00    -0.504 OA
ATOM     21  H   UNL     1     -16.105  17.718  -5.671  1.00  0.00     0.293 HD
ENDBRANCH  17  20
ENDBRANCH   1  12
BRANCH   2  22
ATOM     22  O   UNL     1     -17.161  13.431  -5.965  1.00  0.00    -0.502 OA
ATOM     23  H   UNL     1     -17.147  14.390  -5.639  1.00  0.00     0.293 HD
ENDBRANCH   2  22
BRANCH   6  24
ATOM     24  O   UNL     1     -20.994  10.164  -7.697  1.00  0.00    -0.507 OA
ATOM     25  H   UNL     1     -21.939   9.823  -7.781  1.00  0.00     0.293 HD
ENDBRANCH   6  24
BRANCH   8  26
ATOM     26  O   UNL     1     -20.367  10.570 -12.440  1.00  0.00    -0.508 OA
ATOM     27  H   UNL     1     -20.106  11.123 -13.247  1.00  0.00     0.293 HD
ENDBRANCH   8  26
TORSDOF 6
ENDMDL
MODEL 9
REMARK VINA RESULT:    -5.676      1.807      6.646
REMARK INTER + INTRA:          -7.157
REMARK INTER:                  -6.927
REMARK INTRA:                  -0.230
REMARK UNBOUND:                -0.319
REMARK SMILES O=c1c(O)c(-c2ccc(O)c(O)c2)oc2cc(O)cc(O)c12
REMARK SMILES IDX 5 1 3 2 2 3 1 4 22 5 20 6 19 7 17 8 16 9 15 10 14 11 6 12
REMARK SMILES IDX 7 13 8 14 9 15 13 16 11 17 10 18 12 20 4 22 21 24 18 26
REMARK H PARENT 10 19 12 21 4 23 21 25 18 27
REMARK Flexibility Score: inf
ROOT
ATOM      1  C   UNL     1     -17.507  14.090  -7.419  1.00  0.00     0.180 A 
ATOM      2  C   UNL     1     -17.834  12.851  -6.841  1.00  0.00     0.208 A 
ATOM      3  C   UNL     1     -18.459  11.873  -7.632  1.00  0.00     0.238 A 
ATOM      4  O   UNL     1     -18.699  10.748  -7.124  1.00  0.00    -0.285 OA
ATOM      5  C   UNL     1     -18.764  12.153  -8.986  1.00  0.00     0.111 A 
ATOM      6  C   UNL     1     -19.432  11.252  -9.869  1.00  0.00     0.134 A 
ATOM      7  C   UNL     1     -19.565  11.583 -11.223  1.00  0.00     0.093 A 
ATOM      8  C   UNL     1     -19.112  12.811 -11.712  1.00  0.00     0.123 A 
ATOM      9  C   UNL     1     -18.513  13.722 -10.846  1.00  0.00     0.094 A 
ATOM     10  C   UNL     1     -18.333  13.405  -9.497  1.00  0.00     0.146 A 
ATOM     11  O   UNL     1     -17.746  14.298  -8.708  1.00  0.00    -0.452 OA
ENDROOT
BRANCH   1  12
ATOM     12  C   UNL     1     -16.870  15.179  -6.642  1.00  0.00     0.025 A 
ATOM     13  C   UNL     1     -17.567  15.857  -5.627  1.00  0.00     0.016 A 
ATOM     14  C   UNL     1     -16.953  16.897  -4.924  1.00  0.00     0.051 A 
ATOM     15  C   UNL     1     -15.642  17.283  -5.232  1.00  0.00     0.157 A 
ATOM     16  C   UNL     1     -15.564  15.583  -6.961  1.00  0.00     0.062 A 
ATOM     17  C   UNL     1     -14.946  16.623  -6.259  1.00  0.00     0.158 A 
BRANCH  15  18
ATOM     18  O   UNL     1     -15.032  18.319  -4.528  1.00  0.00    -0.504 OA
ATOM     19  H   UNL     1     -15.522  19.183  -4.325  1.00  0.00     0.293 HD
ENDBRANCH  15  18
BRANCH  17  20
ATOM     20  O   UNL     1     -13.642  16.987  -6.595  1.00  0.00    -0.504 OA
ATOM     21  H   UNL     1     -13.131  17.692  -6.079  1.00  0.00     0.293 HD
ENDBRANCH  17  20
ENDBRANCH   1  12
BRANCH   2  22
ATOM     22  O   UNL     1     -17.505  12.588  -5.508  1.00  0.00    -0.502 OA
ATOM     23  H   UNL     1     -17.139  11.694  -5.204  1.00  0.00     0.293 HD
ENDBRANCH   2  22
BRANCH   6  24
ATOM     24  O   UNL     1     -20.002  10.042  -9.463  1.00  0.00    -0.507 OA
ATOM     25  H   UNL     1     -19.740   9.135  -9.818  1.00  0.00     0.293 HD
ENDBRANCH   6  24
BRANCH   8  26
ATOM     26  O   UNL     1     -19.263  13.139 -13.058  1.00  0.00    -0.508 OA
ATOM     27  H   UNL     1     -19.583  14.055 -13.347  1.00  0.00     0.293 HD
ENDBRANCH   8  26
TORSDOF 6
ENDMDL
