MODEL 1
REMARK VINA RESULT:    -6.127      0.000      0.000
REMARK INTER + INTRA:         -18.097
REMARK INTER:                 -15.439
REMARK INTRA:                  -2.658
REMARK UNBOUND:                -2.658
REMARK SMILES CCCCCCCCCCCCCCCCCCCCCCCCCCCC(=O)[O-]
REMARK SMILES IDX 15 1 16 2 17 3 18 4 19 5 20 6 21 7 22 8 23 9 24 10 25 11
REMARK SMILES IDX 26 12 27 13 28 14 29 15 30 16 14 17 13 18 12 19 11 20 10 21
REMARK SMILES IDX 9 22 8 23 7 24 6 25 5 26 4 27 3 28 2 29 1 30
REMARK H PARENT
REMARK Flexibility Score: inf
ROOT
ATOM      1  C   UNL     1      88.160 323.533 200.804  1.00  0.00     0.000 C 
ENDROOT
BRANCH   1   2
ATOM      2  C   UNL     1      87.172 322.814 201.734  1.00  0.00     0.000 C 
BRANCH   2   3
ATOM      3  C   UNL     1      86.506 323.799 202.708  1.00  0.00     0.000 C 
BRANCH   3   4
ATOM      4  C   UNL     1      87.224 323.837 204.073  1.00  0.00     0.000 C 
BRANCH   4   5
ATOM      5  C   UNL     1      86.265 323.822 205.277  1.00  0.00     0.000 C 
BRANCH   5   6
ATOM      6  C   UNL     1      86.618 324.883 206.333  1.00  0.00     0.000 C 
BRANCH   6   7
ATOM      7  C   UNL     1      88.131 324.992 206.601  1.00  0.00     0.000 C 
BRANCH   7   8
ATOM      8  C   UNL     1      88.628 326.387 207.025  1.00  0.00     0.000 C 
BRANCH   8   9
ATOM      9  C   UNL     1      89.829 326.880 206.196  1.00  0.00     0.000 C 
BRANCH   9  10
ATOM     10  C   UNL     1      89.903 326.201 204.812  1.00  0.00     0.000 C 
BRANCH  10  11
ATOM     11  C   UNL     1      89.225 327.005 203.688  1.00  0.00     0.000 C 
BRANCH  11  12
ATOM     12  C   UNL     1      89.569 326.481 202.286  1.00  0.00     0.006 C 
BRANCH  12  13
ATOM     13  C   UNL     1      91.084 326.451 202.065  1.00  0.00     0.053 C 
BRANCH  13  14
ATOM     14  C   UNL     1      91.538 325.076 201.687  1.00  0.00     0.041 C 
ATOM     15  O   UNL     1      91.474 324.136 202.522  1.00  0.00    -0.550 OA
ATOM     16  O   UNL     1      92.005 324.826 200.403  1.00  0.00    -0.550 OA
ENDBRANCH  13  14
ENDBRANCH  12  13
ENDBRANCH  11  12
ENDBRANCH  10  11
ENDBRANCH   9  10
ENDBRANCH   8   9
ENDBRANCH   7   8
ENDBRANCH   6   7
ENDBRANCH   5   6
ENDBRANCH   4   5
ENDBRANCH   3   4
ENDBRANCH   2   3
ENDBRANCH   1   2
BRANCH   1  17
ATOM     17  C   UNL     1      88.145 322.968 199.372  1.00  0.00     0.000 C 
BRANCH  17  18
ATOM     18  C   UNL     1      88.511 323.984 198.270  1.00  0.00     0.000 C 
BRANCH  18  19
ATOM     19  C   UNL     1      88.925 325.374 198.783  1.00  0.00     0.000 C 
BRANCH  19  20
ATOM     20  C   UNL     1      88.552 326.503 197.810  1.00  0.00     0.000 C 
BRANCH  20  21
ATOM     21  C   UNL     1      88.090 325.933 196.460  1.00  0.00     0.000 C 
BRANCH  21  22
ATOM     22  C   UNL     1      88.880 326.504 195.274  1.00  0.00    -0.000 C 
BRANCH  22  23
ATOM     23  C   UNL     1      87.980 326.854 194.075  1.00  0.00    -0.000 C 
BRANCH  23  24
ATOM     24  C   UNL     1      86.651 326.068 194.094  1.00  0.00    -0.000 C 
BRANCH  24  25
ATOM     25  C   UNL     1      86.657 324.810 193.198  1.00  0.00    -0.000 C 
BRANCH  25  26
ATOM     26  C   UNL     1      87.858 324.687 192.242  1.00  0.00    -0.000 C 
BRANCH  26  27
ATOM     27  C   UNL     1      87.751 323.477 191.296  1.00  0.00    -0.000 C 
BRANCH  27  28
ATOM     28  C   UNL     1      88.503 323.692 189.969  1.00  0.00    -0.000 C 
BRANCH  28  29
ATOM     29  C   UNL     1      88.058 322.769 188.820  1.00  0.00    -0.003 C 
ATOM     30  C   UNL     1      86.704 322.108 189.073  1.00  0.00     0.004 C 
ENDBRANCH  28  29
ENDBRANCH  27  28
ENDBRANCH  26  27
ENDBRANCH  25  26
ENDBRANCH  24  25
ENDBRANCH  23  24
ENDBRANCH  22  23
ENDBRANCH  21  22
ENDBRANCH  20  21
ENDBRANCH  19  20
ENDBRANCH  18  19
ENDBRANCH  17  18
ENDBRANCH   1  17
TORSDOF 26
ENDMDL
MODEL 2
REMARK VINA RESULT:    -6.059      1.744      4.341
REMARK INTER + INTRA:         -17.925
REMARK INTER:                 -14.105
REMARK INTRA:                  -3.820
REMARK UNBOUND:                -2.658
REMARK SMILES CCCCCCCCCCCCCCCCCCCCCCCCCCCC(=O)[O-]
REMARK SMILES IDX 15 1 16 2 17 3 18 4 19 5 20 6 21 7 22 8 23 9 24 10 25 11
REMARK SMILES IDX 26 12 27 13 28 14 29 15 30 16 14 17 13 18 12 19 11 20 10 21
REMARK SMILES IDX 9 22 8 23 7 24 6 25 5 26 4 27 3 28 2 29 1 30
REMARK H PARENT
REMARK Flexibility Score: inf
ROOT
ATOM      1  C   UNL     1      88.955 325.517 198.990  1.00  0.00     0.000 C 
ENDROOT
BRANCH   1   2
ATOM      2  C   UNL     1      89.437 326.072 200.339  1.00  0.00     0.000 C 
BRANCH   2   3
ATOM      3  C   UNL     1      88.369 325.890 201.429  1.00  0.00     0.000 C 
BRANCH   3   4
ATOM      4  C   UNL     1      88.376 324.462 202.014  1.00  0.00     0.000 C 
BRANCH   4   5
ATOM      5  C   UNL     1      86.974 323.929 202.361  1.00  0.00     0.000 C 
BRANCH   5   6
ATOM      6  C   UNL     1      86.952 323.118 203.668  1.00  0.00     0.000 C 
BRANCH   6   7
ATOM      7  C   UNL     1      87.571 323.873 204.860  1.00  0.00     0.000 C 
BRANCH   7   8
ATOM      8  C   UNL     1      86.564 324.526 205.825  1.00  0.00     0.000 C 
BRANCH   8   9
ATOM      9  C   UNL     1      87.214 325.538 206.786  1.00  0.00     0.000 C 
BRANCH   9  10
ATOM     10  C   UNL     1      88.676 325.852 206.404  1.00  0.00     0.000 C 
BRANCH  10  11
ATOM     11  C   UNL     1      88.884 327.275 205.854  1.00  0.00     0.000 C 
BRANCH  11  12
ATOM     12  C   UNL     1      89.587 327.292 204.489  1.00  0.00     0.006 C 
BRANCH  12  13
ATOM     13  C   UNL     1      91.066 326.919 204.625  1.00  0.00     0.053 C 
BRANCH  13  14
ATOM     14  C   UNL     1      91.615 326.441 203.318  1.00  0.00     0.041 C 
ATOM     15  O   UNL     1      91.993 327.269 202.448  1.00  0.00    -0.550 OA
ATOM     16  O   UNL     1      91.736 325.079 203.072  1.00  0.00    -0.550 OA
ENDBRANCH  13  14
ENDBRANCH  12  13
ENDBRANCH  11  12
ENDBRANCH  10  11
ENDBRANCH   9  10
ENDBRANCH   8   9
ENDBRANCH   7   8
ENDBRANCH   6   7
ENDBRANCH   5   6
ENDBRANCH   4   5
ENDBRANCH   3   4
ENDBRANCH   2   3
ENDBRANCH   1   2
BRANCH   1  17
ATOM     17  C   UNL     1      88.579 326.628 197.993  1.00  0.00     0.000 C 
BRANCH  17  18
ATOM     18  C   UNL     1      88.394 326.155 196.536  1.00  0.00     0.000 C 
BRANCH  18  19
ATOM     19  C   UNL     1      86.952 326.234 196.007  1.00  0.00     0.000 C 
BRANCH  19  20
ATOM     20  C   UNL     1      86.883 326.621 194.522  1.00  0.00     0.000 C 
BRANCH  20  21
ATOM     21  C   UNL     1      88.149 326.168 193.778  1.00  0.00     0.000 C 
BRANCH  21  22
ATOM     22  C   UNL     1      87.851 325.151 192.666  1.00  0.00    -0.000 C 
BRANCH  22  23
ATOM     23  C   UNL     1      88.242 323.714 193.057  1.00  0.00    -0.000 C 
BRANCH  23  24
ATOM     24  C   UNL     1      87.116 322.992 193.829  1.00  0.00    -0.000 C 
BRANCH  24  25
ATOM     25  C   UNL     1      87.496 322.610 195.276  1.00  0.00    -0.000 C 
BRANCH  25  26
ATOM     26  C   UNL     1      88.974 322.826 195.648  1.00  0.00    -0.000 C 
BRANCH  26  27
ATOM     27  C   UNL     1      89.309 322.356 197.076  1.00  0.00    -0.000 C 
BRANCH  27  28
ATOM     28  C   UNL     1      88.135 321.617 197.748  1.00  0.00    -0.000 C 
BRANCH  28  29
ATOM     29  C   UNL     1      87.791 322.109 199.165  1.00  0.00    -0.003 C 
ATOM     30  C   UNL     1      86.693 321.284 199.834  1.00  0.00     0.004 C 
ENDBRANCH  28  29
ENDBRANCH  27  28
ENDBRANCH  26  27
ENDBRANCH  25  26
ENDBRANCH  24  25
ENDBRANCH  23  24
ENDBRANCH  22  23
ENDBRANCH  21  22
ENDBRANCH  20  21
ENDBRANCH  19  20
ENDBRANCH  18  19
ENDBRANCH  17  18
ENDBRANCH   1  17
TORSDOF 26
ENDMDL
MODEL 3
REMARK VINA RESULT:    -6.058      1.018      2.910
REMARK INTER + INTRA:         -17.924
REMARK INTER:                 -14.801
REMARK INTRA:                  -3.124
REMARK UNBOUND:                -2.658
REMARK SMILES CCCCCCCCCCCCCCCCCCCCCCCCCCCC(=O)[O-]
REMARK SMILES IDX 15 1 16 2 17 3 18 4 19 5 20 6 21 7 22 8 23 9 24 10 25 11
REMARK SMILES IDX 26 12 27 13 28 14 29 15 30 16 14 17 13 18 12 19 11 20 10 21
REMARK SMILES IDX 9 22 8 23 7 24 6 25 5 26 4 27 3 28 2 29 1 30
REMARK H PARENT
REMARK Flexibility Score: inf
ROOT
ATOM      1  C   UNL     1      89.005 326.140 201.729  1.00  0.00     0.000 C 
ENDROOT
BRANCH   1   2
ATOM      2  C   UNL     1      89.826 326.545 202.961  1.00  0.00     0.000 C 
BRANCH   2   3
ATOM      3  C   UNL     1      88.927 327.126 204.064  1.00  0.00     0.000 C 
BRANCH   3   4
ATOM      4  C   UNL     1      89.631 327.139 205.437  1.00  0.00     0.000 C 
BRANCH   4   5
ATOM      5  C   UNL     1      88.783 326.540 206.573  1.00  0.00     0.000 C 
BRANCH   5   6
ATOM      6  C   UNL     1      88.330 325.099 206.282  1.00  0.00     0.000 C 
BRANCH   6   7
ATOM      7  C   UNL     1      86.801 324.922 206.333  1.00  0.00     0.000 C 
BRANCH   7   8
ATOM      8  C   UNL     1      86.195 324.070 205.202  1.00  0.00     0.000 C 
BRANCH   8   9
ATOM      9  C   UNL     1      87.226 323.661 204.133  1.00  0.00     0.000 C 
BRANCH   9  10
ATOM     10  C   UNL     1      86.603 323.566 202.724  1.00  0.00     0.000 C 
BRANCH  10  11
ATOM     11  C   UNL     1      87.517 322.893 201.684  1.00  0.00     0.000 C 
BRANCH  11  12
ATOM     12  C   UNL     1      88.929 322.614 202.219  1.00  0.00     0.006 C 
BRANCH  12  13
ATOM     13  C   UNL     1      89.877 322.210 201.086  1.00  0.00     0.053 C 
BRANCH  13  14
ATOM     14  C   UNL     1      91.133 323.021 201.131  1.00  0.00     0.041 C 
ATOM     15  O   UNL     1      91.696 323.257 202.232  1.00  0.00    -0.550 OA
ATOM     16  O   UNL     1      91.699 323.494 199.953  1.00  0.00    -0.550 OA
ENDBRANCH  13  14
ENDBRANCH  12  13
ENDBRANCH  11  12
ENDBRANCH  10  11
ENDBRANCH   9  10
ENDBRANCH   8   9
ENDBRANCH   7   8
ENDBRANCH   6   7
ENDBRANCH   5   6
ENDBRANCH   4   5
ENDBRANCH   3   4
ENDBRANCH   2   3
ENDBRANCH   1   2
BRANCH   1  17
ATOM     17  C   UNL     1      89.741 326.420 200.406  1.00  0.00     0.000 C 
BRANCH  17  18
ATOM     18  C   UNL     1      88.888 326.226 199.136  1.00  0.00     0.000 C 
BRANCH  18  19
ATOM     19  C   UNL     1      88.767 324.770 198.653  1.00  0.00     0.000 C 
BRANCH  19  20
ATOM     20  C   UNL     1      88.318 324.664 197.188  1.00  0.00     0.000 C 
BRANCH  20  21
ATOM     21  C   UNL     1      87.963 326.048 196.622  1.00  0.00     0.000 C 
BRANCH  21  22
ATOM     22  C   UNL     1      88.893 326.478 195.478  1.00  0.00    -0.000 C 
BRANCH  22  23
ATOM     23  C   UNL     1      88.127 326.822 194.188  1.00  0.00    -0.000 C 
BRANCH  23  24
ATOM     24  C   UNL     1      86.637 326.426 194.271  1.00  0.00    -0.000 C 
BRANCH  24  25
ATOM     25  C   UNL     1      86.271 325.189 193.423  1.00  0.00    -0.000 C 
BRANCH  25  26
ATOM     26  C   UNL     1      87.467 324.385 192.880  1.00  0.00    -0.000 C 
BRANCH  26  27
ATOM     27  C   UNL     1      87.107 323.533 191.649  1.00  0.00    -0.000 C 
BRANCH  27  28
ATOM     28  C   UNL     1      88.351 323.010 190.906  1.00  0.00    -0.000 C 
BRANCH  28  29
ATOM     29  C   UNL     1      88.476 323.481 189.446  1.00  0.00    -0.003 C 
ATOM     30  C   UNL     1      89.761 323.004 188.770  1.00  0.00     0.004 C 
ENDBRANCH  28  29
ENDBRANCH  27  28
ENDBRANCH  26  27
ENDBRANCH  25  26
ENDBRANCH  24  25
ENDBRANCH  23  24
ENDBRANCH  22  23
ENDBRANCH  21  22
ENDBRANCH  20  21
ENDBRANCH  19  20
ENDBRANCH  18  19
ENDBRANCH  17  18
ENDBRANCH   1  17
TORSDOF 26
ENDMDL
MODEL 4
REMARK VINA RESULT:    -6.040      1.825      3.203
REMARK INTER + INTRA:         -17.878
REMARK INTER:                 -14.213
REMARK INTRA:                  -3.666
REMARK UNBOUND:                -2.658
REMARK SMILES CCCCCCCCCCCCCCCCCCCCCCCCCCCC(=O)[O-]
REMARK SMILES IDX 15 1 16 2 17 3 18 4 19 5 20 6 21 7 22 8 23 9 24 10 25 11
REMARK SMILES IDX 26 12 27 13 28 14 29 15 30 16 14 17 13 18 12 19 11 20 10 21
REMARK SMILES IDX 9 22 8 23 7 24 6 25 5 26 4 27 3 28 2 29 1 30
REMARK H PARENT
REMARK Flexibility Score: inf
ROOT
ATOM      1  C   UNL     1      86.916 323.662 202.684  1.00  0.00     0.000 C 
ENDROOT
BRANCH   1   2
ATOM      2  C   UNL     1      86.197 323.738 204.039  1.00  0.00     0.000 C 
BRANCH   2   3
ATOM      3  C   UNL     1      87.200 323.898 205.193  1.00  0.00     0.000 C 
BRANCH   3   4
ATOM      4  C   UNL     1      86.621 324.740 206.349  1.00  0.00     0.000 C 
BRANCH   4   5
ATOM      5  C   UNL     1      87.630 325.729 206.960  1.00  0.00     0.000 C 
BRANCH   5   6
ATOM      6  C   UNL     1      88.947 325.801 206.170  1.00  0.00     0.000 C 
BRANCH   6   7
ATOM      7  C   UNL     1      89.301 327.227 205.708  1.00  0.00     0.000 C 
BRANCH   7   8
ATOM      8  C   UNL     1      89.275 327.455 204.185  1.00  0.00     0.000 C 
BRANCH   8   9
ATOM      9  C   UNL     1      89.189 326.147 203.378  1.00  0.00     0.000 C 
BRANCH   9  10
ATOM     10  C   UNL     1      89.306 326.388 201.858  1.00  0.00     0.000 C 
BRANCH  10  11
ATOM     11  C   UNL     1      90.744 326.654 201.379  1.00  0.00     0.000 C 
BRANCH  11  12
ATOM     12  C   UNL     1      91.749 325.612 201.891  1.00  0.00     0.006 C 
BRANCH  12  13
ATOM     13  C   UNL     1      92.894 326.280 202.658  1.00  0.00     0.053 C 
BRANCH  13  14
ATOM     14  C   UNL     1      92.735 326.077 204.132  1.00  0.00     0.041 C 
ATOM     15  O   UNL     1      92.754 327.065 204.913  1.00  0.00    -0.550 OA
ATOM     16  O   UNL     1      92.535 324.800 204.641  1.00  0.00    -0.550 OA
ENDBRANCH  13  14
ENDBRANCH  12  13
ENDBRANCH  11  12
ENDBRANCH  10  11
ENDBRANCH   9  10
ENDBRANCH   8   9
ENDBRANCH   7   8
ENDBRANCH   6   7
ENDBRANCH   5   6
ENDBRANCH   4   5
ENDBRANCH   3   4
ENDBRANCH   2   3
ENDBRANCH   1   2
BRANCH   1  17
ATOM     17  C   UNL     1      86.333 322.576 201.762  1.00  0.00     0.000 C 
BRANCH  17  18
ATOM     18  C   UNL     1      87.308 322.040 200.694  1.00  0.00     0.000 C 
BRANCH  18  19
ATOM     19  C   UNL     1      88.411 323.025 200.271  1.00  0.00     0.000 C 
BRANCH  19  20
ATOM     20  C   UNL     1      88.133 323.685 198.912  1.00  0.00     0.000 C 
BRANCH  20  21
ATOM     21  C   UNL     1      89.237 324.691 198.555  1.00  0.00     0.000 C 
BRANCH  21  22
ATOM     22  C   UNL     1      88.690 326.102 198.288  1.00  0.00    -0.000 C 
BRANCH  22  23
ATOM     23  C   UNL     1      88.495 326.388 196.788  1.00  0.00    -0.000 C 
BRANCH  23  24
ATOM     24  C   UNL     1      87.010 326.324 196.369  1.00  0.00    -0.000 C 
BRANCH  24  25
ATOM     25  C   UNL     1      86.786 326.436 194.846  1.00  0.00    -0.000 C 
BRANCH  25  26
ATOM     26  C   UNL     1      88.023 326.151 193.974  1.00  0.00    -0.000 C 
BRANCH  26  27
ATOM     27  C   UNL     1      87.753 325.112 192.870  1.00  0.00    -0.000 C 
BRANCH  27  28
ATOM     28  C   UNL     1      88.357 323.732 193.192  1.00  0.00    -0.000 C 
BRANCH  28  29
ATOM     29  C   UNL     1      87.955 323.157 194.562  1.00  0.00    -0.003 C 
ATOM     30  C   UNL     1      89.156 322.779 195.428  1.00  0.00     0.004 C 
ENDBRANCH  28  29
ENDBRANCH  27  28
ENDBRANCH  26  27
ENDBRANCH  25  26
ENDBRANCH  24  25
ENDBRANCH  23  24
ENDBRANCH  22  23
ENDBRANCH  21  22
ENDBRANCH  20  21
ENDBRANCH  19  20
ENDBRANCH  18  19
ENDBRANCH  17  18
ENDBRANCH   1  17
TORSDOF 26
ENDMDL
MODEL 5
REMARK VINA RESULT:    -6.027      3.464     11.266
REMARK INTER + INTRA:         -17.846
REMARK INTER:                 -15.443
REMARK INTRA:                  -2.402
REMARK UNBOUND:                -2.658
REMARK SMILES CCCCCCCCCCCCCCCCCCCCCCCCCCCC(=O)[O-]
REMARK SMILES IDX 15 1 16 2 17 3 18 4 19 5 20 6 21 7 22 8 23 9 24 10 25 11
REMARK SMILES IDX 26 12 27 13 28 14 29 15 30 16 14 17 13 18 12 19 11 20 10 21
REMARK SMILES IDX 9 22 8 23 7 24 6 25 5 26 4 27 3 28 2 29 1 30
REMARK H PARENT
REMARK Flexibility Score: inf
ROOT
ATOM      1  C   UNL     1      88.680 326.095 201.695  1.00  0.00     0.000 C 
ENDROOT
BRANCH   1   2
ATOM      2  C   UNL     1      89.654 326.165 200.510  1.00  0.00     0.000 C 
BRANCH   2   3
ATOM      3  C   UNL     1      88.903 326.140 199.169  1.00  0.00     0.000 C 
BRANCH   3   4
ATOM      4  C   UNL     1      88.828 324.718 198.575  1.00  0.00     0.000 C 
BRANCH   4   5
ATOM      5  C   UNL     1      88.401 324.687 197.097  1.00  0.00     0.000 C 
BRANCH   5   6
ATOM      6  C   UNL     1      88.026 326.077 196.555  1.00  0.00     0.000 C 
BRANCH   6   7
ATOM      7  C   UNL     1      88.878 326.507 195.346  1.00  0.00     0.000 C 
BRANCH   7   8
ATOM      8  C   UNL     1      88.088 326.848 194.068  1.00  0.00     0.000 C 
BRANCH   8   9
ATOM      9  C   UNL     1      86.701 326.180 194.016  1.00  0.00     0.000 C 
BRANCH   9  10
ATOM     10  C   UNL     1      86.732 324.822 193.284  1.00  0.00     0.000 C 
BRANCH  10  11
ATOM     11  C   UNL     1      87.808 324.732 192.186  1.00  0.00     0.000 C 
BRANCH  11  12
ATOM     12  C   UNL     1      88.064 323.292 191.717  1.00  0.00     0.006 C 
BRANCH  12  13
ATOM     13  C   UNL     1      87.117 322.907 190.576  1.00  0.00     0.053 C 
BRANCH  13  14
ATOM     14  C   UNL     1      87.857 322.821 189.279  1.00  0.00     0.041 C 
ATOM     15  O   UNL     1      88.912 323.486 189.106  1.00  0.00    -0.550 OA
ATOM     16  O   UNL     1      87.397 321.984 188.270  1.00  0.00    -0.550 OA
ENDBRANCH  13  14
ENDBRANCH  12  13
ENDBRANCH  11  12
ENDBRANCH  10  11
ENDBRANCH   9  10
ENDBRANCH   8   9
ENDBRANCH   7   8
ENDBRANCH   6   7
ENDBRANCH   5   6
ENDBRANCH   4   5
ENDBRANCH   3   4
ENDBRANCH   2   3
ENDBRANCH   1   2
BRANCH   1  17
ATOM     17  C   UNL     1      88.643 324.704 202.353  1.00  0.00     0.000 C 
BRANCH  17  18
ATOM     18  C   UNL     1      87.457 323.815 201.925  1.00  0.00     0.000 C 
BRANCH  18  19
ATOM     19  C   UNL     1      86.362 323.639 202.990  1.00  0.00     0.000 C 
BRANCH  19  20
ATOM     20  C   UNL     1      86.905 323.089 204.317  1.00  0.00     0.000 C 
BRANCH  20  21
ATOM     21  C   UNL     1      86.402 323.926 205.504  1.00  0.00     0.000 C 
BRANCH  21  22
ATOM     22  C   UNL     1      87.519 324.273 206.499  1.00  0.00    -0.000 C 
BRANCH  22  23
ATOM     23  C   UNL     1      87.440 325.728 206.995  1.00  0.00    -0.000 C 
BRANCH  23  24
ATOM     24  C   UNL     1      88.766 326.491 206.782  1.00  0.00    -0.000 C 
BRANCH  24  25
ATOM     25  C   UNL     1      88.792 327.354 205.502  1.00  0.00    -0.000 C 
BRANCH  25  26
ATOM     26  C   UNL     1      90.116 327.331 204.718  1.00  0.00    -0.000 C 
BRANCH  26  27
ATOM     27  C   UNL     1      91.355 327.331 205.632  1.00  0.00    -0.000 C 
BRANCH  27  28
ATOM     28  C   UNL     1      92.584 326.681 204.968  1.00  0.00    -0.000 C 
BRANCH  28  29
ATOM     29  C   UNL     1      92.568 326.697 203.428  1.00  0.00    -0.003 C 
ATOM     30  C   UNL     1      93.965 326.620 202.815  1.00  0.00     0.004 C 
ENDBRANCH  28  29
ENDBRANCH  27  28
ENDBRANCH  26  27
ENDBRANCH  25  26
ENDBRANCH  24  25
ENDBRANCH  23  24
ENDBRANCH  22  23
ENDBRANCH  21  22
ENDBRANCH  20  21
ENDBRANCH  19  20
ENDBRANCH  18  19
ENDBRANCH  17  18
ENDBRANCH   1  17
TORSDOF 26
ENDMDL
MODEL 6
REMARK VINA RESULT:    -5.914      1.861      4.521
REMARK INTER + INTRA:         -17.560
REMARK INTER:                 -13.935
REMARK INTRA:                  -3.625
REMARK UNBOUND:                -2.658
REMARK SMILES CCCCCCCCCCCCCCCCCCCCCCCCCCCC(=O)[O-]
REMARK SMILES IDX 15 1 16 2 17 3 18 4 19 5 20 6 21 7 22 8 23 9 24 10 25 11
REMARK SMILES IDX 26 12 27 13 28 14 29 15 30 16 14 17 13 18 12 19 11 20 10 21
REMARK SMILES IDX 9 22 8 23 7 24 6 25 5 26 4 27 3 28 2 29 1 30
REMARK H PARENT
REMARK Flexibility Score: inf
ROOT
ATOM      1  C   UNL     1      89.092 325.761 199.086  1.00  0.00     0.000 C 
ENDROOT
BRANCH   1   2
ATOM      2  C   UNL     1      89.297 326.315 200.504  1.00  0.00     0.000 C 
BRANCH   2   3
ATOM      3  C   UNL     1      89.707 325.203 201.482  1.00  0.00     0.000 C 
BRANCH   3   4
ATOM      4  C   UNL     1      88.532 324.762 202.381  1.00  0.00     0.000 C 
BRANCH   4   5
ATOM      5  C   UNL     1      87.633 323.689 201.742  1.00  0.00     0.000 C 
BRANCH   5   6
ATOM      6  C   UNL     1      86.741 322.970 202.768  1.00  0.00     0.000 C 
BRANCH   6   7
ATOM      7  C   UNL     1      86.524 323.783 204.058  1.00  0.00     0.000 C 
BRANCH   7   8
ATOM      8  C   UNL     1      86.696 322.998 205.372  1.00  0.00     0.000 C 
BRANCH   8   9
ATOM      9  C   UNL     1      87.468 323.782 206.450  1.00  0.00     0.000 C 
BRANCH   9  10
ATOM     10  C   UNL     1      86.895 325.198 206.667  1.00  0.00     0.000 C 
BRANCH  10  11
ATOM     11  C   UNL     1      87.970 326.295 206.769  1.00  0.00     0.000 C 
BRANCH  11  12
ATOM     12  C   UNL     1      89.222 325.986 205.935  1.00  0.00     0.006 C 
BRANCH  12  13
ATOM     13  C   UNL     1      89.570 327.157 205.010  1.00  0.00     0.053 C 
BRANCH  13  14
ATOM     14  C   UNL     1      90.967 327.025 204.491  1.00  0.00     0.041 C 
ATOM     15  O   UNL     1      91.299 327.586 203.414  1.00  0.00    -0.550 OA
ATOM     16  O   UNL     1      91.912 326.307 205.213  1.00  0.00    -0.550 OA
ENDBRANCH  13  14
ENDBRANCH  12  13
ENDBRANCH  11  12
ENDBRANCH  10  11
ENDBRANCH   9  10
ENDBRANCH   8   9
ENDBRANCH   7   8
ENDBRANCH   6   7
ENDBRANCH   5   6
ENDBRANCH   4   5
ENDBRANCH   3   4
ENDBRANCH   2   3
ENDBRANCH   1   2
BRANCH   1  17
ATOM     17  C   UNL     1      88.803 326.865 198.053  1.00  0.00     0.000 C 
BRANCH  17  18
ATOM     18  C   UNL     1      88.101 326.382 196.767  1.00  0.00     0.000 C 
BRANCH  18  19
ATOM     19  C   UNL     1      88.954 326.471 195.490  1.00  0.00     0.000 C 
BRANCH  19  20
ATOM     20  C   UNL     1      88.115 326.736 194.231  1.00  0.00     0.000 C 
BRANCH  20  21
ATOM     21  C   UNL     1      86.714 326.118 194.366  1.00  0.00     0.000 C 
BRANCH  21  22
ATOM     22  C   UNL     1      86.415 325.083 193.270  1.00  0.00    -0.000 C 
BRANCH  22  23
ATOM     23  C   UNL     1      87.676 324.658 192.496  1.00  0.00    -0.000 C 
BRANCH  23  24
ATOM     24  C   UNL     1      88.054 323.184 192.758  1.00  0.00    -0.000 C 
BRANCH  24  25
ATOM     25  C   UNL     1      88.785 322.955 194.099  1.00  0.00    -0.000 C 
BRANCH  25  26
ATOM     26  C   UNL     1      87.930 322.337 195.219  1.00  0.00    -0.000 C 
BRANCH  26  27
ATOM     27  C   UNL     1      88.324 322.839 196.621  1.00  0.00    -0.000 C 
BRANCH  27  28
ATOM     28  C   UNL     1      89.838 323.088 196.759  1.00  0.00    -0.000 C 
BRANCH  28  29
ATOM     29  C   UNL     1      90.565 322.124 197.714  1.00  0.00    -0.003 C 
ATOM     30  C   UNL     1      91.227 322.835 198.893  1.00  0.00     0.004 C 
ENDBRANCH  28  29
ENDBRANCH  27  28
ENDBRANCH  26  27
ENDBRANCH  25  26
ENDBRANCH  24  25
ENDBRANCH  23  24
ENDBRANCH  22  23
ENDBRANCH  21  22
ENDBRANCH  20  21
ENDBRANCH  19  20
ENDBRANCH  18  19
ENDBRANCH  17  18
ENDBRANCH   1  17
TORSDOF 26
ENDMDL
MODEL 7
REMARK VINA RESULT:    -5.886      1.658     10.120
REMARK INTER + INTRA:         -17.491
REMARK INTER:                 -14.122
REMARK INTRA:                  -3.369
REMARK UNBOUND:                -2.658
REMARK SMILES CCCCCCCCCCCCCCCCCCCCCCCCCCCC(=O)[O-]
REMARK SMILES IDX 15 1 16 2 17 3 18 4 19 5 20 6 21 7 22 8 23 9 24 10 25 11
REMARK SMILES IDX 26 12 27 13 28 14 29 15 30 16 14 17 13 18 12 19 11 20 10 21
REMARK SMILES IDX 9 22 8 23 7 24 6 25 5 26 4 27 3 28 2 29 1 30
REMARK H PARENT
REMARK Flexibility Score: inf
ROOT
ATOM      1  C   UNL     1      88.866 325.437 197.955  1.00  0.00     0.000 C 
ENDROOT
BRANCH   1   2
ATOM      2  C   UNL     1      88.038 325.889 196.744  1.00  0.00     0.000 C 
BRANCH   2   3
ATOM      3  C   UNL     1      88.941 326.411 195.615  1.00  0.00     0.000 C 
BRANCH   3   4
ATOM      4  C   UNL     1      88.147 326.694 194.323  1.00  0.00     0.000 C 
BRANCH   4   5
ATOM      5  C   UNL     1      86.703 326.162 194.355  1.00  0.00     0.000 C 
BRANCH   5   6
ATOM      6  C   UNL     1      86.424 325.128 193.251  1.00  0.00     0.000 C 
BRANCH   6   7
ATOM      7  C   UNL     1      87.685 324.722 192.467  1.00  0.00     0.000 C 
BRANCH   7   8
ATOM      8  C   UNL     1      88.153 323.269 192.672  1.00  0.00     0.000 C 
BRANCH   8   9
ATOM      9  C   UNL     1      88.726 323.009 194.077  1.00  0.00     0.000 C 
BRANCH   9  10
ATOM     10  C   UNL     1      87.880 321.995 194.876  1.00  0.00     0.000 C 
BRANCH  10  11
ATOM     11  C   UNL     1      87.874 322.249 196.395  1.00  0.00     0.000 C 
BRANCH  11  12
ATOM     12  C   UNL     1      88.657 321.189 197.182  1.00  0.00     0.006 C 
BRANCH  12  13
ATOM     13  C   UNL     1      90.025 321.724 197.617  1.00  0.00     0.053 C 
BRANCH  13  14
ATOM     14  C   UNL     1      89.977 322.219 199.028  1.00  0.00     0.041 C 
ATOM     15  O   UNL     1      88.970 321.986 199.747  1.00  0.00    -0.550 OA
ATOM     16  O   UNL     1      91.056 322.914 199.559  1.00  0.00    -0.550 OA
ENDBRANCH  13  14
ENDBRANCH  12  13
ENDBRANCH  11  12
ENDBRANCH  10  11
ENDBRANCH   9  10
ENDBRANCH   8   9
ENDBRANCH   7   8
ENDBRANCH   6   7
ENDBRANCH   5   6
ENDBRANCH   4   5
ENDBRANCH   3   4
ENDBRANCH   2   3
ENDBRANCH   1   2
BRANCH   1  17
ATOM     17  C   UNL     1      88.860 326.469 199.097  1.00  0.00     0.000 C 
BRANCH  17  18
ATOM     18  C   UNL     1      89.173 325.893 200.494  1.00  0.00     0.000 C 
BRANCH  18  19
ATOM     19  C   UNL     1      90.589 326.189 201.014  1.00  0.00     0.000 C 
BRANCH  19  20
ATOM     20  C   UNL     1      90.629 326.422 202.532  1.00  0.00     0.000 C 
BRANCH  20  21
ATOM     21  C   UNL     1      89.208 326.510 203.111  1.00  0.00     0.000 C 
BRANCH  21  22
ATOM     22  C   UNL     1      89.151 327.307 204.422  1.00  0.00    -0.000 C 
BRANCH  22  23
ATOM     23  C   UNL     1      89.683 326.508 205.625  1.00  0.00    -0.000 C 
BRANCH  23  24
ATOM     24  C   UNL     1      88.642 326.397 206.760  1.00  0.00    -0.000 C 
BRANCH  24  25
ATOM     25  C   UNL     1      87.979 325.007 206.867  1.00  0.00    -0.000 C 
BRANCH  25  26
ATOM     26  C   UNL     1      86.646 324.853 206.112  1.00  0.00    -0.000 C 
BRANCH  26  27
ATOM     27  C   UNL     1      86.464 323.454 205.494  1.00  0.00    -0.000 C 
BRANCH  27  28
ATOM     28  C   UNL     1      87.258 323.274 204.186  1.00  0.00    -0.000 C 
BRANCH  28  29
ATOM     29  C   UNL     1      86.553 323.806 202.926  1.00  0.00    -0.003 C 
ATOM     30  C   UNL     1      86.247 322.711 201.905  1.00  0.00     0.004 C 
ENDBRANCH  28  29
ENDBRANCH  27  28
ENDBRANCH  26  27
ENDBRANCH  25  26
ENDBRANCH  24  25
ENDBRANCH  23  24
ENDBRANCH  22  23
ENDBRANCH  21  22
ENDBRANCH  20  21
ENDBRANCH  19  20
ENDBRANCH  18  19
ENDBRANCH  17  18
ENDBRANCH   1  17
TORSDOF 26
ENDMDL
MODEL 8
REMARK VINA RESULT:    -5.835      1.619      3.565
REMARK INTER + INTRA:         -17.362
REMARK INTER:                 -13.576
REMARK INTRA:                  -3.786
REMARK UNBOUND:                -2.658
REMARK SMILES CCCCCCCCCCCCCCCCCCCCCCCCCCCC(=O)[O-]
REMARK SMILES IDX 15 1 16 2 17 3 18 4 19 5 20 6 21 7 22 8 23 9 24 10 25 11
REMARK SMILES IDX 26 12 27 13 28 14 29 15 30 16 14 17 13 18 12 19 11 20 10 21
REMARK SMILES IDX 9 22 8 23 7 24 6 25 5 26 4 27 3 28 2 29 1 30
REMARK H PARENT
REMARK Flexibility Score: inf
ROOT
ATOM      1  C   UNL     1      88.494 325.192 200.598  1.00  0.00     0.000 C 
ENDROOT
BRANCH   1   2
ATOM      2  C   UNL     1      88.797 326.164 201.748  1.00  0.00     0.000 C 
BRANCH   2   3
ATOM      3  C   UNL     1      90.293 326.517 201.800  1.00  0.00     0.000 C 
BRANCH   3   4
ATOM      4  C   UNL     1      90.713 327.051 203.185  1.00  0.00     0.000 C 
BRANCH   4   5
ATOM      5  C   UNL     1      89.548 327.167 204.183  1.00  0.00     0.000 C 
BRANCH   5   6
ATOM      6  C   UNL     1      90.022 327.294 205.641  1.00  0.00     0.000 C 
BRANCH   6   7
ATOM      7  C   UNL     1      89.446 326.203 206.564  1.00  0.00     0.000 C 
BRANCH   7   8
ATOM      8  C   UNL     1      87.909 326.118 206.609  1.00  0.00     0.000 C 
BRANCH   8   9
ATOM      9  C   UNL     1      87.386 324.680 206.785  1.00  0.00     0.000 C 
BRANCH   9  10
ATOM     10  C   UNL     1      86.478 324.240 205.617  1.00  0.00     0.000 C 
BRANCH  10  11
ATOM     11  C   UNL     1      87.247 323.890 204.329  1.00  0.00     0.000 C 
BRANCH  11  12
ATOM     12  C   UNL     1      88.391 322.894 204.567  1.00  0.00     0.006 C 
BRANCH  12  13
ATOM     13  C   UNL     1      89.723 323.452 204.056  1.00  0.00     0.053 C 
BRANCH  13  14
ATOM     14  C   UNL     1      90.117 322.791 202.772  1.00  0.00     0.041 C 
ATOM     15  O   UNL     1      89.349 321.954 202.229  1.00  0.00    -0.550 OA
ATOM     16  O   UNL     1      91.319 323.122 202.160  1.00  0.00    -0.550 OA
ENDBRANCH  13  14
ENDBRANCH  12  13
ENDBRANCH  11  12
ENDBRANCH  10  11
ENDBRANCH   9  10
ENDBRANCH   8   9
ENDBRANCH   7   8
ENDBRANCH   6   7
ENDBRANCH   5   6
ENDBRANCH   4   5
ENDBRANCH   3   4
ENDBRANCH   2   3
ENDBRANCH   1   2
BRANCH   1  17
ATOM     17  C   UNL     1      89.312 325.500 199.330  1.00  0.00     0.000 C 
BRANCH  17  18
ATOM     18  C   UNL     1      88.695 326.568 198.404  1.00  0.00     0.000 C 
BRANCH  18  19
ATOM     19  C   UNL     1      88.179 326.037 197.056  1.00  0.00     0.000 C 
BRANCH  19  20
ATOM     20  C   UNL     1      89.111 326.379 195.885  1.00  0.00     0.000 C 
BRANCH  20  21
ATOM     21  C   UNL     1      88.306 326.652 194.605  1.00  0.00     0.000 C 
BRANCH  21  22
ATOM     22  C   UNL     1      86.897 326.044 194.650  1.00  0.00    -0.000 C 
BRANCH  22  23
ATOM     23  C   UNL     1      86.538 325.282 193.362  1.00  0.00    -0.000 C 
BRANCH  23  24
ATOM     24  C   UNL     1      87.772 325.032 192.468  1.00  0.00    -0.000 C 
BRANCH  24  25
ATOM     25  C   UNL     1      87.905 323.573 191.981  1.00  0.00    -0.000 C 
BRANCH  25  26
ATOM     26  C   UNL     1      86.577 322.812 191.809  1.00  0.00    -0.000 C 
BRANCH  26  27
ATOM     27  C   UNL     1      86.469 321.580 192.727  1.00  0.00    -0.000 C 
BRANCH  27  28
ATOM     28  C   UNL     1      87.515 321.588 193.858  1.00  0.00    -0.000 C 
BRANCH  28  29
ATOM     29  C   UNL     1      87.002 322.127 195.206  1.00  0.00    -0.003 C 
ATOM     30  C   UNL     1      88.128 322.473 196.179  1.00  0.00     0.004 C 
ENDBRANCH  28  29
ENDBRANCH  27  28
ENDBRANCH  26  27
ENDBRANCH  25  26
ENDBRANCH  24  25
ENDBRANCH  23  24
ENDBRANCH  22  23
ENDBRANCH  21  22
ENDBRANCH  20  21
ENDBRANCH  19  20
ENDBRANCH  18  19
ENDBRANCH  17  18
ENDBRANCH   1  17
TORSDOF 26
ENDMDL
MODEL 9
REMARK VINA RESULT:    -5.812      3.487     10.782
REMARK INTER + INTRA:         -17.303
REMARK INTER:                 -13.919
REMARK INTRA:                  -3.384
REMARK UNBOUND:                -2.658
REMARK SMILES CCCCCCCCCCCCCCCCCCCCCCCCCCCC(=O)[O-]
REMARK SMILES IDX 15 1 16 2 17 3 18 4 19 5 20 6 21 7 22 8 23 9 24 10 25 11
REMARK SMILES IDX 26 12 27 13 28 14 29 15 30 16 14 17 13 18 12 19 11 20 10 21
REMARK SMILES IDX 9 22 8 23 7 24 6 25 5 26 4 27 3 28 2 29 1 30
REMARK H PARENT
REMARK Flexibility Score: inf
ROOT
ATOM      1  C   UNL     1      88.666 326.120 201.135  1.00  0.00     0.000 C 
ENDROOT
BRANCH   1   2
ATOM      2  C   UNL     1      89.242 325.952 199.721  1.00  0.00     0.000 C 
BRANCH   2   3
ATOM      3  C   UNL     1      88.889 324.575 199.136  1.00  0.00     0.000 C 
BRANCH   3   4
ATOM      4  C   UNL     1      88.506 324.662 197.644  1.00  0.00     0.000 C 
BRANCH   4   5
ATOM      5  C   UNL     1      88.196 326.092 197.167  1.00  0.00     0.000 C 
BRANCH   5   6
ATOM      6  C   UNL     1      88.974 326.478 195.897  1.00  0.00     0.000 C 
BRANCH   6   7
ATOM      7  C   UNL     1      88.060 326.768 194.691  1.00  0.00     0.000 C 
BRANCH   7   8
ATOM      8  C   UNL     1      86.617 326.244 194.814  1.00  0.00     0.000 C 
BRANCH   8   9
ATOM      9  C   UNL     1      86.237 325.248 193.702  1.00  0.00     0.000 C 
BRANCH   9  10
ATOM     10  C   UNL     1      87.398 324.295 193.348  1.00  0.00     0.000 C 
BRANCH  10  11
ATOM     11  C   UNL     1      88.012 324.551 191.960  1.00  0.00     0.000 C 
BRANCH  11  12
ATOM     12  C   UNL     1      87.470 323.601 190.882  1.00  0.00     0.006 C 
BRANCH  12  13
ATOM     13  C   UNL     1      88.479 322.491 190.568  1.00  0.00     0.053 C 
BRANCH  13  14
ATOM     14  C   UNL     1      88.942 322.582 189.148  1.00  0.00     0.041 C 
ATOM     15  O   UNL     1      89.633 323.564 188.769  1.00  0.00    -0.550 OA
ATOM     16  O   UNL     1      88.636 321.567 188.250  1.00  0.00    -0.550 OA
ENDBRANCH  13  14
ENDBRANCH  12  13
ENDBRANCH  11  12
ENDBRANCH  10  11
ENDBRANCH   9  10
ENDBRANCH   8   9
ENDBRANCH   7   8
ENDBRANCH   6   7
ENDBRANCH   5   6
ENDBRANCH   4   5
ENDBRANCH   3   4
ENDBRANCH   2   3
ENDBRANCH   1   2
BRANCH   1  17
ATOM     17  C   UNL     1      89.721 326.587 202.154  1.00  0.00     0.000 C 
BRANCH  17  18
ATOM     18  C   UNL     1      89.192 326.788 203.589  1.00  0.00     0.000 C 
BRANCH  18  19
ATOM     19  C   UNL     1      89.944 326.000 204.674  1.00  0.00     0.000 C 
BRANCH  19  20
ATOM     20  C   UNL     1      89.938 326.708 206.037  1.00  0.00     0.000 C 
BRANCH  20  21
ATOM     21  C   UNL     1      88.633 326.425 206.797  1.00  0.00     0.000 C 
BRANCH  21  22
ATOM     22  C   UNL     1      88.162 324.971 206.643  1.00  0.00    -0.000 C 
BRANCH  22  23
ATOM     23  C   UNL     1      86.678 324.868 206.247  1.00  0.00    -0.000 C 
BRANCH  23  24
ATOM     24  C   UNL     1      86.398 323.645 205.346  1.00  0.00    -0.000 C 
BRANCH  24  25
ATOM     25  C   UNL     1      86.932 323.795 203.905  1.00  0.00    -0.000 C 
BRANCH  25  26
ATOM     26  C   UNL     1      87.702 322.579 203.358  1.00  0.00    -0.000 C 
BRANCH  26  27
ATOM     27  C   UNL     1      89.222 322.682 203.579  1.00  0.00    -0.000 C 
BRANCH  27  28
ATOM     28  C   UNL     1      90.001 322.882 202.265  1.00  0.00    -0.000 C 
BRANCH  28  29
ATOM     29  C   UNL     1      91.493 323.215 202.445  1.00  0.00    -0.003 C 
ATOM     30  C   UNL     1      92.083 323.978 201.260  1.00  0.00     0.004 C 
ENDBRANCH  28  29
ENDBRANCH  27  28
ENDBRANCH  26  27
ENDBRANCH  25  26
ENDBRANCH  24  25
ENDBRANCH  23  24
ENDBRANCH  22  23
ENDBRANCH  21  22
ENDBRANCH  20  21
ENDBRANCH  19  20
ENDBRANCH  18  19
ENDBRANCH  17  18
ENDBRANCH   1  17
TORSDOF 26
ENDMDL
