MODEL 1
REMARK VINA RESULT:    -3.947      0.000      0.000
REMARK INTER + INTRA:          -9.305
REMARK INTER:                  -7.177
REMARK INTRA:                  -2.129
REMARK UNBOUND:                -2.129
REMARK SMILES CCCCCCCCCCCCCCCC(=O)[O-]
REMARK SMILES IDX 9 1 10 2 11 3 12 4 13 5 14 6 15 7 16 8 17 9 18 10 8 11 7 12
REMARK SMILES IDX 6 13 5 14 4 15 3 16 2 17 1 18
REMARK H PARENT
REMARK Flexibility Score: inf
ROOT
ATOM      1  C   UNL     1      -5.309  13.714  -5.403  1.00  0.00     0.000 C 
ENDROOT
BRANCH   1   2
ATOM      2  C   UNL     1      -4.092  12.854  -5.005  1.00  0.00     0.000 C 
BRANCH   2   3
ATOM      3  C   UNL     1      -3.652  11.818  -6.058  1.00  0.00     0.000 C 
BRANCH   3   4
ATOM      4  C   UNL     1      -4.667  10.688  -6.324  1.00  0.00     0.000 C 
BRANCH   4   5
ATOM      5  C   UNL     1      -5.209   9.992  -5.062  1.00  0.00     0.000 C 
BRANCH   5   6
ATOM      6  C   UNL     1      -6.743  10.058  -4.957  1.00  0.00     0.006 C 
BRANCH   6   7
ATOM      7  C   UNL     1      -7.392  10.533  -6.263  1.00  0.00     0.053 C 
BRANCH   7   8
ATOM      8  C   UNL     1      -8.756   9.941  -6.450  1.00  0.00     0.041 C 
ATOM      9  O   UNL     1      -9.038   9.318  -7.507  1.00  0.00    -0.550 OA
ATOM     10  O   UNL     1      -9.705  10.048  -5.440  1.00  0.00    -0.550 OA
ENDBRANCH   7   8
ENDBRANCH   6   7
ENDBRANCH   5   6
ENDBRANCH   4   5
ENDBRANCH   3   4
ENDBRANCH   2   3
ENDBRANCH   1   2
BRANCH   1  11
ATOM     11  C   UNL     1      -4.976  15.132  -5.901  1.00  0.00     0.000 C 
BRANCH  11  12
ATOM     12  C   UNL     1      -4.923  15.228  -7.435  1.00  0.00    -0.000 C 
BRANCH  12  13
ATOM     13  C   UNL     1      -5.738  14.124  -8.132  1.00  0.00    -0.000 C 
BRANCH  13  14
ATOM     14  C   UNL     1      -6.841  14.621  -9.089  1.00  0.00    -0.000 C 
BRANCH  14  15
ATOM     15  C   UNL     1      -8.210  14.884  -8.435  1.00  0.00    -0.000 C 
BRANCH  15  16
ATOM     16  C   UNL     1      -8.557  13.855  -7.346  1.00  0.00    -0.000 C 
BRANCH  16  17
ATOM     17  C   UNL     1      -9.330  14.479  -6.174  1.00  0.00    -0.003 C 
ATOM     18  C   UNL     1      -8.806  15.861  -5.785  1.00  0.00     0.004 C 
ENDBRANCH  16  17
ENDBRANCH  15  16
ENDBRANCH  14  15
ENDBRANCH  13  14
ENDBRANCH  12  13
ENDBRANCH  11  12
ENDBRANCH   1  11
TORSDOF 14
ENDMDL
MODEL 2
REMARK VINA RESULT:    -3.780      0.959      4.497
REMARK INTER + INTRA:          -9.002
REMARK INTER:                  -7.003
REMARK INTRA:                  -2.000
REMARK UNBOUND:                -2.129
REMARK SMILES CCCCCCCCCCCCCCCC(=O)[O-]
REMARK SMILES IDX 9 1 10 2 11 3 12 4 13 5 14 6 15 7 16 8 17 9 18 10 8 11 7 12
REMARK SMILES IDX 6 13 5 14 4 15 3 16 2 17 1 18
REMARK H PARENT
REMARK Flexibility Score: inf
ROOT
ATOM      1  C   UNL     1      -5.617  14.472  -8.511  1.00  0.00     0.000 C 
ENDROOT
BRANCH   1   2
ATOM      2  C   UNL     1      -6.664  14.843  -9.580  1.00  0.00     0.000 C 
BRANCH   2   3
ATOM      3  C   UNL     1      -8.078  15.129  -9.039  1.00  0.00     0.000 C 
BRANCH   3   4
ATOM      4  C   UNL     1      -8.663  14.028  -8.131  1.00  0.00     0.000 C 
BRANCH   4   5
ATOM      5  C   UNL     1      -8.805  14.416  -6.648  1.00  0.00     0.000 C 
BRANCH   5   6
ATOM      6  C   UNL     1      -8.606  13.223  -5.697  1.00  0.00     0.006 C 
BRANCH   6   7
ATOM      7  C   UNL     1      -7.795  12.095  -6.348  1.00  0.00     0.053 C 
BRANCH   7   8
ATOM      8  C   UNL     1      -8.435  10.757  -6.129  1.00  0.00     0.041 C 
ATOM      9  O   UNL     1      -8.638   9.985  -7.102  1.00  0.00    -0.550 OA
ATOM     10  O   UNL     1      -8.774  10.350  -4.845  1.00  0.00    -0.550 OA
ENDBRANCH   7   8
ENDBRANCH   6   7
ENDBRANCH   5   6
ENDBRANCH   4   5
ENDBRANCH   3   4
ENDBRANCH   2   3
ENDBRANCH   1   2
BRANCH   1  11
ATOM     11  C   UNL     1      -4.570  15.560  -8.213  1.00  0.00     0.000 C 
BRANCH  11  12
ATOM     12  C   UNL     1      -4.143  15.588  -6.735  1.00  0.00    -0.000 C 
BRANCH  12  13
ATOM     13  C   UNL     1      -5.179  14.938  -5.801  1.00  0.00    -0.000 C 
BRANCH  13  14
ATOM     14  C   UNL     1      -4.716  13.644  -5.099  1.00  0.00    -0.000 C 
BRANCH  14  15
ATOM     15  C   UNL     1      -3.440  13.004  -5.675  1.00  0.00    -0.000 C 
BRANCH  15  16
ATOM     16  C   UNL     1      -3.594  11.495  -5.930  1.00  0.00    -0.000 C 
BRANCH  16  17
ATOM     17  C   UNL     1      -3.813  10.699  -4.634  1.00  0.00    -0.003 C 
ATOM     18  C   UNL     1      -5.142   9.945  -4.618  1.00  0.00     0.004 C 
ENDBRANCH  16  17
ENDBRANCH  15  16
ENDBRANCH  14  15
ENDBRANCH  13  14
ENDBRANCH  12  13
ENDBRANCH  11  12
ENDBRANCH   1  11
TORSDOF 14
ENDMDL
MODEL 3
REMARK VINA RESULT:    -3.761     13.369     15.458
REMARK INTER + INTRA:          -8.967
REMARK INTER:                  -6.325
REMARK INTRA:                  -2.642
REMARK UNBOUND:                -2.129
REMARK SMILES CCCCCCCCCCCCCCCC(=O)[O-]
REMARK SMILES IDX 9 1 10 2 11 3 12 4 13 5 14 6 15 7 16 8 17 9 18 10 8 11 7 12
REMARK SMILES IDX 6 13 5 14 4 15 3 16 2 17 1 18
REMARK H PARENT
REMARK Flexibility Score: inf
ROOT
ATOM      1  C   UNL     1     -11.555   7.404 -22.584  1.00  0.00     0.000 C 
ENDROOT
BRANCH   1   2
ATOM      2  C   UNL     1     -12.551   7.192 -21.426  1.00  0.00     0.000 C 
BRANCH   2   3
ATOM      3  C   UNL     1     -11.976   6.465 -20.195  1.00  0.00     0.000 C 
BRANCH   3   4
ATOM      4  C   UNL     1     -11.314   7.383 -19.147  1.00  0.00     0.000 C 
BRANCH   4   5
ATOM      5  C   UNL     1     -11.668   8.875 -19.274  1.00  0.00     0.000 C 
BRANCH   5   6
ATOM      6  C   UNL     1     -10.607   9.796 -18.645  1.00  0.00     0.006 C 
BRANCH   6   7
ATOM      7  C   UNL     1      -9.699   9.045 -17.662  1.00  0.00     0.053 C 
BRANCH   7   8
ATOM      8  C   UNL     1      -8.635   9.937 -17.101  1.00  0.00     0.041 C 
ATOM      9  O   UNL     1      -7.791  10.476 -17.865  1.00  0.00    -0.550 OA
ATOM     10  O   UNL     1      -8.596  10.201 -15.738  1.00  0.00    -0.550 OA
ENDBRANCH   7   8
ENDBRANCH   6   7
ENDBRANCH   5   6
ENDBRANCH   4   5
ENDBRANCH   3   4
ENDBRANCH   2   3
ENDBRANCH   1   2
BRANCH   1  11
ATOM     11  C   UNL     1     -10.323   6.481 -22.568  1.00  0.00     0.000 C 
BRANCH  11  12
ATOM     12  C   UNL     1      -8.998   7.252 -22.688  1.00  0.00    -0.000 C 
BRANCH  12  13
ATOM     13  C   UNL     1      -8.928   8.470 -21.750  1.00  0.00    -0.000 C 
BRANCH  13  14
ATOM     14  C   UNL     1      -7.673   8.545 -20.856  1.00  0.00    -0.000 C 
BRANCH  14  15
ATOM     15  C   UNL     1      -7.051   7.188 -20.480  1.00  0.00    -0.000 C 
BRANCH  15  16
ATOM     16  C   UNL     1      -7.720   6.547 -19.251  1.00  0.00    -0.000 C 
BRANCH  16  17
ATOM     17  C   UNL     1      -8.235   5.128 -19.536  1.00  0.00    -0.003 C 
ATOM     18  C   UNL     1      -7.496   4.448 -20.689  1.00  0.00     0.004 C 
ENDBRANCH  16  17
ENDBRANCH  15  16
ENDBRANCH  14  15
ENDBRANCH  13  14
ENDBRANCH  12  13
ENDBRANCH  11  12
ENDBRANCH   1  11
TORSDOF 14
ENDMDL
MODEL 4
REMARK VINA RESULT:    -3.736     11.399     13.223
REMARK INTER + INTRA:          -8.923
REMARK INTER:                  -6.636
REMARK INTRA:                  -2.287
REMARK UNBOUND:                -2.129
REMARK SMILES CCCCCCCCCCCCCCCC(=O)[O-]
REMARK SMILES IDX 9 1 10 2 11 3 12 4 13 5 14 6 15 7 16 8 17 9 18 10 8 11 7 12
REMARK SMILES IDX 6 13 5 14 4 15 3 16 2 17 1 18
REMARK H PARENT
REMARK Flexibility Score: inf
ROOT
ATOM      1  C   UNL     1      -8.645   6.624 -19.246  1.00  0.00     0.000 C 
ENDROOT
BRANCH   1   2
ATOM      2  C   UNL     1      -7.187   6.993 -18.909  1.00  0.00     0.000 C 
BRANCH   2   3
ATOM      3  C   UNL     1      -6.533   8.010 -19.864  1.00  0.00     0.000 C 
BRANCH   3   4
ATOM      4  C   UNL     1      -5.752   9.146 -19.172  1.00  0.00     0.000 C 
BRANCH   4   5
ATOM      5  C   UNL     1      -5.648   9.023 -17.641  1.00  0.00     0.000 C 
BRANCH   5   6
ATOM      6  C   UNL     1      -5.502  10.386 -16.942  1.00  0.00     0.006 C 
BRANCH   6   7
ATOM      7  C   UNL     1      -6.795  11.211 -17.008  1.00  0.00     0.053 C 
BRANCH   7   8
ATOM      8  C   UNL     1      -7.317  11.529 -15.640  1.00  0.00     0.041 C 
ATOM      9  O   UNL     1      -8.118  10.742 -15.068  1.00  0.00    -0.550 OA
ATOM     10  O   UNL     1      -6.893  12.676 -14.982  1.00  0.00    -0.550 OA
ENDBRANCH   7   8
ENDBRANCH   6   7
ENDBRANCH   5   6
ENDBRANCH   4   5
ENDBRANCH   3   4
ENDBRANCH   2   3
ENDBRANCH   1   2
BRANCH   1  11
ATOM     11  C   UNL     1      -9.703   7.172 -18.271  1.00  0.00     0.000 C 
BRANCH  11  12
ATOM     12  C   UNL     1      -9.247   8.453 -17.554  1.00  0.00    -0.000 C 
BRANCH  12  13
ATOM     13  C   UNL     1      -9.946   9.717 -18.085  1.00  0.00    -0.000 C 
BRANCH  13  14
ATOM     14  C   UNL     1      -9.700  10.032 -19.575  1.00  0.00    -0.000 C 
BRANCH  14  15
ATOM     15  C   UNL     1     -10.961  10.066 -20.458  1.00  0.00    -0.000 C 
BRANCH  15  16
ATOM     16  C   UNL     1     -11.218   8.732 -21.180  1.00  0.00    -0.000 C 
BRANCH  16  17
ATOM     17  C   UNL     1     -12.393   7.951 -20.570  1.00  0.00    -0.003 C 
ATOM     18  C   UNL     1     -13.172   8.762 -19.535  1.00  0.00     0.004 C 
ENDBRANCH  16  17
ENDBRANCH  15  16
ENDBRANCH  14  15
ENDBRANCH  13  14
ENDBRANCH  12  13
ENDBRANCH  11  12
ENDBRANCH   1  11
TORSDOF 14
ENDMDL
MODEL 5
REMARK VINA RESULT:    -3.685     12.773     14.840
REMARK INTER + INTRA:          -8.829
REMARK INTER:                  -6.889
REMARK INTRA:                  -1.940
REMARK UNBOUND:                -2.129
REMARK SMILES CCCCCCCCCCCCCCCC(=O)[O-]
REMARK SMILES IDX 9 1 10 2 11 3 12 4 13 5 14 6 15 7 16 8 17 9 18 10 8 11 7 12
REMARK SMILES IDX 6 13 5 14 4 15 3 16 2 17 1 18
REMARK H PARENT
REMARK Flexibility Score: inf
ROOT
ATOM      1  C   UNL     1     -12.763   8.120 -20.019  1.00  0.00     0.000 C 
ENDROOT
BRANCH   1   2
ATOM      2  C   UNL     1     -11.849   7.133 -19.265  1.00  0.00     0.000 C 
BRANCH   2   3
ATOM      3  C   UNL     1     -10.588   7.759 -18.638  1.00  0.00     0.000 C 
BRANCH   3   4
ATOM      4  C   UNL     1     -10.276   9.197 -19.100  1.00  0.00     0.000 C 
BRANCH   4   5
ATOM      5  C   UNL     1      -9.606  10.088 -18.038  1.00  0.00     0.000 C 
BRANCH   5   6
ATOM      6  C   UNL     1      -9.078   9.288 -16.835  1.00  0.00     0.006 C 
BRANCH   6   7
ATOM      7  C   UNL     1      -8.682  10.198 -15.665  1.00  0.00     0.053 C 
BRANCH   7   8
ATOM      8  C   UNL     1      -7.370  10.878 -15.912  1.00  0.00     0.041 C 
ATOM      9  O   UNL     1      -6.362  10.206 -16.253  1.00  0.00    -0.550 OA
ATOM     10  O   UNL     1      -7.271  12.260 -15.801  1.00  0.00    -0.550 OA
ENDBRANCH   7   8
ENDBRANCH   6   7
ENDBRANCH   5   6
ENDBRANCH   4   5
ENDBRANCH   3   4
ENDBRANCH   2   3
ENDBRANCH   1   2
BRANCH   1  11
ATOM     11  C   UNL     1     -13.040   7.763 -21.491  1.00  0.00     0.000 C 
BRANCH  11  12
ATOM     12  C   UNL     1     -12.158   6.613 -22.003  1.00  0.00    -0.000 C 
BRANCH  12  13
ATOM     13  C   UNL     1     -10.950   7.104 -22.821  1.00  0.00    -0.000 C 
BRANCH  13  14
ATOM     14  C   UNL     1      -9.595   6.468 -22.446  1.00  0.00    -0.000 C 
BRANCH  14  15
ATOM     15  C   UNL     1      -8.577   7.424 -21.798  1.00  0.00    -0.000 C 
BRANCH  15  16
ATOM     16  C   UNL     1      -7.337   6.694 -21.255  1.00  0.00    -0.000 C 
BRANCH  16  17
ATOM     17  C   UNL     1      -7.458   6.361 -19.760  1.00  0.00    -0.003 C 
ATOM     18  C   UNL     1      -6.759   7.383 -18.865  1.00  0.00     0.004 C 
ENDBRANCH  16  17
ENDBRANCH  15  16
ENDBRANCH  14  15
ENDBRANCH  13  14
ENDBRANCH  12  13
ENDBRANCH  11  12
ENDBRANCH   1  11
TORSDOF 14
ENDMDL
MODEL 6
REMARK VINA RESULT:    -3.670     14.825     16.618
REMARK INTER + INTRA:          -8.803
REMARK INTER:                  -6.212
REMARK INTRA:                  -2.591
REMARK UNBOUND:                -2.129
REMARK SMILES CCCCCCCCCCCCCCCC(=O)[O-]
REMARK SMILES IDX 9 1 10 2 11 3 12 4 13 5 14 6 15 7 16 8 17 9 18 10 8 11 7 12
REMARK SMILES IDX 6 13 5 14 4 15 3 16 2 17 1 18
REMARK H PARENT
REMARK Flexibility Score: inf
ROOT
ATOM      1  C   UNL     1     -12.835   8.561 -20.695  1.00  0.00     0.000 C 
ENDROOT
BRANCH   1   2
ATOM      2  C   UNL     1     -12.376   8.294 -19.248  1.00  0.00     0.000 C 
BRANCH   2   3
ATOM      3  C   UNL     1     -10.929   8.718 -18.933  1.00  0.00     0.000 C 
BRANCH   3   4
ATOM      4  C   UNL     1      -9.990   7.570 -18.510  1.00  0.00     0.000 C 
BRANCH   4   5
ATOM      5  C   UNL     1      -8.719   7.422 -19.366  1.00  0.00     0.000 C 
BRANCH   5   6
ATOM      6  C   UNL     1      -8.298   5.955 -19.561  1.00  0.00     0.006 C 
BRANCH   6   7
ATOM      7  C   UNL     1      -7.272   5.794 -20.690  1.00  0.00     0.053 C 
BRANCH   7   8
ATOM      8  C   UNL     1      -7.223   4.384 -21.195  1.00  0.00     0.041 C 
ATOM      9  O   UNL     1      -6.326   3.597 -20.792  1.00  0.00    -0.550 OA
ATOM     10  O   UNL     1      -8.189   3.930 -22.084  1.00  0.00    -0.550 OA
ENDBRANCH   7   8
ENDBRANCH   6   7
ENDBRANCH   5   6
ENDBRANCH   4   5
ENDBRANCH   3   4
ENDBRANCH   2   3
ENDBRANCH   1   2
BRANCH   1  11
ATOM     11  C   UNL     1     -13.097   7.302 -21.543  1.00  0.00     0.000 C 
BRANCH  11  12
ATOM     12  C   UNL     1     -12.383   6.055 -20.995  1.00  0.00    -0.000 C 
BRANCH  12  13
ATOM     13  C   UNL     1     -11.212   5.598 -21.883  1.00  0.00    -0.000 C 
BRANCH  13  14
ATOM     14  C   UNL     1     -11.256   6.095 -23.343  1.00  0.00    -0.000 C 
BRANCH  14  15
ATOM     15  C   UNL     1      -9.998   6.844 -23.821  1.00  0.00    -0.000 C 
BRANCH  15  16
ATOM     16  C   UNL     1      -9.552   7.944 -22.843  1.00  0.00    -0.000 C 
BRANCH  16  17
ATOM     17  C   UNL     1     -10.225   9.295 -23.132  1.00  0.00    -0.003 C 
ATOM     18  C   UNL     1      -9.888  10.361 -22.091  1.00  0.00     0.004 C 
ENDBRANCH  16  17
ENDBRANCH  15  16
ENDBRANCH  14  15
ENDBRANCH  13  14
ENDBRANCH  12  13
ENDBRANCH  11  12
ENDBRANCH   1  11
TORSDOF 14
ENDMDL
MODEL 7
REMARK VINA RESULT:    -3.660     13.852     16.095
REMARK INTER + INTRA:          -8.784
REMARK INTER:                  -6.033
REMARK INTRA:                  -2.751
REMARK UNBOUND:                -2.129
REMARK SMILES CCCCCCCCCCCCCCCC(=O)[O-]
REMARK SMILES IDX 9 1 10 2 11 3 12 4 13 5 14 6 15 7 16 8 17 9 18 10 8 11 7 12
REMARK SMILES IDX 6 13 5 14 4 15 3 16 2 17 1 18
REMARK H PARENT
REMARK Flexibility Score: inf
ROOT
ATOM      1  C   UNL     1     -12.325   6.130 -21.161  1.00  0.00     0.000 C 
ENDROOT
BRANCH   1   2
ATOM      2  C   UNL     1     -11.034   5.884 -21.968  1.00  0.00     0.000 C 
BRANCH   2   3
ATOM      3  C   UNL     1     -10.671   6.994 -22.973  1.00  0.00     0.000 C 
BRANCH   3   4
ATOM      4  C   UNL     1      -9.712   8.074 -22.433  1.00  0.00     0.000 C 
BRANCH   4   5
ATOM      5  C   UNL     1     -10.165   9.525 -22.675  1.00  0.00     0.000 C 
BRANCH   5   6
ATOM      6  C   UNL     1      -9.499  10.526 -21.715  1.00  0.00     0.006 C 
BRANCH   6   7
ATOM      7  C   UNL     1      -8.093  10.077 -21.296  1.00  0.00     0.053 C 
BRANCH   7   8
ATOM      8  C   UNL     1      -7.372  11.151 -20.540  1.00  0.00     0.041 C 
ATOM      9  O   UNL     1      -7.142  11.014 -19.309  1.00  0.00    -0.550 OA
ATOM     10  O   UNL     1      -6.924  12.287 -21.202  1.00  0.00    -0.550 OA
ENDBRANCH   7   8
ENDBRANCH   6   7
ENDBRANCH   5   6
ENDBRANCH   4   5
ENDBRANCH   3   4
ENDBRANCH   2   3
ENDBRANCH   1   2
BRANCH   1  11
ATOM     11  C   UNL     1     -13.114   7.391 -21.553  1.00  0.00     0.000 C 
BRANCH  11  12
ATOM     12  C   UNL     1     -13.112   8.464 -20.451  1.00  0.00    -0.000 C 
BRANCH  12  13
ATOM     13  C   UNL     1     -12.143   8.137 -19.301  1.00  0.00    -0.000 C 
BRANCH  13  14
ATOM     14  C   UNL     1     -11.263   9.311 -18.824  1.00  0.00    -0.000 C 
BRANCH  14  15
ATOM     15  C   UNL     1      -9.864   8.920 -18.312  1.00  0.00    -0.000 C 
BRANCH  15  16
ATOM     16  C   UNL     1      -9.539   7.435 -18.546  1.00  0.00    -0.000 C 
BRANCH  16  17
ATOM     17  C   UNL     1      -8.065   7.208 -18.918  1.00  0.00    -0.003 C 
ATOM     18  C   UNL     1      -7.867   6.027 -19.867  1.00  0.00     0.004 C 
ENDBRANCH  16  17
ENDBRANCH  15  16
ENDBRANCH  14  15
ENDBRANCH  13  14
ENDBRANCH  12  13
ENDBRANCH  11  12
ENDBRANCH   1  11
TORSDOF 14
ENDMDL
MODEL 8
REMARK VINA RESULT:    -3.620     11.957     13.931
REMARK INTER + INTRA:          -8.712
REMARK INTER:                  -6.383
REMARK INTRA:                  -2.330
REMARK UNBOUND:                -2.129
REMARK SMILES CCCCCCCCCCCCCCCC(=O)[O-]
REMARK SMILES IDX 9 1 10 2 11 3 12 4 13 5 14 6 15 7 16 8 17 9 18 10 8 11 7 12
REMARK SMILES IDX 6 13 5 14 4 15 3 16 2 17 1 18
REMARK H PARENT
REMARK Flexibility Score: inf
ROOT
ATOM      1  C   UNL     1      -9.288   6.166 -19.180  1.00  0.00     0.000 C 
ENDROOT
BRANCH   1   2
ATOM      2  C   UNL     1      -7.955   6.940 -19.186  1.00  0.00     0.000 C 
BRANCH   2   3
ATOM      3  C   UNL     1      -7.999   8.324 -18.510  1.00  0.00     0.000 C 
BRANCH   3   4
ATOM      4  C   UNL     1      -9.102   8.494 -17.445  1.00  0.00     0.000 C 
BRANCH   4   5
ATOM      5  C   UNL     1      -9.330   9.941 -16.972  1.00  0.00     0.000 C 
BRANCH   5   6
ATOM      6  C   UNL     1      -8.022  10.742 -16.850  1.00  0.00     0.006 C 
BRANCH   6   7
ATOM      7  C   UNL     1      -7.585  10.916 -15.390  1.00  0.00     0.053 C 
BRANCH   7   8
ATOM      8  C   UNL     1      -6.149  10.537 -15.193  1.00  0.00     0.041 C 
ATOM      9  O   UNL     1      -5.485  10.052 -16.147  1.00  0.00    -0.550 OA
ATOM     10  O   UNL     1      -5.534  10.752 -13.966  1.00  0.00    -0.550 OA
ENDBRANCH   7   8
ENDBRANCH   6   7
ENDBRANCH   5   6
ENDBRANCH   4   5
ENDBRANCH   3   4
ENDBRANCH   2   3
ENDBRANCH   1   2
BRANCH   1  11
ATOM     11  C   UNL     1      -9.754   5.651 -20.554  1.00  0.00     0.000 C 
BRANCH  11  12
ATOM     12  C   UNL     1     -11.286   5.630 -20.695  1.00  0.00    -0.000 C 
BRANCH  12  13
ATOM     13  C   UNL     1     -11.996   6.484 -19.629  1.00  0.00    -0.000 C 
BRANCH  13  14
ATOM     14  C   UNL     1     -12.551   7.835 -20.126  1.00  0.00    -0.000 C 
BRANCH  14  15
ATOM     15  C   UNL     1     -11.985   9.079 -19.418  1.00  0.00    -0.000 C 
BRANCH  15  16
ATOM     16  C   UNL     1     -11.035   9.893 -20.312  1.00  0.00    -0.000 C 
BRANCH  16  17
ATOM     17  C   UNL     1     -10.669   9.151 -21.608  1.00  0.00    -0.003 C 
ATOM     18  C   UNL     1      -9.170   9.180 -21.904  1.00  0.00     0.004 C 
ENDBRANCH  16  17
ENDBRANCH  15  16
ENDBRANCH  14  15
ENDBRANCH  13  14
ENDBRANCH  12  13
ENDBRANCH  11  12
ENDBRANCH   1  11
TORSDOF 14
ENDMDL
MODEL 9
REMARK VINA RESULT:    -3.571     13.537     15.665
REMARK INTER + INTRA:          -8.623
REMARK INTER:                  -6.104
REMARK INTRA:                  -2.519
REMARK UNBOUND:                -2.129
REMARK SMILES CCCCCCCCCCCCCCCC(=O)[O-]
REMARK SMILES IDX 9 1 10 2 11 3 12 4 13 5 14 6 15 7 16 8 17 9 18 10 8 11 7 12
REMARK SMILES IDX 6 13 5 14 4 15 3 16 2 17 1 18
REMARK H PARENT
REMARK Flexibility Score: inf
ROOT
ATOM      1  C   UNL     1     -12.720   7.742 -21.838  1.00  0.00     0.000 C 
ENDROOT
BRANCH   1   2
ATOM      2  C   UNL     1     -13.112   7.880 -20.353  1.00  0.00     0.000 C 
BRANCH   2   3
ATOM      3  C   UNL     1     -12.671   9.194 -19.680  1.00  0.00     0.000 C 
BRANCH   3   4
ATOM      4  C   UNL     1     -11.191   9.242 -19.250  1.00  0.00     0.000 C 
BRANCH   4   5
ATOM      5  C   UNL     1     -10.626   7.912 -18.719  1.00  0.00     0.000 C 
BRANCH   5   6
ATOM      6  C   UNL     1      -9.434   8.108 -17.766  1.00  0.00     0.006 C 
BRANCH   6   7
ATOM      7  C   UNL     1      -9.081   9.590 -17.579  1.00  0.00     0.053 C 
BRANCH   7   8
ATOM      8  C   UNL     1      -7.607   9.828 -17.707  1.00  0.00     0.041 C 
ATOM      9  O   UNL     1      -6.830   8.868 -17.953  1.00  0.00    -0.550 OA
ATOM     10  O   UNL     1      -7.097  11.114 -17.588  1.00  0.00    -0.550 OA
ENDBRANCH   7   8
ENDBRANCH   6   7
ENDBRANCH   5   6
ENDBRANCH   4   5
ENDBRANCH   3   4
ENDBRANCH   2   3
ENDBRANCH   1   2
BRANCH   1  11
ATOM     11  C   UNL     1     -11.888   6.493 -22.183  1.00  0.00     0.000 C 
BRANCH  11  12
ATOM     12  C   UNL     1     -11.969   5.404 -21.101  1.00  0.00    -0.000 C 
BRANCH  12  13
ATOM     13  C   UNL     1     -10.602   4.771 -20.786  1.00  0.00    -0.000 C 
BRANCH  13  14
ATOM     14  C   UNL     1      -9.411   5.338 -21.586  1.00  0.00    -0.000 C 
BRANCH  14  15
ATOM     15  C   UNL     1      -8.336   6.052 -20.747  1.00  0.00    -0.000 C 
BRANCH  15  16
ATOM     16  C   UNL     1      -7.568   7.118 -21.546  1.00  0.00    -0.000 C 
BRANCH  16  17
ATOM     17  C   UNL     1      -8.096   8.538 -21.289  1.00  0.00    -0.003 C 
ATOM     18  C   UNL     1      -9.122   8.987 -22.329  1.00  0.00     0.004 C 
ENDBRANCH  16  17
ENDBRANCH  15  16
ENDBRANCH  14  15
ENDBRANCH  13  14
ENDBRANCH  12  13
ENDBRANCH  11  12
ENDBRANCH   1  11
TORSDOF 14
ENDMDL
