MODEL 1
REMARK VINA RESULT:    -3.646      0.000      0.000
REMARK INTER + INTRA:         -15.587
REMARK INTER:                  -9.614
REMARK INTRA:                  -5.973
REMARK UNBOUND:                -5.973
REMARK SMILES CCCCCCCCCCCCCCCCCCCCCCCCCCCCCC(=O)[O-]
REMARK SMILES IDX 16 1 17 2 18 3 19 4 20 5 21 6 22 7 23 8 24 9 25 10 26 11
REMARK SMILES IDX 27 12 28 13 29 14 30 15 31 16 32 17 15 18 14 19 13 20 12 21
REMARK SMILES IDX 11 22 10 23 9 24 8 25 7 26 6 27 5 28 4 29 3 30 2 31 1 32
REMARK H PARENT
REMARK Flexibility Score: inf
ROOT
ATOM      1  C   UNL     1       6.524  30.884   7.119  1.00  0.00     0.000 C 
ENDROOT
BRANCH   1   2
ATOM      2  C   UNL     1       6.665  32.253   7.807  1.00  0.00     0.000 C 
BRANCH   2   3
ATOM      3  C   UNL     1       6.675  33.423   6.809  1.00  0.00     0.000 C 
BRANCH   3   4
ATOM      4  C   UNL     1       6.196  34.756   7.422  1.00  0.00     0.000 C 
BRANCH   4   5
ATOM      5  C   UNL     1       6.429  34.811   8.942  1.00  0.00     0.000 C 
BRANCH   5   6
ATOM      6  C   UNL     1       5.112  34.891   9.743  1.00  0.00     0.000 C 
BRANCH   6   7
ATOM      7  C   UNL     1       3.862  35.093   8.865  1.00  0.00     0.000 C 
BRANCH   7   8
ATOM      8  C   UNL     1       3.079  33.807   8.544  1.00  0.00     0.000 C 
BRANCH   8   9
ATOM      9  C   UNL     1       1.749  34.020   7.791  1.00  0.00     0.000 C 
BRANCH   9  10
ATOM     10  C   UNL     1       1.742  33.550   6.325  1.00  0.00     0.000 C 
BRANCH  10  11
ATOM     11  C   UNL     1       3.145  33.200   5.805  1.00  0.00     0.000 C 
BRANCH  11  12
ATOM     12  C   UNL     1       3.653  34.181   4.736  1.00  0.00     0.000 C 
BRANCH  12  13
ATOM     13  C   UNL     1       4.488  33.552   3.603  1.00  0.00     0.006 C 
BRANCH  13  14
ATOM     14  C   UNL     1       5.625  34.453   3.085  1.00  0.00     0.053 C 
BRANCH  14  15
ATOM     15  C   UNL     1       6.101  34.051   1.721  1.00  0.00     0.041 C 
ATOM     16  O   UNL     1       5.643  33.018   1.165  1.00  0.00    -0.550 OA
ATOM     17  O   UNL     1       7.021  34.842   1.044  1.00  0.00    -0.550 OA
ENDBRANCH  14  15
ENDBRANCH  13  14
ENDBRANCH  12  13
ENDBRANCH  11  12
ENDBRANCH  10  11
ENDBRANCH   9  10
ENDBRANCH   8   9
ENDBRANCH   7   8
ENDBRANCH   6   7
ENDBRANCH   5   6
ENDBRANCH   4   5
ENDBRANCH   3   4
ENDBRANCH   2   3
ENDBRANCH   1   2
BRANCH   1  18
ATOM     18  C   UNL     1       6.058  31.004   5.659  1.00  0.00     0.000 C 
BRANCH  18  19
ATOM     19  C   UNL     1       6.967  30.238   4.686  1.00  0.00     0.000 C 
BRANCH  19  20
ATOM     20  C   UNL     1       7.813  31.206   3.845  1.00  0.00     0.000 C 
BRANCH  20  21
ATOM     21  C   UNL     1       9.324  31.032   4.069  1.00  0.00     0.000 C 
BRANCH  21  22
ATOM     22  C   UNL     1       9.646  30.228   5.341  1.00  0.00     0.000 C 
BRANCH  22  23
ATOM     23  C   UNL     1      10.424  31.047   6.387  1.00  0.00     0.000 C 
BRANCH  23  24
ATOM     24  C   UNL     1      10.161  32.565   6.362  1.00  0.00    -0.000 C 
BRANCH  24  25
ATOM     25  C   UNL     1      10.939  33.384   7.412  1.00  0.00    -0.000 C 
BRANCH  25  26
ATOM     26  C   UNL     1      10.070  34.025   8.513  1.00  0.00    -0.000 C 
BRANCH  26  27
ATOM     27  C   UNL     1       9.682  33.078   9.662  1.00  0.00    -0.000 C 
BRANCH  27  28
ATOM     28  C   UNL     1      10.743  31.994   9.923  1.00  0.00    -0.000 C 
BRANCH  28  29
ATOM     29  C   UNL     1      10.133  30.724  10.553  1.00  0.00    -0.000 C 
BRANCH  29  30
ATOM     30  C   UNL     1       9.068  30.049   9.671  1.00  0.00    -0.000 C 
BRANCH  30  31
ATOM     31  C   UNL     1       9.433  28.608   9.288  1.00  0.00    -0.003 C 
ATOM     32  C   UNL     1       8.482  28.065   8.225  1.00  0.00     0.004 C 
ENDBRANCH  30  31
ENDBRANCH  29  30
ENDBRANCH  28  29
ENDBRANCH  27  28
ENDBRANCH  26  27
ENDBRANCH  25  26
ENDBRANCH  24  25
ENDBRANCH  23  24
ENDBRANCH  22  23
ENDBRANCH  21  22
ENDBRANCH  20  21
ENDBRANCH  19  20
ENDBRANCH  18  19
ENDBRANCH   1  18
TORSDOF 28
ENDMDL
MODEL 2
REMARK VINA RESULT:    -3.598      2.915      7.011
REMARK INTER + INTRA:         -15.461
REMARK INTER:                  -9.884
REMARK INTRA:                  -5.576
REMARK UNBOUND:                -5.973
REMARK SMILES CCCCCCCCCCCCCCCCCCCCCCCCCCCCCC(=O)[O-]
REMARK SMILES IDX 16 1 17 2 18 3 19 4 20 5 21 6 22 7 23 8 24 9 25 10 26 11
REMARK SMILES IDX 27 12 28 13 29 14 30 15 31 16 32 17 15 18 14 19 13 20 12 21
REMARK SMILES IDX 11 22 10 23 9 24 8 25 7 26 6 27 5 28 4 29 3 30 2 31 1 32
REMARK H PARENT
REMARK Flexibility Score: inf
ROOT
ATOM      1  C   UNL     1      10.224  30.649   7.587  1.00  0.00     0.000 C 
ENDROOT
BRANCH   1   2
ATOM      2  C   UNL     1      10.039  30.161   6.140  1.00  0.00     0.000 C 
BRANCH   2   3
ATOM      3  C   UNL     1       9.862  31.317   5.141  1.00  0.00     0.000 C 
BRANCH   3   4
ATOM      4  C   UNL     1       9.002  30.942   3.915  1.00  0.00     0.000 C 
BRANCH   4   5
ATOM      5  C   UNL     1       7.553  31.441   4.050  1.00  0.00     0.000 C 
BRANCH   5   6
ATOM      6  C   UNL     1       7.256  32.037   5.443  1.00  0.00     0.000 C 
BRANCH   6   7
ATOM      7  C   UNL     1       6.235  31.224   6.262  1.00  0.00     0.000 C 
BRANCH   7   8
ATOM      8  C   UNL     1       5.801  29.893   5.622  1.00  0.00     0.000 C 
BRANCH   8   9
ATOM      9  C   UNL     1       6.641  28.664   6.030  1.00  0.00     0.000 C 
BRANCH   9  10
ATOM     10  C   UNL     1       7.134  27.790   4.863  1.00  0.00     0.000 C 
BRANCH  10  11
ATOM     11  C   UNL     1       6.330  28.010   3.571  1.00  0.00     0.000 C 
BRANCH  11  12
ATOM     12  C   UNL     1       7.208  28.012   2.309  1.00  0.00     0.000 C 
BRANCH  12  13
ATOM     13  C   UNL     1       8.679  27.607   2.525  1.00  0.00     0.006 C 
BRANCH  13  14
ATOM     14  C   UNL     1       9.628  28.062   1.400  1.00  0.00     0.053 C 
BRANCH  14  15
ATOM     15  C   UNL     1      10.158  26.915   0.594  1.00  0.00     0.041 C 
ATOM     16  O   UNL     1      11.210  26.320   0.948  1.00  0.00    -0.550 OA
ATOM     17  O   UNL     1       9.465  26.472  -0.526  1.00  0.00    -0.550 OA
ENDBRANCH  14  15
ENDBRANCH  13  14
ENDBRANCH  12  13
ENDBRANCH  11  12
ENDBRANCH  10  11
ENDBRANCH   9  10
ENDBRANCH   8   9
ENDBRANCH   7   8
ENDBRANCH   6   7
ENDBRANCH   5   6
ENDBRANCH   4   5
ENDBRANCH   3   4
ENDBRANCH   2   3
ENDBRANCH   1   2
BRANCH   1  18
ATOM     18  C   UNL     1      11.270  31.769   7.701  1.00  0.00     0.000 C 
BRANCH  18  19
ATOM     19  C   UNL     1      10.710  33.030   8.376  1.00  0.00     0.000 C 
BRANCH  19  20
ATOM     20  C   UNL     1       9.219  32.861   8.706  1.00  0.00     0.000 C 
BRANCH  20  21
ATOM     21  C   UNL     1       8.363  34.047   8.233  1.00  0.00     0.000 C 
BRANCH  21  22
ATOM     22  C   UNL     1       7.002  34.119   8.948  1.00  0.00     0.000 C 
BRANCH  22  23
ATOM     23  C   UNL     1       5.953  34.926   8.162  1.00  0.00     0.000 C 
BRANCH  23  24
ATOM     24  C   UNL     1       4.613  34.203   7.923  1.00  0.00    -0.000 C 
BRANCH  24  25
ATOM     25  C   UNL     1       4.091  34.252   6.471  1.00  0.00    -0.000 C 
BRANCH  25  26
ATOM     26  C   UNL     1       5.037  34.932   5.462  1.00  0.00    -0.000 C 
BRANCH  26  27
ATOM     27  C   UNL     1       4.519  34.967   4.014  1.00  0.00    -0.000 C 
BRANCH  27  28
ATOM     28  C   UNL     1       5.536  34.409   3.004  1.00  0.00    -0.000 C 
BRANCH  28  29
ATOM     29  C   UNL     1       4.849  33.695   1.821  1.00  0.00    -0.000 C 
BRANCH  29  30
ATOM     30  C   UNL     1       5.651  32.503   1.272  1.00  0.00    -0.000 C 
BRANCH  30  31
ATOM     31  C   UNL     1       5.013  31.147   1.604  1.00  0.00    -0.003 C 
ATOM     32  C   UNL     1       3.992  31.282   2.730  1.00  0.00     0.004 C 
ENDBRANCH  30  31
ENDBRANCH  29  30
ENDBRANCH  28  29
ENDBRANCH  27  28
ENDBRANCH  26  27
ENDBRANCH  25  26
ENDBRANCH  24  25
ENDBRANCH  23  24
ENDBRANCH  22  23
ENDBRANCH  21  22
ENDBRANCH  20  21
ENDBRANCH  19  20
ENDBRANCH  18  19
ENDBRANCH   1  18
TORSDOF 28
ENDMDL
MODEL 3
REMARK VINA RESULT:    -3.554      1.419      5.536
REMARK INTER + INTRA:         -15.345
REMARK INTER:                  -9.076
REMARK INTRA:                  -6.269
REMARK UNBOUND:                -5.973
REMARK SMILES CCCCCCCCCCCCCCCCCCCCCCCCCCCCCC(=O)[O-]
REMARK SMILES IDX 16 1 17 2 18 3 19 4 20 5 21 6 22 7 23 8 24 9 25 10 26 11
REMARK SMILES IDX 27 12 28 13 29 14 30 15 31 16 32 17 15 18 14 19 13 20 12 21
REMARK SMILES IDX 11 22 10 23 9 24 8 25 7 26 6 27 5 28 4 29 3 30 2 31 1 32
REMARK H PARENT
REMARK Flexibility Score: inf
ROOT
ATOM      1  C   UNL     1      10.363  34.049   7.607  1.00  0.00     0.000 C 
ENDROOT
BRANCH   1   2
ATOM      2  C   UNL     1      10.728  32.906   6.645  1.00  0.00     0.000 C 
BRANCH   2   3
ATOM      3  C   UNL     1       9.510  32.060   6.237  1.00  0.00     0.000 C 
BRANCH   3   4
ATOM      4  C   UNL     1       9.868  30.872   5.318  1.00  0.00     0.000 C 
BRANCH   4   5
ATOM      5  C   UNL     1       9.299  31.046   3.899  1.00  0.00     0.000 C 
BRANCH   5   6
ATOM      6  C   UNL     1       8.652  29.753   3.356  1.00  0.00     0.000 C 
BRANCH   6   7
ATOM      7  C   UNL     1       8.271  28.741   4.453  1.00  0.00     0.000 C 
BRANCH   7   8
ATOM      8  C   UNL     1       6.816  28.833   4.946  1.00  0.00     0.000 C 
BRANCH   8   9
ATOM      9  C   UNL     1       6.646  29.310   6.404  1.00  0.00     0.000 C 
BRANCH   9  10
ATOM     10  C   UNL     1       6.042  30.716   6.569  1.00  0.00     0.000 C 
BRANCH  10  11
ATOM     11  C   UNL     1       5.771  31.409   5.224  1.00  0.00     0.000 C 
BRANCH  11  12
ATOM     12  C   UNL     1       6.083  32.915   5.250  1.00  0.00     0.000 C 
BRANCH  12  13
ATOM     13  C   UNL     1       5.031  33.820   4.579  1.00  0.00     0.006 C 
BRANCH  13  14
ATOM     14  C   UNL     1       5.572  34.637   3.390  1.00  0.00     0.053 C 
BRANCH  14  15
ATOM     15  C   UNL     1       5.615  33.844   2.119  1.00  0.00     0.041 C 
ATOM     16  O   UNL     1       6.449  34.127   1.219  1.00  0.00    -0.550 OA
ATOM     17  O   UNL     1       4.762  32.761   1.944  1.00  0.00    -0.550 OA
ENDBRANCH  14  15
ENDBRANCH  13  14
ENDBRANCH  12  13
ENDBRANCH  11  12
ENDBRANCH  10  11
ENDBRANCH   9  10
ENDBRANCH   8   9
ENDBRANCH   7   8
ENDBRANCH   6   7
ENDBRANCH   5   6
ENDBRANCH   4   5
ENDBRANCH   3   4
ENDBRANCH   2   3
ENDBRANCH   1   2
BRANCH   1  18
ATOM     18  C   UNL     1      11.213  34.034   8.888  1.00  0.00     0.000 C 
BRANCH  18  19
ATOM     19  C   UNL     1      11.768  32.638   9.209  1.00  0.00     0.000 C 
BRANCH  19  20
ATOM     20  C   UNL     1      10.880  31.915  10.233  1.00  0.00     0.000 C 
BRANCH  20  21
ATOM     21  C   UNL     1      10.048  30.782   9.610  1.00  0.00     0.000 C 
BRANCH  21  22
ATOM     22  C   UNL     1       8.534  30.994   9.780  1.00  0.00     0.000 C 
BRANCH  22  23
ATOM     23  C   UNL     1       8.193  32.081  10.817  1.00  0.00     0.000 C 
BRANCH  23  24
ATOM     24  C   UNL     1       7.150  33.119  10.359  1.00  0.00    -0.000 C 
BRANCH  24  25
ATOM     25  C   UNL     1       7.069  33.341   8.834  1.00  0.00    -0.000 C 
BRANCH  25  26
ATOM     26  C   UNL     1       6.624  34.753   8.404  1.00  0.00    -0.000 C 
BRANCH  26  27
ATOM     27  C   UNL     1       5.213  35.153   8.866  1.00  0.00    -0.000 C 
BRANCH  27  28
ATOM     28  C   UNL     1       4.102  34.490   8.033  1.00  0.00    -0.000 C 
BRANCH  28  29
ATOM     29  C   UNL     1       2.977  33.913   8.918  1.00  0.00    -0.000 C 
BRANCH  29  30
ATOM     30  C   UNL     1       3.461  32.834   9.902  1.00  0.00    -0.000 C 
BRANCH  30  31
ATOM     31  C   UNL     1       3.582  31.446   9.258  1.00  0.00    -0.003 C 
ATOM     32  C   UNL     1       4.549  30.561  10.039  1.00  0.00     0.004 C 
ENDBRANCH  30  31
ENDBRANCH  29  30
ENDBRANCH  28  29
ENDBRANCH  27  28
ENDBRANCH  26  27
ENDBRANCH  25  26
ENDBRANCH  24  25
ENDBRANCH  23  24
ENDBRANCH  22  23
ENDBRANCH  21  22
ENDBRANCH  20  21
ENDBRANCH  19  20
ENDBRANCH  18  19
ENDBRANCH   1  18
TORSDOF 28
ENDMDL
MODEL 4
REMARK VINA RESULT:    -3.543      2.123      6.666
REMARK INTER + INTRA:         -15.316
REMARK INTER:                  -9.194
REMARK INTRA:                  -6.122
REMARK UNBOUND:                -5.973
REMARK SMILES CCCCCCCCCCCCCCCCCCCCCCCCCCCCCC(=O)[O-]
REMARK SMILES IDX 16 1 17 2 18 3 19 4 20 5 21 6 22 7 23 8 24 9 25 10 26 11
REMARK SMILES IDX 27 12 28 13 29 14 30 15 31 16 32 17 15 18 14 19 13 20 12 21
REMARK SMILES IDX 11 22 10 23 9 24 8 25 7 26 6 27 5 28 4 29 3 30 2 31 1 32
REMARK H PARENT
REMARK Flexibility Score: inf
ROOT
ATOM      1  C   UNL     1       9.603  32.903   6.982  1.00  0.00     0.000 C 
ENDROOT
BRANCH   1   2
ATOM      2  C   UNL     1      10.450  31.885   6.199  1.00  0.00     0.000 C 
BRANCH   2   3
ATOM      3  C   UNL     1      10.590  30.540   6.930  1.00  0.00     0.000 C 
BRANCH   3   4
ATOM      4  C   UNL     1       9.464  29.539   6.594  1.00  0.00     0.000 C 
BRANCH   4   5
ATOM      5  C   UNL     1       8.846  28.915   7.859  1.00  0.00     0.000 C 
BRANCH   5   6
ATOM      6  C   UNL     1       7.312  29.081   7.916  1.00  0.00     0.000 C 
BRANCH   6   7
ATOM      7  C   UNL     1       6.854  30.500   8.304  1.00  0.00     0.000 C 
BRANCH   7   8
ATOM      8  C   UNL     1       5.907  31.176   7.296  1.00  0.00     0.000 C 
BRANCH   8   9
ATOM      9  C   UNL     1       6.486  31.370   5.879  1.00  0.00     0.000 C 
BRANCH   9  10
ATOM     10  C   UNL     1       5.634  30.789   4.737  1.00  0.00     0.000 C 
BRANCH  10  11
ATOM     11  C   UNL     1       6.401  30.700   3.408  1.00  0.00     0.000 C 
BRANCH  11  12
ATOM     12  C   UNL     1       7.866  31.153   3.527  1.00  0.00     0.000 C 
BRANCH  12  13
ATOM     13  C   UNL     1       8.920  30.048   3.314  1.00  0.00     0.006 C 
BRANCH  13  14
ATOM     14  C   UNL     1       8.326  28.635   3.154  1.00  0.00     0.053 C 
BRANCH  14  15
ATOM     15  C   UNL     1       8.592  28.049   1.800  1.00  0.00     0.041 C 
ATOM     16  O   UNL     1       7.670  27.474   1.164  1.00  0.00    -0.550 OA
ATOM     17  O   UNL     1       9.848  28.176   1.220  1.00  0.00    -0.550 OA
ENDBRANCH  14  15
ENDBRANCH  13  14
ENDBRANCH  12  13
ENDBRANCH  11  12
ENDBRANCH  10  11
ENDBRANCH   9  10
ENDBRANCH   8   9
ENDBRANCH   7   8
ENDBRANCH   6   7
ENDBRANCH   5   6
ENDBRANCH   4   5
ENDBRANCH   3   4
ENDBRANCH   2   3
ENDBRANCH   1   2
BRANCH   1  18
ATOM     18  C   UNL     1       9.753  32.747   8.504  1.00  0.00     0.000 C 
BRANCH  18  19
ATOM     19  C   UNL     1       8.636  33.459   9.281  1.00  0.00     0.000 C 
BRANCH  19  20
ATOM     20  C   UNL     1       7.772  34.315   8.342  1.00  0.00     0.000 C 
BRANCH  20  21
ATOM     21  C   UNL     1       6.450  34.761   8.986  1.00  0.00     0.000 C 
BRANCH  21  22
ATOM     22  C   UNL     1       5.930  33.759  10.032  1.00  0.00     0.000 C 
BRANCH  22  23
ATOM     23  C   UNL     1       4.428  33.921  10.325  1.00  0.00     0.000 C 
BRANCH  23  24
ATOM     24  C   UNL     1       3.727  35.057   9.553  1.00  0.00    -0.000 C 
BRANCH  24  25
ATOM     25  C   UNL     1       2.717  34.596   8.482  1.00  0.00    -0.000 C 
BRANCH  25  26
ATOM     26  C   UNL     1       3.147  33.359   7.670  1.00  0.00    -0.000 C 
BRANCH  26  27
ATOM     27  C   UNL     1       3.433  33.631   6.183  1.00  0.00    -0.000 C 
BRANCH  27  28
ATOM     28  C   UNL     1       4.522  34.698   5.972  1.00  0.00    -0.000 C 
BRANCH  28  29
ATOM     29  C   UNL     1       4.540  35.231   4.523  1.00  0.00    -0.000 C 
BRANCH  29  30
ATOM     30  C   UNL     1       5.387  34.378   3.564  1.00  0.00    -0.000 C 
BRANCH  30  31
ATOM     31  C   UNL     1       4.565  33.765   2.421  1.00  0.00    -0.003 C 
ATOM     32  C   UNL     1       3.087  34.114   2.560  1.00  0.00     0.004 C 
ENDBRANCH  30  31
ENDBRANCH  29  30
ENDBRANCH  28  29
ENDBRANCH  27  28
ENDBRANCH  26  27
ENDBRANCH  25  26
ENDBRANCH  24  25
ENDBRANCH  23  24
ENDBRANCH  22  23
ENDBRANCH  21  22
ENDBRANCH  20  21
ENDBRANCH  19  20
ENDBRANCH  18  19
ENDBRANCH   1  18
TORSDOF 28
ENDMDL
MODEL 5
REMARK VINA RESULT:    -3.540      1.312      4.422
REMARK INTER + INTRA:         -15.306
REMARK INTER:                 -10.315
REMARK INTRA:                  -4.991
REMARK UNBOUND:                -5.973
REMARK SMILES CCCCCCCCCCCCCCCCCCCCCCCCCCCCCC(=O)[O-]
REMARK SMILES IDX 16 1 17 2 18 3 19 4 20 5 21 6 22 7 23 8 24 9 25 10 26 11
REMARK SMILES IDX 27 12 28 13 29 14 30 15 31 16 32 17 15 18 14 19 13 20 12 21
REMARK SMILES IDX 11 22 10 23 9 24 8 25 7 26 6 27 5 28 4 29 3 30 2 31 1 32
REMARK H PARENT
REMARK Flexibility Score: inf
ROOT
ATOM      1  C   UNL     1      10.875  33.454   7.351  1.00  0.00     0.000 C 
ENDROOT
BRANCH   1   2
ATOM      2  C   UNL     1      10.091  34.360   8.315  1.00  0.00     0.000 C 
BRANCH   2   3
ATOM      3  C   UNL     1       8.585  34.048   8.334  1.00  0.00     0.000 C 
BRANCH   3   4
ATOM      4  C   UNL     1       8.095  33.316   7.067  1.00  0.00     0.000 C 
BRANCH   4   5
ATOM      5  C   UNL     1       6.583  33.501   6.840  1.00  0.00     0.000 C 
BRANCH   5   6
ATOM      6  C   UNL     1       6.020  34.740   7.567  1.00  0.00     0.000 C 
BRANCH   6   7
ATOM      7  C   UNL     1       4.581  34.555   8.087  1.00  0.00     0.000 C 
BRANCH   7   8
ATOM      8  C   UNL     1       3.956  33.179   7.793  1.00  0.00     0.000 C 
BRANCH   8   9
ATOM      9  C   UNL     1       2.506  33.216   7.265  1.00  0.00     0.000 C 
BRANCH   9  10
ATOM     10  C   UNL     1       2.314  33.950   5.926  1.00  0.00     0.000 C 
BRANCH  10  11
ATOM     11  C   UNL     1       3.385  33.583   4.886  1.00  0.00     0.000 C 
BRANCH  11  12
ATOM     12  C   UNL     1       3.849  34.787   4.050  1.00  0.00     0.000 C 
BRANCH  12  13
ATOM     13  C   UNL     1       5.322  34.751   3.596  1.00  0.00     0.006 C 
BRANCH  13  14
ATOM     14  C   UNL     1       5.701  33.492   2.792  1.00  0.00     0.053 C 
BRANCH  14  15
ATOM     15  C   UNL     1       6.188  33.816   1.412  1.00  0.00     0.041 C 
ATOM     16  O   UNL     1       6.948  34.802   1.220  1.00  0.00    -0.550 OA
ATOM     17  O   UNL     1       5.838  33.003   0.341  1.00  0.00    -0.550 OA
ENDBRANCH  14  15
ENDBRANCH  13  14
ENDBRANCH  12  13
ENDBRANCH  11  12
ENDBRANCH  10  11
ENDBRANCH   9  10
ENDBRANCH   8   9
ENDBRANCH   7   8
ENDBRANCH   6   7
ENDBRANCH   5   6
ENDBRANCH   4   5
ENDBRANCH   3   4
ENDBRANCH   2   3
ENDBRANCH   1   2
BRANCH   1  18
ATOM     18  C   UNL     1      11.859  32.527   8.084  1.00  0.00     0.000 C 
BRANCH  18  19
ATOM     19  C   UNL     1      12.018  32.893   9.567  1.00  0.00     0.000 C 
BRANCH  19  20
ATOM     20  C   UNL     1      11.671  31.699  10.468  1.00  0.00     0.000 C 
BRANCH  20  21
ATOM     21  C   UNL     1      10.163  31.573  10.740  1.00  0.00     0.000 C 
BRANCH  21  22
ATOM     22  C   UNL     1       9.574  30.253  10.215  1.00  0.00     0.000 C 
BRANCH  22  23
ATOM     23  C   UNL     1       8.972  30.382   8.803  1.00  0.00     0.000 C 
BRANCH  23  24
ATOM     24  C   UNL     1       9.628  29.495   7.726  1.00  0.00    -0.000 C 
BRANCH  24  25
ATOM     25  C   UNL     1       9.112  29.718   6.290  1.00  0.00    -0.000 C 
BRANCH  25  26
ATOM     26  C   UNL     1       9.963  30.675   5.432  1.00  0.00    -0.000 C 
BRANCH  26  27
ATOM     27  C   UNL     1       9.368  31.009   4.054  1.00  0.00    -0.000 C 
BRANCH  27  28
ATOM     28  C   UNL     1       7.833  30.904   4.027  1.00  0.00    -0.000 C 
BRANCH  28  29
ATOM     29  C   UNL     1       7.330  30.039   2.852  1.00  0.00    -0.000 C 
BRANCH  29  30
ATOM     30  C   UNL     1       7.827  28.584   2.902  1.00  0.00    -0.000 C 
BRANCH  30  31
ATOM     31  C   UNL     1       6.782  27.611   3.466  1.00  0.00    -0.003 C 
ATOM     32  C   UNL     1       7.260  26.989   4.773  1.00  0.00     0.004 C 
ENDBRANCH  30  31
ENDBRANCH  29  30
ENDBRANCH  28  29
ENDBRANCH  27  28
ENDBRANCH  26  27
ENDBRANCH  25  26
ENDBRANCH  24  25
ENDBRANCH  23  24
ENDBRANCH  22  23
ENDBRANCH  21  22
ENDBRANCH  20  21
ENDBRANCH  19  20
ENDBRANCH  18  19
ENDBRANCH   1  18
TORSDOF 28
ENDMDL
MODEL 6
REMARK VINA RESULT:    -3.522      2.402      4.855
REMARK INTER + INTRA:         -15.260
REMARK INTER:                  -9.086
REMARK INTRA:                  -6.174
REMARK UNBOUND:                -5.973
REMARK SMILES CCCCCCCCCCCCCCCCCCCCCCCCCCCCCC(=O)[O-]
REMARK SMILES IDX 16 1 17 2 18 3 19 4 20 5 21 6 22 7 23 8 24 9 25 10 26 11
REMARK SMILES IDX 27 12 28 13 29 14 30 15 31 16 32 17 15 18 14 19 13 20 12 21
REMARK SMILES IDX 11 22 10 23 9 24 8 25 7 26 6 27 5 28 4 29 3 30 2 31 1 32
REMARK H PARENT
REMARK Flexibility Score: inf
ROOT
ATOM      1  C   UNL     1       8.296  34.375   8.551  1.00  0.00     0.000 C 
ENDROOT
BRANCH   1   2
ATOM      2  C   UNL     1       7.512  33.557   9.591  1.00  0.00     0.000 C 
BRANCH   2   3
ATOM      3  C   UNL     1       6.020  33.925   9.636  1.00  0.00     0.000 C 
BRANCH   3   4
ATOM      4  C   UNL     1       5.602  34.929   8.540  1.00  0.00     0.000 C 
BRANCH   4   5
ATOM      5  C   UNL     1       4.708  34.279   7.469  1.00  0.00     0.000 C 
BRANCH   5   6
ATOM      6  C   UNL     1       4.671  32.740   7.580  1.00  0.00     0.000 C 
BRANCH   6   7
ATOM      7  C   UNL     1       5.399  32.016   6.431  1.00  0.00     0.000 C 
BRANCH   7   8
ATOM      8  C   UNL     1       6.214  32.932   5.499  1.00  0.00     0.000 C 
BRANCH   8   9
ATOM      9  C   UNL     1       5.785  32.911   4.018  1.00  0.00     0.000 C 
BRANCH   9  10
ATOM     10  C   UNL     1       5.551  34.294   3.382  1.00  0.00     0.000 C 
BRANCH  10  11
ATOM     11  C   UNL     1       4.351  35.035   3.993  1.00  0.00     0.000 C 
BRANCH  11  12
ATOM     12  C   UNL     1       3.019  34.693   3.304  1.00  0.00     0.000 C 
BRANCH  12  13
ATOM     13  C   UNL     1       1.883  34.245   4.245  1.00  0.00     0.006 C 
BRANCH  13  14
ATOM     14  C   UNL     1       2.137  32.892   4.938  1.00  0.00     0.053 C 
BRANCH  14  15
ATOM     15  C   UNL     1       1.257  32.685   6.135  1.00  0.00     0.041 C 
ATOM     16  O   UNL     1       0.644  31.596   6.293  1.00  0.00    -0.550 OA
ATOM     17  O   UNL     1       1.148  33.678   7.100  1.00  0.00    -0.550 OA
ENDBRANCH  14  15
ENDBRANCH  13  14
ENDBRANCH  12  13
ENDBRANCH  11  12
ENDBRANCH  10  11
ENDBRANCH   9  10
ENDBRANCH   8   9
ENDBRANCH   7   8
ENDBRANCH   6   7
ENDBRANCH   5   6
ENDBRANCH   4   5
ENDBRANCH   3   4
ENDBRANCH   2   3
ENDBRANCH   1   2
BRANCH   1  18
ATOM     18  C   UNL     1       9.191  33.495   7.663  1.00  0.00     0.000 C 
BRANCH  18  19
ATOM     19  C   UNL     1      10.603  34.075   7.494  1.00  0.00     0.000 C 
BRANCH  19  20
ATOM     20  C   UNL     1      11.508  33.670   8.667  1.00  0.00     0.000 C 
BRANCH  20  21
ATOM     21  C   UNL     1      11.367  32.187   9.048  1.00  0.00     0.000 C 
BRANCH  21  22
ATOM     22  C   UNL     1      11.053  31.985  10.540  1.00  0.00     0.000 C 
BRANCH  22  23
ATOM     23  C   UNL     1       9.821  31.094  10.780  1.00  0.00     0.000 C 
BRANCH  23  24
ATOM     24  C   UNL     1       9.608  29.974   9.742  1.00  0.00    -0.000 C 
BRANCH  24  25
ATOM     25  C   UNL     1       8.278  30.046   8.963  1.00  0.00    -0.000 C 
BRANCH  25  26
ATOM     26  C   UNL     1       8.424  30.097   7.429  1.00  0.00    -0.000 C 
BRANCH  26  27
ATOM     27  C   UNL     1       9.762  29.563   6.890  1.00  0.00    -0.000 C 
BRANCH  27  28
ATOM     28  C   UNL     1      10.394  30.492   5.839  1.00  0.00    -0.000 C 
BRANCH  28  29
ATOM     29  C   UNL     1       9.332  31.304   5.067  1.00  0.00    -0.000 C 
BRANCH  29  30
ATOM     30  C   UNL     1       9.233  30.929   3.578  1.00  0.00    -0.000 C 
BRANCH  30  31
ATOM     31  C   UNL     1       8.667  29.520   3.351  1.00  0.00    -0.003 C 
ATOM     32  C   UNL     1       7.258  29.395   3.922  1.00  0.00     0.004 C 
ENDBRANCH  30  31
ENDBRANCH  29  30
ENDBRANCH  28  29
ENDBRANCH  27  28
ENDBRANCH  26  27
ENDBRANCH  25  26
ENDBRANCH  24  25
ENDBRANCH  23  24
ENDBRANCH  22  23
ENDBRANCH  21  22
ENDBRANCH  20  21
ENDBRANCH  19  20
ENDBRANCH  18  19
ENDBRANCH   1  18
TORSDOF 28
ENDMDL
MODEL 7
REMARK VINA RESULT:    -3.512      3.217      5.400
REMARK INTER + INTRA:         -15.235
REMARK INTER:                 -10.392
REMARK INTRA:                  -4.843
REMARK UNBOUND:                -5.973
REMARK SMILES CCCCCCCCCCCCCCCCCCCCCCCCCCCCCC(=O)[O-]
REMARK SMILES IDX 16 1 17 2 18 3 19 4 20 5 21 6 22 7 23 8 24 9 25 10 26 11
REMARK SMILES IDX 27 12 28 13 29 14 30 15 31 16 32 17 15 18 14 19 13 20 12 21
REMARK SMILES IDX 11 22 10 23 9 24 8 25 7 26 6 27 5 28 4 29 3 30 2 31 1 32
REMARK H PARENT
REMARK Flexibility Score: inf
ROOT
ATOM      1  C   UNL     1       6.682  32.126   5.827  1.00  0.00     0.000 C 
ENDROOT
BRANCH   1   2
ATOM      2  C   UNL     1       5.667  31.067   5.366  1.00  0.00     0.000 C 
BRANCH   2   3
ATOM      3  C   UNL     1       5.539  30.991   3.836  1.00  0.00     0.000 C 
BRANCH   3   4
ATOM      4  C   UNL     1       6.405  32.032   3.096  1.00  0.00     0.000 C 
BRANCH   4   5
ATOM      5  C   UNL     1       5.626  32.738   1.971  1.00  0.00     0.000 C 
BRANCH   5   6
ATOM      6  C   UNL     1       5.529  34.265   2.182  1.00  0.00     0.000 C 
BRANCH   6   7
ATOM      7  C   UNL     1       5.689  34.700   3.652  1.00  0.00     0.000 C 
BRANCH   7   8
ATOM      8  C   UNL     1       4.384  35.124   4.350  1.00  0.00     0.000 C 
BRANCH   8   9
ATOM      9  C   UNL     1       3.392  33.978   4.637  1.00  0.00     0.000 C 
BRANCH   9  10
ATOM     10  C   UNL     1       1.956  34.211   4.134  1.00  0.00     0.000 C 
BRANCH  10  11
ATOM     11  C   UNL     1       1.912  34.853   2.737  1.00  0.00     0.000 C 
BRANCH  11  12
ATOM     12  C   UNL     1       0.618  35.642   2.479  1.00  0.00     0.000 C 
BRANCH  12  13
ATOM     13  C   UNL     1       0.812  37.116   2.073  1.00  0.00     0.006 C 
BRANCH  13  14
ATOM     14  C   UNL     1      -0.441  37.769   1.457  1.00  0.00     0.053 C 
BRANCH  14  15
ATOM     15  C   UNL     1      -0.892  37.081   0.204  1.00  0.00     0.041 C 
ATOM     16  O   UNL     1      -2.114  36.848   0.009  1.00  0.00    -0.550 OA
ATOM     17  O   UNL     1       0.035  36.734  -0.772  1.00  0.00    -0.550 OA
ENDBRANCH  14  15
ENDBRANCH  13  14
ENDBRANCH  12  13
ENDBRANCH  11  12
ENDBRANCH  10  11
ENDBRANCH   9  10
ENDBRANCH   8   9
ENDBRANCH   7   8
ENDBRANCH   6   7
ENDBRANCH   5   6
ENDBRANCH   4   5
ENDBRANCH   3   4
ENDBRANCH   2   3
ENDBRANCH   1   2
BRANCH   1  18
ATOM     18  C   UNL     1       6.447  32.574   7.279  1.00  0.00     0.000 C 
BRANCH  18  19
ATOM     19  C   UNL     1       6.420  34.103   7.425  1.00  0.00     0.000 C 
BRANCH  19  20
ATOM     20  C   UNL     1       7.416  34.571   8.497  1.00  0.00     0.000 C 
BRANCH  20  21
ATOM     21  C   UNL     1       8.162  33.407   9.170  1.00  0.00     0.000 C 
BRANCH  21  22
ATOM     22  C   UNL     1       9.690  33.567   9.112  1.00  0.00     0.000 C 
BRANCH  22  23
ATOM     23  C   UNL     1      10.195  34.009   7.726  1.00  0.00     0.000 C 
BRANCH  23  24
ATOM     24  C   UNL     1      10.384  32.871   6.703  1.00  0.00    -0.000 C 
BRANCH  24  25
ATOM     25  C   UNL     1      10.728  31.495   7.308  1.00  0.00    -0.000 C 
BRANCH  25  26
ATOM     26  C   UNL     1       9.586  30.460   7.263  1.00  0.00    -0.000 C 
BRANCH  26  27
ATOM     27  C   UNL     1       9.555  29.589   5.996  1.00  0.00    -0.000 C 
BRANCH  27  28
ATOM     28  C   UNL     1       8.341  28.644   5.953  1.00  0.00    -0.000 C 
BRANCH  28  29
ATOM     29  C   UNL     1       7.956  28.258   4.509  1.00  0.00    -0.000 C 
BRANCH  29  30
ATOM     30  C   UNL     1       8.729  29.041   3.435  1.00  0.00    -0.000 C 
BRANCH  30  31
ATOM     31  C   UNL     1       8.373  28.610   2.006  1.00  0.00    -0.003 C 
ATOM     32  C   UNL     1       9.555  27.923   1.329  1.00  0.00     0.004 C 
ENDBRANCH  30  31
ENDBRANCH  29  30
ENDBRANCH  28  29
ENDBRANCH  27  28
ENDBRANCH  26  27
ENDBRANCH  25  26
ENDBRANCH  24  25
ENDBRANCH  23  24
ENDBRANCH  22  23
ENDBRANCH  21  22
ENDBRANCH  20  21
ENDBRANCH  19  20
ENDBRANCH  18  19
ENDBRANCH   1  18
TORSDOF 28
ENDMDL
MODEL 8
REMARK VINA RESULT:    -3.505      2.140      6.983
REMARK INTER + INTRA:         -15.215
REMARK INTER:                  -9.594
REMARK INTRA:                  -5.621
REMARK UNBOUND:                -5.973
REMARK SMILES CCCCCCCCCCCCCCCCCCCCCCCCCCCCCC(=O)[O-]
REMARK SMILES IDX 16 1 17 2 18 3 19 4 20 5 21 6 22 7 23 8 24 9 25 10 26 11
REMARK SMILES IDX 27 12 28 13 29 14 30 15 31 16 32 17 15 18 14 19 13 20 12 21
REMARK SMILES IDX 11 22 10 23 9 24 8 25 7 26 6 27 5 28 4 29 3 30 2 31 1 32
REMARK H PARENT
REMARK Flexibility Score: inf
ROOT
ATOM      1  C   UNL     1       9.000  33.473   7.366  1.00  0.00     0.000 C 
ENDROOT
BRANCH   1   2
ATOM      2  C   UNL     1      10.513  33.623   7.135  1.00  0.00     0.000 C 
BRANCH   2   3
ATOM      3  C   UNL     1      11.303  33.774   8.446  1.00  0.00     0.000 C 
BRANCH   3   4
ATOM      4  C   UNL     1      12.170  32.543   8.785  1.00  0.00     0.000 C 
BRANCH   4   5
ATOM      5  C   UNL     1      11.941  32.053  10.226  1.00  0.00     0.000 C 
BRANCH   5   6
ATOM      6  C   UNL     1      10.444  31.976  10.598  1.00  0.00     0.000 C 
BRANCH   6   7
ATOM      7  C   UNL     1       9.818  30.587  10.372  1.00  0.00     0.000 C 
BRANCH   7   8
ATOM      8  C   UNL     1       8.677  30.549   9.338  1.00  0.00     0.000 C 
BRANCH   8   9
ATOM      9  C   UNL     1       8.887  29.569   8.165  1.00  0.00     0.000 C 
BRANCH   9  10
ATOM     10  C   UNL     1       9.970  29.980   7.152  1.00  0.00     0.000 C 
BRANCH  10  11
ATOM     11  C   UNL     1       9.469  29.946   5.699  1.00  0.00     0.000 C 
BRANCH  11  12
ATOM     12  C   UNL     1       8.459  28.817   5.437  1.00  0.00     0.000 C 
BRANCH  12  13
ATOM     13  C   UNL     1       7.586  28.989   4.177  1.00  0.00     0.006 C 
BRANCH  13  14
ATOM     14  C   UNL     1       8.364  29.458   2.933  1.00  0.00     0.053 C 
BRANCH  14  15
ATOM     15  C   UNL     1       8.465  28.393   1.882  1.00  0.00     0.041 C 
ATOM     16  O   UNL     1       7.450  28.056   1.218  1.00  0.00    -0.550 OA
ATOM     17  O   UNL     1       9.692  27.801   1.606  1.00  0.00    -0.550 OA
ENDBRANCH  14  15
ENDBRANCH  13  14
ENDBRANCH  12  13
ENDBRANCH  11  12
ENDBRANCH  10  11
ENDBRANCH   9  10
ENDBRANCH   8   9
ENDBRANCH   7   8
ENDBRANCH   6   7
ENDBRANCH   5   6
ENDBRANCH   4   5
ENDBRANCH   3   4
ENDBRANCH   2   3
ENDBRANCH   1   2
BRANCH   1  18
ATOM     18  C   UNL     1       8.497  34.325   8.542  1.00  0.00     0.000 C 
BRANCH  18  19
ATOM     19  C   UNL     1       7.035  34.022   8.905  1.00  0.00     0.000 C 
BRANCH  19  20
ATOM     20  C   UNL     1       6.076  34.948   8.142  1.00  0.00     0.000 C 
BRANCH  20  21
ATOM     21  C   UNL     1       4.660  34.364   8.008  1.00  0.00     0.000 C 
BRANCH  21  22
ATOM     22  C   UNL     1       4.554  32.932   8.559  1.00  0.00     0.000 C 
BRANCH  22  23
ATOM     23  C   UNL     1       3.607  32.039   7.736  1.00  0.00     0.000 C 
BRANCH  23  24
ATOM     24  C   UNL     1       4.061  31.760   6.289  1.00  0.00    -0.000 C 
BRANCH  24  25
ATOM     25  C   UNL     1       5.547  31.375   6.130  1.00  0.00    -0.000 C 
BRANCH  25  26
ATOM     26  C   UNL     1       6.397  32.378   5.325  1.00  0.00    -0.000 C 
BRANCH  26  27
ATOM     27  C   UNL     1       5.645  33.100   4.194  1.00  0.00    -0.000 C 
BRANCH  27  28
ATOM     28  C   UNL     1       5.580  34.623   4.400  1.00  0.00    -0.000 C 
BRANCH  28  29
ATOM     29  C   UNL     1       4.136  35.160   4.316  1.00  0.00    -0.000 C 
BRANCH  29  30
ATOM     30  C   UNL     1       3.222  34.328   3.399  1.00  0.00    -0.000 C 
BRANCH  30  31
ATOM     31  C   UNL     1       1.742  34.404   3.799  1.00  0.00    -0.003 C 
ATOM     32  C   UNL     1       1.254  33.070   4.355  1.00  0.00     0.004 C 
ENDBRANCH  30  31
ENDBRANCH  29  30
ENDBRANCH  28  29
ENDBRANCH  27  28
ENDBRANCH  26  27
ENDBRANCH  25  26
ENDBRANCH  24  25
ENDBRANCH  23  24
ENDBRANCH  22  23
ENDBRANCH  21  22
ENDBRANCH  20  21
ENDBRANCH  19  20
ENDBRANCH  18  19
ENDBRANCH   1  18
TORSDOF 28
ENDMDL
MODEL 9
REMARK VINA RESULT:    -3.502      1.846      4.574
REMARK INTER + INTRA:         -15.208
REMARK INTER:                  -8.578
REMARK INTRA:                  -6.630
REMARK UNBOUND:                -5.973
REMARK SMILES CCCCCCCCCCCCCCCCCCCCCCCCCCCCCC(=O)[O-]
REMARK SMILES IDX 16 1 17 2 18 3 19 4 20 5 21 6 22 7 23 8 24 9 25 10 26 11
REMARK SMILES IDX 27 12 28 13 29 14 30 15 31 16 32 17 15 18 14 19 13 20 12 21
REMARK SMILES IDX 11 22 10 23 9 24 8 25 7 26 6 27 5 28 4 29 3 30 2 31 1 32
REMARK H PARENT
REMARK Flexibility Score: inf
ROOT
ATOM      1  C   UNL     1       9.018  33.624   7.465  1.00  0.00     0.000 C 
ENDROOT
BRANCH   1   2
ATOM      2  C   UNL     1       8.282  34.388   8.580  1.00  0.00     0.000 C 
BRANCH   2   3
ATOM      3  C   UNL     1       6.778  34.069   8.626  1.00  0.00     0.000 C 
BRANCH   3   4
ATOM      4  C   UNL     1       5.954  34.842   7.575  1.00  0.00     0.000 C 
BRANCH   4   5
ATOM      5  C   UNL     1       4.472  34.428   7.581  1.00  0.00     0.000 C 
BRANCH   5   6
ATOM      6  C   UNL     1       4.174  33.301   8.594  1.00  0.00     0.000 C 
BRANCH   6   7
ATOM      7  C   UNL     1       3.818  31.953   7.938  1.00  0.00     0.000 C 
BRANCH   7   8
ATOM      8  C   UNL     1       4.951  30.911   7.939  1.00  0.00     0.000 C 
BRANCH   8   9
ATOM      9  C   UNL     1       5.535  30.574   6.551  1.00  0.00     0.000 C 
BRANCH   9  10
ATOM     10  C   UNL     1       6.452  31.652   5.945  1.00  0.00     0.000 C 
BRANCH  10  11
ATOM     11  C   UNL     1       5.827  32.349   4.726  1.00  0.00     0.000 C 
BRANCH  11  12
ATOM     12  C   UNL     1       4.513  31.696   4.268  1.00  0.00     0.000 C 
BRANCH  12  13
ATOM     13  C   UNL     1       3.261  32.592   4.359  1.00  0.00     0.006 C 
BRANCH  13  14
ATOM     14  C   UNL     1       3.481  34.033   3.858  1.00  0.00     0.053 C 
BRANCH  14  15
ATOM     15  C   UNL     1       2.475  34.442   2.824  1.00  0.00     0.041 C 
ATOM     16  O   UNL     1       1.516  35.197   3.134  1.00  0.00    -0.550 OA
ATOM     17  O   UNL     1       2.620  34.024   1.507  1.00  0.00    -0.550 OA
ENDBRANCH  14  15
ENDBRANCH  13  14
ENDBRANCH  12  13
ENDBRANCH  11  12
ENDBRANCH  10  11
ENDBRANCH   9  10
ENDBRANCH   8   9
ENDBRANCH   7   8
ENDBRANCH   6   7
ENDBRANCH   5   6
ENDBRANCH   4   5
ENDBRANCH   3   4
ENDBRANCH   2   3
ENDBRANCH   1   2
BRANCH   1  18
ATOM     18  C   UNL     1      10.506  34.002   7.377  1.00  0.00     0.000 C 
BRANCH  18  19
ATOM     19  C   UNL     1      11.193  34.007   8.751  1.00  0.00     0.000 C 
BRANCH  19  20
ATOM     20  C   UNL     1      12.012  32.725   8.961  1.00  0.00     0.000 C 
BRANCH  20  21
ATOM     21  C   UNL     1      11.586  31.942  10.214  1.00  0.00     0.000 C 
BRANCH  21  22
ATOM     22  C   UNL     1      10.277  32.469  10.827  1.00  0.00     0.000 C 
BRANCH  22  23
ATOM     23  C   UNL     1       9.141  31.429  10.804  1.00  0.00     0.000 C 
BRANCH  23  24
ATOM     24  C   UNL     1       9.389  30.207   9.898  1.00  0.00    -0.000 C 
BRANCH  24  25
ATOM     25  C   UNL     1       8.643  30.229   8.547  1.00  0.00    -0.000 C 
BRANCH  25  26
ATOM     26  C   UNL     1       9.376  29.527   7.387  1.00  0.00    -0.000 C 
BRANCH  26  27
ATOM     27  C   UNL     1      10.463  30.374   6.704  1.00  0.00    -0.000 C 
BRANCH  27  28
ATOM     28  C   UNL     1      10.046  30.861   5.305  1.00  0.00    -0.000 C 
BRANCH  28  29
ATOM     29  C   UNL     1       9.249  29.790   4.530  1.00  0.00    -0.000 C 
BRANCH  29  30
ATOM     30  C   UNL     1       8.587  30.323   3.248  1.00  0.00    -0.000 C 
BRANCH  30  31
ATOM     31  C   UNL     1       7.355  29.511   2.826  1.00  0.00    -0.003 C 
ATOM     32  C   UNL     1       7.062  28.398   3.828  1.00  0.00     0.004 C 
ENDBRANCH  30  31
ENDBRANCH  29  30
ENDBRANCH  28  29
ENDBRANCH  27  28
ENDBRANCH  26  27
ENDBRANCH  25  26
ENDBRANCH  24  25
ENDBRANCH  23  24
ENDBRANCH  22  23
ENDBRANCH  21  22
ENDBRANCH  20  21
ENDBRANCH  19  20
ENDBRANCH  18  19
ENDBRANCH   1  18
TORSDOF 28
ENDMDL
