MODEL 1
REMARK VINA RESULT:    -6.491      0.000      0.000
REMARK INTER + INTRA:         -10.985
REMARK INTER:                  -9.527
REMARK INTRA:                  -1.457
REMARK UNBOUND:                -1.457
REMARK SMILES O=c1c(O[C@H]2O[C@H](CO)[C@@H](O)[C@H](O)[C@H]2O)c(-c2ccc(O)c(O)c2)oc2cc(O)cc(O)c12
REMARK SMILES IDX 4 1 3 2 16 3 25 4 2 5 26 6 1 7 33 8 27 9 31 10 28 11 30 12
REMARK SMILES IDX 17 13 18 14 19 15 20 16 24 17 22 18 21 19 23 21 32 23 29 25
REMARK SMILES IDX 5 27 14 28 6 29 12 30 7 31 10 32 15 33 13 35 8 37 9 38 11 40
REMARK H PARENT 21 20 23 22 32 24 29 26 15 34 13 36 9 39 11 41
REMARK Flexibility Score: inf
ROOT
ATOM      1  O   UNL     1      16.622  -5.716 -12.793  1.00  0.00    -0.454 OA
ENDROOT
BRANCH   1   2
ATOM      2  C   UNL     1      16.443  -4.500 -12.027  1.00  0.00     0.214 A 
ATOM      3  C   UNL     1      17.437  -3.503 -12.028  1.00  0.00     0.180 A 
ATOM      4  O   UNL     1      17.248  -2.567 -12.928  1.00  0.00    -0.452 OA
ATOM      5  C   UNL     1      15.155  -3.967 -11.955  1.00  0.00     0.239 A 
ATOM      6  C   UNL     1      16.024  -2.020 -13.035  1.00  0.00     0.146 A 
ATOM      7  O   UNL     1      14.512  -4.363 -10.932  1.00  0.00    -0.285 OA
ATOM      8  C   UNL     1      14.897  -2.695 -12.477  1.00  0.00     0.111 A 
ATOM      9  C   UNL     1      15.988  -0.673 -13.463  1.00  0.00     0.094 A 
ATOM     10  C   UNL     1      13.670  -2.056 -12.587  1.00  0.00     0.134 A 
ATOM     11  C   UNL     1      14.854   0.056 -13.164  1.00  0.00     0.123 A 
ATOM     12  C   UNL     1      13.638  -0.621 -12.811  1.00  0.00     0.093 A 
BRANCH   3  13
ATOM     13  C   UNL     1      17.927  -2.820 -10.733  1.00  0.00     0.025 A 
ATOM     14  C   UNL     1      18.488  -1.456 -10.813  1.00  0.00     0.016 A 
ATOM     15  C   UNL     1      18.365  -0.543  -9.814  1.00  0.00     0.051 A 
ATOM     16  C   UNL     1      18.015  -1.012  -8.517  1.00  0.00     0.157 A 
ATOM     17  C   UNL     1      17.480  -3.219  -9.489  1.00  0.00     0.062 A 
ATOM     18  C   UNL     1      17.626  -2.385  -8.385  1.00  0.00     0.158 A 
BRANCH  16  19
ATOM     19  O   UNL     1      18.168  -0.130  -7.455  1.00  0.00    -0.504 OA
ATOM     20  H   UNL     1      18.536  -0.500  -6.561  1.00  0.00     0.293 HD
ENDBRANCH  16  19
BRANCH  18  21
ATOM     21  O   UNL     1      17.401  -2.964  -7.127  1.00  0.00    -0.504 OA
ATOM     22  H   UNL     1      17.717  -2.452  -6.249  1.00  0.00     0.293 HD
ENDBRANCH  18  21
ENDBRANCH   3  13
BRANCH  10  23
ATOM     23  O   UNL     1      12.512  -2.822 -12.826  1.00  0.00    -0.507 OA
ATOM     24  H   UNL     1      12.133  -2.816 -13.808  1.00  0.00     0.293 HD
ENDBRANCH  10  23
BRANCH  11  25
ATOM     25  O   UNL     1      14.938   1.455 -13.216  1.00  0.00    -0.508 OA
ATOM     26  H   UNL     1      14.120   2.013 -13.070  1.00  0.00     0.293 HD
ENDBRANCH  11  25
ENDBRANCH   1   2
BRANCH   1  27
ATOM     27  C   UNL     1      16.150  -5.933 -14.128  1.00  0.00     0.339 C 
ATOM     28  C   UNL     1      15.502  -7.360 -14.256  1.00  0.00     0.214 C 
ATOM     29  O   UNL     1      17.207  -5.648 -15.018  1.00  0.00    -0.332 OA
ATOM     30  C   UNL     1      15.491  -7.870 -15.751  1.00  0.00     0.180 C 
ATOM     31  C   UNL     1      17.766  -6.835 -15.598  1.00  0.00     0.179 C 
ATOM     32  C   UNL     1      16.746  -7.448 -16.539  1.00  0.00     0.177 C 
BRANCH  28  33
ATOM     33  O   UNL     1      16.168  -8.248 -13.364  1.00  0.00    -0.384 OA
ATOM     34  H   UNL     1      16.435  -9.032 -13.846  1.00  0.00     0.211 HD
ENDBRANCH  28  33
BRANCH  30  35
ATOM     35  O   UNL     1      14.303  -7.385 -16.383  1.00  0.00    -0.387 OA
ATOM     36  H   UNL     1      13.871  -6.744 -15.773  1.00  0.00     0.211 HD
ENDBRANCH  30  35
BRANCH  31  37
ATOM     37  C   UNL     1      19.064  -6.508 -16.279  1.00  0.00     0.191 C 
BRANCH  37  38
ATOM     38  O   UNL     1      18.858  -5.753 -17.419  1.00  0.00    -0.394 OA
ATOM     39  H   UNL     1      18.415  -6.373 -18.094  1.00  0.00     0.210 HD
ENDBRANCH  37  38
ENDBRANCH  31  37
BRANCH  32  40
ATOM     40  O   UNL     1      17.273  -8.558 -17.317  1.00  0.00    -0.387 OA
ATOM     41  H   UNL     1      17.419  -8.200 -18.239  1.00  0.00     0.211 HD
ENDBRANCH  32  40
ENDBRANCH   1  27
TORSDOF 12
ENDMDL
MODEL 2
REMARK VINA RESULT:    -6.460      2.048      6.944
REMARK INTER + INTRA:         -10.939
REMARK INTER:                  -9.412
REMARK INTRA:                  -1.527
REMARK UNBOUND:                -1.457
REMARK SMILES O=c1c(O[C@H]2O[C@H](CO)[C@@H](O)[C@H](O)[C@H]2O)c(-c2ccc(O)c(O)c2)oc2cc(O)cc(O)c12
REMARK SMILES IDX 4 1 3 2 16 3 25 4 2 5 26 6 1 7 33 8 27 9 31 10 28 11 30 12
REMARK SMILES IDX 17 13 18 14 19 15 20 16 24 17 22 18 21 19 23 21 32 23 29 25
REMARK SMILES IDX 5 27 14 28 6 29 12 30 7 31 10 32 15 33 13 35 8 37 9 38 11 40
REMARK H PARENT 21 20 23 22 32 24 29 26 15 34 13 36 9 39 11 41
REMARK Flexibility Score: inf
ROOT
ATOM      1  O   UNL     1      18.166  -1.280 -11.495  1.00  0.00    -0.454 OA
ENDROOT
BRANCH   1   2
ATOM      2  C   UNL     1      17.314  -1.486 -12.647  1.00  0.00     0.214 A 
ATOM      3  C   UNL     1      16.533  -2.653 -12.758  1.00  0.00     0.180 A 
ATOM      4  O   UNL     1      15.312  -2.520 -12.297  1.00  0.00    -0.452 OA
ATOM      5  C   UNL     1      16.677  -0.367 -13.187  1.00  0.00     0.239 A 
ATOM      6  C   UNL     1      14.604  -1.436 -12.664  1.00  0.00     0.146 A 
ATOM      7  O   UNL     1      17.337   0.169 -14.132  1.00  0.00    -0.285 OA
ATOM      8  C   UNL     1      15.279  -0.299 -13.201  1.00  0.00     0.111 A 
ATOM      9  C   UNL     1      13.203  -1.614 -12.739  1.00  0.00     0.094 A 
ATOM     10  C   UNL     1      14.486   0.768 -13.597  1.00  0.00     0.134 A 
ATOM     11  C   UNL     1      12.494  -0.722 -13.517  1.00  0.00     0.123 A 
ATOM     12  C   UNL     1      13.082   0.535 -13.886  1.00  0.00     0.093 A 
BRANCH   3  13
ATOM     13  C   UNL     1      16.459  -3.479 -14.060  1.00  0.00     0.025 A 
ATOM     14  C   UNL     1      17.537  -3.333 -15.060  1.00  0.00     0.016 A 
ATOM     15  C   UNL     1      17.945  -4.349 -15.864  1.00  0.00     0.051 A 
ATOM     16  C   UNL     1      17.083  -5.471 -16.017  1.00  0.00     0.157 A 
ATOM     17  C   UNL     1      15.706  -4.632 -14.146  1.00  0.00     0.062 A 
ATOM     18  C   UNL     1      15.932  -5.550 -15.168  1.00  0.00     0.158 A 
BRANCH  16  19
ATOM     19  O   UNL     1      17.367  -6.362 -17.045  1.00  0.00    -0.504 OA
ATOM     20  H   UNL     1      17.252  -6.035 -18.021  1.00  0.00     0.293 HD
ENDBRANCH  16  19
BRANCH  18  21
ATOM     21  O   UNL     1      14.958  -6.544 -15.345  1.00  0.00    -0.504 OA
ATOM     22  H   UNL     1      14.850  -7.010 -16.296  1.00  0.00     0.293 HD
ENDBRANCH  18  21
ENDBRANCH   3  13
BRANCH  10  23
ATOM     23  O   UNL     1      14.942   2.084 -13.382  1.00  0.00    -0.507 OA
ATOM     24  H   UNL     1      15.104   2.676 -14.237  1.00  0.00     0.293 HD
ENDBRANCH  10  23
BRANCH  11  25
ATOM     25  O   UNL     1      11.203  -1.086 -13.925  1.00  0.00    -0.508 OA
ATOM     26  H   UNL     1      10.576  -0.395 -14.289  1.00  0.00     0.293 HD
ENDBRANCH  11  25
ENDBRANCH   1   2
BRANCH   1  27
ATOM     27  C   UNL     1      18.452  -2.260 -10.488  1.00  0.00     0.339 C 
ATOM     28  C   UNL     1      17.529  -2.043  -9.233  1.00  0.00     0.214 C 
ATOM     29  O   UNL     1      19.842  -2.247 -10.248  1.00  0.00    -0.332 OA
ATOM     30  C   UNL     1      18.153  -2.677  -7.927  1.00  0.00     0.180 C 
ATOM     31  C   UNL     1      20.171  -1.642  -8.989  1.00  0.00     0.179 C 
ATOM     32  C   UNL     1      19.687  -2.545  -7.870  1.00  0.00     0.177 C 
BRANCH  28  33
ATOM     33  O   UNL     1      17.246  -0.654  -9.105  1.00  0.00    -0.384 OA
ATOM     34  H   UNL     1      17.350  -0.234  -9.960  1.00  0.00     0.211 HD
ENDBRANCH  28  33
BRANCH  30  35
ATOM     35  O   UNL     1      17.754  -4.049  -7.858  1.00  0.00    -0.387 OA
ATOM     36  H   UNL     1      18.506  -4.602  -8.172  1.00  0.00     0.211 HD
ENDBRANCH  30  35
BRANCH  31  37
ATOM     37  C   UNL     1      21.647  -1.372  -8.923  1.00  0.00     0.191 C 
BRANCH  37  38
ATOM     38  O   UNL     1      22.338  -2.471  -8.446  1.00  0.00    -0.394 OA
ATOM     39  H   UNL     1      22.264  -2.435  -7.431  1.00  0.00     0.210 HD
ENDBRANCH  37  38
ENDBRANCH  31  37
BRANCH  32  40
ATOM     40  O   UNL     1      20.126  -2.114  -6.551  1.00  0.00    -0.387 OA
ATOM     41  H   UNL     1      20.566  -2.911  -6.138  1.00  0.00     0.211 HD
ENDBRANCH  32  40
ENDBRANCH   1  27
TORSDOF 12
ENDMDL
MODEL 3
REMARK VINA RESULT:    -6.403      1.565      2.603
REMARK INTER + INTRA:         -10.855
REMARK INTER:                  -9.467
REMARK INTRA:                  -1.388
REMARK UNBOUND:                -1.457
REMARK SMILES O=c1c(O[C@H]2O[C@H](CO)[C@@H](O)[C@H](O)[C@H]2O)c(-c2ccc(O)c(O)c2)oc2cc(O)cc(O)c12
REMARK SMILES IDX 4 1 3 2 16 3 25 4 2 5 26 6 1 7 33 8 27 9 31 10 28 11 30 12
REMARK SMILES IDX 17 13 18 14 19 15 20 16 24 17 22 18 21 19 23 21 32 23 29 25
REMARK SMILES IDX 5 27 14 28 6 29 12 30 7 31 10 32 15 33 13 35 8 37 9 38 11 40
REMARK H PARENT 21 20 23 22 32 24 29 26 15 34 13 36 9 39 11 41
REMARK Flexibility Score: inf
ROOT
ATOM      1  O   UNL     1      15.986  -3.742 -13.965  1.00  0.00    -0.454 OA
ENDROOT
BRANCH   1   2
ATOM      2  C   UNL     1      15.474  -3.071 -12.789  1.00  0.00     0.214 A 
ATOM      3  C   UNL     1      16.274  -2.147 -12.090  1.00  0.00     0.180 A 
ATOM      4  O   UNL     1      16.099  -0.902 -12.466  1.00  0.00    -0.452 OA
ATOM      5  C   UNL     1      14.125  -2.716 -12.784  1.00  0.00     0.239 A 
ATOM      6  C   UNL     1      14.841  -0.444 -12.593  1.00  0.00     0.146 A 
ATOM      7  O   UNL     1      13.382  -3.599 -12.249  1.00  0.00    -0.285 OA
ATOM      8  C   UNL     1      13.758  -1.368 -12.698  1.00  0.00     0.111 A 
ATOM      9  C   UNL     1      14.661   0.936 -12.339  1.00  0.00     0.094 A 
ATOM     10  C   UNL     1      12.483  -0.828 -12.786  1.00  0.00     0.134 A 
ATOM     11  C   UNL     1      13.388   1.358 -12.014  1.00  0.00     0.123 A 
ATOM     12  C   UNL     1      12.257   0.528 -12.317  1.00  0.00     0.093 A 
BRANCH   3  13
ATOM     13  C   UNL     1      16.404  -2.161 -10.551  1.00  0.00     0.025 A 
ATOM     14  C   UNL     1      16.447  -3.461  -9.850  1.00  0.00     0.016 A 
ATOM     15  C   UNL     1      17.149  -3.663  -8.705  1.00  0.00     0.051 A 
ATOM     16  C   UNL     1      17.551  -2.522  -7.955  1.00  0.00     0.157 A 
ATOM     17  C   UNL     1      16.909  -1.081  -9.856  1.00  0.00     0.062 A 
ATOM     18  C   UNL     1      17.364  -1.232  -8.549  1.00  0.00     0.158 A 
BRANCH  16  19
ATOM     19  O   UNL     1      18.010  -2.736  -6.661  1.00  0.00    -0.504 OA
ATOM     20  H   UNL     1      18.868  -3.303  -6.534  1.00  0.00     0.293 HD
ENDBRANCH  16  19
BRANCH  18  21
ATOM     21  O   UNL     1      17.602  -0.053  -7.827  1.00  0.00    -0.504 OA
ATOM     22  H   UNL     1      18.553   0.104  -7.376  1.00  0.00     0.293 HD
ENDBRANCH  18  21
ENDBRANCH   3  13
BRANCH  10  23
ATOM     23  O   UNL     1      11.529  -1.443 -13.621  1.00  0.00    -0.507 OA
ATOM     24  H   UNL     1      11.294  -0.946 -14.519  1.00  0.00     0.293 HD
ENDBRANCH  10  23
BRANCH  11  25
ATOM     25  O   UNL     1      13.247   2.605 -11.388  1.00  0.00    -0.508 OA
ATOM     26  H   UNL     1      13.833   3.372 -11.656  1.00  0.00     0.293 HD
ENDBRANCH  11  25
ENDBRANCH   1   2
BRANCH   1  27
ATOM     27  C   UNL     1      16.514  -5.074 -13.997  1.00  0.00     0.339 C 
ATOM     28  C   UNL     1      18.024  -5.056 -14.440  1.00  0.00     0.214 C 
ATOM     29  O   UNL     1      15.647  -5.870 -14.776  1.00  0.00    -0.332 OA
ATOM     30  C   UNL     1      18.480  -6.447 -15.034  1.00  0.00     0.180 C 
ATOM     31  C   UNL     1      16.208  -6.193 -16.057  1.00  0.00     0.179 C 
ATOM     32  C   UNL     1      17.376  -7.141 -15.855  1.00  0.00     0.177 C 
BRANCH  28  33
ATOM     33  O   UNL     1      18.226  -3.968 -15.336  1.00  0.00    -0.384 OA
ATOM     34  H   UNL     1      18.982  -3.458 -15.041  1.00  0.00     0.211 HD
ENDBRANCH  28  33
BRANCH  30  35
ATOM     35  O   UNL     1      18.911  -7.278 -13.952  1.00  0.00    -0.387 OA
ATOM     36  H   UNL     1      18.126  -7.759 -13.604  1.00  0.00     0.211 HD
ENDBRANCH  30  35
BRANCH  31  37
ATOM     37  C   UNL     1      15.144  -6.761 -16.951  1.00  0.00     0.191 C 
BRANCH  37  38
ATOM     38  O   UNL     1      15.424  -6.518 -18.283  1.00  0.00    -0.394 OA
ATOM     39  H   UNL     1      16.430  -6.367 -18.339  1.00  0.00     0.210 HD
ENDBRANCH  37  38
ENDBRANCH  31  37
BRANCH  32  40
ATOM     40  O   UNL     1      17.907  -7.674 -17.100  1.00  0.00    -0.387 OA
ATOM     41  H   UNL     1      18.898  -7.714 -16.978  1.00  0.00     0.211 HD
ENDBRANCH  32  40
ENDBRANCH   1  27
TORSDOF 12
ENDMDL
MODEL 4
REMARK VINA RESULT:    -6.340      6.209      9.021
REMARK INTER + INTRA:         -10.762
REMARK INTER:                  -9.470
REMARK INTRA:                  -1.293
REMARK UNBOUND:                -1.457
REMARK SMILES O=c1c(O[C@H]2O[C@H](CO)[C@@H](O)[C@H](O)[C@H]2O)c(-c2ccc(O)c(O)c2)oc2cc(O)cc(O)c12
REMARK SMILES IDX 4 1 3 2 16 3 25 4 2 5 26 6 1 7 33 8 27 9 31 10 28 11 30 12
REMARK SMILES IDX 17 13 18 14 19 15 20 16 24 17 22 18 21 19 23 21 32 23 29 25
REMARK SMILES IDX 5 27 14 28 6 29 12 30 7 31 10 32 15 33 13 35 8 37 9 38 11 40
REMARK H PARENT 21 20 23 22 32 24 29 26 15 34 13 36 9 39 11 41
REMARK Flexibility Score: inf
ROOT
ATOM      1  O   UNL     1      23.236  -0.583 -11.179  1.00  0.00    -0.454 OA
ENDROOT
BRANCH   1   2
ATOM      2  C   UNL     1      22.914  -1.797 -10.458  1.00  0.00     0.214 A 
ATOM      3  C   UNL     1      23.648  -2.161  -9.312  1.00  0.00     0.180 A 
ATOM      4  O   UNL     1      23.114  -1.749  -8.187  1.00  0.00    -0.452 OA
ATOM      5  C   UNL     1      21.568  -2.154 -10.363  1.00  0.00     0.239 A 
ATOM      6  C   UNL     1      21.798  -1.946  -7.993  1.00  0.00     0.146 A 
ATOM      7  O   UNL     1      21.202  -2.948 -11.285  1.00  0.00    -0.285 OA
ATOM      8  C   UNL     1      20.953  -2.229  -9.108  1.00  0.00     0.111 A 
ATOM      9  C   UNL     1      21.395  -2.126  -6.649  1.00  0.00     0.094 A 
ATOM     10  C   UNL     1      19.613  -2.463  -8.833  1.00  0.00     0.134 A 
ATOM     11  C   UNL     1      20.190  -2.763  -6.430  1.00  0.00     0.123 A 
ATOM     12  C   UNL     1      19.228  -2.863  -7.491  1.00  0.00     0.093 A 
BRANCH   3  13
ATOM     13  C   UNL     1      24.174  -3.596  -9.088  1.00  0.00     0.025 A 
ATOM     14  C   UNL     1      24.829  -3.923  -7.805  1.00  0.00     0.016 A 
ATOM     15  C   UNL     1      24.761  -5.152  -7.230  1.00  0.00     0.051 A 
ATOM     16  C   UNL     1      24.370  -6.252  -8.043  1.00  0.00     0.157 A 
ATOM     17  C   UNL     1      23.691  -4.667  -9.811  1.00  0.00     0.062 A 
ATOM     18  C   UNL     1      23.885  -5.970  -9.362  1.00  0.00     0.158 A 
BRANCH  16  19
ATOM     19  O   UNL     1      24.574  -7.529  -7.535  1.00  0.00    -0.504 OA
ATOM     20  H   UNL     1      25.311  -8.115  -7.967  1.00  0.00     0.293 HD
ENDBRANCH  16  19
BRANCH  18  21
ATOM     21  O   UNL     1      23.611  -6.997 -10.277  1.00  0.00    -0.504 OA
ATOM     22  H   UNL     1      23.530  -8.000  -9.931  1.00  0.00     0.293 HD
ENDBRANCH  18  21
ENDBRANCH   3  13
BRANCH  10  23
ATOM     23  O   UNL     1      18.632  -1.985  -9.725  1.00  0.00    -0.507 OA
ATOM     24  H   UNL     1      18.653  -0.957  -9.947  1.00  0.00     0.293 HD
ENDBRANCH  10  23
BRANCH  11  25
ATOM     25  O   UNL     1      19.950  -3.299  -5.157  1.00  0.00    -0.508 OA
ATOM     26  H   UNL     1      20.370  -4.167  -4.889  1.00  0.00     0.293 HD
ENDBRANCH  11  25
ENDBRANCH   1   2
BRANCH   1  27
ATOM     27  C   UNL     1      23.118  -0.403 -12.596  1.00  0.00     0.339 C 
ATOM     28  C   UNL     1      24.473   0.125 -13.196  1.00  0.00     0.214 C 
ATOM     29  O   UNL     1      21.978   0.390 -12.843  1.00  0.00    -0.332 OA
ATOM     30  C   UNL     1      24.258   0.864 -14.575  1.00  0.00     0.180 C 
ATOM     31  C   UNL     1      22.319   1.725 -13.244  1.00  0.00     0.179 C 
ATOM     32  C   UNL     1      22.950   1.676 -14.624  1.00  0.00     0.177 C 
BRANCH  28  33
ATOM     33  O   UNL     1      25.124   0.933 -12.220  1.00  0.00    -0.384 OA
ATOM     34  H   UNL     1      24.618   1.736 -12.093  1.00  0.00     0.211 HD
ENDBRANCH  28  33
BRANCH  30  35
ATOM     35  O   UNL     1      24.292  -0.114 -15.619  1.00  0.00    -0.387 OA
ATOM     36  H   UNL     1      23.589  -0.779 -15.440  1.00  0.00     0.211 HD
ENDBRANCH  30  35
BRANCH  31  37
ATOM     37  C   UNL     1      21.100   2.601 -13.191  1.00  0.00     0.191 C 
BRANCH  37  38
ATOM     38  O   UNL     1      20.409   2.573 -14.388  1.00  0.00    -0.394 OA
ATOM     39  H   UNL     1      21.095   2.761 -15.117  1.00  0.00     0.210 HD
ENDBRANCH  37  38
ENDBRANCH  31  37
BRANCH  32  40
ATOM     40  O   UNL     1      23.172   2.992 -15.202  1.00  0.00    -0.387 OA
ATOM     41  H   UNL     1      23.756   2.844 -15.999  1.00  0.00     0.211 HD
ENDBRANCH  32  40
ENDBRANCH   1  27
TORSDOF 12
ENDMDL
MODEL 5
REMARK VINA RESULT:    -6.320      3.599      7.402
REMARK INTER + INTRA:         -10.734
REMARK INTER:                  -9.044
REMARK INTRA:                  -1.689
REMARK UNBOUND:                -1.457
REMARK SMILES O=c1c(O[C@H]2O[C@H](CO)[C@@H](O)[C@H](O)[C@H]2O)c(-c2ccc(O)c(O)c2)oc2cc(O)cc(O)c12
REMARK SMILES IDX 4 1 3 2 16 3 25 4 2 5 26 6 1 7 33 8 27 9 31 10 28 11 30 12
REMARK SMILES IDX 17 13 18 14 19 15 20 16 24 17 22 18 21 19 23 21 32 23 29 25
REMARK SMILES IDX 5 27 14 28 6 29 12 30 7 31 10 32 15 33 13 35 8 37 9 38 11 40
REMARK H PARENT 21 20 23 22 32 24 29 26 15 34 13 36 9 39 11 41
REMARK Flexibility Score: inf
ROOT
ATOM      1  O   UNL     1      19.104  -0.235 -12.143  1.00  0.00    -0.454 OA
ENDROOT
BRANCH   1   2
ATOM      2  C   UNL     1      18.668   0.464 -13.334  1.00  0.00     0.214 A 
ATOM      3  C   UNL     1      18.330  -0.253 -14.498  1.00  0.00     0.180 A 
ATOM      4  O   UNL     1      17.052  -0.531 -14.597  1.00  0.00    -0.452 OA
ATOM      5  C   UNL     1      17.878   1.601 -13.162  1.00  0.00     0.239 A 
ATOM      6  C   UNL     1      16.164   0.453 -14.369  1.00  0.00     0.146 A 
ATOM      7  O   UNL     1      18.557   2.676 -13.131  1.00  0.00    -0.285 OA
ATOM      8  C   UNL     1      16.574   1.628 -13.671  1.00  0.00     0.111 A 
ATOM      9  C   UNL     1      14.946   0.360 -15.083  1.00  0.00     0.094 A 
ATOM     10  C   UNL     1      15.619   2.622 -13.505  1.00  0.00     0.134 A 
ATOM     11  C   UNL     1      14.216   1.521 -15.242  1.00  0.00     0.123 A 
ATOM     12  C   UNL     1      14.469   2.650 -14.391  1.00  0.00     0.093 A 
BRANCH   3  13
ATOM     13  C   UNL     1      18.834   0.157 -15.899  1.00  0.00     0.025 A 
ATOM     14  C   UNL     1      20.108   0.898 -16.010  1.00  0.00     0.016 A 
ATOM     15  C   UNL     1      20.949   0.772 -17.069  1.00  0.00     0.051 A 
ATOM     16  C   UNL     1      20.436   0.205 -18.269  1.00  0.00     0.157 A 
ATOM     17  C   UNL     1      18.409  -0.490 -17.041  1.00  0.00     0.062 A 
ATOM     18  C   UNL     1      19.126  -0.375 -18.228  1.00  0.00     0.158 A 
BRANCH  16  19
ATOM     19  O   UNL     1      21.203   0.338 -19.420  1.00  0.00    -0.504 OA
ATOM     20  H   UNL     1      20.824  -0.037 -20.307  1.00  0.00     0.293 HD
ENDBRANCH  16  19
BRANCH  18  21
ATOM     21  O   UNL     1      18.490  -0.829 -19.393  1.00  0.00    -0.504 OA
ATOM     22  H   UNL     1      17.646  -0.302 -19.770  1.00  0.00     0.293 HD
ENDBRANCH  18  21
ENDBRANCH   3  13
BRANCH  10  23
ATOM     23  O   UNL     1      15.588   3.354 -12.302  1.00  0.00    -0.507 OA
ATOM     24  H   UNL     1      16.062   2.920 -11.469  1.00  0.00     0.293 HD
ENDBRANCH  10  23
BRANCH  11  25
ATOM     25  O   UNL     1      13.239   1.552 -16.247  1.00  0.00    -0.508 OA
ATOM     26  H   UNL     1      12.371   2.025 -16.090  1.00  0.00     0.293 HD
ENDBRANCH  11  25
ENDBRANCH   1   2
BRANCH   1  27
ATOM     27  C   UNL     1      18.301  -0.475 -10.981  1.00  0.00     0.339 C 
ATOM     28  C   UNL     1      19.212  -0.827  -9.747  1.00  0.00     0.214 C 
ATOM     29  O   UNL     1      17.317  -1.429 -11.319  1.00  0.00    -0.332 OA
ATOM     30  C   UNL     1      18.421  -1.634  -8.643  1.00  0.00     0.180 C 
ATOM     31  C   UNL     1      17.582  -2.715 -10.741  1.00  0.00     0.179 C 
ATOM     32  C   UNL     1      17.400  -2.623  -9.237  1.00  0.00     0.177 C 
BRANCH  28  33
ATOM     33  O   UNL     1      20.375  -1.503 -10.214  1.00  0.00    -0.384 OA
ATOM     34  H   UNL     1      20.572  -1.207 -11.103  1.00  0.00     0.211 HD
ENDBRANCH  28  33
BRANCH  30  35
ATOM     35  O   UNL     1      17.779  -0.697  -7.774  1.00  0.00    -0.387 OA
ATOM     36  H   UNL     1      17.826   0.192  -8.194  1.00  0.00     0.211 HD
ENDBRANCH  30  35
BRANCH  31  37
ATOM     37  C   UNL     1      16.698  -3.751 -11.374  1.00  0.00     0.191 C 
BRANCH  37  38
ATOM     38  O   UNL     1      17.207  -5.024 -11.193  1.00  0.00    -0.394 OA
ATOM     39  H   UNL     1      16.562  -5.502 -10.567  1.00  0.00     0.210 HD
ENDBRANCH  37  38
ENDBRANCH  31  37
BRANCH  32  40
ATOM     40  O   UNL     1      17.471  -3.914  -8.569  1.00  0.00    -0.387 OA
ATOM     41  H   UNL     1      16.576  -4.338  -8.701  1.00  0.00     0.211 HD
ENDBRANCH  32  40
ENDBRANCH   1  27
TORSDOF 12
ENDMDL
MODEL 6
REMARK VINA RESULT:    -6.274      2.008      7.402
REMARK INTER + INTRA:         -10.666
REMARK INTER:                  -9.264
REMARK INTRA:                  -1.402
REMARK UNBOUND:                -1.457
REMARK SMILES O=c1c(O[C@H]2O[C@H](CO)[C@@H](O)[C@H](O)[C@H]2O)c(-c2ccc(O)c(O)c2)oc2cc(O)cc(O)c12
REMARK SMILES IDX 4 1 3 2 16 3 25 4 2 5 26 6 1 7 33 8 27 9 31 10 28 11 30 12
REMARK SMILES IDX 17 13 18 14 19 15 20 16 24 17 22 18 21 19 23 21 32 23 29 25
REMARK SMILES IDX 5 27 14 28 6 29 12 30 7 31 10 32 15 33 13 35 8 37 9 38 11 40
REMARK H PARENT 21 20 23 22 32 24 29 26 15 34 13 36 9 39 11 41
REMARK Flexibility Score: inf
ROOT
ATOM      1  O   UNL     1      19.666  -3.146 -11.826  1.00  0.00    -0.454 OA
ENDROOT
BRANCH   1   2
ATOM      2  C   UNL     1      18.607  -3.267 -12.806  1.00  0.00     0.214 A 
ATOM      3  C   UNL     1      17.811  -4.428 -12.856  1.00  0.00     0.180 A 
ATOM      4  O   UNL     1      16.702  -4.341 -12.161  1.00  0.00    -0.452 OA
ATOM      5  C   UNL     1      17.888  -2.114 -13.124  1.00  0.00     0.239 A 
ATOM      6  C   UNL     1      15.946  -3.237 -12.299  1.00  0.00     0.146 A 
ATOM      7  O   UNL     1      18.357  -1.501 -14.133  1.00  0.00    -0.285 OA
ATOM      8  C   UNL     1      16.513  -2.057 -12.864  1.00  0.00     0.111 A 
ATOM      9  C   UNL     1      14.555  -3.420 -12.117  1.00  0.00     0.094 A 
ATOM     10  C   UNL     1      15.667  -0.967 -13.015  1.00  0.00     0.134 A 
ATOM     11  C   UNL     1      13.716  -2.474 -12.672  1.00  0.00     0.123 A 
ATOM     12  C   UNL     1      14.232  -1.188 -13.047  1.00  0.00     0.093 A 
BRANCH   3  13
ATOM     13  C   UNL     1      17.482  -5.149 -14.182  1.00  0.00     0.025 A 
ATOM     14  C   UNL     1      16.270  -5.990 -14.255  1.00  0.00     0.016 A 
ATOM     15  C   UNL     1      15.541  -6.143 -15.392  1.00  0.00     0.051 A 
ATOM     16  C   UNL     1      16.150  -5.795 -16.630  1.00  0.00     0.157 A 
ATOM     17  C   UNL     1      17.994  -4.718 -15.389  1.00  0.00     0.062 A 
ATOM     18  C   UNL     1      17.415  -5.124 -16.588  1.00  0.00     0.158 A 
BRANCH  16  19
ATOM     19  O   UNL     1      15.518  -6.215 -17.794  1.00  0.00    -0.504 OA
ATOM     20  H   UNL     1      15.967  -6.964 -18.351  1.00  0.00     0.293 HD
ENDBRANCH  16  19
BRANCH  18  21
ATOM     21  O   UNL     1      18.148  -4.870 -17.756  1.00  0.00    -0.504 OA
ATOM     22  H   UNL     1      19.200  -5.027 -17.761  1.00  0.00     0.293 HD
ENDBRANCH  18  21
ENDBRANCH   3  13
BRANCH  10  23
ATOM     23  O   UNL     1      16.166   0.331 -12.789  1.00  0.00    -0.507 OA
ATOM     24  H   UNL     1      16.043   0.724 -11.820  1.00  0.00     0.293 HD
ENDBRANCH  10  23
BRANCH  11  25
ATOM     25  O   UNL     1      12.368  -2.815 -12.852  1.00  0.00    -0.508 OA
ATOM     26  H   UNL     1      12.037  -3.720 -12.580  1.00  0.00     0.293 HD
ENDBRANCH  11  25
ENDBRANCH   1   2
BRANCH   1  27
ATOM     27  C   UNL     1      19.845  -2.042 -10.930  1.00  0.00     0.339 C 
ATOM     28  C   UNL     1      21.220  -2.166 -10.175  1.00  0.00     0.214 C 
ATOM     29  O   UNL     1      18.696  -1.948 -10.116  1.00  0.00    -0.332 OA
ATOM     30  C   UNL     1      21.223  -1.352  -8.821  1.00  0.00     0.180 C 
ATOM     31  C   UNL     1      18.942  -2.384  -8.772  1.00  0.00     0.179 C 
ATOM     32  C   UNL     1      19.865  -1.388  -8.095  1.00  0.00     0.177 C 
BRANCH  28  33
ATOM     33  O   UNL     1      21.527  -3.546 -10.003  1.00  0.00    -0.384 OA
ATOM     34  H   UNL     1      20.849  -3.951  -9.460  1.00  0.00     0.211 HD
ENDBRANCH  28  33
BRANCH  30  35
ATOM     35  O   UNL     1      21.616  -0.006  -9.106  1.00  0.00    -0.387 OA
ATOM     36  H   UNL     1      22.450  -0.034  -9.627  1.00  0.00     0.211 HD
ENDBRANCH  30  35
BRANCH  31  37
ATOM     37  C   UNL     1      17.639  -2.559  -8.046  1.00  0.00     0.191 C 
BRANCH  37  38
ATOM     38  O   UNL     1      17.766  -3.447  -6.993  1.00  0.00    -0.394 OA
ATOM     39  H   UNL     1      17.854  -4.372  -7.410  1.00  0.00     0.210 HD
ENDBRANCH  37  38
ENDBRANCH  31  37
BRANCH  32  40
ATOM     40  O   UNL     1      20.038  -1.638  -6.672  1.00  0.00    -0.387 OA
ATOM     41  H   UNL     1      19.599  -0.871  -6.206  1.00  0.00     0.211 HD
ENDBRANCH  32  40
ENDBRANCH   1  27
TORSDOF 12
ENDMDL
MODEL 7
REMARK VINA RESULT:    -6.207      2.134      7.203
REMARK INTER + INTRA:         -10.568
REMARK INTER:                  -9.151
REMARK INTRA:                  -1.417
REMARK UNBOUND:                -1.457
REMARK SMILES O=c1c(O[C@H]2O[C@H](CO)[C@@H](O)[C@H](O)[C@H]2O)c(-c2ccc(O)c(O)c2)oc2cc(O)cc(O)c12
REMARK SMILES IDX 4 1 3 2 16 3 25 4 2 5 26 6 1 7 33 8 27 9 31 10 28 11 30 12
REMARK SMILES IDX 17 13 18 14 19 15 20 16 24 17 22 18 21 19 23 21 32 23 29 25
REMARK SMILES IDX 5 27 14 28 6 29 12 30 7 31 10 32 15 33 13 35 8 37 9 38 11 40
REMARK H PARENT 21 20 23 22 32 24 29 26 15 34 13 36 9 39 11 41
REMARK Flexibility Score: inf
ROOT
ATOM      1  O   UNL     1      19.516  -2.861 -12.156  1.00  0.00    -0.454 OA
ENDROOT
BRANCH   1   2
ATOM      2  C   UNL     1      18.221  -3.049 -12.775  1.00  0.00     0.214 A 
ATOM      3  C   UNL     1      17.883  -2.350 -13.949  1.00  0.00     0.180 A 
ATOM      4  O   UNL     1      18.134  -3.013 -15.053  1.00  0.00    -0.452 OA
ATOM      5  C   UNL     1      17.671  -4.332 -12.742  1.00  0.00     0.239 A 
ATOM      6  C   UNL     1      17.739  -4.297 -15.131  1.00  0.00     0.146 A 
ATOM      7  O   UNL     1      16.900  -4.515 -11.748  1.00  0.00    -0.285 OA
ATOM      8  C   UNL     1      17.421  -5.013 -13.939  1.00  0.00     0.111 A 
ATOM      9  C   UNL     1      17.409  -4.759 -16.427  1.00  0.00     0.094 A 
ATOM     10  C   UNL     1      16.981  -6.320 -14.095  1.00  0.00     0.134 A 
ATOM     11  C   UNL     1      16.594  -5.870 -16.512  1.00  0.00     0.123 A 
ATOM     12  C   UNL     1      16.436  -6.734 -15.376  1.00  0.00     0.093 A 
BRANCH   3  13
ATOM     13  C   UNL     1      16.524  -1.637 -14.126  1.00  0.00     0.025 A 
ATOM     14  C   UNL     1      15.487  -1.810 -13.089  1.00  0.00     0.016 A 
ATOM     15  C   UNL     1      14.586  -0.843 -12.772  1.00  0.00     0.051 A 
ATOM     16  C   UNL     1      14.389   0.219 -13.699  1.00  0.00     0.157 A 
ATOM     17  C   UNL     1      16.386  -0.533 -14.943  1.00  0.00     0.062 A 
ATOM     18  C   UNL     1      15.285   0.309 -14.813  1.00  0.00     0.158 A 
BRANCH  16  19
ATOM     19  O   UNL     1      13.281   1.036 -13.509  1.00  0.00    -0.504 OA
ATOM     20  H   UNL     1      13.055   1.730 -14.243  1.00  0.00     0.293 HD
ENDBRANCH  16  19
BRANCH  18  21
ATOM     21  O   UNL     1      15.079   1.237 -15.845  1.00  0.00    -0.504 OA
ATOM     22  H   UNL     1      14.702   2.205 -15.613  1.00  0.00     0.293 HD
ENDBRANCH  18  21
ENDBRANCH   3  13
BRANCH  10  23
ATOM     23  O   UNL     1      17.377  -7.298 -13.160  1.00  0.00    -0.507 OA
ATOM     24  H   UNL     1      17.744  -8.204 -13.548  1.00  0.00     0.293 HD
ENDBRANCH  10  23
BRANCH  11  25
ATOM     25  O   UNL     1      15.941  -6.116 -17.728  1.00  0.00    -0.508 OA
ATOM     26  H   UNL     1      15.189  -6.776 -17.772  1.00  0.00     0.293 HD
ENDBRANCH  11  25
ENDBRANCH   1   2
BRANCH   1  27
ATOM     27  C   UNL     1      19.816  -1.903 -11.133  1.00  0.00     0.339 C 
ATOM     28  C   UNL     1      21.154  -2.284 -10.399  1.00  0.00     0.214 C 
ATOM     29  O   UNL     1      18.674  -1.766 -10.314  1.00  0.00    -0.332 OA
ATOM     30  C   UNL     1      21.237  -1.645  -8.956  1.00  0.00     0.180 C 
ATOM     31  C   UNL     1      18.846  -2.388  -9.032  1.00  0.00     0.179 C 
ATOM     32  C   UNL     1      19.874  -1.601  -8.239  1.00  0.00     0.177 C 
BRANCH  28  33
ATOM     33  O   UNL     1      21.288  -3.702 -10.395  1.00  0.00    -0.384 OA
ATOM     34  H   UNL     1      20.423  -4.096 -10.270  1.00  0.00     0.211 HD
ENDBRANCH  28  33
BRANCH  30  35
ATOM     35  O   UNL     1      21.794  -0.333  -9.077  1.00  0.00    -0.387 OA
ATOM     36  H   UNL     1      22.470  -0.221  -8.371  1.00  0.00     0.211 HD
ENDBRANCH  30  35
BRANCH  31  37
ATOM     37  C   UNL     1      17.521  -2.487  -8.332  1.00  0.00     0.191 C 
BRANCH  37  38
ATOM     38  O   UNL     1      17.531  -3.488  -7.377  1.00  0.00    -0.394 OA
ATOM     39  H   UNL     1      17.316  -3.037  -6.490  1.00  0.00     0.210 HD
ENDBRANCH  37  38
ENDBRANCH  31  37
BRANCH  32  40
ATOM     40  O   UNL     1      19.994  -2.039  -6.858  1.00  0.00    -0.387 OA
ATOM     41  H   UNL     1      20.472  -2.917  -6.892  1.00  0.00     0.211 HD
ENDBRANCH  32  40
ENDBRANCH   1  27
TORSDOF 12
ENDMDL
MODEL 8
REMARK VINA RESULT:    -6.161      1.526      4.518
REMARK INTER + INTRA:         -10.500
REMARK INTER:                  -8.955
REMARK INTRA:                  -1.546
REMARK UNBOUND:                -1.457
REMARK SMILES O=c1c(O[C@H]2O[C@H](CO)[C@@H](O)[C@H](O)[C@H]2O)c(-c2ccc(O)c(O)c2)oc2cc(O)cc(O)c12
REMARK SMILES IDX 4 1 3 2 16 3 25 4 2 5 26 6 1 7 33 8 27 9 31 10 28 11 30 12
REMARK SMILES IDX 17 13 18 14 19 15 20 16 24 17 22 18 21 19 23 21 32 23 29 25
REMARK SMILES IDX 5 27 14 28 6 29 12 30 7 31 10 32 15 33 13 35 8 37 9 38 11 40
REMARK H PARENT 21 20 23 22 32 24 29 26 15 34 13 36 9 39 11 41
REMARK Flexibility Score: inf
ROOT
ATOM      1  O   UNL     1      16.593  -4.818 -12.591  1.00  0.00    -0.454 OA
ENDROOT
BRANCH   1   2
ATOM      2  C   UNL     1      16.963  -3.430 -12.411  1.00  0.00     0.214 A 
ATOM      3  C   UNL     1      15.989  -2.471 -12.072  1.00  0.00     0.180 A 
ATOM      4  O   UNL     1      15.877  -2.262 -10.781  1.00  0.00    -0.452 OA
ATOM      5  C   UNL     1      18.200  -3.163 -11.822  1.00  0.00     0.239 A 
ATOM      6  C   UNL     1      17.000  -2.076 -10.064  1.00  0.00     0.146 A 
ATOM      7  O   UNL     1      19.128  -2.999 -12.675  1.00  0.00    -0.285 OA
ATOM      8  C   UNL     1      18.259  -2.478 -10.603  1.00  0.00     0.111 A 
ATOM      9  C   UNL     1      16.873  -1.241  -8.929  1.00  0.00     0.094 A 
ATOM     10  C   UNL     1      19.381  -2.220  -9.829  1.00  0.00     0.134 A 
ATOM     11  C   UNL     1      18.026  -0.662  -8.438  1.00  0.00     0.123 A 
ATOM     12  C   UNL     1      19.308  -1.198  -8.799  1.00  0.00     0.093 A 
BRANCH   3  13
ATOM     13  C   UNL     1      15.891  -1.104 -12.782  1.00  0.00     0.025 A 
ATOM     14  C   UNL     1      16.604  -0.912 -14.062  1.00  0.00     0.016 A 
ATOM     15  C   UNL     1      16.146  -0.101 -15.051  1.00  0.00     0.051 A 
ATOM     16  C   UNL     1      15.161   0.871 -14.720  1.00  0.00     0.157 A 
ATOM     17  C   UNL     1      14.857  -0.226 -12.528  1.00  0.00     0.062 A 
ATOM     18  C   UNL     1      14.572   0.808 -13.415  1.00  0.00     0.158 A 
BRANCH  16  19
ATOM     19  O   UNL     1      14.908   1.870 -15.651  1.00  0.00    -0.504 OA
ATOM     20  H   UNL     1      14.041   2.426 -15.549  1.00  0.00     0.293 HD
ENDBRANCH  16  19
BRANCH  18  21
ATOM     21  O   UNL     1      13.700   1.806 -12.956  1.00  0.00    -0.504 OA
ATOM     22  H   UNL     1      13.981   2.829 -13.041  1.00  0.00     0.293 HD
ENDBRANCH  18  21
ENDBRANCH   3  13
BRANCH  10  23
ATOM     23  O   UNL     1      20.433  -3.157  -9.805  1.00  0.00    -0.507 OA
ATOM     24  H   UNL     1      21.088  -3.156 -10.629  1.00  0.00     0.293 HD
ENDBRANCH  10  23
BRANCH  11  25
ATOM     25  O   UNL     1      17.896   0.447  -7.590  1.00  0.00    -0.508 OA
ATOM     26  H   UNL     1      18.098   0.361  -6.614  1.00  0.00     0.293 HD
ENDBRANCH  11  25
ENDBRANCH   1   2
BRANCH   1  27
ATOM     27  C   UNL     1      15.878  -5.348 -13.715  1.00  0.00     0.339 C 
ATOM     28  C   UNL     1      15.867  -6.920 -13.667  1.00  0.00     0.214 C 
ATOM     29  O   UNL     1      16.409  -4.765 -14.885  1.00  0.00    -0.332 OA
ATOM     30  C   UNL     1      15.622  -7.551 -15.095  1.00  0.00     0.180 C 
ATOM     31  C   UNL     1      17.205  -5.688 -15.641  1.00  0.00     0.179 C 
ATOM     32  C   UNL     1      16.297  -6.753 -16.227  1.00  0.00     0.177 C 
BRANCH  28  33
ATOM     33  O   UNL     1      17.070  -7.369 -13.052  1.00  0.00    -0.384 OA
ATOM     34  H   UNL     1      17.018  -8.317 -12.920  1.00  0.00     0.211 HD
ENDBRANCH  28  33
BRANCH  30  35
ATOM     35  O   UNL     1      14.211  -7.647 -15.308  1.00  0.00    -0.387 OA
ATOM     36  H   UNL     1      14.061  -8.096 -16.171  1.00  0.00     0.211 HD
ENDBRANCH  30  35
BRANCH  31  37
ATOM     37  C   UNL     1      17.988  -4.949 -16.687  1.00  0.00     0.191 C 
BRANCH  37  38
ATOM     38  O   UNL     1      19.051  -5.705 -17.147  1.00  0.00    -0.394 OA
ATOM     39  H   UNL     1      19.688  -5.809 -16.359  1.00  0.00     0.210 HD
ENDBRANCH  37  38
ENDBRANCH  31  37
BRANCH  32  40
ATOM     40  O   UNL     1      16.976  -7.640 -17.159  1.00  0.00    -0.387 OA
ATOM     41  H   UNL     1      16.931  -7.186 -18.048  1.00  0.00     0.211 HD
ENDBRANCH  32  40
ENDBRANCH   1  27
TORSDOF 12
ENDMDL
MODEL 9
REMARK VINA RESULT:    -6.149      3.498      8.069
REMARK INTER + INTRA:         -10.483
REMARK INTER:                  -8.855
REMARK INTRA:                  -1.627
REMARK UNBOUND:                -1.457
REMARK SMILES O=c1c(O[C@H]2O[C@H](CO)[C@@H](O)[C@H](O)[C@H]2O)c(-c2ccc(O)c(O)c2)oc2cc(O)cc(O)c12
REMARK SMILES IDX 4 1 3 2 16 3 25 4 2 5 26 6 1 7 33 8 27 9 31 10 28 11 30 12
REMARK SMILES IDX 17 13 18 14 19 15 20 16 24 17 22 18 21 19 23 21 32 23 29 25
REMARK SMILES IDX 5 27 14 28 6 29 12 30 7 31 10 32 15 33 13 35 8 37 9 38 11 40
REMARK H PARENT 21 20 23 22 32 24 29 26 15 34 13 36 9 39 11 41
REMARK Flexibility Score: inf
ROOT
ATOM      1  O   UNL     1      15.924   0.331 -13.505  1.00  0.00    -0.454 OA
ENDROOT
BRANCH   1   2
ATOM      2  C   UNL     1      17.121  -0.386 -13.892  1.00  0.00     0.214 A 
ATOM      3  C   UNL     1      17.074  -1.348 -14.919  1.00  0.00     0.180 A 
ATOM      4  O   UNL     1      17.377  -0.874 -16.104  1.00  0.00    -0.452 OA
ATOM      5  C   UNL     1      18.327   0.315 -13.874  1.00  0.00     0.239 A 
ATOM      6  C   UNL     1      18.472  -0.102 -16.223  1.00  0.00     0.146 A 
ATOM      7  O   UNL     1      18.956   0.190 -12.777  1.00  0.00    -0.285 OA
ATOM      8  C   UNL     1      19.047   0.494 -15.061  1.00  0.00     0.111 A 
ATOM      9  C   UNL     1      19.132  -0.161 -17.473  1.00  0.00     0.094 A 
ATOM     10  C   UNL     1      20.199   1.245 -15.250  1.00  0.00     0.134 A 
ATOM     11  C   UNL     1      20.456   0.229 -17.507  1.00  0.00     0.123 A 
ATOM     12  C   UNL     1      20.998   1.025 -16.442  1.00  0.00     0.093 A 
BRANCH   3  13
ATOM     13  C   UNL     1      17.735  -2.737 -14.783  1.00  0.00     0.025 A 
ATOM     14  C   UNL     1      17.901  -3.319 -13.435  1.00  0.00     0.016 A 
ATOM     15  C   UNL     1      17.853  -4.655 -13.193  1.00  0.00     0.051 A 
ATOM     16  C   UNL     1      18.017  -5.542 -14.294  1.00  0.00     0.157 A 
ATOM     17  C   UNL     1      17.776  -3.628 -15.836  1.00  0.00     0.062 A 
ATOM     18  C   UNL     1      18.027  -4.978 -15.611  1.00  0.00     0.158 A 
BRANCH  16  19
ATOM     19  O   UNL     1      18.249  -6.882 -14.007  1.00  0.00    -0.504 OA
ATOM     20  H   UNL     1      18.779  -7.444 -14.697  1.00  0.00     0.293 HD
ENDBRANCH  16  19
BRANCH  18  21
ATOM     21  O   UNL     1      18.321  -5.758 -16.739  1.00  0.00    -0.504 OA
ATOM     22  H   UNL     1      18.029  -6.781 -16.760  1.00  0.00     0.293 HD
ENDBRANCH  18  21
ENDBRANCH   3  13
BRANCH  10  23
ATOM     23  O   UNL     1      20.389   2.419 -14.493  1.00  0.00    -0.507 OA
ATOM     24  H   UNL     1      19.550   3.042 -14.365  1.00  0.00     0.293 HD
ENDBRANCH  10  23
BRANCH  11  25
ATOM     25  O   UNL     1      21.234  -0.177 -18.601  1.00  0.00    -0.508 OA
ATOM     26  H   UNL     1      21.978   0.406 -18.933  1.00  0.00     0.293 HD
ENDBRANCH  11  25
ENDBRANCH   1   2
BRANCH   1  27
ATOM     27  C   UNL     1      14.742   0.466 -14.304  1.00  0.00     0.339 C 
ATOM     28  C   UNL     1      14.939   1.587 -15.390  1.00  0.00     0.214 C 
ATOM     29  O   UNL     1      13.642   0.630 -13.434  1.00  0.00    -0.332 OA
ATOM     30  C   UNL     1      13.559   2.167 -15.895  1.00  0.00     0.180 C 
ATOM     31  C   UNL     1      13.145   1.976 -13.432  1.00  0.00     0.179 C 
ATOM     32  C   UNL     1      12.503   2.263 -14.777  1.00  0.00     0.177 C 
BRANCH  28  33
ATOM     33  O   UNL     1      15.812   2.584 -14.869  1.00  0.00    -0.384 OA
ATOM     34  H   UNL     1      15.392   3.003 -14.117  1.00  0.00     0.211 HD
ENDBRANCH  28  33
BRANCH  30  35
ATOM     35  O   UNL     1      13.092   1.346 -16.970  1.00  0.00    -0.387 OA
ATOM     36  H   UNL     1      12.952   1.922 -17.756  1.00  0.00     0.211 HD
ENDBRANCH  30  35
BRANCH  31  37
ATOM     37  C   UNL     1      12.199   2.168 -12.281  1.00  0.00     0.191 C 
BRANCH  37  38
ATOM     38  O   UNL     1      10.911   1.796 -12.622  1.00  0.00    -0.394 OA
ATOM     39  H   UNL     1      10.975   0.844 -12.979  1.00  0.00     0.210 HD
ENDBRANCH  37  38
ENDBRANCH  31  37
BRANCH  32  40
ATOM     40  O   UNL     1      11.808   3.540 -14.822  1.00  0.00    -0.387 OA
ATOM     41  H   UNL     1      12.490   4.230 -14.583  1.00  0.00     0.211 HD
ENDBRANCH  32  40
ENDBRANCH   1  27
TORSDOF 12
ENDMDL
