MODEL 1
REMARK VINA RESULT:     3.363      0.000      0.000
REMARK INTER + INTRA:           5.539
REMARK INTER:                   6.509
REMARK INTRA:                  -0.969
REMARK UNBOUND:                -0.969
REMARK SMILES CCCCCCCCCCCCCCCCCC(=O)[O-]
REMARK SMILES IDX 10 1 11 2 12 3 13 4 14 5 15 6 16 7 17 8 18 9 19 10 20 11
REMARK SMILES IDX 9 12 8 13 7 14 6 15 5 16 4 17 3 18 2 19 1 20
REMARK H PARENT
REMARK Flexibility Score: inf
ROOT
ATOM      1  C   UNL     1      17.711   1.264  25.037  1.00  0.00     0.000 C 
ENDROOT
BRANCH   1   2
ATOM      2  C   UNL     1      17.245   2.694  24.724  1.00  0.00     0.000 C 
BRANCH   2   3
ATOM      3  C   UNL     1      16.807   3.419  26.005  1.00  0.00     0.000 C 
BRANCH   3   4
ATOM      4  C   UNL     1      15.279   3.464  26.168  1.00  0.00     0.000 C 
BRANCH   4   5
ATOM      5  C   UNL     1      14.601   2.160  25.716  1.00  0.00     0.000 C 
BRANCH   5   6
ATOM      6  C   UNL     1      13.167   2.384  25.209  1.00  0.00     0.000 C 
BRANCH   6   7
ATOM      7  C   UNL     1      13.076   2.417  23.676  1.00  0.00     0.006 C 
BRANCH   7   8
ATOM      8  C   UNL     1      13.888   3.583  23.105  1.00  0.00     0.053 C 
BRANCH   8   9
ATOM      9  C   UNL     1      12.988   4.720  22.738  1.00  0.00     0.041 C 
ATOM     10  O   UNL     1      11.865   4.495  22.216  1.00  0.00    -0.550 OA
ATOM     11  O   UNL     1      13.409   6.030  22.925  1.00  0.00    -0.550 OA
ENDBRANCH   8   9
ENDBRANCH   7   8
ENDBRANCH   6   7
ENDBRANCH   5   6
ENDBRANCH   4   5
ENDBRANCH   3   4
ENDBRANCH   2   3
ENDBRANCH   1   2
BRANCH   1  12
ATOM     12  C   UNL     1      19.172   1.014  24.631  1.00  0.00     0.000 C 
BRANCH  12  13
ATOM     13  C   UNL     1      20.115   0.936  25.841  1.00  0.00    -0.000 C 
BRANCH  13  14
ATOM     14  C   UNL     1      19.572   1.757  27.016  1.00  0.00    -0.000 C 
BRANCH  14  15
ATOM     15  C   UNL     1      19.504   0.912  28.294  1.00  0.00    -0.000 C 
BRANCH  15  16
ATOM     16  C   UNL     1      19.716   1.779  29.540  1.00  0.00    -0.000 C 
BRANCH  16  17
ATOM     17  C   UNL     1      18.924   3.091  29.436  1.00  0.00    -0.000 C 
BRANCH  17  18
ATOM     18  C   UNL     1      18.827   3.842  30.777  1.00  0.00    -0.000 C 
BRANCH  18  19
ATOM     19  C   UNL     1      17.499   4.585  31.006  1.00  0.00    -0.003 C 
ATOM     20  C   UNL     1      16.594   4.588  29.775  1.00  0.00     0.004 C 
ENDBRANCH  18  19
ENDBRANCH  17  18
ENDBRANCH  16  17
ENDBRANCH  15  16
ENDBRANCH  14  15
ENDBRANCH  13  14
ENDBRANCH  12  13
ENDBRANCH   1  12
TORSDOF 16
ENDMDL
MODEL 2
REMARK VINA RESULT:     3.397      0.650      1.314
REMARK INTER + INTRA:           5.605
REMARK INTER:                   6.863
REMARK INTRA:                  -1.258
REMARK UNBOUND:                -0.969
REMARK SMILES CCCCCCCCCCCCCCCCCC(=O)[O-]
REMARK SMILES IDX 10 1 11 2 12 3 13 4 14 5 15 6 16 7 17 8 18 9 19 10 20 11
REMARK SMILES IDX 9 12 8 13 7 14 6 15 5 16 4 17 3 18 2 19 1 20
REMARK H PARENT
REMARK Flexibility Score: inf
ROOT
ATOM      1  C   UNL     1      19.629   1.901  25.060  1.00  0.00     0.000 C 
ENDROOT
BRANCH   1   2
ATOM      2  C   UNL     1      18.167   1.501  24.814  1.00  0.00     0.000 C 
BRANCH   2   3
ATOM      3  C   UNL     1      17.251   2.733  24.844  1.00  0.00     0.000 C 
BRANCH   3   4
ATOM      4  C   UNL     1      16.291   2.729  26.045  1.00  0.00     0.000 C 
BRANCH   4   5
ATOM      5  C   UNL     1      14.938   3.382  25.717  1.00  0.00     0.000 C 
BRANCH   5   6
ATOM      6  C   UNL     1      13.830   2.349  25.456  1.00  0.00     0.000 C 
BRANCH   6   7
ATOM      7  C   UNL     1      13.168   2.519  24.080  1.00  0.00     0.006 C 
BRANCH   7   8
ATOM      8  C   UNL     1      13.934   3.535  23.227  1.00  0.00     0.053 C 
BRANCH   8   9
ATOM      9  C   UNL     1      13.024   4.636  22.781  1.00  0.00     0.041 C 
ATOM     10  O   UNL     1      11.903   4.366  22.278  1.00  0.00    -0.550 OA
ATOM     11  O   UNL     1      13.436   5.959  22.874  1.00  0.00    -0.550 OA
ENDBRANCH   8   9
ENDBRANCH   7   8
ENDBRANCH   6   7
ENDBRANCH   5   6
ENDBRANCH   4   5
ENDBRANCH   3   4
ENDBRANCH   2   3
ENDBRANCH   1   2
BRANCH   1  12
ATOM     12  C   UNL     1      20.367   0.917  25.983  1.00  0.00     0.000 C 
BRANCH  12  13
ATOM     13  C   UNL     1      19.601   0.642  27.285  1.00  0.00    -0.000 C 
BRANCH  13  14
ATOM     14  C   UNL     1      19.082   1.946  27.903  1.00  0.00    -0.000 C 
BRANCH  14  15
ATOM     15  C   UNL     1      19.449   2.035  29.390  1.00  0.00    -0.000 C 
BRANCH  15  16
ATOM     16  C   UNL     1      19.452   3.491  29.870  1.00  0.00    -0.000 C 
BRANCH  16  17
ATOM     17  C   UNL     1      18.674   3.636  31.187  1.00  0.00    -0.000 C 
BRANCH  17  18
ATOM     18  C   UNL     1      17.326   4.358  31.012  1.00  0.00    -0.000 C 
BRANCH  18  19
ATOM     19  C   UNL     1      16.996   4.770  29.567  1.00  0.00    -0.003 C 
ATOM     20  C   UNL     1      15.497   4.927  29.316  1.00  0.00     0.004 C 
ENDBRANCH  18  19
ENDBRANCH  17  18
ENDBRANCH  16  17
ENDBRANCH  15  16
ENDBRANCH  14  15
ENDBRANCH  13  14
ENDBRANCH  12  13
ENDBRANCH   1  12
TORSDOF 16
ENDMDL
MODEL 3
REMARK VINA RESULT:     3.965      3.237      7.255
REMARK INTER + INTRA:           6.705
REMARK INTER:                   7.895
REMARK INTRA:                  -1.190
REMARK UNBOUND:                -0.969
REMARK SMILES CCCCCCCCCCCCCCCCCC(=O)[O-]
REMARK SMILES IDX 10 1 11 2 12 3 13 4 14 5 15 6 16 7 17 8 18 9 19 10 20 11
REMARK SMILES IDX 9 12 8 13 7 14 6 15 5 16 4 17 3 18 2 19 1 20
REMARK H PARENT
REMARK Flexibility Score: inf
ROOT
ATOM      1  C   UNL     1      17.587   1.269  25.161  1.00  0.00     0.000 C 
ENDROOT
BRANCH   1   2
ATOM      2  C   UNL     1      18.964   0.876  24.607  1.00  0.00     0.000 C 
BRANCH   2   3
ATOM      3  C   UNL     1      20.068   1.758  25.210  1.00  0.00     0.000 C 
BRANCH   3   4
ATOM      4  C   UNL     1      21.116   0.946  25.988  1.00  0.00     0.000 C 
BRANCH   4   5
ATOM      5  C   UNL     1      20.608   0.503  27.370  1.00  0.00     0.000 C 
BRANCH   5   6
ATOM      6  C   UNL     1      19.337   1.252  27.801  1.00  0.00     0.000 C 
BRANCH   6   7
ATOM      7  C   UNL     1      19.500   1.975  29.147  1.00  0.00     0.006 C 
BRANCH   7   8
ATOM      8  C   UNL     1      18.752   3.311  29.144  1.00  0.00     0.053 C 
BRANCH   8   9
ATOM      9  C   UNL     1      18.621   3.843  30.537  1.00  0.00     0.041 C 
ATOM     10  O   UNL     1      19.532   3.638  31.381  1.00  0.00    -0.550 OA
ATOM     11  O   UNL     1      17.471   4.521  30.918  1.00  0.00    -0.550 OA
ENDBRANCH   8   9
ENDBRANCH   7   8
ENDBRANCH   6   7
ENDBRANCH   5   6
ENDBRANCH   4   5
ENDBRANCH   3   4
ENDBRANCH   2   3
ENDBRANCH   1   2
BRANCH   1  12
ATOM     12  C   UNL     1      17.263   2.757  24.948  1.00  0.00     0.000 C 
BRANCH  12  13
ATOM     13  C   UNL     1      16.499   3.370  26.130  1.00  0.00    -0.000 C 
BRANCH  13  14
ATOM     14  C   UNL     1      15.039   3.650  25.756  1.00  0.00    -0.000 C 
BRANCH  14  15
ATOM     15  C   UNL     1      14.216   2.356  25.742  1.00  0.00    -0.000 C 
BRANCH  15  16
ATOM     16  C   UNL     1      13.237   2.339  24.562  1.00  0.00    -0.000 C 
BRANCH  16  17
ATOM     17  C   UNL     1      13.795   3.136  23.374  1.00  0.00    -0.000 C 
BRANCH  17  18
ATOM     18  C   UNL     1      12.775   4.128  22.784  1.00  0.00    -0.000 C 
BRANCH  18  19
ATOM     19  C   UNL     1      13.244   5.593  22.750  1.00  0.00    -0.003 C 
ATOM     20  C   UNL     1      13.125   6.291  24.105  1.00  0.00     0.004 C 
ENDBRANCH  18  19
ENDBRANCH  17  18
ENDBRANCH  16  17
ENDBRANCH  15  16
ENDBRANCH  14  15
ENDBRANCH  13  14
ENDBRANCH  12  13
ENDBRANCH   1  12
TORSDOF 16
ENDMDL
MODEL 4
REMARK VINA RESULT:     4.785      3.232      7.097
REMARK INTER + INTRA:           8.292
REMARK INTER:                   8.988
REMARK INTRA:                  -0.697
REMARK UNBOUND:                -0.969
REMARK SMILES CCCCCCCCCCCCCCCCCC(=O)[O-]
REMARK SMILES IDX 10 1 11 2 12 3 13 4 14 5 15 6 16 7 17 8 18 9 19 10 20 11
REMARK SMILES IDX 9 12 8 13 7 14 6 15 5 16 4 17 3 18 2 19 1 20
REMARK H PARENT
REMARK Flexibility Score: inf
ROOT
ATOM      1  C   UNL     1      17.362   4.999  30.345  1.00  0.00     0.000 C 
ENDROOT
BRANCH   1   2
ATOM      2  C   UNL     1      18.196   3.788  30.787  1.00  0.00     0.000 C 
BRANCH   2   3
ATOM      3  C   UNL     1      19.250   3.434  29.728  1.00  0.00     0.000 C 
BRANCH   3   4
ATOM      4  C   UNL     1      19.585   1.933  29.704  1.00  0.00     0.000 C 
BRANCH   4   5
ATOM      5  C   UNL     1      19.385   1.309  28.313  1.00  0.00     0.000 C 
BRANCH   5   6
ATOM      6  C   UNL     1      18.599   2.225  27.361  1.00  0.00     0.000 C 
BRANCH   6   7
ATOM      7  C   UNL     1      18.640   1.745  25.902  1.00  0.00     0.006 C 
BRANCH   7   8
ATOM      8  C   UNL     1      19.705   0.660  25.713  1.00  0.00     0.053 C 
BRANCH   8   9
ATOM      9  C   UNL     1      21.063   1.274  25.585  1.00  0.00     0.041 C 
ATOM     10  O   UNL     1      21.183   2.481  25.250  1.00  0.00    -0.550 OA
ATOM     11  O   UNL     1      22.198   0.500  25.787  1.00  0.00    -0.550 OA
ENDBRANCH   8   9
ENDBRANCH   7   8
ENDBRANCH   6   7
ENDBRANCH   5   6
ENDBRANCH   4   5
ENDBRANCH   3   4
ENDBRANCH   2   3
ENDBRANCH   1   2
BRANCH   1  12
ATOM     12  C   UNL     1      16.077   4.596  29.603  1.00  0.00     0.000 C 
BRANCH  12  13
ATOM     13  C   UNL     1      16.059   5.082  28.147  1.00  0.00    -0.000 C 
BRANCH  13  14
ATOM     14  C   UNL     1      15.395   4.048  27.230  1.00  0.00    -0.000 C 
BRANCH  14  15
ATOM     15  C   UNL     1      16.241   3.801  25.974  1.00  0.00    -0.000 C 
BRANCH  15  16
ATOM     16  C   UNL     1      15.579   2.767  25.057  1.00  0.00    -0.000 C 
BRANCH  16  17
ATOM     17  C   UNL     1      14.169   2.414  25.556  1.00  0.00    -0.000 C 
BRANCH  17  18
ATOM     18  C   UNL     1      13.096   2.534  24.459  1.00  0.00    -0.000 C 
BRANCH  18  19
ATOM     19  C   UNL     1      13.568   3.222  23.166  1.00  0.00    -0.003 C 
ATOM     20  C   UNL     1      12.995   4.627  22.991  1.00  0.00     0.004 C 
ENDBRANCH  18  19
ENDBRANCH  17  18
ENDBRANCH  16  17
ENDBRANCH  15  16
ENDBRANCH  14  15
ENDBRANCH  13  14
ENDBRANCH  12  13
ENDBRANCH   1  12
TORSDOF 16
ENDMDL
MODEL 5
REMARK VINA RESULT:     5.091      0.831      3.908
REMARK INTER + INTRA:           8.883
REMARK INTER:                  10.255
REMARK INTRA:                  -1.372
REMARK UNBOUND:                -0.969
REMARK SMILES CCCCCCCCCCCCCCCCCC(=O)[O-]
REMARK SMILES IDX 10 1 11 2 12 3 13 4 14 5 15 6 16 7 17 8 18 9 19 10 20 11
REMARK SMILES IDX 9 12 8 13 7 14 6 15 5 16 4 17 3 18 2 19 1 20
REMARK H PARENT
REMARK Flexibility Score: inf
ROOT
ATOM      1  C   UNL     1      17.030   4.718  29.083  1.00  0.00     0.000 C 
ENDROOT
BRANCH   1   2
ATOM      2  C   UNL     1      15.573   4.610  28.612  1.00  0.00     0.000 C 
BRANCH   2   3
ATOM      3  C   UNL     1      15.491   4.625  27.078  1.00  0.00     0.000 C 
BRANCH   3   4
ATOM      4  C   UNL     1      16.491   3.659  26.421  1.00  0.00     0.000 C 
BRANCH   4   5
ATOM      5  C   UNL     1      15.830   2.760  25.364  1.00  0.00     0.000 C 
BRANCH   5   6
ATOM      6  C   UNL     1      14.385   2.382  25.728  1.00  0.00     0.000 C 
BRANCH   6   7
ATOM      7  C   UNL     1      13.385   2.702  24.606  1.00  0.00     0.006 C 
BRANCH   7   8
ATOM      8  C   UNL     1      14.066   3.467  23.468  1.00  0.00     0.053 C 
BRANCH   8   9
ATOM      9  C   UNL     1      13.123   4.458  22.863  1.00  0.00     0.041 C 
ATOM     10  O   UNL     1      12.053   4.067  22.326  1.00  0.00    -0.550 OA
ATOM     11  O   UNL     1      13.447   5.807  22.847  1.00  0.00    -0.550 OA
ENDBRANCH   8   9
ENDBRANCH   7   8
ENDBRANCH   6   7
ENDBRANCH   5   6
ENDBRANCH   4   5
ENDBRANCH   3   4
ENDBRANCH   2   3
ENDBRANCH   1   2
BRANCH   1  12
ATOM     12  C   UNL     1      17.185   4.482  30.594  1.00  0.00     0.000 C 
BRANCH  12  13
ATOM     13  C   UNL     1      18.541   3.860  30.959  1.00  0.00    -0.000 C 
BRANCH  13  14
ATOM     14  C   UNL     1      19.278   3.374  29.706  1.00  0.00    -0.000 C 
BRANCH  14  15
ATOM     15  C   UNL     1      19.756   1.926  29.876  1.00  0.00    -0.000 C 
BRANCH  15  16
ATOM     16  C   UNL     1      19.463   1.098  28.619  1.00  0.00    -0.000 C 
BRANCH  16  17
ATOM     17  C   UNL     1      19.027   2.002  27.456  1.00  0.00    -0.000 C 
BRANCH  17  18
ATOM     18  C   UNL     1      19.000   1.268  26.103  1.00  0.00    -0.000 C 
BRANCH  18  19
ATOM     19  C   UNL     1      20.259   1.461  25.239  1.00  0.00    -0.003 C 
ATOM     20  C   UNL     1      21.438   0.605  25.699  1.00  0.00     0.004 C 
ENDBRANCH  18  19
ENDBRANCH  17  18
ENDBRANCH  16  17
ENDBRANCH  15  16
ENDBRANCH  14  15
ENDBRANCH  13  14
ENDBRANCH  12  13
ENDBRANCH   1  12
TORSDOF 16
ENDMDL
MODEL 6
REMARK VINA RESULT:     5.771      1.251      4.379
REMARK INTER + INTRA:          10.200
REMARK INTER:                  10.776
REMARK INTRA:                  -0.576
REMARK UNBOUND:                -0.969
REMARK SMILES CCCCCCCCCCCCCCCCCC(=O)[O-]
REMARK SMILES IDX 10 1 11 2 12 3 13 4 14 5 15 6 16 7 17 8 18 9 19 10 20 11
REMARK SMILES IDX 9 12 8 13 7 14 6 15 5 16 4 17 3 18 2 19 1 20
REMARK H PARENT
REMARK Flexibility Score: inf
ROOT
ATOM      1  C   UNL     1      18.130   3.694  30.739  1.00  0.00     0.000 C 
ENDROOT
BRANCH   1   2
ATOM      2  C   UNL     1      17.324   4.907  30.251  1.00  0.00     0.000 C 
BRANCH   2   3
ATOM      3  C   UNL     1      16.069   4.458  29.487  1.00  0.00     0.000 C 
BRANCH   3   4
ATOM      4  C   UNL     1      15.834   5.271  28.204  1.00  0.00     0.000 C 
BRANCH   4   5
ATOM      5  C   UNL     1      16.116   4.456  26.931  1.00  0.00     0.000 C 
BRANCH   5   6
ATOM      6  C   UNL     1      15.027   3.409  26.646  1.00  0.00     0.000 C 
BRANCH   6   7
ATOM      7  C   UNL     1      14.996   2.967  25.175  1.00  0.00     0.006 C 
BRANCH   7   8
ATOM      8  C   UNL     1      13.556   2.876  24.662  1.00  0.00     0.053 C 
BRANCH   8   9
ATOM      9  C   UNL     1      13.447   3.477  23.296  1.00  0.00     0.041 C 
ATOM     10  O   UNL     1      13.771   2.806  22.282  1.00  0.00    -0.550 OA
ATOM     11  O   UNL     1      13.035   4.794  23.146  1.00  0.00    -0.550 OA
ENDBRANCH   8   9
ENDBRANCH   7   8
ENDBRANCH   6   7
ENDBRANCH   5   6
ENDBRANCH   4   5
ENDBRANCH   3   4
ENDBRANCH   2   3
ENDBRANCH   1   2
BRANCH   1  12
ATOM     12  C   UNL     1      19.295   3.339  29.800  1.00  0.00     0.000 C 
BRANCH  12  13
ATOM     13  C   UNL     1      19.393   1.832  29.526  1.00  0.00    -0.000 C 
BRANCH  13  14
ATOM     14  C   UNL     1      19.192   1.529  28.036  1.00  0.00    -0.000 C 
BRANCH  14  15
ATOM     15  C   UNL     1      18.743   2.782  27.275  1.00  0.00    -0.000 C 
BRANCH  15  16
ATOM     16  C   UNL     1      18.381   2.446  25.824  1.00  0.00    -0.000 C 
BRANCH  16  17
ATOM     17  C   UNL     1      18.624   0.958  25.529  1.00  0.00    -0.000 C 
BRANCH  17  18
ATOM     18  C   UNL     1      19.989   0.691  24.868  1.00  0.00    -0.000 C 
BRANCH  18  19
ATOM     19  C   UNL     1      21.191   1.318  25.594  1.00  0.00    -0.003 C 
ATOM     20  C   UNL     1      22.203   0.282  26.083  1.00  0.00     0.004 C 
ENDBRANCH  18  19
ENDBRANCH  17  18
ENDBRANCH  16  17
ENDBRANCH  15  16
ENDBRANCH  14  15
ENDBRANCH  13  14
ENDBRANCH  12  13
ENDBRANCH   1  12
TORSDOF 16
ENDMDL
MODEL 7
REMARK VINA RESULT:     6.059      2.415      6.744
REMARK INTER + INTRA:          10.758
REMARK INTER:                  12.047
REMARK INTRA:                  -1.289
REMARK UNBOUND:                -0.969
REMARK SMILES CCCCCCCCCCCCCCCCCC(=O)[O-]
REMARK SMILES IDX 10 1 11 2 12 3 13 4 14 5 15 6 16 7 17 8 18 9 19 10 20 11
REMARK SMILES IDX 9 12 8 13 7 14 6 15 5 16 4 17 3 18 2 19 1 20
REMARK H PARENT
REMARK Flexibility Score: inf
ROOT
ATOM      1  C   UNL     1      15.858   4.707  29.862  1.00  0.00     0.000 C 
ENDROOT
BRANCH   1   2
ATOM      2  C   UNL     1      17.135   4.750  30.714  1.00  0.00     0.000 C 
BRANCH   2   3
ATOM      3  C   UNL     1      18.352   4.284  29.901  1.00  0.00     0.000 C 
BRANCH   3   4
ATOM      4  C   UNL     1      19.143   3.169  30.604  1.00  0.00     0.000 C 
BRANCH   4   5
ATOM      5  C   UNL     1      19.598   2.069  29.632  1.00  0.00     0.000 C 
BRANCH   5   6
ATOM      6  C   UNL     1      19.013   2.247  28.221  1.00  0.00     0.000 C 
BRANCH   6   7
ATOM      7  C   UNL     1      19.454   1.142  27.249  1.00  0.00     0.006 C 
BRANCH   7   8
ATOM      8  C   UNL     1      19.432   1.644  25.803  1.00  0.00     0.053 C 
BRANCH   8   9
ATOM      9  C   UNL     1      18.252   1.087  25.072  1.00  0.00     0.041 C 
ATOM     10  O   UNL     1      17.282   0.603  25.711  1.00  0.00    -0.550 OA
ATOM     11  O   UNL     1      18.244   1.056  23.684  1.00  0.00    -0.550 OA
ENDBRANCH   8   9
ENDBRANCH   7   8
ENDBRANCH   6   7
ENDBRANCH   5   6
ENDBRANCH   4   5
ENDBRANCH   3   4
ENDBRANCH   2   3
ENDBRANCH   1   2
BRANCH   1  12
ATOM     12  C   UNL     1      16.118   5.046  28.385  1.00  0.00     0.000 C 
BRANCH  12  13
ATOM     13  C   UNL     1      15.495   4.022  27.426  1.00  0.00    -0.000 C 
BRANCH  13  14
ATOM     14  C   UNL     1      16.324   3.895  26.142  1.00  0.00    -0.000 C 
BRANCH  14  15
ATOM     15  C   UNL     1      15.624   2.988  25.122  1.00  0.00    -0.000 C 
BRANCH  15  16
ATOM     16  C   UNL     1      14.264   2.514  25.648  1.00  0.00    -0.000 C 
BRANCH  16  17
ATOM     17  C   UNL     1      13.189   2.614  24.556  1.00  0.00    -0.000 C 
BRANCH  17  18
ATOM     18  C   UNL     1      13.722   3.212  23.241  1.00  0.00    -0.000 C 
BRANCH  18  19
ATOM     19  C   UNL     1      12.933   4.425  22.717  1.00  0.00    -0.003 C 
ATOM     20  C   UNL     1      13.240   5.714  23.479  1.00  0.00     0.004 C 
ENDBRANCH  18  19
ENDBRANCH  17  18
ENDBRANCH  16  17
ENDBRANCH  15  16
ENDBRANCH  14  15
ENDBRANCH  13  14
ENDBRANCH  12  13
ENDBRANCH   1  12
TORSDOF 16
ENDMDL
