MODEL 1
REMARK VINA RESULT:    -5.142      0.000      0.000
REMARK INTER + INTRA:         -11.256
REMARK INTER:                  -9.651
REMARK INTRA:                  -1.605
REMARK UNBOUND:                -1.605
REMARK SMILES CCCCCCCCC=CCCCCCCCC(=O)[O-]
REMARK SMILES IDX 10 1 9 2 11 3 12 4 13 5 14 6 15 7 16 8 17 9 18 10 19 11
REMARK SMILES IDX 20 12 8 13 7 14 6 15 5 16 4 17 3 18 2 19 1 20
REMARK H PARENT
REMARK Flexibility Score: inf
ROOT
ATOM      1  C   UNL     1      -5.193  23.541  49.299  1.00  0.00    -0.031 C 
ATOM      2  C   UNL     1      -4.262  23.770  50.236  1.00  0.00    -0.031 C 
ENDROOT
BRANCH   1   3
ATOM      3  C   UNL     1      -4.824  23.086  47.912  1.00  0.00     0.027 C 
BRANCH   3   4
ATOM      4  C   UNL     1      -5.046  21.579  47.716  1.00  0.00     0.004 C 
BRANCH   4   5
ATOM      5  C   UNL     1      -4.003  20.740  48.475  1.00  0.00     0.000 C 
BRANCH   5   6
ATOM      6  C   UNL     1      -4.288  19.228  48.410  1.00  0.00     0.000 C 
BRANCH   6   7
ATOM      7  C   UNL     1      -3.130  18.327  48.876  1.00  0.00     0.000 C 
BRANCH   7   8
ATOM      8  C   UNL     1      -2.738  17.267  47.835  1.00  0.00     0.006 C 
BRANCH   8   9
ATOM      9  C   UNL     1      -2.487  17.907  46.467  1.00  0.00     0.053 C 
BRANCH   9  10
ATOM     10  C   UNL     1      -1.210  18.685  46.475  1.00  0.00     0.041 C 
ATOM     11  O   UNL     1      -0.104  18.085  46.535  1.00  0.00    -0.550 OA
ATOM     12  O   UNL     1      -1.238  20.070  46.371  1.00  0.00    -0.550 OA
ENDBRANCH   9  10
ENDBRANCH   8   9
ENDBRANCH   7   8
ENDBRANCH   6   7
ENDBRANCH   5   6
ENDBRANCH   4   5
ENDBRANCH   3   4
ENDBRANCH   1   3
BRANCH   2  13
ATOM     13  C   UNL     1      -4.632  24.250  51.615  1.00  0.00     0.027 C 
BRANCH  13  14
ATOM     14  C   UNL     1      -3.503  25.065  52.264  1.00  0.00     0.004 C 
BRANCH  14  15
ATOM     15  C   UNL     1      -4.040  26.215  53.133  1.00  0.00     0.000 C 
BRANCH  15  16
ATOM     16  C   UNL     1      -4.260  27.506  52.315  1.00  0.00     0.000 C 
BRANCH  16  17
ATOM     17  C   UNL     1      -3.680  27.436  50.888  1.00  0.00    -0.000 C 
BRANCH  17  18
ATOM     18  C   UNL     1      -4.726  27.501  49.762  1.00  0.00    -0.000 C 
BRANCH  18  19
ATOM     19  C   UNL     1      -6.168  27.522  50.290  1.00  0.00    -0.003 C 
ATOM     20  C   UNL     1      -7.047  26.548  49.511  1.00  0.00     0.004 C 
ENDBRANCH  18  19
ENDBRANCH  17  18
ENDBRANCH  16  17
ENDBRANCH  15  16
ENDBRANCH  14  15
ENDBRANCH  13  14
ENDBRANCH   2  13
TORSDOF 15
ENDMDL
MODEL 2
REMARK VINA RESULT:    -5.119      1.971      3.891
REMARK INTER + INTRA:         -11.214
REMARK INTER:                  -9.206
REMARK INTRA:                  -2.007
REMARK UNBOUND:                -1.605
REMARK SMILES CCCCCCCCC=CCCCCCCCC(=O)[O-]
REMARK SMILES IDX 10 1 9 2 11 3 12 4 13 5 14 6 15 7 16 8 17 9 18 10 19 11
REMARK SMILES IDX 20 12 8 13 7 14 6 15 5 16 4 17 3 18 2 19 1 20
REMARK H PARENT
REMARK Flexibility Score: inf
ROOT
ATOM      1  C   UNL     1      -4.632  24.480  51.818  1.00  0.00    -0.031 C 
ATOM      2  C   UNL     1      -3.873  25.569  52.015  1.00  0.00    -0.031 C 
ENDROOT
BRANCH   1   3
ATOM      3  C   UNL     1      -4.640  23.749  50.502  1.00  0.00     0.027 C 
BRANCH   3   4
ATOM      4  C   UNL     1      -5.588  24.397  49.482  1.00  0.00     0.004 C 
BRANCH   4   5
ATOM      5  C   UNL     1      -5.319  23.902  48.051  1.00  0.00     0.000 C 
BRANCH   5   6
ATOM      6  C   UNL     1      -5.662  22.413  47.858  1.00  0.00     0.000 C 
BRANCH   6   7
ATOM      7  C   UNL     1      -4.474  21.517  47.463  1.00  0.00     0.000 C 
BRANCH   7   8
ATOM      8  C   UNL     1      -3.963  20.652  48.625  1.00  0.00     0.006 C 
BRANCH   8   9
ATOM      9  C   UNL     1      -4.240  19.168  48.368  1.00  0.00     0.053 C 
BRANCH   9  10
ATOM     10  C   UNL     1      -2.987  18.462  47.954  1.00  0.00     0.041 C 
ATOM     11  O   UNL     1      -2.822  17.247  48.241  1.00  0.00    -0.550 OA
ATOM     12  O   UNL     1      -2.023  19.132  47.213  1.00  0.00    -0.550 OA
ENDBRANCH   9  10
ENDBRANCH   8   9
ENDBRANCH   7   8
ENDBRANCH   6   7
ENDBRANCH   5   6
ENDBRANCH   4   5
ENDBRANCH   3   4
ENDBRANCH   1   3
BRANCH   2  13
ATOM     13  C   UNL     1      -3.886  26.314  53.324  1.00  0.00     0.027 C 
BRANCH  13  14
ATOM     14  C   UNL     1      -2.494  26.369  53.970  1.00  0.00     0.004 C 
BRANCH  14  15
ATOM     15  C   UNL     1      -1.449  25.570  53.171  1.00  0.00     0.000 C 
BRANCH  15  16
ATOM     16  C   UNL     1      -1.201  24.172  53.777  1.00  0.00     0.000 C 
BRANCH  16  17
ATOM     17  C   UNL     1      -0.974  23.073  52.719  1.00  0.00    -0.000 C 
BRANCH  17  18
ATOM     18  C   UNL     1      -0.425  23.577  51.373  1.00  0.00    -0.000 C 
BRANCH  18  19
ATOM     19  C   UNL     1      -1.258  23.100  50.175  1.00  0.00    -0.003 C 
ATOM     20  C   UNL     1      -1.327  24.178  49.097  1.00  0.00     0.004 C 
ENDBRANCH  18  19
ENDBRANCH  17  18
ENDBRANCH  16  17
ENDBRANCH  15  16
ENDBRANCH  14  15
ENDBRANCH  13  14
ENDBRANCH   2  13
TORSDOF 15
ENDMDL
MODEL 3
REMARK VINA RESULT:    -5.117      1.523      3.032
REMARK INTER + INTRA:         -11.209
REMARK INTER:                  -9.983
REMARK INTRA:                  -1.226
REMARK UNBOUND:                -1.605
REMARK SMILES CCCCCCCCC=CCCCCCCCC(=O)[O-]
REMARK SMILES IDX 10 1 9 2 11 3 12 4 13 5 14 6 15 7 16 8 17 9 18 10 19 11
REMARK SMILES IDX 20 12 8 13 7 14 6 15 5 16 4 17 3 18 2 19 1 20
REMARK H PARENT
REMARK Flexibility Score: inf
ROOT
ATOM      1  C   UNL     1      -4.687  23.490  49.493  1.00  0.00    -0.031 C 
ATOM      2  C   UNL     1      -5.260  24.207  50.470  1.00  0.00    -0.031 C 
ENDROOT
BRANCH   1   3
ATOM      3  C   UNL     1      -5.394  23.221  48.191  1.00  0.00     0.027 C 
BRANCH   3   4
ATOM      4  C   UNL     1      -5.228  21.767  47.727  1.00  0.00     0.004 C 
BRANCH   4   5
ATOM      5  C   UNL     1      -4.075  21.058  48.457  1.00  0.00     0.000 C 
BRANCH   5   6
ATOM      6  C   UNL     1      -4.221  19.525  48.463  1.00  0.00     0.000 C 
BRANCH   6   7
ATOM      7  C   UNL     1      -3.010  18.757  49.024  1.00  0.00     0.000 C 
BRANCH   7   8
ATOM      8  C   UNL     1      -2.762  17.422  48.307  1.00  0.00     0.006 C 
BRANCH   8   9
ATOM      9  C   UNL     1      -2.207  17.649  46.899  1.00  0.00     0.053 C 
BRANCH   9  10
ATOM     10  C   UNL     1      -1.109  18.665  46.922  1.00  0.00     0.041 C 
ATOM     11  O   UNL     1      -1.284  19.796  46.397  1.00  0.00    -0.550 OA
ATOM     12  O   UNL     1       0.090  18.380  47.562  1.00  0.00    -0.550 OA
ENDBRANCH   9  10
ENDBRANCH   8   9
ENDBRANCH   7   8
ENDBRANCH   6   7
ENDBRANCH   5   6
ENDBRANCH   4   5
ENDBRANCH   3   4
ENDBRANCH   1   3
BRANCH   2  13
ATOM     13  C   UNL     1      -4.560  24.453  51.782  1.00  0.00     0.027 C 
BRANCH  13  14
ATOM     14  C   UNL     1      -4.042  25.894  51.899  1.00  0.00     0.004 C 
BRANCH  14  15
ATOM     15  C   UNL     1      -3.887  26.341  53.363  1.00  0.00     0.000 C 
BRANCH  15  16
ATOM     16  C   UNL     1      -2.425  26.239  53.848  1.00  0.00     0.000 C 
BRANCH  16  17
ATOM     17  C   UNL     1      -1.408  26.046  52.704  1.00  0.00    -0.000 C 
BRANCH  17  18
ATOM     18  C   UNL     1      -0.456  24.852  52.881  1.00  0.00    -0.000 C 
BRANCH  18  19
ATOM     19  C   UNL     1      -1.145  23.501  52.641  1.00  0.00    -0.003 C 
ATOM     20  C   UNL     1      -1.141  22.654  53.910  1.00  0.00     0.004 C 
ENDBRANCH  18  19
ENDBRANCH  17  18
ENDBRANCH  16  17
ENDBRANCH  15  16
ENDBRANCH  14  15
ENDBRANCH  13  14
ENDBRANCH   2  13
TORSDOF 15
ENDMDL
MODEL 4
REMARK VINA RESULT:    -5.101      3.980      8.184
REMARK INTER + INTRA:         -11.180
REMARK INTER:                  -9.101
REMARK INTRA:                  -2.079
REMARK UNBOUND:                -1.605
REMARK SMILES CCCCCCCCC=CCCCCCCCC(=O)[O-]
REMARK SMILES IDX 10 1 9 2 11 3 12 4 13 5 14 6 15 7 16 8 17 9 18 10 19 11
REMARK SMILES IDX 20 12 8 13 7 14 6 15 5 16 4 17 3 18 2 19 1 20
REMARK H PARENT
REMARK Flexibility Score: inf
ROOT
ATOM      1  C   UNL     1      -4.331  20.936  48.512  1.00  0.00    -0.031 C 
ATOM      2  C   UNL     1      -4.202  19.636  48.211  1.00  0.00    -0.031 C 
ENDROOT
BRANCH   1   3
ATOM      3  C   UNL     1      -5.178  21.860  47.677  1.00  0.00     0.027 C 
BRANCH   3   4
ATOM      4  C   UNL     1      -5.089  23.318  48.151  1.00  0.00     0.004 C 
BRANCH   4   5
ATOM      5  C   UNL     1      -4.442  23.433  49.542  1.00  0.00     0.000 C 
BRANCH   5   6
ATOM      6  C   UNL     1      -5.185  24.412  50.470  1.00  0.00     0.000 C 
BRANCH   6   7
ATOM      7  C   UNL     1      -6.495  24.985  49.898  1.00  0.00     0.000 C 
BRANCH   7   8
ATOM      8  C   UNL     1      -6.535  26.520  49.911  1.00  0.00     0.006 C 
BRANCH   8   9
ATOM      9  C   UNL     1      -7.718  27.046  49.095  1.00  0.00     0.053 C 
BRANCH   9  10
ATOM     10  C   UNL     1      -7.258  28.050  48.085  1.00  0.00     0.041 C 
ATOM     11  O   UNL     1      -7.839  28.139  46.971  1.00  0.00    -0.550 OA
ATOM     12  O   UNL     1      -6.216  28.916  48.390  1.00  0.00    -0.550 OA
ENDBRANCH   9  10
ENDBRANCH   8   9
ENDBRANCH   7   8
ENDBRANCH   6   7
ENDBRANCH   5   6
ENDBRANCH   4   5
ENDBRANCH   3   4
ENDBRANCH   1   3
BRANCH   2  13
ATOM     13  C   UNL     1      -3.334  18.719  49.033  1.00  0.00     0.027 C 
BRANCH  13  14
ATOM     14  C   UNL     1      -2.572  17.710  48.160  1.00  0.00     0.004 C 
BRANCH  14  15
ATOM     15  C   UNL     1      -1.920  18.376  46.935  1.00  0.00     0.000 C 
BRANCH  15  16
ATOM     16  C   UNL     1      -0.440  18.734  47.189  1.00  0.00     0.000 C 
BRANCH  16  17
ATOM     17  C   UNL     1      -0.136  20.238  47.036  1.00  0.00    -0.000 C 
BRANCH  17  18
ATOM     18  C   UNL     1      -1.262  21.063  46.390  1.00  0.00    -0.000 C 
BRANCH  18  19
ATOM     19  C   UNL     1      -1.401  22.463  47.002  1.00  0.00    -0.003 C 
ATOM     20  C   UNL     1      -0.954  22.467  48.461  1.00  0.00     0.004 C 
ENDBRANCH  18  19
ENDBRANCH  17  18
ENDBRANCH  16  17
ENDBRANCH  15  16
ENDBRANCH  14  15
ENDBRANCH  13  14
ENDBRANCH   2  13
TORSDOF 15
ENDMDL
MODEL 5
REMARK VINA RESULT:    -5.073      3.286      8.140
REMARK INTER + INTRA:         -11.128
REMARK INTER:                  -9.281
REMARK INTRA:                  -1.846
REMARK UNBOUND:                -1.605
REMARK SMILES CCCCCCCCC=CCCCCCCCC(=O)[O-]
REMARK SMILES IDX 10 1 9 2 11 3 12 4 13 5 14 6 15 7 16 8 17 9 18 10 19 11
REMARK SMILES IDX 20 12 8 13 7 14 6 15 5 16 4 17 3 18 2 19 1 20
REMARK H PARENT
REMARK Flexibility Score: inf
ROOT
ATOM      1  C   UNL     1      -3.839  21.231  48.704  1.00  0.00    -0.031 C 
ATOM      2  C   UNL     1      -4.589  20.301  48.094  1.00  0.00    -0.031 C 
ENDROOT
BRANCH   1   3
ATOM      3  C   UNL     1      -3.919  22.685  48.323  1.00  0.00     0.027 C 
BRANCH   3   4
ATOM      4  C   UNL     1      -5.351  23.118  47.975  1.00  0.00     0.004 C 
BRANCH   4   5
ATOM      5  C   UNL     1      -5.871  24.206  48.931  1.00  0.00     0.000 C 
BRANCH   5   6
ATOM      6  C   UNL     1      -4.783  24.740  49.881  1.00  0.00     0.000 C 
BRANCH   6   7
ATOM      7  C   UNL     1      -4.991  24.396  51.367  1.00  0.00     0.000 C 
BRANCH   7   8
ATOM      8  C   UNL     1      -3.684  24.406  52.173  1.00  0.00     0.006 C 
BRANCH   8   9
ATOM      9  C   UNL     1      -3.548  25.698  52.984  1.00  0.00     0.053 C 
BRANCH   9  10
ATOM     10  C   UNL     1      -2.212  26.330  52.750  1.00  0.00     0.041 C 
ATOM     11  O   UNL     1      -1.413  26.493  53.709  1.00  0.00    -0.550 OA
ATOM     12  O   UNL     1      -1.832  26.698  51.466  1.00  0.00    -0.550 OA
ENDBRANCH   9  10
ENDBRANCH   8   9
ENDBRANCH   7   8
ENDBRANCH   6   7
ENDBRANCH   5   6
ENDBRANCH   4   5
ENDBRANCH   3   4
ENDBRANCH   1   3
BRANCH   2  13
ATOM     13  C   UNL     1      -4.488  18.843  48.459  1.00  0.00     0.027 C 
BRANCH  13  14
ATOM     14  C   UNL     1      -3.172  18.519  49.182  1.00  0.00     0.004 C 
BRANCH  14  15
ATOM     15  C   UNL     1      -2.382  17.400  48.480  1.00  0.00     0.000 C 
BRANCH  15  16
ATOM     16  C   UNL     1      -2.711  17.316  46.974  1.00  0.00     0.000 C 
BRANCH  16  17
ATOM     17  C   UNL     1      -1.755  18.141  46.088  1.00  0.00    -0.000 C 
BRANCH  17  18
ATOM     18  C   UNL     1      -0.377  18.419  46.710  1.00  0.00    -0.000 C 
BRANCH  18  19
ATOM     19  C   UNL     1      -0.168  19.900  47.055  1.00  0.00    -0.003 C 
ATOM     20  C   UNL     1      -1.215  20.773  46.369  1.00  0.00     0.004 C 
ENDBRANCH  18  19
ENDBRANCH  17  18
ENDBRANCH  16  17
ENDBRANCH  15  16
ENDBRANCH  14  15
ENDBRANCH  13  14
ENDBRANCH   2  13
TORSDOF 15
ENDMDL
MODEL 6
REMARK VINA RESULT:    -5.063      1.861      4.206
REMARK INTER + INTRA:         -11.109
REMARK INTER:                  -9.325
REMARK INTRA:                  -1.784
REMARK UNBOUND:                -1.605
REMARK SMILES CCCCCCCCC=CCCCCCCCC(=O)[O-]
REMARK SMILES IDX 10 1 9 2 11 3 12 4 13 5 14 6 15 7 16 8 17 9 18 10 19 11
REMARK SMILES IDX 20 12 8 13 7 14 6 15 5 16 4 17 3 18 2 19 1 20
REMARK H PARENT
REMARK Flexibility Score: inf
ROOT
ATOM      1  C   UNL     1      -3.699  20.221  48.800  1.00  0.00    -0.031 C 
ATOM      2  C   UNL     1      -4.693  20.603  47.984  1.00  0.00    -0.031 C 
ENDROOT
BRANCH   1   3
ATOM      3  C   UNL     1      -3.337  18.771  48.978  1.00  0.00     0.027 C 
BRANCH   3   4
ATOM      4  C   UNL     1      -3.346  18.001  47.650  1.00  0.00     0.004 C 
BRANCH   4   5
ATOM      5  C   UNL     1      -1.990  17.334  47.362  1.00  0.00     0.000 C 
BRANCH   5   6
ATOM      6  C   UNL     1      -1.071  18.200  46.480  1.00  0.00     0.000 C 
BRANCH   6   7
ATOM      7  C   UNL     1       0.049  18.938  47.235  1.00  0.00     0.000 C 
BRANCH   7   8
ATOM      8  C   UNL     1       0.263  20.375  46.735  1.00  0.00     0.006 C 
BRANCH   8   9
ATOM      9  C   UNL     1      -0.722  21.340  47.401  1.00  0.00     0.053 C 
BRANCH   9  10
ATOM     10  C   UNL     1      -1.552  22.039  46.371  1.00  0.00     0.041 C 
ATOM     11  O   UNL     1      -2.317  21.378  45.621  1.00  0.00    -0.550 OA
ATOM     12  O   UNL     1      -1.515  23.424  46.270  1.00  0.00    -0.550 OA
ENDBRANCH   9  10
ENDBRANCH   8   9
ENDBRANCH   7   8
ENDBRANCH   6   7
ENDBRANCH   5   6
ENDBRANCH   4   5
ENDBRANCH   3   4
ENDBRANCH   1   3
BRANCH   2  13
ATOM     13  C   UNL     1      -5.071  22.054  47.827  1.00  0.00     0.027 C 
BRANCH  13  14
ATOM     14  C   UNL     1      -4.419  22.939  48.900  1.00  0.00     0.004 C 
BRANCH  14  15
ATOM     15  C   UNL     1      -5.055  24.338  48.966  1.00  0.00     0.000 C 
BRANCH  15  16
ATOM     16  C   UNL     1      -5.708  24.615  50.337  1.00  0.00     0.000 C 
BRANCH  16  17
ATOM     17  C   UNL     1      -4.903  24.052  51.527  1.00  0.00    -0.000 C 
BRANCH  17  18
ATOM     18  C   UNL     1      -4.077  25.095  52.298  1.00  0.00    -0.000 C 
BRANCH  18  19
ATOM     19  C   UNL     1      -2.617  24.666  52.501  1.00  0.00    -0.003 C 
ATOM     20  C   UNL     1      -1.918  25.572  53.511  1.00  0.00     0.004 C 
ENDBRANCH  18  19
ENDBRANCH  17  18
ENDBRANCH  16  17
ENDBRANCH  15  16
ENDBRANCH  14  15
ENDBRANCH  13  14
ENDBRANCH   2  13
TORSDOF 15
ENDMDL
MODEL 7
REMARK VINA RESULT:    -5.055      3.247      8.365
REMARK INTER + INTRA:         -11.093
REMARK INTER:                  -9.241
REMARK INTRA:                  -1.852
REMARK UNBOUND:                -1.605
REMARK SMILES CCCCCCCCC=CCCCCCCCC(=O)[O-]
REMARK SMILES IDX 10 1 9 2 11 3 12 4 13 5 14 6 15 7 16 8 17 9 18 10 19 11
REMARK SMILES IDX 20 12 8 13 7 14 6 15 5 16 4 17 3 18 2 19 1 20
REMARK H PARENT
REMARK Flexibility Score: inf
ROOT
ATOM      1  C   UNL     1      -4.943  24.037  50.478  1.00  0.00    -0.031 C 
ATOM      2  C   UNL     1      -4.034  24.241  49.514  1.00  0.00    -0.031 C 
ENDROOT
BRANCH   1   3
ATOM      3  C   UNL     1      -4.643  24.333  51.923  1.00  0.00     0.027 C 
BRANCH   3   4
ATOM      4  C   UNL     1      -3.147  24.575  52.169  1.00  0.00     0.004 C 
BRANCH   4   5
ATOM      5  C   UNL     1      -2.901  25.816  53.045  1.00  0.00     0.000 C 
BRANCH   5   6
ATOM      6  C   UNL     1      -4.021  26.866  52.925  1.00  0.00     0.000 C 
BRANCH   6   7
ATOM      7  C   UNL     1      -3.693  28.069  52.022  1.00  0.00     0.000 C 
BRANCH   7   8
ATOM      8  C   UNL     1      -3.773  27.735  50.525  1.00  0.00     0.006 C 
BRANCH   8   9
ATOM      9  C   UNL     1      -4.955  28.451  49.865  1.00  0.00     0.053 C 
BRANCH   9  10
ATOM     10  C   UNL     1      -6.038  27.478  49.523  1.00  0.00     0.041 C 
ATOM     11  O   UNL     1      -6.821  27.063  50.418  1.00  0.00    -0.550 OA
ATOM     12  O   UNL     1      -6.211  27.062  48.210  1.00  0.00    -0.550 OA
ENDBRANCH   9  10
ENDBRANCH   8   9
ENDBRANCH   7   8
ENDBRANCH   6   7
ENDBRANCH   5   6
ENDBRANCH   4   5
ENDBRANCH   3   4
ENDBRANCH   1   3
BRANCH   2  13
ATOM     13  C   UNL     1      -4.328  23.920  48.071  1.00  0.00     0.027 C 
BRANCH  13  14
ATOM     14  C   UNL     1      -5.404  22.833  47.930  1.00  0.00     0.004 C 
BRANCH  14  15
ATOM     15  C   UNL     1      -4.826  21.505  47.410  1.00  0.00     0.000 C 
BRANCH  15  16
ATOM     16  C   UNL     1      -4.192  20.667  48.540  1.00  0.00     0.000 C 
BRANCH  16  17
ATOM     17  C   UNL     1      -4.415  19.149  48.381  1.00  0.00    -0.000 C 
BRANCH  17  18
ATOM     18  C   UNL     1      -3.279  18.269  48.929  1.00  0.00    -0.000 C 
BRANCH  18  19
ATOM     19  C   UNL     1      -2.353  17.737  47.826  1.00  0.00    -0.003 C 
ATOM     20  C   UNL     1      -3.094  17.634  46.496  1.00  0.00     0.004 C 
ENDBRANCH  18  19
ENDBRANCH  17  18
ENDBRANCH  16  17
ENDBRANCH  15  16
ENDBRANCH  14  15
ENDBRANCH  13  14
ENDBRANCH   2  13
TORSDOF 15
ENDMDL
MODEL 8
REMARK VINA RESULT:    -4.996      4.356      8.959
REMARK INTER + INTRA:         -10.982
REMARK INTER:                  -9.485
REMARK INTRA:                  -1.497
REMARK UNBOUND:                -1.605
REMARK SMILES CCCCCCCCC=CCCCCCCCC(=O)[O-]
REMARK SMILES IDX 10 1 9 2 11 3 12 4 13 5 14 6 15 7 16 8 17 9 18 10 19 11
REMARK SMILES IDX 20 12 8 13 7 14 6 15 5 16 4 17 3 18 2 19 1 20
REMARK H PARENT
REMARK Flexibility Score: inf
ROOT
ATOM      1  C   UNL     1      -5.151  21.800  47.731  1.00  0.00    -0.031 C 
ATOM      2  C   UNL     1      -4.380  20.977  48.456  1.00  0.00    -0.031 C 
ENDROOT
BRANCH   1   3
ATOM      3  C   UNL     1      -5.289  23.260  48.073  1.00  0.00     0.027 C 
BRANCH   3   4
ATOM      4  C   UNL     1      -4.505  23.639  49.338  1.00  0.00     0.004 C 
BRANCH   4   5
ATOM      5  C   UNL     1      -5.393  24.346  50.375  1.00  0.00     0.000 C 
BRANCH   5   6
ATOM      6  C   UNL     1      -6.596  25.068  49.741  1.00  0.00     0.000 C 
BRANCH   6   7
ATOM      7  C   UNL     1      -6.395  26.575  49.493  1.00  0.00     0.000 C 
BRANCH   7   8
ATOM      8  C   UNL     1      -6.695  26.989  48.045  1.00  0.00     0.006 C 
BRANCH   8   9
ATOM      9  C   UNL     1      -7.112  28.460  47.969  1.00  0.00     0.053 C 
BRANCH   9  10
ATOM     10  C   UNL     1      -8.403  28.605  47.228  1.00  0.00     0.041 C 
ATOM     11  O   UNL     1      -8.437  29.224  46.132  1.00  0.00    -0.550 OA
ATOM     12  O   UNL     1      -9.560  28.019  47.724  1.00  0.00    -0.550 OA
ENDBRANCH   9  10
ENDBRANCH   8   9
ENDBRANCH   7   8
ENDBRANCH   6   7
ENDBRANCH   5   6
ENDBRANCH   4   5
ENDBRANCH   3   4
ENDBRANCH   1   3
BRANCH   2  13
ATOM     13  C   UNL     1      -4.264  19.511  48.128  1.00  0.00     0.027 C 
BRANCH  13  14
ATOM     14  C   UNL     1      -3.418  18.753  49.162  1.00  0.00     0.004 C 
BRANCH  14  15
ATOM     15  C   UNL     1      -2.586  17.628  48.522  1.00  0.00     0.000 C 
BRANCH  15  16
ATOM     16  C   UNL     1      -2.700  17.627  46.982  1.00  0.00     0.000 C 
BRANCH  16  17
ATOM     17  C   UNL     1      -1.399  18.047  46.268  1.00  0.00    -0.000 C 
BRANCH  17  18
ATOM     18  C   UNL     1      -0.268  18.506  47.204  1.00  0.00    -0.000 C 
BRANCH  18  19
ATOM     19  C   UNL     1       0.209  19.934  46.905  1.00  0.00    -0.003 C 
ATOM     20  C   UNL     1      -0.976  20.868  46.678  1.00  0.00     0.004 C 
ENDBRANCH  18  19
ENDBRANCH  17  18
ENDBRANCH  16  17
ENDBRANCH  15  16
ENDBRANCH  14  15
ENDBRANCH  13  14
ENDBRANCH   2  13
TORSDOF 15
ENDMDL
MODEL 9
REMARK VINA RESULT:    -4.963      3.458      8.258
REMARK INTER + INTRA:         -10.920
REMARK INTER:                  -9.251
REMARK INTRA:                  -1.668
REMARK UNBOUND:                -1.605
REMARK SMILES CCCCCCCCC=CCCCCCCCC(=O)[O-]
REMARK SMILES IDX 10 1 9 2 11 3 12 4 13 5 14 6 15 7 16 8 17 9 18 10 19 11
REMARK SMILES IDX 20 12 8 13 7 14 6 15 5 16 4 17 3 18 2 19 1 20
REMARK H PARENT
REMARK Flexibility Score: inf
ROOT
ATOM      1  C   UNL     1      -1.640  23.482  49.937  1.00  0.00    -0.031 C 
ATOM      2  C   UNL     1      -2.144  22.283  49.610  1.00  0.00    -0.031 C 
ENDROOT
BRANCH   1   3
ATOM      3  C   UNL     1      -0.910  23.705  51.235  1.00  0.00     0.027 C 
BRANCH   3   4
ATOM      4  C   UNL     1      -1.868  23.830  52.428  1.00  0.00     0.004 C 
BRANCH   4   5
ATOM      5  C   UNL     1      -2.345  25.278  52.634  1.00  0.00     0.000 C 
BRANCH   5   6
ATOM      6  C   UNL     1      -3.879  25.409  52.637  1.00  0.00     0.000 C 
BRANCH   6   7
ATOM      7  C   UNL     1      -4.624  24.362  51.788  1.00  0.00     0.000 C 
BRANCH   7   8
ATOM      8  C   UNL     1      -4.844  24.812  50.337  1.00  0.00     0.006 C 
BRANCH   8   9
ATOM      9  C   UNL     1      -6.336  24.950  50.024  1.00  0.00     0.053 C 
BRANCH   9  10
ATOM     10  C   UNL     1      -6.669  26.359  49.650  1.00  0.00     0.041 C 
ATOM     11  O   UNL     1      -6.645  27.268  50.522  1.00  0.00    -0.550 OA
ATOM     12  O   UNL     1      -6.962  26.678  48.331  1.00  0.00    -0.550 OA
ENDBRANCH   9  10
ENDBRANCH   8   9
ENDBRANCH   7   8
ENDBRANCH   6   7
ENDBRANCH   5   6
ENDBRANCH   4   5
ENDBRANCH   3   4
ENDBRANCH   1   3
BRANCH   2  13
ATOM     13  C   UNL     1      -2.897  22.069  48.322  1.00  0.00     0.027 C 
BRANCH  13  14
ATOM     14  C   UNL     1      -4.217  21.315  48.545  1.00  0.00     0.004 C 
BRANCH  14  15
ATOM     15  C   UNL     1      -4.158  19.870  48.017  1.00  0.00     0.000 C 
BRANCH  15  16
ATOM     16  C   UNL     1      -3.480  18.913  49.022  1.00  0.00     0.000 C 
BRANCH  16  17
ATOM     17  C   UNL     1      -2.864  17.663  48.361  1.00  0.00    -0.000 C 
BRANCH  17  18
ATOM     18  C   UNL     1      -1.745  17.954  47.348  1.00  0.00    -0.000 C 
BRANCH  18  19
ATOM     19  C   UNL     1      -1.865  17.110  46.071  1.00  0.00    -0.003 C 
ATOM     20  C   UNL     1      -3.239  17.285  45.429  1.00  0.00     0.004 C 
ENDBRANCH  18  19
ENDBRANCH  17  18
ENDBRANCH  16  17
ENDBRANCH  15  16
ENDBRANCH  14  15
ENDBRANCH  13  14
ENDBRANCH   2  13
TORSDOF 15
ENDMDL
