MODEL 1
REMARK VINA RESULT:    -4.400      0.000      0.000
REMARK INTER + INTRA:          -7.705
REMARK INTER:                  -6.972
REMARK INTRA:                  -0.733
REMARK UNBOUND:                -0.733
REMARK SMILES CCCCCCCCCCCC(=O)[O-]
REMARK SMILES IDX 7 1 8 2 9 3 10 4 11 5 12 6 13 7 14 8 6 9 5 10 4 11 3 12 2 13
REMARK SMILES IDX 1 14
REMARK H PARENT
REMARK Flexibility Score: inf
ROOT
ATOM      1  C   UNL     1      17.784  23.536  47.709  1.00  0.00     0.000 C 
ENDROOT
BRANCH   1   2
ATOM      2  C   UNL     1      18.402  22.314  48.404  1.00  0.00     0.000 C 
BRANCH   2   3
ATOM      3  C   UNL     1      19.852  22.598  48.824  1.00  0.00     0.000 C 
BRANCH   3   4
ATOM      4  C   UNL     1      20.453  23.809  48.095  1.00  0.00     0.006 C 
BRANCH   4   5
ATOM      5  C   UNL     1      21.526  23.411  47.073  1.00  0.00     0.053 C 
BRANCH   5   6
ATOM      6  C   UNL     1      20.912  23.208  45.724  1.00  0.00     0.041 C 
ATOM      7  O   UNL     1      20.640  24.198  44.995  1.00  0.00    -0.550 OA
ATOM      8  O   UNL     1      20.592  21.927  45.292  1.00  0.00    -0.550 OA
ENDBRANCH   5   6
ENDBRANCH   4   5
ENDBRANCH   3   4
ENDBRANCH   2   3
ENDBRANCH   1   2
BRANCH   1   9
ATOM      9  C   UNL     1      17.009  23.168  46.430  1.00  0.00     0.000 C 
BRANCH   9  10
ATOM     10  C   UNL     1      15.522  23.581  46.430  1.00  0.00    -0.000 C 
BRANCH  10  11
ATOM     11  C   UNL     1      14.691  23.044  47.612  1.00  0.00    -0.000 C 
BRANCH  11  12
ATOM     12  C   UNL     1      13.166  23.130  47.424  1.00  0.00    -0.000 C 
BRANCH  12  13
ATOM     13  C   UNL     1      12.583  21.898  46.719  1.00  0.00    -0.003 C 
ATOM     14  C   UNL     1      12.286  22.193  45.251  1.00  0.00     0.004 C 
ENDBRANCH  12  13
ENDBRANCH  11  12
ENDBRANCH  10  11
ENDBRANCH   9  10
ENDBRANCH   1   9
TORSDOF 10
ENDMDL
MODEL 2
REMARK VINA RESULT:    -4.398     11.125     13.814
REMARK INTER + INTRA:          -7.702
REMARK INTER:                  -7.160
REMARK INTRA:                  -0.542
REMARK UNBOUND:                -0.733
REMARK SMILES CCCCCCCCCCCC(=O)[O-]
REMARK SMILES IDX 7 1 8 2 9 3 10 4 11 5 12 6 13 7 14 8 6 9 5 10 4 11 3 12 2 13
REMARK SMILES IDX 1 14
REMARK H PARENT
REMARK Flexibility Score: inf
ROOT
ATOM      1  C   UNL     1      21.033  22.086  34.419  1.00  0.00     0.000 C 
ENDROOT
BRANCH   1   2
ATOM      2  C   UNL     1      20.446  20.806  33.806  1.00  0.00     0.000 C 
BRANCH   2   3
ATOM      3  C   UNL     1      19.540  21.137  32.611  1.00  0.00     0.000 C 
BRANCH   3   4
ATOM      4  C   UNL     1      18.655  22.368  32.860  1.00  0.00     0.006 C 
BRANCH   4   5
ATOM      5  C   UNL     1      17.266  21.998  33.394  1.00  0.00     0.053 C 
BRANCH   5   6
ATOM      6  C   UNL     1      17.222  22.146  34.883  1.00  0.00     0.041 C 
ATOM      7  O   UNL     1      16.704  21.246  35.594  1.00  0.00    -0.550 OA
ATOM      8  O   UNL     1      17.708  23.302  35.481  1.00  0.00    -0.550 OA
ENDBRANCH   5   6
ENDBRANCH   4   5
ENDBRANCH   3   4
ENDBRANCH   2   3
ENDBRANCH   1   2
BRANCH   1   9
ATOM      9  C   UNL     1      22.359  21.840  35.162  1.00  0.00     0.000 C 
BRANCH   9  10
ATOM     10  C   UNL     1      22.492  22.570  36.514  1.00  0.00    -0.000 C 
BRANCH  10  11
ATOM     11  C   UNL     1      23.926  22.990  36.895  1.00  0.00    -0.000 C 
BRANCH  11  12
ATOM     12  C   UNL     1      25.014  21.954  36.564  1.00  0.00    -0.000 C 
BRANCH  12  13
ATOM     13  C   UNL     1      25.112  20.837  37.613  1.00  0.00    -0.003 C 
ATOM     14  C   UNL     1      24.776  21.360  39.007  1.00  0.00     0.004 C 
ENDBRANCH  12  13
ENDBRANCH  11  12
ENDBRANCH  10  11
ENDBRANCH   9  10
ENDBRANCH   1   9
TORSDOF 10
ENDMDL
MODEL 3
REMARK VINA RESULT:    -4.364      3.653      7.122
REMARK INTER + INTRA:          -7.648
REMARK INTER:                  -7.168
REMARK INTRA:                  -0.480
REMARK UNBOUND:                -0.733
REMARK SMILES CCCCCCCCCCCC(=O)[O-]
REMARK SMILES IDX 7 1 8 2 9 3 10 4 11 5 12 6 13 7 14 8 6 9 5 10 4 11 3 12 2 13
REMARK SMILES IDX 1 14
REMARK H PARENT
REMARK Flexibility Score: inf
ROOT
ATOM      1  C   UNL     1      15.229  23.382  46.855  1.00  0.00     0.000 C 
ENDROOT
BRANCH   1   2
ATOM      2  C   UNL     1      13.968  23.018  47.652  1.00  0.00     0.000 C 
BRANCH   2   3
ATOM      3  C   UNL     1      12.740  23.760  47.104  1.00  0.00     0.000 C 
BRANCH   3   4
ATOM      4  C   UNL     1      12.717  23.815  45.569  1.00  0.00     0.006 C 
BRANCH   4   5
ATOM      5  C   UNL     1      12.151  22.536  44.940  1.00  0.00     0.053 C 
BRANCH   5   6
ATOM      6  C   UNL     1      11.870  22.749  43.486  1.00  0.00     0.041 C 
ATOM      7  O   UNL     1      10.683  22.802  43.071  1.00  0.00    -0.550 OA
ATOM      8  O   UNL     1      12.920  22.838  42.581  1.00  0.00    -0.550 OA
ENDBRANCH   5   6
ENDBRANCH   4   5
ENDBRANCH   3   4
ENDBRANCH   2   3
ENDBRANCH   1   2
BRANCH   1   9
ATOM      9  C   UNL     1      16.530  23.045  47.607  1.00  0.00     0.000 C 
BRANCH   9  10
ATOM     10  C   UNL     1      17.758  22.805  46.706  1.00  0.00    -0.000 C 
BRANCH  10  11
ATOM     11  C   UNL     1      18.830  21.866  47.293  1.00  0.00    -0.000 C 
BRANCH  11  12
ATOM     12  C   UNL     1      19.282  22.211  48.723  1.00  0.00    -0.000 C 
BRANCH  12  13
ATOM     13  C   UNL     1      20.338  23.325  48.761  1.00  0.00    -0.003 C 
ATOM     14  C   UNL     1      19.719  24.657  49.175  1.00  0.00     0.004 C 
ENDBRANCH  12  13
ENDBRANCH  11  12
ENDBRANCH  10  11
ENDBRANCH   9  10
ENDBRANCH   1   9
TORSDOF 10
ENDMDL
MODEL 4
REMARK VINA RESULT:    -4.337     10.880     12.382
REMARK INTER + INTRA:          -7.606
REMARK INTER:                  -6.897
REMARK INTRA:                  -0.709
REMARK UNBOUND:                -0.733
REMARK SMILES CCCCCCCCCCCC(=O)[O-]
REMARK SMILES IDX 7 1 8 2 9 3 10 4 11 5 12 6 13 7 14 8 6 9 5 10 4 11 3 12 2 13
REMARK SMILES IDX 1 14
REMARK H PARENT
REMARK Flexibility Score: inf
ROOT
ATOM      1  C   UNL     1      20.659  21.072  34.905  1.00  0.00     0.000 C 
ENDROOT
BRANCH   1   2
ATOM      2  C   UNL     1      21.975  21.835  34.697  1.00  0.00     0.000 C 
BRANCH   2   3
ATOM      3  C   UNL     1      22.735  21.988  36.023  1.00  0.00     0.000 C 
BRANCH   3   4
ATOM      4  C   UNL     1      24.240  22.219  35.820  1.00  0.00     0.006 C 
BRANCH   4   5
ATOM      5  C   UNL     1      24.955  22.630  37.114  1.00  0.00     0.053 C 
BRANCH   5   6
ATOM      6  C   UNL     1      24.895  21.522  38.118  1.00  0.00     0.041 C 
ATOM      7  O   UNL     1      24.521  21.754  39.297  1.00  0.00    -0.550 OA
ATOM      8  O   UNL     1      25.302  20.241  37.764  1.00  0.00    -0.550 OA
ENDBRANCH   5   6
ENDBRANCH   4   5
ENDBRANCH   3   4
ENDBRANCH   2   3
ENDBRANCH   1   2
BRANCH   1   9
ATOM      9  C   UNL     1      20.139  20.413  33.614  1.00  0.00     0.000 C 
BRANCH   9  10
ATOM     10  C   UNL     1      19.582  21.394  32.562  1.00  0.00    -0.000 C 
BRANCH  10  11
ATOM     11  C   UNL     1      18.621  22.468  33.108  1.00  0.00    -0.000 C 
BRANCH  11  12
ATOM     12  C   UNL     1      17.213  21.957  33.462  1.00  0.00    -0.000 C 
BRANCH  12  13
ATOM     13  C   UNL     1      16.785  22.330  34.888  1.00  0.00    -0.003 C 
ATOM     14  C   UNL     1      17.093  21.201  35.868  1.00  0.00     0.004 C 
ENDBRANCH  12  13
ENDBRANCH  11  12
ENDBRANCH  10  11
ENDBRANCH   9  10
ENDBRANCH   1   9
TORSDOF 10
ENDMDL
MODEL 5
REMARK VINA RESULT:    -4.288      8.087     11.498
REMARK INTER + INTRA:          -7.528
REMARK INTER:                  -6.882
REMARK INTRA:                  -0.646
REMARK UNBOUND:                -0.733
REMARK SMILES CCCCCCCCCCCC(=O)[O-]
REMARK SMILES IDX 7 1 8 2 9 3 10 4 11 5 12 6 13 7 14 8 6 9 5 10 4 11 3 12 2 13
REMARK SMILES IDX 1 14
REMARK H PARENT
REMARK Flexibility Score: inf
ROOT
ATOM      1  C   UNL     1      11.374  22.343  38.957  1.00  0.00     0.000 C 
ENDROOT
BRANCH   1   2
ATOM      2  C   UNL     1      10.434  21.173  39.284  1.00  0.00     0.000 C 
BRANCH   2   3
ATOM      3  C   UNL     1       9.671  21.432  40.591  1.00  0.00     0.000 C 
BRANCH   3   4
ATOM      4  C   UNL     1       9.783  22.890  41.064  1.00  0.00     0.006 C 
BRANCH   4   5
ATOM      5  C   UNL     1       9.923  23.008  42.587  1.00  0.00     0.053 C 
BRANCH   5   6
ATOM      6  C   UNL     1      11.365  22.957  42.983  1.00  0.00     0.041 C 
ATOM      7  O   UNL     1      12.256  23.353  42.188  1.00  0.00    -0.550 OA
ATOM      8  O   UNL     1      11.729  22.423  44.214  1.00  0.00    -0.550 OA
ENDBRANCH   5   6
ENDBRANCH   4   5
ENDBRANCH   3   4
ENDBRANCH   2   3
ENDBRANCH   1   2
BRANCH   1   9
ATOM      9  C   UNL     1      12.166  22.127  37.654  1.00  0.00     0.000 C 
BRANCH   9  10
ATOM     10  C   UNL     1      11.324  22.189  36.363  1.00  0.00    -0.000 C 
BRANCH  10  11
ATOM     11  C   UNL     1      12.067  21.781  35.075  1.00  0.00    -0.000 C 
BRANCH  11  12
ATOM     12  C   UNL     1      12.751  22.939  34.328  1.00  0.00    -0.000 C 
BRANCH  12  13
ATOM     13  C   UNL     1      14.280  22.918  34.469  1.00  0.00    -0.003 C 
ATOM     14  C   UNL     1      14.802  21.488  34.585  1.00  0.00     0.004 C 
ENDBRANCH  12  13
ENDBRANCH  11  12
ENDBRANCH  10  11
ENDBRANCH   9  10
ENDBRANCH   1   9
TORSDOF 10
ENDMDL
MODEL 6
REMARK VINA RESULT:    -4.270      8.004     11.029
REMARK INTER + INTRA:          -7.500
REMARK INTER:                  -7.013
REMARK INTRA:                  -0.486
REMARK UNBOUND:                -0.733
REMARK SMILES CCCCCCCCCCCC(=O)[O-]
REMARK SMILES IDX 7 1 8 2 9 3 10 4 11 5 12 6 13 7 14 8 6 9 5 10 4 11 3 12 2 13
REMARK SMILES IDX 1 14
REMARK H PARENT
REMARK Flexibility Score: inf
ROOT
ATOM      1  C   UNL     1      10.870  21.993  38.742  1.00  0.00     0.000 C 
ENDROOT
BRANCH   1   2
ATOM      2  C   UNL     1      12.386  22.130  38.540  1.00  0.00     0.000 C 
BRANCH   2   3
ATOM      3  C   UNL     1      12.712  22.527  37.093  1.00  0.00     0.000 C 
BRANCH   3   4
ATOM      4  C   UNL     1      11.595  22.148  36.109  1.00  0.00     0.006 C 
BRANCH   4   5
ATOM      5  C   UNL     1      12.078  22.109  34.653  1.00  0.00     0.053 C 
BRANCH   5   6
ATOM      6  C   UNL     1      13.255  21.195  34.518  1.00  0.00     0.041 C 
ATOM      7  O   UNL     1      14.413  21.669  34.378  1.00  0.00    -0.550 OA
ATOM      8  O   UNL     1      13.067  19.819  34.494  1.00  0.00    -0.550 OA
ENDBRANCH   5   6
ENDBRANCH   4   5
ENDBRANCH   3   4
ENDBRANCH   2   3
ENDBRANCH   1   2
BRANCH   1   9
ATOM      9  C   UNL     1      10.503  21.335  40.085  1.00  0.00     0.000 C 
BRANCH   9  10
ATOM     10  C   UNL     1       9.336  22.004  40.840  1.00  0.00    -0.000 C 
BRANCH  10  11
ATOM     11  C   UNL     1       9.751  22.956  41.979  1.00  0.00    -0.000 C 
BRANCH  11  12
ATOM     12  C   UNL     1      11.249  22.930  42.333  1.00  0.00    -0.000 C 
BRANCH  12  13
ATOM     13  C   UNL     1      11.508  22.561  43.800  1.00  0.00    -0.003 C 
ATOM     14  C   UNL     1      12.353  23.625  44.494  1.00  0.00     0.004 C 
ENDBRANCH  12  13
ENDBRANCH  11  12
ENDBRANCH  10  11
ENDBRANCH   9  10
ENDBRANCH   1   9
TORSDOF 10
ENDMDL
MODEL 7
REMARK VINA RESULT:    -4.249      3.315      6.603
REMARK INTER + INTRA:          -7.466
REMARK INTER:                  -6.511
REMARK INTRA:                  -0.955
REMARK UNBOUND:                -0.733
REMARK SMILES CCCCCCCCCCCC(=O)[O-]
REMARK SMILES IDX 7 1 8 2 9 3 10 4 11 5 12 6 13 7 14 8 6 9 5 10 4 11 3 12 2 13
REMARK SMILES IDX 1 14
REMARK H PARENT
REMARK Flexibility Score: inf
ROOT
ATOM      1  C   UNL     1      18.169  22.034  47.963  1.00  0.00     0.000 C 
ENDROOT
BRANCH   1   2
ATOM      2  C   UNL     1      17.486  23.377  47.663  1.00  0.00     0.000 C 
BRANCH   2   3
ATOM      3  C   UNL     1      16.243  23.175  46.785  1.00  0.00     0.000 C 
BRANCH   3   4
ATOM      4  C   UNL     1      14.931  23.373  47.559  1.00  0.00     0.006 C 
BRANCH   4   5
ATOM      5  C   UNL     1      13.733  22.704  46.874  1.00  0.00     0.053 C 
BRANCH   5   6
ATOM      6  C   UNL     1      12.740  23.734  46.437  1.00  0.00     0.041 C 
ATOM      7  O   UNL     1      12.543  23.947  45.212  1.00  0.00    -0.550 OA
ATOM      8  O   UNL     1      12.067  24.496  47.385  1.00  0.00    -0.550 OA
ENDBRANCH   5   6
ENDBRANCH   4   5
ENDBRANCH   3   4
ENDBRANCH   2   3
ENDBRANCH   1   2
BRANCH   1   9
ATOM      9  C   UNL     1      19.480  22.194  48.755  1.00  0.00     0.000 C 
BRANCH   9  10
ATOM     10  C   UNL     1      20.090  23.610  48.724  1.00  0.00    -0.000 C 
BRANCH  10  11
ATOM     11  C   UNL     1      21.389  23.749  47.905  1.00  0.00    -0.000 C 
BRANCH  11  12
ATOM     12  C   UNL     1      21.390  23.000  46.561  1.00  0.00    -0.000 C 
BRANCH  12  13
ATOM     13  C   UNL     1      20.618  23.745  45.463  1.00  0.00    -0.003 C 
ATOM     14  C   UNL     1      19.769  22.782  44.638  1.00  0.00     0.004 C 
ENDBRANCH  12  13
ENDBRANCH  11  12
ENDBRANCH  10  11
ENDBRANCH   9  10
ENDBRANCH   1   9
TORSDOF 10
ENDMDL
MODEL 8
REMARK VINA RESULT:    -4.243     10.246     11.607
REMARK INTER + INTRA:          -7.457
REMARK INTER:                  -7.011
REMARK INTRA:                  -0.446
REMARK UNBOUND:                -0.733
REMARK SMILES CCCCCCCCCCCC(=O)[O-]
REMARK SMILES IDX 7 1 8 2 9 3 10 4 11 5 12 6 13 7 14 8 6 9 5 10 4 11 3 12 2 13
REMARK SMILES IDX 1 14
REMARK H PARENT
REMARK Flexibility Score: inf
ROOT
ATOM      1  C   UNL     1      12.429  21.642  35.623  1.00  0.00     0.000 C 
ENDROOT
BRANCH   1   2
ATOM      2  C   UNL     1      12.763  22.732  34.594  1.00  0.00     0.000 C 
BRANCH   2   3
ATOM      3  C   UNL     1      14.277  22.987  34.537  1.00  0.00     0.000 C 
BRANCH   3   4
ATOM      4  C   UNL     1      15.093  21.688  34.450  1.00  0.00     0.006 C 
BRANCH   4   5
ATOM      5  C   UNL     1      16.440  21.787  35.178  1.00  0.00     0.053 C 
BRANCH   5   6
ATOM      6  C   UNL     1      17.567  21.532  34.228  1.00  0.00     0.041 C 
ATOM      7  O   UNL     1      18.501  20.751  34.548  1.00  0.00    -0.550 OA
ATOM      8  O   UNL     1      17.612  22.196  33.008  1.00  0.00    -0.550 OA
ENDBRANCH   5   6
ENDBRANCH   4   5
ENDBRANCH   3   4
ENDBRANCH   2   3
ENDBRANCH   1   2
BRANCH   1   9
ATOM      9  C   UNL     1      12.485  22.152  37.074  1.00  0.00     0.000 C 
BRANCH   9  10
ATOM     10  C   UNL     1      11.130  22.168  37.811  1.00  0.00    -0.000 C 
BRANCH  10  11
ATOM     11  C   UNL     1      11.218  22.152  39.350  1.00  0.00    -0.000 C 
BRANCH  11  12
ATOM     12  C   UNL     1      10.051  21.444  40.059  1.00  0.00    -0.000 C 
BRANCH  12  13
ATOM     13  C   UNL     1       9.382  22.322  41.127  1.00  0.00    -0.003 C 
ATOM     14  C   UNL     1       9.050  23.705  40.573  1.00  0.00     0.004 C 
ENDBRANCH  12  13
ENDBRANCH  11  12
ENDBRANCH  10  11
ENDBRANCH   9  10
ENDBRANCH   1   9
TORSDOF 10
ENDMDL
MODEL 9
REMARK VINA RESULT:    -4.215     10.366     12.866
REMARK INTER + INTRA:          -7.411
REMARK INTER:                  -6.044
REMARK INTRA:                  -1.367
REMARK UNBOUND:                -0.733
REMARK SMILES CCCCCCCCCCCC(=O)[O-]
REMARK SMILES IDX 7 1 8 2 9 3 10 4 11 5 12 6 13 7 14 8 6 9 5 10 4 11 3 12 2 13
REMARK SMILES IDX 1 14
REMARK H PARENT
REMARK Flexibility Score: inf
ROOT
ATOM      1  C   UNL     1      21.465  21.634  38.383  1.00  0.00     0.000 C 
ENDROOT
BRANCH   1   2
ATOM      2  C   UNL     1      21.334  21.098  36.949  1.00  0.00     0.000 C 
BRANCH   2   3
ATOM      3  C   UNL     1      21.342  22.249  35.932  1.00  0.00     0.000 C 
BRANCH   3   4
ATOM      4  C   UNL     1      21.475  21.757  34.483  1.00  0.00     0.006 C 
BRANCH   4   5
ATOM      5  C   UNL     1      20.500  20.620  34.153  1.00  0.00     0.053 C 
BRANCH   5   6
ATOM      6  C   UNL     1      19.237  21.168  33.567  1.00  0.00     0.041 C 
ATOM      7  O   UNL     1      18.190  21.229  34.263  1.00  0.00    -0.550 OA
ATOM      8  O   UNL     1      19.203  21.564  32.236  1.00  0.00    -0.550 OA
ENDBRANCH   5   6
ENDBRANCH   4   5
ENDBRANCH   3   4
ENDBRANCH   2   3
ENDBRANCH   1   2
BRANCH   1   9
ATOM      9  C   UNL     1      21.844  23.125  38.432  1.00  0.00     0.000 C 
BRANCH   9  10
ATOM     10  C   UNL     1      23.018  23.468  39.372  1.00  0.00    -0.000 C 
BRANCH  10  11
ATOM     11  C   UNL     1      24.408  23.029  38.873  1.00  0.00    -0.000 C 
BRANCH  11  12
ATOM     12  C   UNL     1      24.657  23.249  37.371  1.00  0.00    -0.000 C 
BRANCH  12  13
ATOM     13  C   UNL     1      25.103  21.970  36.648  1.00  0.00    -0.003 C 
ATOM     14  C   UNL     1      25.087  20.770  37.592  1.00  0.00     0.004 C 
ENDBRANCH  12  13
ENDBRANCH  11  12
ENDBRANCH  10  11
ENDBRANCH   9  10
ENDBRANCH   1   9
TORSDOF 10
ENDMDL
