MODEL 1
REMARK VINA RESULT:    -6.682      0.000      0.000
REMARK INTER + INTRA:          -7.246
REMARK INTER:                  -7.268
REMARK INTRA:                   0.022
REMARK UNBOUND:                 0.022
REMARK SMILES C[C@H]1[C@H]2C3=CC[C@@H]4[C@@]5(C)CC[C@@H](O)C(C)(C)[C@@H]5CC[C@@]4(C)[C@@]3(C)CC[C@]2(C(=O)[O-])CC[C@@H]1C
REMARK SMILES IDX 26 1 30 2 25 3 3 4 31 5 24 6 4 7 2 8 32 9 22 10 5 11 1 12
REMARK SMILES IDX 33 13 23 14 20 15 6 16 7 17 19 18 21 19 8 20 18 21 17 22
REMARK SMILES IDX 10 23 9 24 14 25 11 26 12 27 15 28 16 29 27 30 28 31 29 32
REMARK SMILES IDX 13 33
REMARK H PARENT 13 34
REMARK Flexibility Score: inf
ROOT
ATOM      1  C   UNL     1      24.772   2.863  60.013  1.00  0.00     0.017 C 
ATOM      2  C   UNL     1      23.592   3.792  59.586  1.00  0.00     0.014 C 
ATOM      3  C   UNL     1      25.506   2.345  58.725  1.00  0.00     0.014 C 
ATOM      4  C   UNL     1      25.720   3.722  60.919  1.00  0.00     0.030 C 
ATOM      5  C   UNL     1      22.848   4.430  60.776  1.00  0.00     0.004 C 
ATOM      6  C   UNL     1      26.963   2.815  58.555  1.00  0.00     0.013 C 
ATOM      7  C   UNL     1      27.090   3.068  61.096  1.00  0.00    -0.063 C 
ATOM      8  C   UNL     1      25.006   4.320  62.181  1.00  0.00    -0.003 C 
ATOM      9  C   UNL     1      23.779   5.182  61.758  1.00  0.00    -0.011 C 
ATOM     10  C   UNL     1      27.889   2.719  59.826  1.00  0.00    -0.006 C 
ATOM     11  C   UNL     1      27.726   2.967  62.294  1.00  0.00    -0.027 C 
ATOM     12  C   UNL     1      24.578   3.292  63.256  1.00  0.00     0.008 C 
ATOM     13  C   UNL     1      24.188   6.557  61.199  1.00  0.00     0.008 C 
ATOM     14  C   UNL     1      28.864   3.944  59.676  1.00  0.00     0.017 C 
ATOM     15  C   UNL     1      28.691   1.289  59.986  1.00  0.00    -0.020 C 
ATOM     16  C   UNL     1      28.917   2.047  62.440  1.00  0.00     0.032 C 
ATOM     17  C   UNL     1      28.676   0.836  61.512  1.00  0.00     0.006 C 
ATOM     18  C   UNL     1      28.041   0.102  59.204  1.00  0.00     0.008 C 
ATOM     19  C   UNL     1      30.132   1.456  59.403  1.00  0.00     0.012 C 
ATOM     20  C   UNL     1      29.376  -0.538  61.880  1.00  0.00    -0.025 C 
ATOM     21  C   UNL     1      28.690  -1.279  59.475  1.00  0.00     0.005 C 
ATOM     22  C   UNL     1      28.680  -1.640  60.983  1.00  0.00     0.003 C 
ATOM     23  C   UNL     1      29.078  -0.902  63.373  1.00  0.00     0.010 C 
ATOM     24  C   UNL     1      30.921  -0.435  61.705  1.00  0.00     0.012 C 
ATOM     25  C   UNL     1      29.035  -3.141  61.327  1.00  0.00    -0.006 C 
ATOM     26  C   UNL     1      29.442  -2.350  63.750  1.00  0.00     0.033 C 
ATOM     27  C   UNL     1      28.759  -3.389  62.846  1.00  0.00     0.120 C 
ATOM     28  C   UNL     1      30.497  -3.521  60.982  1.00  0.00     0.014 C 
ATOM     29  C   UNL     1      28.127  -4.110  60.518  1.00  0.00     0.014 C 
ENDROOT
BRANCH   1  30
ATOM     30  C   UNL     1      24.247   1.627  60.739  1.00  0.00     0.048 C 
ATOM     31  O   UNL     1      23.011   1.457  60.921  1.00  0.00    -0.550 OA
ATOM     32  O   UNL     1      25.116   0.606  61.098  1.00  0.00    -0.550 OA
ENDBRANCH   1  30
BRANCH  27  33
ATOM     33  O   UNL     1      27.373  -3.373  63.097  1.00  0.00    -0.393 OA
ATOM     34  H   UNL     1      27.113  -2.425  63.239  1.00  0.00     0.210 HD
ENDBRANCH  27  33
TORSDOF 2
ENDMDL
MODEL 2
REMARK VINA RESULT:    -5.899      2.581      4.512
REMARK INTER + INTRA:          -6.394
REMARK INTER:                  -6.557
REMARK INTRA:                   0.163
REMARK UNBOUND:                 0.022
REMARK SMILES C[C@H]1[C@H]2C3=CC[C@@H]4[C@@]5(C)CC[C@@H](O)C(C)(C)[C@@H]5CC[C@@]4(C)[C@@]3(C)CC[C@]2(C(=O)[O-])CC[C@@H]1C
REMARK SMILES IDX 26 1 30 2 25 3 3 4 31 5 24 6 4 7 2 8 32 9 22 10 5 11 1 12
REMARK SMILES IDX 33 13 23 14 20 15 6 16 7 17 19 18 21 19 8 20 18 21 17 22
REMARK SMILES IDX 10 23 9 24 14 25 11 26 12 27 15 28 16 29 27 30 28 31 29 32
REMARK SMILES IDX 13 33
REMARK H PARENT 13 34
REMARK Flexibility Score: inf
ROOT
ATOM      1  C   UNL     1      28.594   2.313  60.308  1.00  0.00     0.017 C 
ATOM      2  C   UNL     1      28.474   3.850  60.554  1.00  0.00     0.014 C 
ATOM      3  C   UNL     1      30.101   1.890  60.437  1.00  0.00     0.014 C 
ATOM      4  C   UNL     1      27.697   1.611  61.386  1.00  0.00     0.030 C 
ATOM      5  C   UNL     1      27.022   4.367  60.535  1.00  0.00     0.004 C 
ATOM      6  C   UNL     1      30.427   0.942  61.606  1.00  0.00     0.013 C 
ATOM      7  C   UNL     1      28.008   0.120  61.508  1.00  0.00    -0.063 C 
ATOM      8  C   UNL     1      26.196   2.061  61.339  1.00  0.00    -0.003 C 
ATOM      9  C   UNL     1      26.082   3.607  61.502  1.00  0.00    -0.011 C 
ATOM     10  C   UNL     1      29.463  -0.287  61.810  1.00  0.00    -0.006 C 
ATOM     11  C   UNL     1      27.053  -0.845  61.569  1.00  0.00    -0.027 C 
ATOM     12  C   UNL     1      25.402   1.608  60.090  1.00  0.00     0.008 C 
ATOM     13  C   UNL     1      26.290   4.063  62.959  1.00  0.00     0.008 C 
ATOM     14  C   UNL     1      29.452  -0.503  63.368  1.00  0.00     0.017 C 
ATOM     15  C   UNL     1      29.898  -1.646  60.987  1.00  0.00    -0.020 C 
ATOM     16  C   UNL     1      27.434  -2.296  61.379  1.00  0.00     0.032 C 
ATOM     17  C   UNL     1      28.602  -2.333  60.369  1.00  0.00     0.006 C 
ATOM     18  C   UNL     1      30.837  -1.380  59.766  1.00  0.00     0.008 C 
ATOM     19  C   UNL     1      30.696  -2.582  61.953  1.00  0.00     0.012 C 
ATOM     20  C   UNL     1      28.806  -3.651  59.511  1.00  0.00    -0.025 C 
ATOM     21  C   UNL     1      31.122  -2.626  58.890  1.00  0.00     0.005 C 
ATOM     22  C   UNL     1      29.817  -3.271  58.355  1.00  0.00     0.003 C 
ATOM     23  C   UNL     1      27.455  -4.052  58.828  1.00  0.00     0.010 C 
ATOM     24  C   UNL     1      29.263  -4.835  60.414  1.00  0.00     0.012 C 
ATOM     25  C   UNL     1      30.007  -4.349  57.216  1.00  0.00    -0.006 C 
ATOM     26  C   UNL     1      27.601  -5.125  57.733  1.00  0.00     0.033 C 
ATOM     27  C   UNL     1      28.604  -4.726  56.639  1.00  0.00     0.120 C 
ATOM     28  C   UNL     1      30.747  -5.625  57.694  1.00  0.00     0.014 C 
ATOM     29  C   UNL     1      30.854  -3.762  56.052  1.00  0.00     0.014 C 
ENDROOT
BRANCH   1  30
ATOM     30  C   UNL     1      28.166   1.961  58.886  1.00  0.00     0.048 C 
ATOM     31  O   UNL     1      27.593   2.811  58.152  1.00  0.00    -0.550 OA
ATOM     32  O   UNL     1      28.517   0.737  58.333  1.00  0.00    -0.550 OA
ENDBRANCH   1  30
BRANCH  27  33
ATOM     33  O   UNL     1      28.075  -3.646  55.906  1.00  0.00    -0.393 OA
ATOM     34  H   UNL     1      27.602  -3.058  56.552  1.00  0.00     0.210 HD
ENDBRANCH  27  33
TORSDOF 2
ENDMDL
MODEL 3
REMARK VINA RESULT:    -5.731      2.904      7.720
REMARK INTER + INTRA:          -6.211
REMARK INTER:                  -6.491
REMARK INTRA:                   0.280
REMARK UNBOUND:                 0.022
REMARK SMILES C[C@H]1[C@H]2C3=CC[C@@H]4[C@@]5(C)CC[C@@H](O)C(C)(C)[C@@H]5CC[C@@]4(C)[C@@]3(C)CC[C@]2(C(=O)[O-])CC[C@@H]1C
REMARK SMILES IDX 26 1 30 2 25 3 3 4 31 5 24 6 4 7 2 8 32 9 22 10 5 11 1 12
REMARK SMILES IDX 33 13 23 14 20 15 6 16 7 17 19 18 21 19 8 20 18 21 17 22
REMARK SMILES IDX 10 23 9 24 14 25 11 26 12 27 15 28 16 29 27 30 28 31 29 32
REMARK SMILES IDX 13 33
REMARK H PARENT 13 34
REMARK Flexibility Score: inf
ROOT
ATOM      1  C   UNL     1      28.356  -3.936  57.774  1.00  0.00     0.017 C 
ATOM      2  C   UNL     1      28.144  -5.202  56.885  1.00  0.00     0.014 C 
ATOM      3  C   UNL     1      27.272  -3.921  58.909  1.00  0.00     0.014 C 
ATOM      4  C   UNL     1      29.809  -4.030  58.356  1.00  0.00     0.030 C 
ATOM      5  C   UNL     1      29.209  -5.367  55.783  1.00  0.00     0.004 C 
ATOM      6  C   UNL     1      27.810  -4.065  60.345  1.00  0.00     0.013 C 
ATOM      7  C   UNL     1      30.020  -3.071  59.528  1.00  0.00    -0.063 C 
ATOM      8  C   UNL     1      30.920  -4.120  57.253  1.00  0.00    -0.003 C 
ATOM      9  C   UNL     1      30.663  -5.338  56.315  1.00  0.00    -0.011 C 
ATOM     10  C   UNL     1      29.055  -3.177  60.725  1.00  0.00    -0.006 C 
ATOM     11  C   UNL     1      31.117  -2.281  59.665  1.00  0.00    -0.027 C 
ATOM     12  C   UNL     1      31.125  -2.841  56.406  1.00  0.00     0.008 C 
ATOM     13  C   UNL     1      31.045  -6.678  56.970  1.00  0.00     0.008 C 
ATOM     14  C   UNL     1      29.857  -4.068  61.744  1.00  0.00     0.017 C 
ATOM     15  C   UNL     1      28.683  -1.695  61.339  1.00  0.00    -0.020 C 
ATOM     16  C   UNL     1      31.112  -1.151  60.669  1.00  0.00     0.032 C 
ATOM     17  C   UNL     1      29.669  -0.603  60.733  1.00  0.00     0.006 C 
ATOM     18  C   UNL     1      27.249  -1.195  60.970  1.00  0.00     0.008 C 
ATOM     19  C   UNL     1      28.728  -1.775  62.900  1.00  0.00     0.012 C 
ATOM     20  C   UNL     1      29.462   0.905  61.179  1.00  0.00    -0.025 C 
ATOM     21  C   UNL     1      26.945   0.262  61.404  1.00  0.00     0.005 C 
ATOM     22  C   UNL     1      27.966   1.269  60.814  1.00  0.00     0.003 C 
ATOM     23  C   UNL     1      30.385   1.840  60.328  1.00  0.00     0.010 C 
ATOM     24  C   UNL     1      29.832   1.094  62.680  1.00  0.00     0.012 C 
ATOM     25  C   UNL     1      27.572   2.794  60.943  1.00  0.00    -0.006 C 
ATOM     26  C   UNL     1      30.047   3.337  60.454  1.00  0.00     0.033 C 
ATOM     27  C   UNL     1      28.582   3.647  60.108  1.00  0.00     0.120 C 
ATOM     28  C   UNL     1      27.531   3.297  62.408  1.00  0.00     0.014 C 
ATOM     29  C   UNL     1      26.152   3.036  60.356  1.00  0.00     0.014 C 
ENDROOT
BRANCH   1  30
ATOM     30  C   UNL     1      28.145  -2.665  56.957  1.00  0.00     0.048 C 
ATOM     31  O   UNL     1      28.131  -1.532  57.511  1.00  0.00    -0.550 OA
ATOM     32  O   UNL     1      28.093  -2.725  55.571  1.00  0.00    -0.550 OA
ENDBRANCH   1  30
BRANCH  27  33
ATOM     33  O   UNL     1      28.381   3.429  58.731  1.00  0.00    -0.393 OA
ATOM     34  H   UNL     1      27.412   3.560  58.553  1.00  0.00     0.210 HD
ENDBRANCH  27  33
TORSDOF 2
ENDMDL
MODEL 4
REMARK VINA RESULT:    -5.683      5.361      8.880
REMARK INTER + INTRA:          -6.160
REMARK INTER:                  -6.527
REMARK INTRA:                   0.367
REMARK UNBOUND:                 0.022
REMARK SMILES C[C@H]1[C@H]2C3=CC[C@@H]4[C@@]5(C)CC[C@@H](O)C(C)(C)[C@@H]5CC[C@@]4(C)[C@@]3(C)CC[C@]2(C(=O)[O-])CC[C@@H]1C
REMARK SMILES IDX 26 1 30 2 25 3 3 4 31 5 24 6 4 7 2 8 32 9 22 10 5 11 1 12
REMARK SMILES IDX 33 13 23 14 20 15 6 16 7 17 19 18 21 19 8 20 18 21 17 22
REMARK SMILES IDX 10 23 9 24 14 25 11 26 12 27 15 28 16 29 27 30 28 31 29 32
REMARK SMILES IDX 13 33
REMARK H PARENT 13 34
REMARK Flexibility Score: inf
ROOT
ATOM      1  C   UNL     1      28.280  -3.003  58.008  1.00  0.00     0.017 C 
ATOM      2  C   UNL     1      28.084  -1.524  58.467  1.00  0.00     0.014 C 
ATOM      3  C   UNL     1      27.581  -3.204  56.616  1.00  0.00     0.014 C 
ATOM      4  C   UNL     1      29.826  -3.250  57.925  1.00  0.00     0.030 C 
ATOM      5  C   UNL     1      28.804  -1.187  59.788  1.00  0.00     0.004 C 
ATOM      6  C   UNL     1      28.521  -3.532  55.441  1.00  0.00     0.013 C 
ATOM      7  C   UNL     1      30.163  -4.516  57.137  1.00  0.00    -0.063 C 
ATOM      8  C   UNL     1      30.574  -2.990  59.279  1.00  0.00    -0.003 C 
ATOM      9  C   UNL     1      30.312  -1.537  59.779  1.00  0.00    -0.011 C 
ATOM     10  C   UNL     1      29.618  -4.633  55.700  1.00  0.00    -0.006 C 
ATOM     11  C   UNL     1      31.072  -5.438  57.548  1.00  0.00    -0.027 C 
ATOM     12  C   UNL     1      30.270  -3.997  60.414  1.00  0.00     0.008 C 
ATOM     13  C   UNL     1      31.125  -0.489  58.997  1.00  0.00     0.008 C 
ATOM     14  C   UNL     1      30.837  -4.164  54.823  1.00  0.00     0.017 C 
ATOM     15  C   UNL     1      29.145  -6.171  55.352  1.00  0.00    -0.020 C 
ATOM     16  C   UNL     1      31.125  -6.794  56.881  1.00  0.00     0.032 C 
ATOM     17  C   UNL     1      29.680  -7.161  56.477  1.00  0.00     0.006 C 
ATOM     18  C   UNL     1      27.595  -6.373  55.337  1.00  0.00     0.008 C 
ATOM     19  C   UNL     1      29.645  -6.536  53.916  1.00  0.00     0.012 C 
ATOM     20  C   UNL     1      29.308  -8.698  56.344  1.00  0.00    -0.025 C 
ATOM     21  C   UNL     1      27.140  -7.846  55.172  1.00  0.00     0.005 C 
ATOM     22  C   UNL     1      27.729  -8.764  56.275  1.00  0.00     0.003 C 
ATOM     23  C   UNL     1      29.745  -9.462  57.639  1.00  0.00     0.010 C 
ATOM     24  C   UNL     1      30.043  -9.341  55.130  1.00  0.00     0.012 C 
ATOM     25  C   UNL     1      27.090 -10.205  56.375  1.00  0.00    -0.006 C 
ATOM     26  C   UNL     1      29.164 -10.884  57.754  1.00  0.00     0.033 C 
ATOM     27  C   UNL     1      27.629 -10.907  57.664  1.00  0.00     0.120 C 
ATOM     28  C   UNL     1      27.365 -11.088  55.132  1.00  0.00     0.014 C 
ATOM     29  C   UNL     1      25.544 -10.102  56.507  1.00  0.00     0.014 C 
ENDROOT
BRANCH   1  30
ATOM     30  C   UNL     1      27.595  -3.962  58.978  1.00  0.00     0.048 C 
ATOM     31  O   UNL     1      27.416  -5.173  58.677  1.00  0.00    -0.550 OA
ATOM     32  O   UNL     1      27.273  -3.545  60.263  1.00  0.00    -0.550 OA
ENDBRANCH   1  30
BRANCH  27  33
ATOM     33  O   UNL     1      27.095 -10.291  58.813  1.00  0.00    -0.393 OA
ATOM     34  H   UNL     1      27.334 -10.863  59.589  1.00  0.00     0.210 HD
ENDBRANCH  27  33
TORSDOF 2
ENDMDL
MODEL 5
REMARK VINA RESULT:    -4.978      5.293     10.576
REMARK INTER + INTRA:          -5.392
REMARK INTER:                  -5.406
REMARK INTRA:                   0.013
REMARK UNBOUND:                 0.022
REMARK SMILES C[C@H]1[C@H]2C3=CC[C@@H]4[C@@]5(C)CC[C@@H](O)C(C)(C)[C@@H]5CC[C@@]4(C)[C@@]3(C)CC[C@]2(C(=O)[O-])CC[C@@H]1C
REMARK SMILES IDX 26 1 30 2 25 3 3 4 31 5 24 6 4 7 2 8 32 9 22 10 5 11 1 12
REMARK SMILES IDX 33 13 23 14 20 15 6 16 7 17 19 18 21 19 8 20 18 21 17 22
REMARK SMILES IDX 10 23 9 24 14 25 11 26 12 27 15 28 16 29 27 30 28 31 29 32
REMARK SMILES IDX 13 33
REMARK H PARENT 13 34
REMARK Flexibility Score: inf
ROOT
ATOM      1  C   UNL     1      29.937  -9.236  57.010  1.00  0.00     0.017 C 
ATOM      2  C   UNL     1      30.273 -10.701  56.588  1.00  0.00     0.014 C 
ATOM      3  C   UNL     1      31.120  -8.297  56.582  1.00  0.00     0.014 C 
ATOM      4  C   UNL     1      28.598  -8.853  56.288  1.00  0.00     0.030 C 
ATOM      5  C   UNL     1      29.139 -11.703  56.884  1.00  0.00     0.004 C 
ATOM      6  C   UNL     1      30.779  -7.242  55.512  1.00  0.00     0.013 C 
ATOM      7  C   UNL     1      28.350  -7.345  56.303  1.00  0.00    -0.063 C 
ATOM      8  C   UNL     1      27.406  -9.811  56.632  1.00  0.00    -0.003 C 
ATOM      9  C   UNL     1      27.772 -11.287  56.287  1.00  0.00    -0.011 C 
ATOM     10  C   UNL     1      29.445  -6.431  55.720  1.00  0.00    -0.006 C 
ATOM     11  C   UNL     1      27.151  -6.783  56.609  1.00  0.00    -0.027 C 
ATOM     12  C   UNL     1      26.882  -9.729  58.086  1.00  0.00     0.008 C 
ATOM     13  C   UNL     1      27.712 -11.571  54.775  1.00  0.00     0.008 C 
ATOM     14  C   UNL     1      28.935  -6.162  54.256  1.00  0.00     0.017 C 
ATOM     15  C   UNL     1      29.611  -5.046  56.594  1.00  0.00    -0.020 C 
ATOM     16  C   UNL     1      27.064  -5.302  56.901  1.00  0.00     0.032 C 
ATOM     17  C   UNL     1      28.383  -4.896  57.596  1.00  0.00     0.006 C 
ATOM     18  C   UNL     1      30.882  -5.014  57.504  1.00  0.00     0.008 C 
ATOM     19  C   UNL     1      29.755  -3.843  55.605  1.00  0.00     0.012 C 
ATOM     20  C   UNL     1      28.364  -3.633  58.555  1.00  0.00    -0.025 C 
ATOM     21  C   UNL     1      30.965  -3.789  58.451  1.00  0.00     0.005 C 
ATOM     22  C   UNL     1      29.720  -3.679  59.369  1.00  0.00     0.003 C 
ATOM     23  C   UNL     1      27.199  -3.773  59.592  1.00  0.00     0.010 C 
ATOM     24  C   UNL     1      28.135  -2.324  57.742  1.00  0.00     0.012 C 
ATOM     25  C   UNL     1      29.846  -2.657  60.567  1.00  0.00    -0.006 C 
ATOM     26  C   UNL     1      27.274  -2.770  60.758  1.00  0.00     0.033 C 
ATOM     27  C   UNL     1      28.612  -2.833  61.511  1.00  0.00     0.120 C 
ATOM     28  C   UNL     1      29.958  -1.181  60.107  1.00  0.00     0.014 C 
ATOM     29  C   UNL     1      31.124  -2.955  61.400  1.00  0.00     0.014 C 
ENDROOT
BRANCH   1  30
ATOM     30  C   UNL     1      29.824  -9.125  58.527  1.00  0.00     0.048 C 
ATOM     31  O   UNL     1      30.123 -10.097  59.273  1.00  0.00    -0.550 OA
ATOM     32  O   UNL     1      29.512  -7.909  59.119  1.00  0.00    -0.550 OA
ENDBRANCH   1  30
BRANCH  27  33
ATOM     33  O   UNL     1      28.695  -4.063  62.193  1.00  0.00    -0.393 OA
ATOM     34  H   UNL     1      29.294  -4.652  61.663  1.00  0.00     0.210 HD
ENDBRANCH  27  33
TORSDOF 2
ENDMDL
MODEL 6
REMARK VINA RESULT:    -4.798      3.149      8.123
REMARK INTER + INTRA:          -5.197
REMARK INTER:                  -5.564
REMARK INTRA:                   0.367
REMARK UNBOUND:                 0.022
REMARK SMILES C[C@H]1[C@H]2C3=CC[C@@H]4[C@@]5(C)CC[C@@H](O)C(C)(C)[C@@H]5CC[C@@]4(C)[C@@]3(C)CC[C@]2(C(=O)[O-])CC[C@@H]1C
REMARK SMILES IDX 26 1 30 2 25 3 3 4 31 5 24 6 4 7 2 8 32 9 22 10 5 11 1 12
REMARK SMILES IDX 33 13 23 14 20 15 6 16 7 17 19 18 21 19 8 20 18 21 17 22
REMARK SMILES IDX 10 23 9 24 14 25 11 26 12 27 15 28 16 29 27 30 28 31 29 32
REMARK SMILES IDX 13 33
REMARK H PARENT 13 34
REMARK Flexibility Score: inf
ROOT
ATOM      1  C   UNL     1      28.278  -5.190  57.938  1.00  0.00     0.017 C 
ATOM      2  C   UNL     1      28.114  -6.632  57.361  1.00  0.00     0.014 C 
ATOM      3  C   UNL     1      27.739  -5.166  59.413  1.00  0.00     0.014 C 
ATOM      4  C   UNL     1      29.806  -4.846  57.870  1.00  0.00     0.030 C 
ATOM      5  C   UNL     1      28.690  -6.797  55.941  1.00  0.00     0.004 C 
ATOM      6  C   UNL     1      28.792  -4.882  60.501  1.00  0.00     0.013 C 
ATOM      7  C   UNL     1      30.161  -3.638  58.736  1.00  0.00    -0.063 C 
ATOM      8  C   UNL     1      30.401  -4.930  56.421  1.00  0.00    -0.003 C 
ATOM      9  C   UNL     1      30.165  -6.346  55.814  1.00  0.00    -0.011 C 
ATOM     10  C   UNL     1      29.785  -3.690  60.229  1.00  0.00    -0.006 C 
ATOM     11  C   UNL     1      30.960  -2.621  58.317  1.00  0.00    -0.027 C 
ATOM     12  C   UNL     1      29.907  -3.847  55.432  1.00  0.00     0.008 C 
ATOM     13  C   UNL     1      31.125  -7.403  56.391  1.00  0.00     0.008 C 
ATOM     14  C   UNL     1      31.125  -4.151  60.912  1.00  0.00     0.017 C 
ATOM     15  C   UNL     1      29.269  -2.225  60.778  1.00  0.00    -0.020 C 
ATOM     16  C   UNL     1      31.014  -1.331  59.104  1.00  0.00     0.032 C 
ATOM     17  C   UNL     1      29.608  -1.102  59.702  1.00  0.00     0.006 C 
ATOM     18  C   UNL     1      27.723  -2.132  60.988  1.00  0.00     0.008 C 
ATOM     19  C   UNL     1      29.915  -1.959  62.177  1.00  0.00     0.012 C 
ATOM     20  C   UNL     1      29.168   0.386  60.027  1.00  0.00    -0.025 C 
ATOM     21  C   UNL     1      27.207  -0.715  61.348  1.00  0.00     0.005 C 
ATOM     22  C   UNL     1      27.607   0.337  60.281  1.00  0.00     0.003 C 
ATOM     23  C   UNL     1      29.403   1.294  58.773  1.00  0.00     0.010 C 
ATOM     24  C   UNL     1      30.003   0.965  61.208  1.00  0.00     0.012 C 
ATOM     25  C   UNL     1      26.878   1.734  60.395  1.00  0.00    -0.006 C 
ATOM     26  C   UNL     1      28.731   2.676  58.865  1.00  0.00     0.033 C 
ATOM     27  C   UNL     1      27.219   2.586  59.129  1.00  0.00     0.120 C 
ATOM     28  C   UNL     1      27.248   2.518  61.680  1.00  0.00     0.014 C 
ATOM     29  C   UNL     1      25.336   1.538  60.430  1.00  0.00     0.014 C 
ENDROOT
BRANCH   1  30
ATOM     30  C   UNL     1      27.429  -4.197  57.151  1.00  0.00     0.048 C 
ATOM     31  O   UNL     1      26.360  -4.558  56.589  1.00  0.00    -0.550 OA
ATOM     32  O   UNL     1      27.754  -2.847  57.148  1.00  0.00    -0.550 OA
ENDBRANCH   1  30
BRANCH  27  33
ATOM     33  O   UNL     1      26.588   2.042  57.993  1.00  0.00    -0.393 OA
ATOM     34  H   UNL     1      25.982   1.322  58.313  1.00  0.00     0.210 HD
ENDBRANCH  27  33
TORSDOF 2
ENDMDL
MODEL 7
REMARK VINA RESULT:    -3.713      5.237      9.822
REMARK INTER + INTRA:          -4.017
REMARK INTER:                  -4.041
REMARK INTRA:                   0.024
REMARK UNBOUND:                 0.022
REMARK SMILES C[C@H]1[C@H]2C3=CC[C@@H]4[C@@]5(C)CC[C@@H](O)C(C)(C)[C@@H]5CC[C@@]4(C)[C@@]3(C)CC[C@]2(C(=O)[O-])CC[C@@H]1C
REMARK SMILES IDX 26 1 30 2 25 3 3 4 31 5 24 6 4 7 2 8 32 9 22 10 5 11 1 12
REMARK SMILES IDX 33 13 23 14 20 15 6 16 7 17 19 18 21 19 8 20 18 21 17 22
REMARK SMILES IDX 10 23 9 24 14 25 11 26 12 27 15 28 16 29 27 30 28 31 29 32
REMARK SMILES IDX 13 33
REMARK H PARENT 13 34
REMARK Flexibility Score: inf
ROOT
ATOM      1  C   UNL     1      28.569  -8.779  56.541  1.00  0.00     0.017 C 
ATOM      2  C   UNL     1      28.458 -10.164  55.828  1.00  0.00     0.014 C 
ATOM      3  C   UNL     1      30.046  -8.258  56.418  1.00  0.00     0.014 C 
ATOM      4  C   UNL     1      27.552  -7.821  55.829  1.00  0.00     0.030 C 
ATOM      5  C   UNL     1      27.026 -10.735  55.812  1.00  0.00     0.004 C 
ATOM      6  C   UNL     1      30.231  -6.974  55.588  1.00  0.00     0.013 C 
ATOM      7  C   UNL     1      27.818  -6.353  56.163  1.00  0.00    -0.063 C 
ATOM      8  C   UNL     1      26.073  -8.341  55.865  1.00  0.00    -0.003 C 
ATOM      9  C   UNL     1      25.976  -9.760  55.227  1.00  0.00    -0.011 C 
ATOM     10  C   UNL     1      29.226  -5.796  55.876  1.00  0.00    -0.006 C 
ATOM     11  C   UNL     1      26.842  -5.469  56.499  1.00  0.00    -0.027 C 
ATOM     12  C   UNL     1      25.402  -8.348  57.260  1.00  0.00     0.008 C 
ATOM     13  C   UNL     1      26.043  -9.720  53.689  1.00  0.00     0.008 C 
ATOM     14  C   UNL     1      29.050  -5.099  54.477  1.00  0.00     0.017 C 
ATOM     15  C   UNL     1      29.714  -4.745  57.047  1.00  0.00    -0.020 C 
ATOM     16  C   UNL     1      27.210  -4.135  57.108  1.00  0.00     0.032 C 
ATOM     17  C   UNL     1      28.474  -4.357  57.967  1.00  0.00     0.006 C 
ATOM     18  C   UNL     1      30.778  -5.334  58.029  1.00  0.00     0.008 C 
ATOM     19  C   UNL     1      30.389  -3.512  56.363  1.00  0.00     0.012 C 
ATOM     20  C   UNL     1      28.736  -3.370  59.180  1.00  0.00    -0.025 C 
ATOM     21  C   UNL     1      31.125  -4.415  59.228  1.00  0.00     0.005 C 
ATOM     22  C   UNL     1      29.868  -4.042  60.057  1.00  0.00     0.003 C 
ATOM     23  C   UNL     1      27.455  -3.276  60.074  1.00  0.00     0.010 C 
ATOM     24  C   UNL     1      29.074  -1.939  58.664  1.00  0.00     0.012 C 
ATOM     25  C   UNL     1      30.151  -3.370  61.458  1.00  0.00    -0.006 C 
ATOM     26  C   UNL     1      27.689  -2.598  61.436  1.00  0.00     0.033 C 
ATOM     27  C   UNL     1      28.807  -3.269  62.250  1.00  0.00     0.120 C 
ATOM     28  C   UNL     1      30.811  -1.972  61.348  1.00  0.00     0.014 C 
ATOM     29  C   UNL     1      31.125  -4.250  62.293  1.00  0.00     0.014 C 
ENDROOT
BRANCH   1  30
ATOM     30  C   UNL     1      28.282  -8.917  58.032  1.00  0.00     0.048 C 
ATOM     31  O   UNL     1      27.991 -10.036  58.537  1.00  0.00    -0.550 OA
ATOM     32  O   UNL     1      28.462  -7.835  58.883  1.00  0.00    -0.550 OA
ENDBRANCH   1  30
BRANCH  27  33
ATOM     33  O   UNL     1      28.378  -4.552  62.645  1.00  0.00    -0.393 OA
ATOM     34  H   UNL     1      27.938  -4.967  61.857  1.00  0.00     0.210 HD
ENDBRANCH  27  33
TORSDOF 2
ENDMDL
