MODEL 1
REMARK VINA RESULT:    -3.924      0.000      0.000
REMARK INTER + INTRA:          -9.917
REMARK INTER:                  -7.595
REMARK INTRA:                  -2.323
REMARK UNBOUND:                -2.323
REMARK SMILES CCCCCCCCCCCCCCCCCC(=O)[O-]
REMARK SMILES IDX 10 1 11 2 12 3 13 4 14 5 15 6 16 7 17 8 18 9 19 10 20 11
REMARK SMILES IDX 9 12 8 13 7 14 6 15 5 16 4 17 3 18 2 19 1 20
REMARK H PARENT
REMARK Flexibility Score: inf
ROOT
ATOM      1  C   UNL     1     161.312 177.901 185.595  1.00  0.00     0.000 C 
ENDROOT
BRANCH   1   2
ATOM      2  C   UNL     1     160.589 178.250 186.904  1.00  0.00     0.000 C 
BRANCH   2   3
ATOM      3  C   UNL     1     161.021 177.310 188.036  1.00  0.00     0.000 C 
BRANCH   3   4
ATOM      4  C   UNL     1     162.552 177.231 188.133  1.00  0.00     0.000 C 
BRANCH   4   5
ATOM      5  C   UNL     1     163.110 175.857 187.718  1.00  0.00     0.000 C 
BRANCH   5   6
ATOM      6  C   UNL     1     164.439 175.902 186.942  1.00  0.00     0.000 C 
BRANCH   6   7
ATOM      7  C   UNL     1     164.719 177.278 186.313  1.00  0.00     0.006 C 
BRANCH   7   8
ATOM      8  C   UNL     1     166.111 177.810 186.682  1.00  0.00     0.053 C 
BRANCH   8   9
ATOM      9  C   UNL     1     167.035 177.821 185.504  1.00  0.00     0.041 C 
ATOM     10  O   UNL     1     166.786 177.108 184.496  1.00  0.00    -0.550 OA
ATOM     11  O   UNL     1     168.156 178.642 185.506  1.00  0.00    -0.550 OA
ENDBRANCH   8   9
ENDBRANCH   7   8
ENDBRANCH   6   7
ENDBRANCH   5   6
ENDBRANCH   4   5
ENDBRANCH   3   4
ENDBRANCH   2   3
ENDBRANCH   1   2
BRANCH   1  12
ATOM     12  C   UNL     1     160.518 176.913 184.726  1.00  0.00     0.000 C 
BRANCH  12  13
ATOM     13  C   UNL     1     161.288 175.607 184.462  1.00  0.00    -0.000 C 
BRANCH  13  14
ATOM     14  C   UNL     1     160.556 174.682 183.476  1.00  0.00    -0.000 C 
BRANCH  14  15
ATOM     15  C   UNL     1     159.897 175.454 182.321  1.00  0.00    -0.000 C 
BRANCH  15  16
ATOM     16  C   UNL     1     160.599 175.220 180.972  1.00  0.00    -0.000 C 
BRANCH  16  17
ATOM     17  C   UNL     1     161.094 176.499 180.268  1.00  0.00    -0.000 C 
BRANCH  17  18
ATOM     18  C   UNL     1     162.514 176.955 180.658  1.00  0.00    -0.000 C 
BRANCH  18  19
ATOM     19  C   UNL     1     162.569 178.039 181.749  1.00  0.00    -0.003 C 
ATOM     20  C   UNL     1     163.740 177.852 182.714  1.00  0.00     0.004 C 
ENDBRANCH  18  19
ENDBRANCH  17  18
ENDBRANCH  16  17
ENDBRANCH  15  16
ENDBRANCH  14  15
ENDBRANCH  13  14
ENDBRANCH  12  13
ENDBRANCH   1  12
TORSDOF 16
ENDMDL
MODEL 2
REMARK VINA RESULT:    -3.916      2.738      5.195
REMARK INTER + INTRA:          -9.902
REMARK INTER:                  -7.379
REMARK INTRA:                  -2.523
REMARK UNBOUND:                -2.323
REMARK SMILES CCCCCCCCCCCCCCCCCC(=O)[O-]
REMARK SMILES IDX 10 1 11 2 12 3 13 4 14 5 15 6 16 7 17 8 18 9 19 10 20 11
REMARK SMILES IDX 9 12 8 13 7 14 6 15 5 16 4 17 3 18 2 19 1 20
REMARK H PARENT
REMARK Flexibility Score: inf
ROOT
ATOM      1  C   UNL     1     161.891 175.749 183.960  1.00  0.00     0.000 C 
ENDROOT
BRANCH   1   2
ATOM      2  C   UNL     1     161.445 177.219 183.961  1.00  0.00     0.000 C 
BRANCH   2   3
ATOM      3  C   UNL     1     160.274 177.437 184.926  1.00  0.00     0.000 C 
BRANCH   3   4
ATOM      4  C   UNL     1     160.724 178.213 186.173  1.00  0.00     0.000 C 
BRANCH   4   5
ATOM      5  C   UNL     1     160.849 177.323 187.423  1.00  0.00     0.000 C 
BRANCH   5   6
ATOM      6  C   UNL     1     162.273 177.202 187.997  1.00  0.00     0.000 C 
BRANCH   6   7
ATOM      7  C   UNL     1     163.288 178.108 187.278  1.00  0.00     0.006 C 
BRANCH   7   8
ATOM      8  C   UNL     1     164.614 177.386 187.003  1.00  0.00     0.053 C 
BRANCH   8   9
ATOM      9  C   UNL     1     165.309 177.936 185.796  1.00  0.00     0.041 C 
ATOM     10  O   UNL     1     166.490 178.366 185.885  1.00  0.00    -0.550 OA
ATOM     11  O   UNL     1     164.666 177.944 184.565  1.00  0.00    -0.550 OA
ENDBRANCH   8   9
ENDBRANCH   7   8
ENDBRANCH   6   7
ENDBRANCH   5   6
ENDBRANCH   4   5
ENDBRANCH   3   4
ENDBRANCH   2   3
ENDBRANCH   1   2
BRANCH   1  12
ATOM     12  C   UNL     1     160.709 174.774 184.071  1.00  0.00     0.000 C 
BRANCH  12  13
ATOM     13  C   UNL     1     160.968 173.644 185.083  1.00  0.00    -0.000 C 
BRANCH  13  14
ATOM     14  C   UNL     1     159.992 173.682 186.271  1.00  0.00    -0.000 C 
BRANCH  14  15
ATOM     15  C   UNL     1     160.714 173.762 187.626  1.00  0.00    -0.000 C 
BRANCH  15  16
ATOM     16  C   UNL     1     162.221 173.468 187.514  1.00  0.00    -0.000 C 
BRANCH  16  17
ATOM     17  C   UNL     1     162.696 172.216 188.278  1.00  0.00    -0.000 C 
BRANCH  17  18
ATOM     18  C   UNL     1     161.613 171.149 188.527  1.00  0.00    -0.000 C 
BRANCH  18  19
ATOM     19  C   UNL     1     161.669 169.937 187.580  1.00  0.00    -0.003 C 
ATOM     20  C   UNL     1     160.814 170.121 186.326  1.00  0.00     0.004 C 
ENDBRANCH  18  19
ENDBRANCH  17  18
ENDBRANCH  16  17
ENDBRANCH  15  16
ENDBRANCH  14  15
ENDBRANCH  13  14
ENDBRANCH  12  13
ENDBRANCH   1  12
TORSDOF 16
ENDMDL
MODEL 3
REMARK VINA RESULT:    -3.899      3.854      5.519
REMARK INTER + INTRA:          -9.869
REMARK INTER:                  -7.243
REMARK INTRA:                  -2.626
REMARK UNBOUND:                -2.323
REMARK SMILES CCCCCCCCCCCCCCCCCC(=O)[O-]
REMARK SMILES IDX 10 1 11 2 12 3 13 4 14 5 15 6 16 7 17 8 18 9 19 10 20 11
REMARK SMILES IDX 9 12 8 13 7 14 6 15 5 16 4 17 3 18 2 19 1 20
REMARK H PARENT
REMARK Flexibility Score: inf
ROOT
ATOM      1  C   UNL     1     163.500 177.901 187.321  1.00  0.00     0.000 C 
ENDROOT
BRANCH   1   2
ATOM      2  C   UNL     1     164.222 176.903 186.405  1.00  0.00     0.000 C 
BRANCH   2   3
ATOM      3  C   UNL     1     164.222 175.497 187.017  1.00  0.00     0.000 C 
BRANCH   3   4
ATOM      4  C   UNL     1     163.685 174.460 186.019  1.00  0.00     0.000 C 
BRANCH   4   5
ATOM      5  C   UNL     1     163.004 173.261 186.704  1.00  0.00     0.000 C 
BRANCH   5   6
ATOM      6  C   UNL     1     161.784 173.614 187.574  1.00  0.00     0.000 C 
BRANCH   6   7
ATOM      7  C   UNL     1     160.597 172.660 187.355  1.00  0.00     0.006 C 
BRANCH   7   8
ATOM      8  C   UNL     1     160.693 171.406 188.235  1.00  0.00     0.053 C 
BRANCH   8   9
ATOM      9  C   UNL     1     161.035 170.187 187.435  1.00  0.00     0.041 C 
ATOM     10  O   UNL     1     160.171 169.657 186.686  1.00  0.00    -0.550 OA
ATOM     11  O   UNL     1     162.316 169.654 187.491  1.00  0.00    -0.550 OA
ENDBRANCH   8   9
ENDBRANCH   7   8
ENDBRANCH   6   7
ENDBRANCH   5   6
ENDBRANCH   4   5
ENDBRANCH   3   4
ENDBRANCH   2   3
ENDBRANCH   1   2
BRANCH   1  12
ATOM     12  C   UNL     1     162.477 177.223 188.244  1.00  0.00     0.000 C 
BRANCH  12  13
ATOM     13  C   UNL     1     161.069 177.162 187.624  1.00  0.00    -0.000 C 
BRANCH  13  14
ATOM     14  C   UNL     1     160.820 178.299 186.620  1.00  0.00    -0.000 C 
BRANCH  14  15
ATOM     15  C   UNL     1     160.532 177.780 185.201  1.00  0.00    -0.000 C 
BRANCH  15  16
ATOM     16  C   UNL     1     160.744 176.261 185.070  1.00  0.00    -0.000 C 
BRANCH  16  17
ATOM     17  C   UNL     1     160.717 175.725 183.625  1.00  0.00    -0.000 C 
BRANCH  17  18
ATOM     18  C   UNL     1     161.546 176.535 182.609  1.00  0.00    -0.000 C 
BRANCH  18  19
ATOM     19  C   UNL     1     163.066 176.506 182.846  1.00  0.00    -0.003 C 
ATOM     20  C   UNL     1     163.694 177.900 182.852  1.00  0.00     0.004 C 
ENDBRANCH  18  19
ENDBRANCH  17  18
ENDBRANCH  16  17
ENDBRANCH  15  16
ENDBRANCH  14  15
ENDBRANCH  13  14
ENDBRANCH  12  13
ENDBRANCH   1  12
TORSDOF 16
ENDMDL
MODEL 4
REMARK VINA RESULT:    -3.878      3.874      6.656
REMARK INTER + INTRA:          -9.827
REMARK INTER:                  -7.857
REMARK INTRA:                  -1.971
REMARK UNBOUND:                -2.323
REMARK SMILES CCCCCCCCCCCCCCCCCC(=O)[O-]
REMARK SMILES IDX 10 1 11 2 12 3 13 4 14 5 15 6 16 7 17 8 18 9 19 10 20 11
REMARK SMILES IDX 9 12 8 13 7 14 6 15 5 16 4 17 3 18 2 19 1 20
REMARK H PARENT
REMARK Flexibility Score: inf
ROOT
ATOM      1  C   UNL     1     161.044 178.103 185.614  1.00  0.00     0.000 C 
ENDROOT
BRANCH   1   2
ATOM      2  C   UNL     1     160.528 176.909 184.798  1.00  0.00     0.000 C 
BRANCH   2   3
ATOM      3  C   UNL     1     161.604 175.824 184.673  1.00  0.00     0.000 C 
BRANCH   3   4
ATOM      4  C   UNL     1     161.123 174.497 185.279  1.00  0.00     0.000 C 
BRANCH   4   5
ATOM      5  C   UNL     1     160.217 174.691 186.509  1.00  0.00     0.000 C 
BRANCH   5   6
ATOM      6  C   UNL     1     160.340 173.599 187.587  1.00  0.00     0.000 C 
BRANCH   6   7
ATOM      7  C   UNL     1     161.579 172.707 187.397  1.00  0.00     0.006 C 
BRANCH   7   8
ATOM      8  C   UNL     1     161.373 171.300 187.975  1.00  0.00     0.053 C 
BRANCH   8   9
ATOM      9  C   UNL     1     160.757 170.370 186.976  1.00  0.00     0.041 C 
ATOM     10  O   UNL     1     160.550 169.164 187.276  1.00  0.00    -0.550 OA
ATOM     11  O   UNL     1     160.382 170.842 185.724  1.00  0.00    -0.550 OA
ENDBRANCH   8   9
ENDBRANCH   7   8
ENDBRANCH   6   7
ENDBRANCH   5   6
ENDBRANCH   4   5
ENDBRANCH   3   4
ENDBRANCH   2   3
ENDBRANCH   1   2
BRANCH   1  12
ATOM     12  C   UNL     1     160.303 178.270 186.950  1.00  0.00     0.000 C 
BRANCH  12  13
ATOM     13  C   UNL     1     161.149 177.821 188.155  1.00  0.00    -0.000 C 
BRANCH  13  14
ATOM     14  C   UNL     1     162.657 177.851 187.859  1.00  0.00    -0.000 C 
BRANCH  14  15
ATOM     15  C   UNL     1     163.281 176.445 187.832  1.00  0.00    -0.000 C 
BRANCH  15  16
ATOM     16  C   UNL     1     164.508 176.357 186.907  1.00  0.00    -0.000 C 
BRANCH  16  17
ATOM     17  C   UNL     1     165.457 177.570 186.971  1.00  0.00    -0.000 C 
BRANCH  17  18
ATOM     18  C   UNL     1     166.885 177.313 186.450  1.00  0.00    -0.000 C 
BRANCH  18  19
ATOM     19  C   UNL     1     167.922 176.988 187.539  1.00  0.00    -0.003 C 
ATOM     20  C   UNL     1     168.160 178.152 188.501  1.00  0.00     0.004 C 
ENDBRANCH  18  19
ENDBRANCH  17  18
ENDBRANCH  16  17
ENDBRANCH  15  16
ENDBRANCH  14  15
ENDBRANCH  13  14
ENDBRANCH  12  13
ENDBRANCH   1  12
TORSDOF 16
ENDMDL
MODEL 5
REMARK VINA RESULT:    -3.870      3.683      5.691
REMARK INTER + INTRA:          -9.812
REMARK INTER:                  -6.859
REMARK INTRA:                  -2.953
REMARK UNBOUND:                -2.323
REMARK SMILES CCCCCCCCCCCCCCCCCC(=O)[O-]
REMARK SMILES IDX 10 1 11 2 12 3 13 4 14 5 15 6 16 7 17 8 18 9 19 10 20 11
REMARK SMILES IDX 9 12 8 13 7 14 6 15 5 16 4 17 3 18 2 19 1 20
REMARK H PARENT
REMARK Flexibility Score: inf
ROOT
ATOM      1  C   UNL     1     163.842 178.582 186.101  1.00  0.00     0.000 C 
ENDROOT
BRANCH   1   2
ATOM      2  C   UNL     1     163.474 178.314 187.568  1.00  0.00     0.000 C 
BRANCH   2   3
ATOM      3  C   UNL     1     162.049 177.759 187.683  1.00  0.00     0.000 C 
BRANCH   3   4
ATOM      4  C   UNL     1     161.376 177.676 186.304  1.00  0.00     0.000 C 
BRANCH   4   5
ATOM      5  C   UNL     1     160.616 176.356 186.085  1.00  0.00     0.000 C 
BRANCH   5   6
ATOM      6  C   UNL     1     160.464 175.475 187.338  1.00  0.00     0.000 C 
BRANCH   6   7
ATOM      7  C   UNL     1     160.050 174.030 187.008  1.00  0.00     0.006 C 
BRANCH   7   8
ATOM      8  C   UNL     1     161.030 173.001 187.586  1.00  0.00     0.053 C 
BRANCH   8   9
ATOM      9  C   UNL     1     160.660 171.601 187.204  1.00  0.00     0.041 C 
ATOM     10  O   UNL     1     160.641 170.690 188.074  1.00  0.00    -0.550 OA
ATOM     11  O   UNL     1     160.306 171.307 185.893  1.00  0.00    -0.550 OA
ENDBRANCH   8   9
ENDBRANCH   7   8
ENDBRANCH   6   7
ENDBRANCH   5   6
ENDBRANCH   4   5
ENDBRANCH   3   4
ENDBRANCH   2   3
ENDBRANCH   1   2
BRANCH   1  12
ATOM     12  C   UNL     1     165.288 178.181 185.772  1.00  0.00     0.000 C 
BRANCH  12  13
ATOM     13  C   UNL     1     165.931 177.326 186.879  1.00  0.00    -0.000 C 
BRANCH  13  14
ATOM     14  C   UNL     1     166.080 175.851 186.472  1.00  0.00    -0.000 C 
BRANCH  14  15
ATOM     15  C   UNL     1     164.941 174.972 187.015  1.00  0.00    -0.000 C 
BRANCH  15  16
ATOM     16  C   UNL     1     163.810 174.767 185.991  1.00  0.00    -0.000 C 
BRANCH  16  17
ATOM     17  C   UNL     1     164.264 174.746 184.518  1.00  0.00    -0.000 C 
BRANCH  17  18
ATOM     18  C   UNL     1     163.405 175.590 183.556  1.00  0.00    -0.000 C 
BRANCH  18  19
ATOM     19  C   UNL     1     164.197 176.575 182.678  1.00  0.00    -0.003 C 
ATOM     20  C   UNL     1     163.506 177.931 182.534  1.00  0.00     0.004 C 
ENDBRANCH  18  19
ENDBRANCH  17  18
ENDBRANCH  16  17
ENDBRANCH  15  16
ENDBRANCH  14  15
ENDBRANCH  13  14
ENDBRANCH  12  13
ENDBRANCH   1  12
TORSDOF 16
ENDMDL
MODEL 6
REMARK VINA RESULT:    -3.853      3.746      6.206
REMARK INTER + INTRA:          -9.780
REMARK INTER:                  -6.733
REMARK INTRA:                  -3.047
REMARK UNBOUND:                -2.323
REMARK SMILES CCCCCCCCCCCCCCCCCC(=O)[O-]
REMARK SMILES IDX 10 1 11 2 12 3 13 4 14 5 15 6 16 7 17 8 18 9 19 10 20 11
REMARK SMILES IDX 9 12 8 13 7 14 6 15 5 16 4 17 3 18 2 19 1 20
REMARK H PARENT
REMARK Flexibility Score: inf
ROOT
ATOM      1  C   UNL     1     164.804 175.175 186.828  1.00  0.00     0.000 C 
ENDROOT
BRANCH   1   2
ATOM      2  C   UNL     1     163.693 174.141 187.069  1.00  0.00     0.000 C 
BRANCH   2   3
ATOM      3  C   UNL     1     163.012 173.751 185.752  1.00  0.00     0.000 C 
BRANCH   3   4
ATOM      4  C   UNL     1     161.701 172.994 186.012  1.00  0.00     0.000 C 
BRANCH   4   5
ATOM      5  C   UNL     1     161.115 173.268 187.409  1.00  0.00     0.000 C 
BRANCH   5   6
ATOM      6  C   UNL     1     160.567 172.030 188.140  1.00  0.00     0.000 C 
BRANCH   6   7
ATOM      7  C   UNL     1     161.592 170.886 188.233  1.00  0.00     0.006 C 
BRANCH   7   8
ATOM      8  C   UNL     1     162.693 171.179 189.260  1.00  0.00     0.053 C 
BRANCH   8   9
ATOM      9  C   UNL     1     164.016 170.618 188.837  1.00  0.00     0.041 C 
ATOM     10  O   UNL     1     164.110 169.413 188.480  1.00  0.00    -0.550 OA
ATOM     11  O   UNL     1     165.140 171.434 188.805  1.00  0.00    -0.550 OA
ENDBRANCH   8   9
ENDBRANCH   7   8
ENDBRANCH   6   7
ENDBRANCH   5   6
ENDBRANCH   4   5
ENDBRANCH   3   4
ENDBRANCH   2   3
ENDBRANCH   1   2
BRANCH   1  12
ATOM     12  C   UNL     1     164.726 175.810 185.432  1.00  0.00     0.000 C 
BRANCH  12  13
ATOM     13  C   UNL     1     164.655 177.347 185.484  1.00  0.00    -0.000 C 
BRANCH  13  14
ATOM     14  C   UNL     1     164.626 177.885 186.924  1.00  0.00    -0.000 C 
BRANCH  14  15
ATOM     15  C   UNL     1     163.259 178.476 187.306  1.00  0.00    -0.000 C 
BRANCH  15  16
ATOM     16  C   UNL     1     162.440 177.542 188.214  1.00  0.00    -0.000 C 
BRANCH  16  17
ATOM     17  C   UNL     1     161.142 176.999 187.584  1.00  0.00    -0.000 C 
BRANCH  17  18
ATOM     18  C   UNL     1     160.813 177.549 186.182  1.00  0.00    -0.000 C 
BRANCH  18  19
ATOM     19  C   UNL     1     160.662 176.479 185.087  1.00  0.00    -0.003 C 
ATOM     20  C   UNL     1     161.444 176.813 183.816  1.00  0.00     0.004 C 
ENDBRANCH  18  19
ENDBRANCH  17  18
ENDBRANCH  16  17
ENDBRANCH  15  16
ENDBRANCH  14  15
ENDBRANCH  13  14
ENDBRANCH  12  13
ENDBRANCH   1  12
TORSDOF 16
ENDMDL
MODEL 7
REMARK VINA RESULT:    -3.819      3.046      5.847
REMARK INTER + INTRA:          -9.714
REMARK INTER:                  -7.034
REMARK INTRA:                  -2.680
REMARK UNBOUND:                -2.323
REMARK SMILES CCCCCCCCCCCCCCCCCC(=O)[O-]
REMARK SMILES IDX 10 1 11 2 12 3 13 4 14 5 15 6 16 7 17 8 18 9 19 10 20 11
REMARK SMILES IDX 9 12 8 13 7 14 6 15 5 16 4 17 3 18 2 19 1 20
REMARK H PARENT
REMARK Flexibility Score: inf
ROOT
ATOM      1  C   UNL     1     164.643 176.662 186.831  1.00  0.00     0.000 C 
ENDROOT
BRANCH   1   2
ATOM      2  C   UNL     1     163.618 177.775 187.095  1.00  0.00     0.000 C 
BRANCH   2   3
ATOM      3  C   UNL     1     162.578 177.329 188.130  1.00  0.00     0.000 C 
BRANCH   3   4
ATOM      4  C   UNL     1     161.168 177.789 187.729  1.00  0.00     0.000 C 
BRANCH   4   5
ATOM      5  C   UNL     1     160.960 177.830 186.204  1.00  0.00     0.000 C 
BRANCH   5   6
ATOM      6  C   UNL     1     160.550 176.491 185.566  1.00  0.00     0.000 C 
BRANCH   6   7
ATOM      7  C   UNL     1     160.905 176.406 184.071  1.00  0.00     0.006 C 
BRANCH   7   8
ATOM      8  C   UNL     1     161.377 177.754 183.511  1.00  0.00     0.053 C 
BRANCH   8   9
ATOM      9  C   UNL     1     162.593 177.607 182.650  1.00  0.00     0.041 C 
ATOM     10  O   UNL     1     163.250 178.624 182.301  1.00  0.00    -0.550 OA
ATOM     11  O   UNL     1     163.020 176.344 182.259  1.00  0.00    -0.550 OA
ENDBRANCH   8   9
ENDBRANCH   7   8
ENDBRANCH   6   7
ENDBRANCH   5   6
ENDBRANCH   4   5
ENDBRANCH   3   4
ENDBRANCH   2   3
ENDBRANCH   1   2
BRANCH   1  12
ATOM     12  C   UNL     1     164.346 175.878 185.544  1.00  0.00     0.000 C 
BRANCH  12  13
ATOM     13  C   UNL     1     163.673 174.521 185.820  1.00  0.00    -0.000 C 
BRANCH  13  14
ATOM     14  C   UNL     1     164.130 173.898 187.149  1.00  0.00    -0.000 C 
BRANCH  14  15
ATOM     15  C   UNL     1     162.949 173.467 188.034  1.00  0.00    -0.000 C 
BRANCH  15  16
ATOM     16  C   UNL     1     161.586 173.865 187.442  1.00  0.00    -0.000 C 
BRANCH  16  17
ATOM     17  C   UNL     1     160.505 172.768 187.506  1.00  0.00    -0.000 C 
BRANCH  17  18
ATOM     18  C   UNL     1     160.913 171.488 188.262  1.00  0.00    -0.000 C 
BRANCH  18  19
ATOM     19  C   UNL     1     161.010 170.225 187.390  1.00  0.00    -0.003 C 
ATOM     20  C   UNL     1     162.431 169.669 187.304  1.00  0.00     0.004 C 
ENDBRANCH  18  19
ENDBRANCH  17  18
ENDBRANCH  16  17
ENDBRANCH  15  16
ENDBRANCH  14  15
ENDBRANCH  13  14
ENDBRANCH  12  13
ENDBRANCH   1  12
TORSDOF 16
ENDMDL
MODEL 8
REMARK VINA RESULT:    -3.787      1.976      3.843
REMARK INTER + INTRA:          -9.652
REMARK INTER:                  -6.887
REMARK INTRA:                  -2.764
REMARK UNBOUND:                -2.323
REMARK SMILES CCCCCCCCCCCCCCCCCC(=O)[O-]
REMARK SMILES IDX 10 1 11 2 12 3 13 4 14 5 15 6 16 7 17 8 18 9 19 10 20 11
REMARK SMILES IDX 9 12 8 13 7 14 6 15 5 16 4 17 3 18 2 19 1 20
REMARK H PARENT
REMARK Flexibility Score: inf
ROOT
ATOM      1  C   UNL     1     161.190 178.240 185.875  1.00  0.00     0.000 C 
ENDROOT
BRANCH   1   2
ATOM      2  C   UNL     1     160.565 178.212 187.278  1.00  0.00     0.000 C 
BRANCH   2   3
ATOM      3  C   UNL     1     161.464 177.455 188.263  1.00  0.00     0.000 C 
BRANCH   3   4
ATOM      4  C   UNL     1     161.828 176.064 187.722  1.00  0.00     0.000 C 
BRANCH   4   5
ATOM      5  C   UNL     1     163.319 175.722 187.896  1.00  0.00     0.000 C 
BRANCH   5   6
ATOM      6  C   UNL     1     164.112 175.582 186.584  1.00  0.00     0.000 C 
BRANCH   6   7
ATOM      7  C   UNL     1     164.309 176.923 185.856  1.00  0.00     0.006 C 
BRANCH   7   8
ATOM      8  C   UNL     1     164.950 177.984 186.761  1.00  0.00     0.053 C 
BRANCH   8   9
ATOM      9  C   UNL     1     166.445 177.924 186.719  1.00  0.00     0.041 C 
ATOM     10  O   UNL     1     167.091 177.485 187.708  1.00  0.00    -0.550 OA
ATOM     11  O   UNL     1     167.126 178.324 185.576  1.00  0.00    -0.550 OA
ENDBRANCH   8   9
ENDBRANCH   7   8
ENDBRANCH   6   7
ENDBRANCH   5   6
ENDBRANCH   4   5
ENDBRANCH   3   4
ENDBRANCH   2   3
ENDBRANCH   1   2
BRANCH   1  12
ATOM     12  C   UNL     1     160.260 177.650 184.803  1.00  0.00     0.000 C 
BRANCH  12  13
ATOM     13  C   UNL     1     161.034 177.009 183.637  1.00  0.00    -0.000 C 
BRANCH  13  14
ATOM     14  C   UNL     1     160.650 175.537 183.415  1.00  0.00    -0.000 C 
BRANCH  14  15
ATOM     15  C   UNL     1     161.315 174.594 184.431  1.00  0.00    -0.000 C 
BRANCH  15  16
ATOM     16  C   UNL     1     160.298 173.910 185.361  1.00  0.00    -0.000 C 
BRANCH  16  17
ATOM     17  C   UNL     1     160.759 172.562 185.949  1.00  0.00    -0.000 C 
BRANCH  17  18
ATOM     18  C   UNL     1     160.839 172.509 187.487  1.00  0.00    -0.000 C 
BRANCH  18  19
ATOM     19  C   UNL     1     162.221 172.136 188.051  1.00  0.00    -0.003 C 
ATOM     20  C   UNL     1     163.287 171.989 186.965  1.00  0.00     0.004 C 
ENDBRANCH  18  19
ENDBRANCH  17  18
ENDBRANCH  16  17
ENDBRANCH  15  16
ENDBRANCH  14  15
ENDBRANCH  13  14
ENDBRANCH  12  13
ENDBRANCH   1  12
TORSDOF 16
ENDMDL
MODEL 9
REMARK VINA RESULT:    -3.780      2.737      5.456
REMARK INTER + INTRA:          -9.639
REMARK INTER:                  -6.895
REMARK INTRA:                  -2.744
REMARK UNBOUND:                -2.323
REMARK SMILES CCCCCCCCCCCCCCCCCC(=O)[O-]
REMARK SMILES IDX 10 1 11 2 12 3 13 4 14 5 15 6 16 7 17 8 18 9 19 10 20 11
REMARK SMILES IDX 9 12 8 13 7 14 6 15 5 16 4 17 3 18 2 19 1 20
REMARK H PARENT
REMARK Flexibility Score: inf
ROOT
ATOM      1  C   UNL     1     160.554 175.956 187.369  1.00  0.00     0.000 C 
ENDROOT
BRANCH   1   2
ATOM      2  C   UNL     1     159.906 174.572 187.525  1.00  0.00     0.000 C 
BRANCH   2   3
ATOM      3  C   UNL     1     160.887 173.460 187.133  1.00  0.00     0.000 C 
BRANCH   3   4
ATOM      4  C   UNL     1     160.274 172.532 186.073  1.00  0.00     0.000 C 
BRANCH   4   5
ATOM      5  C   UNL     1     160.926 172.690 184.687  1.00  0.00     0.000 C 
BRANCH   5   6
ATOM      6  C   UNL     1     160.300 173.776 183.793  1.00  0.00     0.000 C 
BRANCH   6   7
ATOM      7  C   UNL     1     161.090 175.096 183.813  1.00  0.00     0.006 C 
BRANCH   7   8
ATOM      8  C   UNL     1     160.560 176.102 182.782  1.00  0.00     0.053 C 
BRANCH   8   9
ATOM      9  C   UNL     1     160.902 177.513 183.152  1.00  0.00     0.041 C 
ATOM     10  O   UNL     1     161.379 178.297 182.288  1.00  0.00    -0.550 OA
ATOM     11  O   UNL     1     160.665 177.972 184.441  1.00  0.00    -0.550 OA
ENDBRANCH   8   9
ENDBRANCH   7   8
ENDBRANCH   6   7
ENDBRANCH   5   6
ENDBRANCH   4   5
ENDBRANCH   3   4
ENDBRANCH   2   3
ENDBRANCH   1   2
BRANCH   1  12
ATOM     12  C   UNL     1     162.086 175.907 187.479  1.00  0.00     0.000 C 
BRANCH  12  13
ATOM     13  C   UNL     1     162.674 177.179 188.116  1.00  0.00    -0.000 C 
BRANCH  13  14
ATOM     14  C   UNL     1     162.800 178.336 187.112  1.00  0.00    -0.000 C 
BRANCH  14  15
ATOM     15  C   UNL     1     164.234 178.882 187.019  1.00  0.00    -0.000 C 
BRANCH  15  16
ATOM     16  C   UNL     1     165.075 178.165 185.947  1.00  0.00    -0.000 C 
BRANCH  16  17
ATOM     17  C   UNL     1     164.320 177.834 184.644  1.00  0.00    -0.000 C 
BRANCH  17  18
ATOM     18  C   UNL     1     164.329 176.346 184.241  1.00  0.00    -0.000 C 
BRANCH  18  19
ATOM     19  C   UNL     1     165.008 175.406 185.251  1.00  0.00    -0.003 C 
ATOM     20  C   UNL     1     164.375 174.014 185.287  1.00  0.00     0.004 C 
ENDBRANCH  18  19
ENDBRANCH  17  18
ENDBRANCH  16  17
ENDBRANCH  15  16
ENDBRANCH  14  15
ENDBRANCH  13  14
ENDBRANCH  12  13
ENDBRANCH   1  12
TORSDOF 16
ENDMDL
