MODEL 1
REMARK VINA RESULT:    -5.052      0.000      0.000
REMARK INTER + INTRA:          -5.925
REMARK INTER:                  -5.790
REMARK INTRA:                  -0.135
REMARK UNBOUND:                -0.135
REMARK SMILES O=C([O-])C=Cc1ccc(O)cc1
REMARK SMILES IDX 6 1 7 2 12 3 8 4 11 5 9 6 5 7 4 8 2 9 1 10 3 11 10 12
REMARK H PARENT 10 13
REMARK Flexibility Score: inf
ROOT
ATOM      1  C   UNL     1       5.310   7.185   1.033  1.00  0.00    -0.025 A 
ATOM      2  C   UNL     1       6.520   7.585   0.439  1.00  0.00     0.012 A 
ATOM      3  C   UNL     1       4.741   8.003   2.030  1.00  0.00     0.012 A 
ATOM      4  C   UNL     1       7.134   8.784   0.813  1.00  0.00     0.047 A 
ATOM      5  C   UNL     1       5.359   9.200   2.403  1.00  0.00     0.047 A 
ATOM      6  C   UNL     1       6.554   9.595   1.796  1.00  0.00     0.115 A 
ENDROOT
BRANCH   1   7
ATOM      7  C   UNL     1       4.702   5.900   0.608  1.00  0.00     0.010 C 
ATOM      8  C   UNL     1       3.690   5.808  -0.266  1.00  0.00     0.025 C 
BRANCH   8   9
ATOM      9  C   UNL     1       3.124   4.509  -0.667  1.00  0.00     0.064 C 
ATOM     10  O   UNL     1       3.887   3.518  -0.810  1.00  0.00    -0.545 OA
ATOM     11  O   UNL     1       1.761   4.359  -0.891  1.00  0.00    -0.545 OA
ENDBRANCH   8   9
ENDBRANCH   1   7
BRANCH   6  12
ATOM     12  O   UNL     1       7.157  10.792   2.176  1.00  0.00    -0.508 OA
ATOM     13  H   UNL     1       6.773  11.365   2.919  1.00  0.00     0.293 HD
ENDBRANCH   6  12
TORSDOF 3
ENDMDL
MODEL 2
REMARK VINA RESULT:    -4.731      1.958      6.167
REMARK INTER + INTRA:          -5.558
REMARK INTER:                  -5.421
REMARK INTRA:                  -0.137
REMARK UNBOUND:                -0.135
REMARK SMILES O=C([O-])C=Cc1ccc(O)cc1
REMARK SMILES IDX 6 1 7 2 12 3 8 4 11 5 9 6 5 7 4 8 2 9 1 10 3 11 10 12
REMARK H PARENT 10 13
REMARK Flexibility Score: inf
ROOT
ATOM      1  C   UNL     1       4.044   4.740   0.247  1.00  0.00    -0.025 A 
ATOM      2  C   UNL     1       2.930   5.058  -0.550  1.00  0.00     0.012 A 
ATOM      3  C   UNL     1       4.712   3.519   0.020  1.00  0.00     0.012 A 
ATOM      4  C   UNL     1       2.509   4.194  -1.564  1.00  0.00     0.047 A 
ATOM      5  C   UNL     1       4.286   2.656  -0.993  1.00  0.00     0.047 A 
ATOM      6  C   UNL     1       3.187   2.990  -1.789  1.00  0.00     0.115 A 
ENDROOT
BRANCH   1   7
ATOM      7  C   UNL     1       4.447   5.686   1.315  1.00  0.00     0.010 C 
ATOM      8  C   UNL     1       4.958   6.903   1.079  1.00  0.00     0.025 C 
BRANCH   8   9
ATOM      9  C   UNL     1       5.334   7.813   2.173  1.00  0.00     0.064 C 
ATOM     10  O   UNL     1       5.146   9.051   2.042  1.00  0.00    -0.545 OA
ATOM     11  O   UNL     1       5.895   7.329   3.349  1.00  0.00    -0.545 OA
ENDBRANCH   8   9
ENDBRANCH   1   7
BRANCH   6  12
ATOM     12  O   UNL     1       2.776   2.120  -2.796  1.00  0.00    -0.508 OA
ATOM     13  H   UNL     1       3.311   1.293  -3.033  1.00  0.00     0.293 HD
ENDBRANCH   6  12
TORSDOF 3
ENDMDL
MODEL 3
REMARK VINA RESULT:    -4.725      2.016      6.115
REMARK INTER + INTRA:          -5.551
REMARK INTER:                  -5.413
REMARK INTRA:                  -0.138
REMARK UNBOUND:                -0.135
REMARK SMILES O=C([O-])C=Cc1ccc(O)cc1
REMARK SMILES IDX 6 1 7 2 12 3 8 4 11 5 9 6 5 7 4 8 2 9 1 10 3 11 10 12
REMARK H PARENT 10 13
REMARK Flexibility Score: inf
ROOT
ATOM      1  C   UNL     1       4.046   4.667   0.184  1.00  0.00    -0.025 A 
ATOM      2  C   UNL     1       4.735   3.464  -0.046  1.00  0.00     0.012 A 
ATOM      3  C   UNL     1       2.939   4.981  -0.632  1.00  0.00     0.012 A 
ATOM      4  C   UNL     1       4.317   2.583  -1.047  1.00  0.00     0.047 A 
ATOM      5  C   UNL     1       2.525   4.099  -1.634  1.00  0.00     0.047 A 
ATOM      6  C   UNL     1       3.209   2.898  -1.844  1.00  0.00     0.115 A 
ENDROOT
BRANCH   1   7
ATOM      7  C   UNL     1       4.534   5.572   1.252  1.00  0.00     0.010 C 
ATOM      8  C   UNL     1       4.793   6.874   1.065  1.00  0.00     0.025 C 
BRANCH   8   9
ATOM      9  C   UNL     1       5.267   7.738   2.159  1.00  0.00     0.064 C 
ATOM     10  O   UNL     1       5.192   8.988   2.039  1.00  0.00    -0.545 OA
ATOM     11  O   UNL     1       5.798   7.195   3.323  1.00  0.00    -0.545 OA
ENDBRANCH   8   9
ENDBRANCH   1   7
BRANCH   6  12
ATOM     12  O   UNL     1       2.782   2.028  -2.844  1.00  0.00    -0.508 OA
ATOM     13  H   UNL     1       1.996   1.404  -2.704  1.00  0.00     0.293 HD
ENDBRANCH   6  12
TORSDOF 3
ENDMDL
MODEL 4
REMARK VINA RESULT:    -4.619      5.045      7.273
REMARK INTER + INTRA:          -5.429
REMARK INTER:                  -5.287
REMARK INTRA:                  -0.142
REMARK UNBOUND:                -0.135
REMARK SMILES O=C([O-])C=Cc1ccc(O)cc1
REMARK SMILES IDX 6 1 7 2 12 3 8 4 11 5 9 6 5 7 4 8 2 9 1 10 3 11 10 12
REMARK H PARENT 10 13
REMARK Flexibility Score: inf
ROOT
ATOM      1  C   UNL     1       3.986  10.694   4.897  1.00  0.00    -0.025 A 
ATOM      2  C   UNL     1       4.588  11.954   4.736  1.00  0.00     0.012 A 
ATOM      3  C   UNL     1       4.398   9.635   4.062  1.00  0.00     0.012 A 
ATOM      4  C   UNL     1       5.594  12.148   3.786  1.00  0.00     0.047 A 
ATOM      5  C   UNL     1       5.403   9.832   3.111  1.00  0.00     0.047 A 
ATOM      6  C   UNL     1       6.005  11.086   2.971  1.00  0.00     0.115 A 
ENDROOT
BRANCH   1   7
ATOM      7  C   UNL     1       2.916  10.543   5.913  1.00  0.00     0.010 C 
ATOM      8  C   UNL     1       3.020  10.983   7.175  1.00  0.00     0.025 C 
BRANCH   8   9
ATOM      9  C   UNL     1       1.928  10.820   8.148  1.00  0.00     0.064 C 
ATOM     10  O   UNL     1       2.148  10.223   9.234  1.00  0.00    -0.545 OA
ATOM     11  O   UNL     1       0.654  11.312   7.886  1.00  0.00    -0.545 OA
ENDBRANCH   8   9
ENDBRANCH   1   7
BRANCH   6  12
ATOM     12  O   UNL     1       7.007  11.266   2.020  1.00  0.00    -0.508 OA
ATOM     13  H   UNL     1       7.081  10.664   1.208  1.00  0.00     0.293 HD
ENDBRANCH   6  12
TORSDOF 3
ENDMDL
MODEL 5
REMARK VINA RESULT:    -4.492      3.906      5.777
REMARK INTER + INTRA:          -5.284
REMARK INTER:                  -5.142
REMARK INTRA:                  -0.142
REMARK UNBOUND:                -0.135
REMARK SMILES O=C([O-])C=Cc1ccc(O)cc1
REMARK SMILES IDX 6 1 7 2 12 3 8 4 11 5 9 6 5 7 4 8 2 9 1 10 3 11 10 12
REMARK H PARENT 10 13
REMARK Flexibility Score: inf
ROOT
ATOM      1  C   UNL     1       4.076  10.314   4.251  1.00  0.00    -0.025 A 
ATOM      2  C   UNL     1       3.983  11.653   4.670  1.00  0.00     0.012 A 
ATOM      3  C   UNL     1       3.169   9.373   4.779  1.00  0.00     0.012 A 
ATOM      4  C   UNL     1       2.993  12.049   5.574  1.00  0.00     0.047 A 
ATOM      5  C   UNL     1       2.182   9.772   5.685  1.00  0.00     0.047 A 
ATOM      6  C   UNL     1       2.089  11.109   6.084  1.00  0.00     0.115 A 
ENDROOT
BRANCH   1   7
ATOM      7  C   UNL     1       5.149   9.943   3.296  1.00  0.00     0.010 C 
ATOM      8  C   UNL     1       5.085   8.882   2.479  1.00  0.00     0.025 C 
BRANCH   8   9
ATOM      9  C   UNL     1       6.171   8.558   1.540  1.00  0.00     0.064 C 
ATOM     10  O   UNL     1       7.212   9.264   1.527  1.00  0.00    -0.545 OA
ATOM     11  O   UNL     1       6.065   7.483   0.664  1.00  0.00    -0.545 OA
ENDBRANCH   8   9
ENDBRANCH   1   7
BRANCH   6  12
ATOM     12  O   UNL     1       1.099  11.491   6.985  1.00  0.00    -0.508 OA
ATOM     13  H   UNL     1       0.409  12.194   6.748  1.00  0.00     0.293 HD
ENDBRANCH   6  12
TORSDOF 3
ENDMDL
MODEL 6
REMARK VINA RESULT:    -4.425      3.378      5.625
REMARK INTER + INTRA:          -5.207
REMARK INTER:                  -5.053
REMARK INTRA:                  -0.154
REMARK UNBOUND:                -0.135
REMARK SMILES O=C([O-])C=Cc1ccc(O)cc1
REMARK SMILES IDX 6 1 7 2 12 3 8 4 11 5 9 6 5 7 4 8 2 9 1 10 3 11 10 12
REMARK H PARENT 10 13
REMARK Flexibility Score: inf
ROOT
ATOM      1  C   UNL     1       5.049   8.888   2.861  1.00  0.00    -0.025 A 
ATOM      2  C   UNL     1       6.101   9.786   2.607  1.00  0.00     0.012 A 
ATOM      3  C   UNL     1       4.943   7.728   2.067  1.00  0.00     0.012 A 
ATOM      4  C   UNL     1       7.038   9.522   1.605  1.00  0.00     0.047 A 
ATOM      5  C   UNL     1       5.880   7.468   1.063  1.00  0.00     0.047 A 
ATOM      6  C   UNL     1       6.931   8.360   0.830  1.00  0.00     0.115 A 
ENDROOT
BRANCH   1   7
ATOM      7  C   UNL     1       4.076   9.218   3.930  1.00  0.00     0.010 C 
ATOM      8  C   UNL     1       3.986  10.424   4.509  1.00  0.00     0.025 C 
BRANCH   8   9
ATOM      9  C   UNL     1       2.996  10.709   5.561  1.00  0.00     0.064 C 
ATOM     10  O   UNL     1       2.068   9.888   5.779  1.00  0.00    -0.545 OA
ATOM     11  O   UNL     1       3.068  11.873   6.317  1.00  0.00    -0.545 OA
ENDBRANCH   8   9
ENDBRANCH   1   7
BRANCH   6  12
ATOM     12  O   UNL     1       7.858   8.086  -0.172  1.00  0.00    -0.508 OA
ATOM     13  H   UNL     1       8.118   8.784  -0.859  1.00  0.00     0.293 HD
ENDBRANCH   6  12
TORSDOF 3
ENDMDL
MODEL 7
REMARK VINA RESULT:    -4.419      2.595      3.808
REMARK INTER + INTRA:          -5.200
REMARK INTER:                  -5.051
REMARK INTRA:                  -0.149
REMARK UNBOUND:                -0.135
REMARK SMILES O=C([O-])C=Cc1ccc(O)cc1
REMARK SMILES IDX 6 1 7 2 12 3 8 4 11 5 9 6 5 7 4 8 2 9 1 10 3 11 10 12
REMARK H PARENT 10 13
REMARK Flexibility Score: inf
ROOT
ATOM      1  C   UNL     1       4.145   4.156  -0.129  1.00  0.00    -0.025 A 
ATOM      2  C   UNL     1       3.564   5.291  -0.723  1.00  0.00     0.012 A 
ATOM      3  C   UNL     1       5.084   4.340   0.906  1.00  0.00     0.012 A 
ATOM      4  C   UNL     1       3.891   6.574  -0.278  1.00  0.00     0.047 A 
ATOM      5  C   UNL     1       5.411   5.625   1.347  1.00  0.00     0.047 A 
ATOM      6  C   UNL     1       4.815   6.745   0.759  1.00  0.00     0.115 A 
ENDROOT
BRANCH   1   7
ATOM      7  C   UNL     1       3.771   2.816  -0.643  1.00  0.00     0.010 C 
ATOM      8  C   UNL     1       3.276   2.599  -1.869  1.00  0.00     0.025 C 
BRANCH   8   9
ATOM      9  C   UNL     1       2.928   1.249  -2.340  1.00  0.00     0.064 C 
ATOM     10  O   UNL     1       1.718   0.914  -2.427  1.00  0.00    -0.545 OA
ATOM     11  O   UNL     1       3.916   0.335  -2.690  1.00  0.00    -0.545 OA
ENDBRANCH   8   9
ENDBRANCH   1   7
BRANCH   6  12
ATOM     12  O   UNL     1       5.150   8.019   1.211  1.00  0.00    -0.508 OA
ATOM     13  H   UNL     1       4.502   8.795   1.136  1.00  0.00     0.293 HD
ENDBRANCH   6  12
TORSDOF 3
ENDMDL
MODEL 8
REMARK VINA RESULT:    -4.413      3.074      6.804
REMARK INTER + INTRA:          -5.193
REMARK INTER:                  -5.041
REMARK INTRA:                  -0.152
REMARK UNBOUND:                -0.135
REMARK SMILES O=C([O-])C=Cc1ccc(O)cc1
REMARK SMILES IDX 6 1 7 2 12 3 8 4 11 5 9 6 5 7 4 8 2 9 1 10 3 11 10 12
REMARK H PARENT 10 13
REMARK Flexibility Score: inf
ROOT
ATOM      1  C   UNL     1       4.356   3.117  -0.470  1.00  0.00    -0.025 A 
ATOM      2  C   UNL     1       3.498   3.371  -1.554  1.00  0.00     0.012 A 
ATOM      3  C   UNL     1       4.968   1.850  -0.373  1.00  0.00     0.012 A 
ATOM      4  C   UNL     1       3.275   2.397  -2.530  1.00  0.00     0.047 A 
ATOM      5  C   UNL     1       4.742   0.877  -1.351  1.00  0.00     0.047 A 
ATOM      6  C   UNL     1       3.898   1.147  -2.432  1.00  0.00     0.115 A 
ENDROOT
BRANCH   1   7
ATOM      7  C   UNL     1       4.553   4.180   0.545  1.00  0.00     0.010 C 
ATOM      8  C   UNL     1       4.071   5.425   0.423  1.00  0.00     0.025 C 
BRANCH   8   9
ATOM      9  C   UNL     1       4.283   6.446   1.462  1.00  0.00     0.064 C 
ATOM     10  O   UNL     1       3.756   6.297   2.594  1.00  0.00    -0.545 OA
ATOM     11  O   UNL     1       5.056   7.575   1.212  1.00  0.00    -0.545 OA
ENDBRANCH   8   9
ENDBRANCH   1   7
BRANCH   6  12
ATOM     12  O   UNL     1       3.683   0.168  -3.399  1.00  0.00    -0.508 OA
ATOM     13  H   UNL     1       3.415   0.409  -4.347  1.00  0.00     0.293 HD
ENDBRANCH   6  12
TORSDOF 3
ENDMDL
MODEL 9
REMARK VINA RESULT:    -4.390      4.306      6.392
REMARK INTER + INTRA:          -5.166
REMARK INTER:                  -5.027
REMARK INTRA:                  -0.139
REMARK UNBOUND:                -0.135
REMARK SMILES O=C([O-])C=Cc1ccc(O)cc1
REMARK SMILES IDX 6 1 7 2 12 3 8 4 11 5 9 6 5 7 4 8 2 9 1 10 3 11 10 12
REMARK H PARENT 10 13
REMARK Flexibility Score: inf
ROOT
ATOM      1  C   UNL     1       4.278   2.089  -1.458  1.00  0.00    -0.025 A 
ATOM      2  C   UNL     1       3.262   2.769  -2.152  1.00  0.00     0.012 A 
ATOM      3  C   UNL     1       4.820   2.682  -0.299  1.00  0.00     0.012 A 
ATOM      4  C   UNL     1       2.780   3.996  -1.689  1.00  0.00     0.047 A 
ATOM      5  C   UNL     1       4.338   3.911   0.160  1.00  0.00     0.047 A 
ATOM      6  C   UNL     1       3.317   4.570  -0.530  1.00  0.00     0.115 A 
ENDROOT
BRANCH   1   7
ATOM      7  C   UNL     1       4.760   0.794  -1.995  1.00  0.00     0.010 C 
ATOM      8  C   UNL     1       5.470  -0.091  -1.281  1.00  0.00     0.025 C 
BRANCH   8   9
ATOM      9  C   UNL     1       5.919  -1.371  -1.853  1.00  0.00     0.064 C 
ATOM     10  O   UNL     1       7.141  -1.669  -1.822  1.00  0.00    -0.545 OA
ATOM     11  O   UNL     1       5.015  -2.255  -2.430  1.00  0.00    -0.545 OA
ENDBRANCH   8   9
ENDBRANCH   1   7
BRANCH   6  12
ATOM     12  O   UNL     1       2.846   5.793  -0.058  1.00  0.00    -0.508 OA
ATOM     13  H   UNL     1       1.912   5.889   0.325  1.00  0.00     0.293 HD
ENDBRANCH   6  12
TORSDOF 3
ENDMDL
