MODEL 1
REMARK VINA RESULT:    -3.290      0.000      0.000
REMARK INTER + INTRA:         -11.061
REMARK INTER:                  -7.136
REMARK INTRA:                  -3.924
REMARK UNBOUND:                -3.924
REMARK SMILES CCCCCCCCCCCCCCCCCCCCCC(=O)[O-]
REMARK SMILES IDX 12 1 11 2 10 3 9 4 8 5 7 6 6 7 5 8 4 9 3 10 2 11 1 12 13 13
REMARK SMILES IDX 14 14 15 15 16 16 17 17 18 18 19 19 20 20 21 21 22 22 23 23
REMARK SMILES IDX 24 24
REMARK H PARENT
REMARK Flexibility Score: inf
ROOT
ATOM      1  C   UNL     1      25.093  12.241  20.268  1.00  0.00     0.000 C 
ENDROOT
BRANCH   1   2
ATOM      2  C   UNL     1      24.096  13.346  19.866  1.00  0.00     0.000 C 
BRANCH   2   3
ATOM      3  C   UNL     1      24.069  14.573  20.799  1.00  0.00     0.000 C 
BRANCH   3   4
ATOM      4  C   UNL     1      22.900  14.602  21.799  1.00  0.00    -0.000 C 
BRANCH   4   5
ATOM      5  C   UNL     1      23.325  14.229  23.228  1.00  0.00    -0.000 C 
BRANCH   5   6
ATOM      6  C   UNL     1      24.844  14.358  23.402  1.00  0.00    -0.000 C 
BRANCH   6   7
ATOM      7  C   UNL     1      25.404  13.197  24.235  1.00  0.00    -0.000 C 
BRANCH   7   8
ATOM      8  C   UNL     1      26.686  12.599  23.634  1.00  0.00    -0.000 C 
BRANCH   8   9
ATOM      9  C   UNL     1      26.697  11.061  23.673  1.00  0.00    -0.000 C 
BRANCH   9  10
ATOM     10  C   UNL     1      28.088  10.475  23.375  1.00  0.00    -0.000 C 
BRANCH  10  11
ATOM     11  C   UNL     1      28.022   9.205  22.515  1.00  0.00    -0.003 C 
ATOM     12  C   UNL     1      28.612   9.448  21.129  1.00  0.00     0.004 C 
ENDBRANCH  10  11
ENDBRANCH   9  10
ENDBRANCH   8   9
ENDBRANCH   7   8
ENDBRANCH   6   7
ENDBRANCH   5   6
ENDBRANCH   4   5
ENDBRANCH   3   4
ENDBRANCH   2   3
ENDBRANCH   1   2
BRANCH   1  13
ATOM     13  C   UNL     1      24.483  11.063  21.057  1.00  0.00     0.000 C 
BRANCH  13  14
ATOM     14  C   UNL     1      23.003  10.769  20.751  1.00  0.00     0.000 C 
BRANCH  14  15
ATOM     15  C   UNL     1      22.072  11.070  21.935  1.00  0.00     0.000 C 
BRANCH  15  16
ATOM     16  C   UNL     1      22.296  10.062  23.071  1.00  0.00     0.000 C 
BRANCH  16  17
ATOM     17  C   UNL     1      22.720  10.726  24.393  1.00  0.00     0.000 C 
BRANCH  17  18
ATOM     18  C   UNL     1      23.715   9.915  25.243  1.00  0.00     0.000 C 
BRANCH  18  19
ATOM     19  C   UNL     1      23.882  10.467  26.668  1.00  0.00     0.000 C 
BRANCH  19  20
ATOM     20  C   UNL     1      25.336  10.347  27.140  1.00  0.00     0.006 C 
BRANCH  20  21
ATOM     21  C   UNL     1      25.825  11.664  27.754  1.00  0.00     0.053 C 
BRANCH  21  22
ATOM     22  C   UNL     1      27.221  11.972  27.308  1.00  0.00     0.041 C 
ATOM     23  O   UNL     1      28.034  11.035  27.087  1.00  0.00    -0.550 OA
ATOM     24  O   UNL     1      27.629  13.293  27.151  1.00  0.00    -0.550 OA
ENDBRANCH  21  22
ENDBRANCH  20  21
ENDBRANCH  19  20
ENDBRANCH  18  19
ENDBRANCH  17  18
ENDBRANCH  16  17
ENDBRANCH  15  16
ENDBRANCH  14  15
ENDBRANCH  13  14
ENDBRANCH   1  13
TORSDOF 20
ENDMDL
MODEL 2
REMARK VINA RESULT:    -3.289     12.336     15.583
REMARK INTER + INTRA:         -11.060
REMARK INTER:                  -7.189
REMARK INTRA:                  -3.871
REMARK UNBOUND:                -3.924
REMARK SMILES CCCCCCCCCCCCCCCCCCCCCC(=O)[O-]
REMARK SMILES IDX 12 1 11 2 10 3 9 4 8 5 7 6 6 7 5 8 4 9 3 10 2 11 1 12 13 13
REMARK SMILES IDX 14 14 15 15 16 16 17 17 18 18 19 19 20 20 21 21 22 22 23 23
REMARK SMILES IDX 24 24
REMARK H PARENT
REMARK Flexibility Score: inf
ROOT
ATOM      1  C   UNL     1      25.586  25.187  21.746  1.00  0.00     0.000 C 
ENDROOT
BRANCH   1   2
ATOM      2  C   UNL     1      24.728  26.290  21.097  1.00  0.00     0.000 C 
BRANCH   2   3
ATOM      3  C   UNL     1      23.240  26.284  21.500  1.00  0.00     0.000 C 
BRANCH   3   4
ATOM      4  C   UNL     1      22.682  27.649  21.939  1.00  0.00    -0.000 C 
BRANCH   4   5
ATOM      5  C   UNL     1      22.132  27.638  23.374  1.00  0.00    -0.000 C 
BRANCH   5   6
ATOM      6  C   UNL     1      23.270  27.532  24.398  1.00  0.00    -0.000 C 
BRANCH   6   7
ATOM      7  C   UNL     1      23.077  26.315  25.313  1.00  0.00    -0.000 C 
BRANCH   7   8
ATOM      8  C   UNL     1      24.239  25.313  25.221  1.00  0.00    -0.000 C 
BRANCH   8   9
ATOM      9  C   UNL     1      23.788  23.925  24.735  1.00  0.00    -0.000 C 
BRANCH   9  10
ATOM     10  C   UNL     1      22.367  23.941  24.145  1.00  0.00    -0.000 C 
BRANCH  10  11
ATOM     11  C   UNL     1      22.088  22.728  23.245  1.00  0.00    -0.003 C 
ATOM     12  C   UNL     1      23.293  22.407  22.366  1.00  0.00     0.004 C 
ENDBRANCH  10  11
ENDBRANCH   9  10
ENDBRANCH   8   9
ENDBRANCH   7   8
ENDBRANCH   6   7
ENDBRANCH   5   6
ENDBRANCH   4   5
ENDBRANCH   3   4
ENDBRANCH   2   3
ENDBRANCH   1   2
BRANCH   1  13
ATOM     13  C   UNL     1      26.855  25.685  22.471  1.00  0.00     0.000 C 
BRANCH  13  14
ATOM     14  C   UNL     1      26.767  27.114  23.035  1.00  0.00     0.000 C 
BRANCH  14  15
ATOM     15  C   UNL     1      28.127  27.824  23.095  1.00  0.00     0.000 C 
BRANCH  15  16
ATOM     16  C   UNL     1      28.274  28.815  21.932  1.00  0.00     0.000 C 
BRANCH  16  17
ATOM     17  C   UNL     1      29.487  28.518  21.033  1.00  0.00     0.000 C 
BRANCH  17  18
ATOM     18  C   UNL     1      29.147  27.982  19.630  1.00  0.00     0.000 C 
BRANCH  18  19
ATOM     19  C   UNL     1      27.643  27.744  19.423  1.00  0.00     0.000 C 
BRANCH  19  20
ATOM     20  C   UNL     1      27.392  26.768  18.267  1.00  0.00     0.006 C 
BRANCH  20  21
ATOM     21  C   UNL     1      27.834  25.349  18.639  1.00  0.00     0.053 C 
BRANCH  21  22
ATOM     22  C   UNL     1      26.952  24.329  17.988  1.00  0.00     0.041 C 
ATOM     23  O   UNL     1      27.448  23.464  17.217  1.00  0.00    -0.550 OA
ATOM     24  O   UNL     1      25.580  24.343  18.220  1.00  0.00    -0.550 OA
ENDBRANCH  21  22
ENDBRANCH  20  21
ENDBRANCH  19  20
ENDBRANCH  18  19
ENDBRANCH  17  18
ENDBRANCH  16  17
ENDBRANCH  15  16
ENDBRANCH  14  15
ENDBRANCH  13  14
ENDBRANCH   1  13
TORSDOF 20
ENDMDL
MODEL 3
REMARK VINA RESULT:    -3.259     13.925     16.544
REMARK INTER + INTRA:         -10.995
REMARK INTER:                  -7.134
REMARK INTRA:                  -3.861
REMARK UNBOUND:                -3.924
REMARK SMILES CCCCCCCCCCCCCCCCCCCCCC(=O)[O-]
REMARK SMILES IDX 12 1 11 2 10 3 9 4 8 5 7 6 6 7 5 8 4 9 3 10 2 11 1 12 13 13
REMARK SMILES IDX 14 14 15 15 16 16 17 17 18 18 19 19 20 20 21 21 22 22 23 23
REMARK SMILES IDX 24 24
REMARK H PARENT
REMARK Flexibility Score: inf
ROOT
ATOM      1  C   UNL     1      28.583  27.927  21.392  1.00  0.00     0.000 C 
ENDROOT
BRANCH   1   2
ATOM      2  C   UNL     1      27.578  28.867  20.696  1.00  0.00     0.000 C 
BRANCH   2   3
ATOM      3  C   UNL     1      27.506  28.727  19.162  1.00  0.00     0.000 C 
BRANCH   3   4
ATOM      4  C   UNL     1      26.082  28.673  18.583  1.00  0.00    -0.000 C 
BRANCH   4   5
ATOM      5  C   UNL     1      25.022  28.301  19.632  1.00  0.00    -0.000 C 
BRANCH   5   6
ATOM      6  C   UNL     1      24.013  27.295  19.062  1.00  0.00    -0.000 C 
BRANCH   6   7
ATOM      7  C   UNL     1      22.688  27.345  19.835  1.00  0.00    -0.000 C 
BRANCH   7   8
ATOM      8  C   UNL     1      22.813  28.073  21.183  1.00  0.00    -0.000 C 
BRANCH   8   9
ATOM      9  C   UNL     1      22.221  27.264  22.350  1.00  0.00    -0.000 C 
BRANCH   9  10
ATOM     10  C   UNL     1      22.190  28.064  23.664  1.00  0.00    -0.000 C 
BRANCH  10  11
ATOM     11  C   UNL     1      23.186  27.531  24.704  1.00  0.00    -0.003 C 
ATOM     12  C   UNL     1      22.929  26.057  25.006  1.00  0.00     0.004 C 
ENDBRANCH  10  11
ENDBRANCH   9  10
ENDBRANCH   8   9
ENDBRANCH   7   8
ENDBRANCH   6   7
ENDBRANCH   5   6
ENDBRANCH   4   5
ENDBRANCH   3   4
ENDBRANCH   2   3
ENDBRANCH   1   2
BRANCH   1  13
ATOM     13  C   UNL     1      28.155  27.429  22.789  1.00  0.00     0.000 C 
BRANCH  13  14
ATOM     14  C   UNL     1      26.635  27.313  23.003  1.00  0.00     0.000 C 
BRANCH  14  15
ATOM     15  C   UNL     1      26.157  25.862  23.157  1.00  0.00     0.000 C 
BRANCH  15  16
ATOM     16  C   UNL     1      25.431  25.392  21.889  1.00  0.00     0.000 C 
BRANCH  16  17
ATOM     17  C   UNL     1      26.267  24.419  21.039  1.00  0.00     0.000 C 
BRANCH  17  18
ATOM     18  C   UNL     1      26.881  25.025  19.763  1.00  0.00     0.000 C 
BRANCH  18  19
ATOM     19  C   UNL     1      26.340  24.390  18.473  1.00  0.00     0.000 C 
BRANCH  19  20
ATOM     20  C   UNL     1      27.457  24.209  17.436  1.00  0.00     0.006 C 
BRANCH  20  21
ATOM     21  C   UNL     1      26.983  24.629  16.040  1.00  0.00     0.053 C 
BRANCH  21  22
ATOM     22  C   UNL     1      26.846  26.117  15.952  1.00  0.00     0.041 C 
ATOM     23  O   UNL     1      25.721  26.635  15.719  1.00  0.00    -0.550 OA
ATOM     24  O   UNL     1      27.962  26.933  16.113  1.00  0.00    -0.550 OA
ENDBRANCH  21  22
ENDBRANCH  20  21
ENDBRANCH  19  20
ENDBRANCH  18  19
ENDBRANCH  17  18
ENDBRANCH  16  17
ENDBRANCH  15  16
ENDBRANCH  14  15
ENDBRANCH  13  14
ENDBRANCH   1  13
TORSDOF 20
ENDMDL
MODEL 4
REMARK VINA RESULT:    -3.259     12.526     14.945
REMARK INTER + INTRA:         -10.994
REMARK INTER:                  -7.391
REMARK INTRA:                  -3.603
REMARK UNBOUND:                -3.924
REMARK SMILES CCCCCCCCCCCCCCCCCCCCCC(=O)[O-]
REMARK SMILES IDX 12 1 11 2 10 3 9 4 8 5 7 6 6 7 5 8 4 9 3 10 2 11 1 12 13 13
REMARK SMILES IDX 14 14 15 15 16 16 17 17 18 18 19 19 20 20 21 21 22 22 23 23
REMARK SMILES IDX 24 24
REMARK H PARENT
REMARK Flexibility Score: inf
ROOT
ATOM      1  C   UNL     1      26.674  28.022  18.844  1.00  0.00     0.000 C 
ENDROOT
BRANCH   1   2
ATOM      2  C   UNL     1      27.486  28.667  19.985  1.00  0.00     0.000 C 
BRANCH   2   3
ATOM      3  C   UNL     1      28.059  27.678  21.020  1.00  0.00     0.000 C 
BRANCH   3   4
ATOM      4  C   UNL     1      27.616  27.929  22.471  1.00  0.00    -0.000 C 
BRANCH   4   5
ATOM      5  C   UNL     1      26.596  26.895  22.973  1.00  0.00    -0.000 C 
BRANCH   5   6
ATOM      6  C   UNL     1      26.745  25.565  22.223  1.00  0.00    -0.000 C 
BRANCH   6   7
ATOM      7  C   UNL     1      25.538  24.652  22.475  1.00  0.00    -0.000 C 
BRANCH   7   8
ATOM      8  C   UNL     1      24.691  24.424  21.213  1.00  0.00    -0.000 C 
BRANCH   8   9
ATOM      9  C   UNL     1      25.384  23.507  20.191  1.00  0.00    -0.000 C 
BRANCH   9  10
ATOM     10  C   UNL     1      25.223  24.008  18.746  1.00  0.00    -0.000 C 
BRANCH  10  11
ATOM     11  C   UNL     1      26.475  23.761  17.891  1.00  0.00    -0.003 C 
ATOM     12  C   UNL     1      27.662  24.568  18.409  1.00  0.00     0.004 C 
ENDBRANCH  10  11
ENDBRANCH   9  10
ENDBRANCH   8   9
ENDBRANCH   7   8
ENDBRANCH   6   7
ENDBRANCH   5   6
ENDBRANCH   4   5
ENDBRANCH   3   4
ENDBRANCH   2   3
ENDBRANCH   1   2
BRANCH   1  13
ATOM     13  C   UNL     1      25.278  27.501  19.247  1.00  0.00     0.000 C 
BRANCH  13  14
ATOM     14  C   UNL     1      24.398  28.510  20.006  1.00  0.00     0.000 C 
BRANCH  14  15
ATOM     15  C   UNL     1      22.895  28.283  19.788  1.00  0.00     0.000 C 
BRANCH  15  16
ATOM     16  C   UNL     1      22.303  27.440  20.926  1.00  0.00     0.000 C 
BRANCH  16  17
ATOM     17  C   UNL     1      23.058  27.604  22.257  1.00  0.00     0.000 C 
BRANCH  17  18
ATOM     18  C   UNL     1      22.179  27.554  23.520  1.00  0.00     0.000 C 
BRANCH  18  19
ATOM     19  C   UNL     1      22.407  26.291  24.364  1.00  0.00     0.000 C 
BRANCH  19  20
ATOM     20  C   UNL     1      23.641  26.442  25.263  1.00  0.00     0.006 C 
BRANCH  20  21
ATOM     21  C   UNL     1      24.119  25.078  25.773  1.00  0.00     0.053 C 
BRANCH  21  22
ATOM     22  C   UNL     1      23.012  24.355  26.475  1.00  0.00     0.041 C 
ATOM     23  O   UNL     1      22.537  24.816  27.548  1.00  0.00    -0.550 OA
ATOM     24  O   UNL     1      22.513  23.165  25.953  1.00  0.00    -0.550 OA
ENDBRANCH  21  22
ENDBRANCH  20  21
ENDBRANCH  19  20
ENDBRANCH  18  19
ENDBRANCH  17  18
ENDBRANCH  16  17
ENDBRANCH  15  16
ENDBRANCH  14  15
ENDBRANCH  13  14
ENDBRANCH   1  13
TORSDOF 20
ENDMDL
MODEL 5
REMARK VINA RESULT:    -3.253      2.531      5.281
REMARK INTER + INTRA:         -10.981
REMARK INTER:                  -7.129
REMARK INTRA:                  -3.852
REMARK UNBOUND:                -3.924
REMARK SMILES CCCCCCCCCCCCCCCCCCCCCC(=O)[O-]
REMARK SMILES IDX 12 1 11 2 10 3 9 4 8 5 7 6 6 7 5 8 4 9 3 10 2 11 1 12 13 13
REMARK SMILES IDX 14 14 15 15 16 16 17 17 18 18 19 19 20 20 21 21 22 22 23 23
REMARK SMILES IDX 24 24
REMARK H PARENT
REMARK Flexibility Score: inf
ROOT
ATOM      1  C   UNL     1      26.226  13.212  22.630  1.00  0.00     0.000 C 
ENDROOT
BRANCH   1   2
ATOM      2  C   UNL     1      25.662  13.619  24.005  1.00  0.00     0.000 C 
BRANCH   2   3
ATOM      3  C   UNL     1      24.661  14.792  23.980  1.00  0.00     0.000 C 
BRANCH   3   4
ATOM      4  C   UNL     1      23.314  14.480  23.307  1.00  0.00    -0.000 C 
BRANCH   4   5
ATOM      5  C   UNL     1      22.822  15.615  22.396  1.00  0.00    -0.000 C 
BRANCH   5   6
ATOM      6  C   UNL     1      23.892  15.997  21.365  1.00  0.00    -0.000 C 
BRANCH   6   7
ATOM      7  C   UNL     1      24.316  17.463  21.527  1.00  0.00    -0.000 C 
BRANCH   7   8
ATOM      8  C   UNL     1      23.384  18.252  22.460  1.00  0.00    -0.000 C 
BRANCH   8   9
ATOM      9  C   UNL     1      24.149  19.008  23.560  1.00  0.00    -0.000 C 
BRANCH   9  10
ATOM     10  C   UNL     1      23.609  18.704  24.968  1.00  0.00    -0.000 C 
BRANCH  10  11
ATOM     11  C   UNL     1      24.628  17.959  25.843  1.00  0.00    -0.003 C 
ATOM     12  C   UNL     1      23.927  17.081  26.877  1.00  0.00     0.004 C 
ENDBRANCH  10  11
ENDBRANCH   9  10
ENDBRANCH   8   9
ENDBRANCH   7   8
ENDBRANCH   6   7
ENDBRANCH   5   6
ENDBRANCH   4   5
ENDBRANCH   3   4
ENDBRANCH   2   3
ENDBRANCH   1   2
BRANCH   1  13
ATOM     13  C   UNL     1      26.116  11.709  22.295  1.00  0.00     0.000 C 
BRANCH  13  14
ATOM     14  C   UNL     1      25.681  11.391  20.853  1.00  0.00     0.000 C 
BRANCH  14  15
ATOM     15  C   UNL     1      25.198  12.629  20.083  1.00  0.00     0.000 C 
BRANCH  15  16
ATOM     16  C   UNL     1      23.667  12.636  19.971  1.00  0.00     0.000 C 
BRANCH  16  17
ATOM     17  C   UNL     1      23.025  11.300  20.383  1.00  0.00     0.000 C 
BRANCH  17  18
ATOM     18  C   UNL     1      22.130  11.362  21.634  1.00  0.00     0.000 C 
BRANCH  18  19
ATOM     19  C   UNL     1      22.502  10.314  22.695  1.00  0.00     0.000 C 
BRANCH  19  20
ATOM     20  C   UNL     1      22.491  10.924  24.102  1.00  0.00     0.006 C 
BRANCH  20  21
ATOM     21  C   UNL     1      23.732  10.498  24.895  1.00  0.00     0.053 C 
BRANCH  21  22
ATOM     22  C   UNL     1      23.908  11.358  26.108  1.00  0.00     0.041 C 
ATOM     23  O   UNL     1      24.828  11.108  26.932  1.00  0.00    -0.550 OA
ATOM     24  O   UNL     1      23.045  12.426  26.338  1.00  0.00    -0.550 OA
ENDBRANCH  21  22
ENDBRANCH  20  21
ENDBRANCH  19  20
ENDBRANCH  18  19
ENDBRANCH  17  18
ENDBRANCH  16  17
ENDBRANCH  15  16
ENDBRANCH  14  15
ENDBRANCH  13  14
ENDBRANCH   1  13
TORSDOF 20
ENDMDL
MODEL 6
REMARK VINA RESULT:    -3.227      3.194      5.900
REMARK INTER + INTRA:         -10.924
REMARK INTER:                  -7.532
REMARK INTRA:                  -3.393
REMARK UNBOUND:                -3.924
REMARK SMILES CCCCCCCCCCCCCCCCCCCCCC(=O)[O-]
REMARK SMILES IDX 12 1 11 2 10 3 9 4 8 5 7 6 6 7 5 8 4 9 3 10 2 11 1 12 13 13
REMARK SMILES IDX 14 14 15 15 16 16 17 17 18 18 19 19 20 20 21 21 22 22 23 23
REMARK SMILES IDX 24 24
REMARK H PARENT
REMARK Flexibility Score: inf
ROOT
ATOM      1  C   UNL     1      24.032  13.069  19.742  1.00  0.00     0.000 C 
ENDROOT
BRANCH   1   2
ATOM      2  C   UNL     1      24.454  11.695  20.298  1.00  0.00     0.000 C 
BRANCH   2   3
ATOM      3  C   UNL     1      23.291  10.747  20.651  1.00  0.00     0.000 C 
BRANCH   3   4
ATOM      4  C   UNL     1      22.969  10.645  22.152  1.00  0.00    -0.000 C 
BRANCH   4   5
ATOM      5  C   UNL     1      21.952  11.697  22.620  1.00  0.00    -0.000 C 
BRANCH   5   6
ATOM      6  C   UNL     1      22.536  12.566  23.742  1.00  0.00    -0.000 C 
BRANCH   6   7
ATOM      7  C   UNL     1      22.880  13.971  23.229  1.00  0.00    -0.000 C 
BRANCH   7   8
ATOM      8  C   UNL     1      24.194  14.512  23.813  1.00  0.00    -0.000 C 
BRANCH   8   9
ATOM      9  C   UNL     1      25.425  14.091  22.991  1.00  0.00    -0.000 C 
BRANCH   9  10
ATOM     10  C   UNL     1      26.272  13.023  23.705  1.00  0.00    -0.000 C 
BRANCH  10  11
ATOM     11  C   UNL     1      27.066  12.147  22.726  1.00  0.00    -0.003 C 
ATOM     12  C   UNL     1      26.789  10.666  22.965  1.00  0.00     0.004 C 
ENDBRANCH  10  11
ENDBRANCH   9  10
ENDBRANCH   8   9
ENDBRANCH   7   8
ENDBRANCH   6   7
ENDBRANCH   5   6
ENDBRANCH   4   5
ENDBRANCH   3   4
ENDBRANCH   2   3
ENDBRANCH   1   2
BRANCH   1  13
ATOM     13  C   UNL     1      22.592  13.139  19.191  1.00  0.00     0.000 C 
BRANCH  13  14
ATOM     14  C   UNL     1      22.309  14.323  18.249  1.00  0.00     0.000 C 
BRANCH  14  15
ATOM     15  C   UNL     1      23.324  15.466  18.397  1.00  0.00     0.000 C 
BRANCH  15  16
ATOM     16  C   UNL     1      22.689  16.667  19.111  1.00  0.00     0.000 C 
BRANCH  16  17
ATOM     17  C   UNL     1      22.869  16.627  20.639  1.00  0.00     0.000 C 
BRANCH  17  18
ATOM     18  C   UNL     1      24.254  17.066  21.147  1.00  0.00     0.000 C 
BRANCH  18  19
ATOM     19  C   UNL     1      24.468  18.586  21.078  1.00  0.00     0.000 C 
BRANCH  19  20
ATOM     20  C   UNL     1      23.862  19.285  22.302  1.00  0.00     0.006 C 
BRANCH  20  21
ATOM     21  C   UNL     1      24.174  18.512  23.588  1.00  0.00     0.053 C 
BRANCH  21  22
ATOM     22  C   UNL     1      24.705  19.430  24.644  1.00  0.00     0.041 C 
ATOM     23  O   UNL     1      25.214  18.957  25.695  1.00  0.00    -0.550 OA
ATOM     24  O   UNL     1      24.625  20.809  24.475  1.00  0.00    -0.550 OA
ENDBRANCH  21  22
ENDBRANCH  20  21
ENDBRANCH  19  20
ENDBRANCH  18  19
ENDBRANCH  17  18
ENDBRANCH  16  17
ENDBRANCH  15  16
ENDBRANCH  14  15
ENDBRANCH  13  14
ENDBRANCH   1  13
TORSDOF 20
ENDMDL
MODEL 7
REMARK VINA RESULT:    -3.214      1.980      4.887
REMARK INTER + INTRA:         -10.896
REMARK INTER:                  -7.595
REMARK INTRA:                  -3.301
REMARK UNBOUND:                -3.924
REMARK SMILES CCCCCCCCCCCCCCCCCCCCCC(=O)[O-]
REMARK SMILES IDX 12 1 11 2 10 3 9 4 8 5 7 6 6 7 5 8 4 9 3 10 2 11 1 12 13 13
REMARK SMILES IDX 14 14 15 15 16 16 17 17 18 18 19 19 20 20 21 21 22 22 23 23
REMARK SMILES IDX 24 24
REMARK H PARENT
REMARK Flexibility Score: inf
ROOT
ATOM      1  C   UNL     1      25.787  12.672  21.522  1.00  0.00     0.000 C 
ENDROOT
BRANCH   1   2
ATOM      2  C   UNL     1      25.128  11.744  20.482  1.00  0.00     0.000 C 
BRANCH   2   3
ATOM      3  C   UNL     1      23.592  11.642  20.578  1.00  0.00     0.000 C 
BRANCH   3   4
ATOM      4  C   UNL     1      23.066  10.313  21.147  1.00  0.00    -0.000 C 
BRANCH   4   5
ATOM      5  C   UNL     1      22.331  10.484  22.486  1.00  0.00    -0.000 C 
BRANCH   5   6
ATOM      6  C   UNL     1      23.322  10.749  23.627  1.00  0.00    -0.000 C 
BRANCH   6   7
ATOM      7  C   UNL     1      22.814  11.866  24.550  1.00  0.00    -0.000 C 
BRANCH   7   8
ATOM      8  C   UNL     1      23.210  13.267  24.061  1.00  0.00    -0.000 C 
BRANCH   8   9
ATOM      9  C   UNL     1      24.490  13.791  24.737  1.00  0.00    -0.000 C 
BRANCH   9  10
ATOM     10  C   UNL     1      24.483  15.320  24.905  1.00  0.00    -0.000 C 
BRANCH  10  11
ATOM     11  C   UNL     1      23.748  15.771  26.176  1.00  0.00    -0.003 C 
ATOM     12  C   UNL     1      24.629  15.598  27.411  1.00  0.00     0.004 C 
ENDBRANCH  10  11
ENDBRANCH   9  10
ENDBRANCH   8   9
ENDBRANCH   7   8
ENDBRANCH   6   7
ENDBRANCH   5   6
ENDBRANCH   4   5
ENDBRANCH   3   4
ENDBRANCH   2   3
ENDBRANCH   1   2
BRANCH   1  13
ATOM     13  C   UNL     1      26.822  11.992  22.443  1.00  0.00     0.000 C 
BRANCH  13  14
ATOM     14  C   UNL     1      26.858  10.455  22.364  1.00  0.00     0.000 C 
BRANCH  14  15
ATOM     15  C   UNL     1      28.062   9.920  21.575  1.00  0.00     0.000 C 
BRANCH  15  16
ATOM     16  C   UNL     1      29.337   9.976  22.428  1.00  0.00     0.000 C 
BRANCH  16  17
ATOM     17  C   UNL     1      29.395   8.875  23.502  1.00  0.00     0.000 C 
BRANCH  17  18
ATOM     18  C   UNL     1      29.489   9.381  24.953  1.00  0.00     0.000 C 
BRANCH  18  19
ATOM     19  C   UNL     1      28.230   9.080  25.780  1.00  0.00     0.000 C 
BRANCH  19  20
ATOM     20  C   UNL     1      27.835  10.285  26.644  1.00  0.00     0.006 C 
BRANCH  20  21
ATOM     21  C   UNL     1      26.587  10.977  26.085  1.00  0.00     0.053 C 
BRANCH  21  22
ATOM     22  C   UNL     1      25.385  10.658  26.918  1.00  0.00     0.041 C 
ATOM     23  O   UNL     1      24.756  11.582  27.500  1.00  0.00    -0.550 OA
ATOM     24  O   UNL     1      24.968   9.338  27.066  1.00  0.00    -0.550 OA
ENDBRANCH  21  22
ENDBRANCH  20  21
ENDBRANCH  19  20
ENDBRANCH  18  19
ENDBRANCH  17  18
ENDBRANCH  16  17
ENDBRANCH  15  16
ENDBRANCH  14  15
ENDBRANCH  13  14
ENDBRANCH   1  13
TORSDOF 20
ENDMDL
MODEL 8
REMARK VINA RESULT:    -3.154     12.880     16.238
REMARK INTER + INTRA:         -10.767
REMARK INTER:                  -6.960
REMARK INTRA:                  -3.807
REMARK UNBOUND:                -3.924
REMARK SMILES CCCCCCCCCCCCCCCCCCCCCC(=O)[O-]
REMARK SMILES IDX 12 1 11 2 10 3 9 4 8 5 7 6 6 7 5 8 4 9 3 10 2 11 1 12 13 13
REMARK SMILES IDX 14 14 15 15 16 16 17 17 18 18 19 19 20 20 21 21 22 22 23 23
REMARK SMILES IDX 24 24
REMARK H PARENT
REMARK Flexibility Score: inf
ROOT
ATOM      1  C   UNL     1      26.477  25.789  22.773  1.00  0.00     0.000 C 
ENDROOT
BRANCH   1   2
ATOM      2  C   UNL     1      25.442  25.166  23.730  1.00  0.00     0.000 C 
BRANCH   2   3
ATOM      3  C   UNL     1      24.987  26.079  24.886  1.00  0.00     0.000 C 
BRANCH   3   4
ATOM      4  C   UNL     1      23.465  26.274  24.998  1.00  0.00    -0.000 C 
BRANCH   4   5
ATOM      5  C   UNL     1      22.969  27.542  24.285  1.00  0.00    -0.000 C 
BRANCH   5   6
ATOM      6  C   UNL     1      22.376  27.205  22.911  1.00  0.00    -0.000 C 
BRANCH   6   7
ATOM      7  C   UNL     1      23.319  27.640  21.781  1.00  0.00    -0.000 C 
BRANCH   7   8
ATOM      8  C   UNL     1      23.165  26.784  20.515  1.00  0.00    -0.000 C 
BRANCH   8   9
ATOM      9  C   UNL     1      23.264  25.276  20.804  1.00  0.00    -0.000 C 
BRANCH   9  10
ATOM     10  C   UNL     1      24.011  24.513  19.697  1.00  0.00    -0.000 C 
BRANCH  10  11
ATOM     11  C   UNL     1      25.006  23.484  20.256  1.00  0.00    -0.003 C 
ATOM     12  C   UNL     1      24.489  22.061  20.066  1.00  0.00     0.004 C 
ENDBRANCH  10  11
ENDBRANCH   9  10
ENDBRANCH   8   9
ENDBRANCH   7   8
ENDBRANCH   6   7
ENDBRANCH   5   6
ENDBRANCH   4   5
ENDBRANCH   3   4
ENDBRANCH   2   3
ENDBRANCH   1   2
BRANCH   1  13
ATOM     13  C   UNL     1      26.856  27.253  23.081  1.00  0.00     0.000 C 
BRANCH  13  14
ATOM     14  C   UNL     1      28.317  27.629  22.774  1.00  0.00     0.000 C 
BRANCH  14  15
ATOM     15  C   UNL     1      28.444  28.868  21.876  1.00  0.00     0.000 C 
BRANCH  15  16
ATOM     16  C   UNL     1      28.664  28.457  20.413  1.00  0.00     0.000 C 
BRANCH  16  17
ATOM     17  C   UNL     1      27.403  28.616  19.545  1.00  0.00     0.000 C 
BRANCH  17  18
ATOM     18  C   UNL     1      26.608  27.321  19.301  1.00  0.00     0.000 C 
BRANCH  18  19
ATOM     19  C   UNL     1      27.488  26.061  19.310  1.00  0.00     0.000 C 
BRANCH  19  20
ATOM     20  C   UNL     1      27.438  25.342  17.956  1.00  0.00     0.006 C 
BRANCH  20  21
ATOM     21  C   UNL     1      26.410  25.995  17.025  1.00  0.00     0.053 C 
BRANCH  21  22
ATOM     22  C   UNL     1      27.078  26.553  15.807  1.00  0.00     0.041 C 
ATOM     23  O   UNL     1      26.668  26.233  14.659  1.00  0.00    -0.550 OA
ATOM     24  O   UNL     1      28.162  27.415  15.938  1.00  0.00    -0.550 OA
ENDBRANCH  21  22
ENDBRANCH  20  21
ENDBRANCH  19  20
ENDBRANCH  18  19
ENDBRANCH  17  18
ENDBRANCH  16  17
ENDBRANCH  15  16
ENDBRANCH  14  15
ENDBRANCH  13  14
ENDBRANCH   1  13
TORSDOF 20
ENDMDL
MODEL 9
REMARK VINA RESULT:    -3.119      2.691      5.051
REMARK INTER + INTRA:         -10.691
REMARK INTER:                  -7.533
REMARK INTRA:                  -3.158
REMARK UNBOUND:                -3.924
REMARK SMILES CCCCCCCCCCCCCCCCCCCCCC(=O)[O-]
REMARK SMILES IDX 12 1 11 2 10 3 9 4 8 5 7 6 6 7 5 8 4 9 3 10 2 11 1 12 13 13
REMARK SMILES IDX 14 14 15 15 16 16 17 17 18 18 19 19 20 20 21 21 22 22 23 23
REMARK SMILES IDX 24 24
REMARK H PARENT
REMARK Flexibility Score: inf
ROOT
ATOM      1  C   UNL     1      25.410  13.500  22.656  1.00  0.00     0.000 C 
ENDROOT
BRANCH   1   2
ATOM      2  C   UNL     1      25.659  14.115  24.047  1.00  0.00     0.000 C 
BRANCH   2   3
ATOM      3  C   UNL     1      24.403  14.658  24.757  1.00  0.00     0.000 C 
BRANCH   3   4
ATOM      4  C   UNL     1      24.553  14.861  26.275  1.00  0.00    -0.000 C 
BRANCH   4   5
ATOM      5  C   UNL     1      24.280  16.308  26.715  1.00  0.00    -0.000 C 
BRANCH   5   6
ATOM      6  C   UNL     1      24.077  17.224  25.501  1.00  0.00    -0.000 C 
BRANCH   6   7
ATOM      7  C   UNL     1      24.853  18.538  25.666  1.00  0.00    -0.000 C 
BRANCH   7   8
ATOM      8  C   UNL     1      24.647  19.502  24.487  1.00  0.00    -0.000 C 
BRANCH   8   9
ATOM      9  C   UNL     1      23.712  18.928  23.408  1.00  0.00    -0.000 C 
BRANCH   9  10
ATOM     10  C   UNL     1      24.123  19.351  21.988  1.00  0.00    -0.000 C 
BRANCH  10  11
ATOM     11  C   UNL     1      24.586  18.165  21.129  1.00  0.00    -0.003 C 
ATOM     12  C   UNL     1      24.132  16.839  21.733  1.00  0.00     0.004 C 
ENDBRANCH  10  11
ENDBRANCH   9  10
ENDBRANCH   8   9
ENDBRANCH   7   8
ENDBRANCH   6   7
ENDBRANCH   5   6
ENDBRANCH   4   5
ENDBRANCH   3   4
ENDBRANCH   2   3
ENDBRANCH   1   2
BRANCH   1  13
ATOM     13  C   UNL     1      26.314  12.302  22.297  1.00  0.00     0.000 C 
BRANCH  13  14
ATOM     14  C   UNL     1      25.733  11.336  21.248  1.00  0.00     0.000 C 
BRANCH  14  15
ATOM     15  C   UNL     1      24.605  11.961  20.413  1.00  0.00     0.000 C 
BRANCH  15  16
ATOM     16  C   UNL     1      23.354  11.073  20.441  1.00  0.00     0.000 C 
BRANCH  16  17
ATOM     17  C   UNL     1      22.345  11.483  21.529  1.00  0.00     0.000 C 
BRANCH  17  18
ATOM     18  C   UNL     1      22.299  10.561  22.761  1.00  0.00     0.000 C 
BRANCH  18  19
ATOM     19  C   UNL     1      22.794  11.245  24.045  1.00  0.00     0.000 C 
BRANCH  19  20
ATOM     20  C   UNL     1      23.996  10.500  24.640  1.00  0.00     0.006 C 
BRANCH  20  21
ATOM     21  C   UNL     1      24.436  11.136  25.963  1.00  0.00     0.053 C 
BRANCH  21  22
ATOM     22  C   UNL     1      25.842  10.746  26.298  1.00  0.00     0.041 C 
ATOM     23  O   UNL     1      26.809  11.285  25.695  1.00  0.00    -0.550 OA
ATOM     24  O   UNL     1      26.086   9.775  27.265  1.00  0.00    -0.550 OA
ENDBRANCH  21  22
ENDBRANCH  20  21
ENDBRANCH  19  20
ENDBRANCH  18  19
ENDBRANCH  17  18
ENDBRANCH  16  17
ENDBRANCH  15  16
ENDBRANCH  14  15
ENDBRANCH  13  14
ENDBRANCH   1  13
TORSDOF 20
ENDMDL
