MODEL 1
REMARK VINA RESULT:    -5.130      0.000      0.000
REMARK INTER + INTRA:         -18.991
REMARK INTER:                 -13.527
REMARK INTRA:                  -5.464
REMARK UNBOUND:                -5.464
REMARK SMILES CCCCCCCCCCCCCCCCCCCCCCCCCCCCCC(=O)[O-]
REMARK SMILES IDX 16 1 17 2 18 3 19 4 20 5 21 6 22 7 23 8 24 9 25 10 26 11
REMARK SMILES IDX 27 12 28 13 29 14 30 15 31 16 32 17 15 18 14 19 13 20 12 21
REMARK SMILES IDX 11 22 10 23 9 24 8 25 7 26 6 27 5 28 4 29 3 30 2 31 1 32
REMARK H PARENT
REMARK Flexibility Score: inf
ROOT
ATOM      1  C   UNL     1      40.792  46.840  12.000  1.00  0.00     0.000 C 
ENDROOT
BRANCH   1   2
ATOM      2  C   UNL     1      39.773  45.936  11.287  1.00  0.00     0.000 C 
BRANCH   2   3
ATOM      3  C   UNL     1      39.831  46.067   9.757  1.00  0.00     0.000 C 
BRANCH   3   4
ATOM      4  C   UNL     1      38.530  45.568   9.115  1.00  0.00     0.000 C 
BRANCH   4   5
ATOM      5  C   UNL     1      38.667  45.478   7.588  1.00  0.00     0.000 C 
BRANCH   5   6
ATOM      6  C   UNL     1      39.356  46.710   6.975  1.00  0.00     0.000 C 
BRANCH   6   7
ATOM      7  C   UNL     1      39.916  46.472   5.558  1.00  0.00     0.000 C 
BRANCH   7   8
ATOM      8  C   UNL     1      40.722  45.164   5.457  1.00  0.00     0.000 C 
BRANCH   8   9
ATOM      9  C   UNL     1      42.186  45.344   5.890  1.00  0.00     0.000 C 
BRANCH   9  10
ATOM     10  C   UNL     1      42.462  44.754   7.284  1.00  0.00     0.000 C 
BRANCH  10  11
ATOM     11  C   UNL     1      43.133  45.764   8.229  1.00  0.00     0.000 C 
BRANCH  11  12
ATOM     12  C   UNL     1      43.380  47.122   7.556  1.00  0.00     0.000 C 
BRANCH  12  13
ATOM     13  C   UNL     1      43.196  48.272   8.554  1.00  0.00     0.006 C 
BRANCH  13  14
ATOM     14  C   UNL     1      41.914  49.057   8.255  1.00  0.00     0.053 C 
BRANCH  14  15
ATOM     15  C   UNL     1      42.099  50.507   8.577  1.00  0.00     0.041 C 
ATOM     16  O   UNL     1      41.647  50.980   9.653  1.00  0.00    -0.550 OA
ATOM     17  O   UNL     1      42.808  51.327   7.710  1.00  0.00    -0.550 OA
ENDBRANCH  14  15
ENDBRANCH  13  14
ENDBRANCH  12  13
ENDBRANCH  11  12
ENDBRANCH  10  11
ENDBRANCH   9  10
ENDBRANCH   8   9
ENDBRANCH   7   8
ENDBRANCH   6   7
ENDBRANCH   5   6
ENDBRANCH   4   5
ENDBRANCH   3   4
ENDBRANCH   2   3
ENDBRANCH   1   2
BRANCH   1  18
ATOM     18  C   UNL     1      42.248  46.503  11.633  1.00  0.00     0.000 C 
BRANCH  18  19
ATOM     19  C   UNL     1      43.276  47.353  12.398  1.00  0.00     0.000 C 
BRANCH  19  20
ATOM     20  C   UNL     1      42.634  48.514  13.172  1.00  0.00     0.000 C 
BRANCH  20  21
ATOM     21  C   UNL     1      43.099  49.893  12.670  1.00  0.00     0.000 C 
BRANCH  21  22
ATOM     22  C   UNL     1      44.237  49.828  11.630  1.00  0.00     0.000 C 
BRANCH  22  23
ATOM     23  C   UNL     1      45.395  50.781  11.964  1.00  0.00     0.000 C 
BRANCH  23  24
ATOM     24  C   UNL     1      45.663  51.748  10.800  1.00  0.00    -0.000 C 
BRANCH  24  25
ATOM     25  C   UNL     1      45.841  51.015   9.461  1.00  0.00    -0.000 C 
BRANCH  25  26
ATOM     26  C   UNL     1      47.136  50.183   9.420  1.00  0.00    -0.000 C 
BRANCH  26  27
ATOM     27  C   UNL     1      46.859  48.680   9.264  1.00  0.00    -0.000 C 
BRANCH  27  28
ATOM     28  C   UNL     1      47.180  47.890  10.541  1.00  0.00    -0.000 C 
BRANCH  28  29
ATOM     29  C   UNL     1      46.524  46.501  10.510  1.00  0.00    -0.000 C 
BRANCH  29  30
ATOM     30  C   UNL     1      46.509  45.892   9.093  1.00  0.00    -0.000 C 
BRANCH  30  31
ATOM     31  C   UNL     1      47.307  44.581   8.979  1.00  0.00    -0.003 C 
ATOM     32  C   UNL     1      46.842  43.695   7.825  1.00  0.00     0.004 C 
ENDBRANCH  30  31
ENDBRANCH  29  30
ENDBRANCH  28  29
ENDBRANCH  27  28
ENDBRANCH  26  27
ENDBRANCH  25  26
ENDBRANCH  24  25
ENDBRANCH  23  24
ENDBRANCH  22  23
ENDBRANCH  21  22
ENDBRANCH  20  21
ENDBRANCH  19  20
ENDBRANCH  18  19
ENDBRANCH   1  18
TORSDOF 28
ENDMDL
MODEL 2
REMARK VINA RESULT:    -5.105      2.523      7.490
REMARK INTER + INTRA:         -18.926
REMARK INTER:                 -13.743
REMARK INTRA:                  -5.183
REMARK UNBOUND:                -5.464
REMARK SMILES CCCCCCCCCCCCCCCCCCCCCCCCCCCCCC(=O)[O-]
REMARK SMILES IDX 16 1 17 2 18 3 19 4 20 5 21 6 22 7 23 8 24 9 25 10 26 11
REMARK SMILES IDX 27 12 28 13 29 14 30 15 31 16 32 17 15 18 14 19 13 20 12 21
REMARK SMILES IDX 11 22 10 23 9 24 8 25 7 26 6 27 5 28 4 29 3 30 2 31 1 32
REMARK H PARENT
REMARK Flexibility Score: inf
ROOT
ATOM      1  C   UNL     1      41.906  49.741   7.148  1.00  0.00     0.000 C 
ENDROOT
BRANCH   1   2
ATOM      2  C   UNL     1      42.200  50.612   8.381  1.00  0.00     0.000 C 
BRANCH   2   3
ATOM      3  C   UNL     1      43.538  50.261   9.050  1.00  0.00     0.000 C 
BRANCH   3   4
ATOM      4  C   UNL     1      43.691  50.997  10.388  1.00  0.00     0.000 C 
BRANCH   4   5
ATOM      5  C   UNL     1      44.626  50.232  11.335  1.00  0.00     0.000 C 
BRANCH   5   6
ATOM      6  C   UNL     1      45.749  51.114  11.909  1.00  0.00     0.000 C 
BRANCH   6   7
ATOM      7  C   UNL     1      47.111  50.925  11.210  1.00  0.00     0.000 C 
BRANCH   7   8
ATOM      8  C   UNL     1      47.078  49.810  10.150  1.00  0.00     0.000 C 
BRANCH   8   9
ATOM      9  C   UNL     1      47.627  48.477  10.685  1.00  0.00     0.000 C 
BRANCH   9  10
ATOM     10  C   UNL     1      47.271  47.289   9.774  1.00  0.00     0.000 C 
BRANCH  10  11
ATOM     11  C   UNL     1      45.863  47.411   9.171  1.00  0.00     0.000 C 
BRANCH  11  12
ATOM     12  C   UNL     1      44.778  46.837  10.094  1.00  0.00     0.000 C 
BRANCH  12  13
ATOM     13  C   UNL     1      44.616  45.327   9.880  1.00  0.00     0.006 C 
BRANCH  13  14
ATOM     14  C   UNL     1      44.136  45.023   8.456  1.00  0.00     0.053 C 
BRANCH  14  15
ATOM     15  C   UNL     1      45.229  44.385   7.658  1.00  0.00     0.041 C 
ATOM     16  O   UNL     1      46.202  43.838   8.241  1.00  0.00    -0.550 OA
ATOM     17  O   UNL     1      45.152  44.355   6.272  1.00  0.00    -0.550 OA
ENDBRANCH  14  15
ENDBRANCH  13  14
ENDBRANCH  12  13
ENDBRANCH  11  12
ENDBRANCH  10  11
ENDBRANCH   9  10
ENDBRANCH   8   9
ENDBRANCH   7   8
ENDBRANCH   6   7
ENDBRANCH   5   6
ENDBRANCH   4   5
ENDBRANCH   3   4
ENDBRANCH   2   3
ENDBRANCH   1   2
BRANCH   1  18
ATOM     18  C   UNL     1      42.532  48.338   7.245  1.00  0.00     0.000 C 
BRANCH  18  19
ATOM     19  C   UNL     1      41.590  47.222   6.764  1.00  0.00     0.000 C 
BRANCH  19  20
ATOM     20  C   UNL     1      40.105  47.594   6.897  1.00  0.00     0.000 C 
BRANCH  20  21
ATOM     21  C   UNL     1      39.177  46.601   6.174  1.00  0.00     0.000 C 
BRANCH  21  22
ATOM     22  C   UNL     1      38.743  45.403   7.045  1.00  0.00     0.000 C 
BRANCH  22  23
ATOM     23  C   UNL     1      38.362  45.822   8.474  1.00  0.00     0.000 C 
BRANCH  23  24
ATOM     24  C   UNL     1      39.279  45.148   9.506  1.00  0.00    -0.000 C 
BRANCH  24  25
ATOM     25  C   UNL     1      39.743  46.121  10.601  1.00  0.00    -0.000 C 
BRANCH  25  26
ATOM     26  C   UNL     1      41.189  46.601  10.380  1.00  0.00    -0.000 C 
BRANCH  26  27
ATOM     27  C   UNL     1      41.439  47.995  10.976  1.00  0.00    -0.000 C 
BRANCH  27  28
ATOM     28  C   UNL     1      41.756  47.941  12.477  1.00  0.00    -0.000 C 
BRANCH  28  29
ATOM     29  C   UNL     1      41.689  49.341  13.106  1.00  0.00    -0.000 C 
BRANCH  29  30
ATOM     30  C   UNL     1      40.497  50.165  12.575  1.00  0.00    -0.000 C 
BRANCH  30  31
ATOM     31  C   UNL     1      39.774  50.973  13.667  1.00  0.00    -0.003 C 
ATOM     32  C   UNL     1      40.656  51.267  14.879  1.00  0.00     0.004 C 
ENDBRANCH  30  31
ENDBRANCH  29  30
ENDBRANCH  28  29
ENDBRANCH  27  28
ENDBRANCH  26  27
ENDBRANCH  25  26
ENDBRANCH  24  25
ENDBRANCH  23  24
ENDBRANCH  22  23
ENDBRANCH  21  22
ENDBRANCH  20  21
ENDBRANCH  19  20
ENDBRANCH  18  19
ENDBRANCH   1  18
TORSDOF 28
ENDMDL
MODEL 3
REMARK VINA RESULT:    -5.033      2.082      4.462
REMARK INTER + INTRA:         -18.736
REMARK INTER:                 -13.060
REMARK INTRA:                  -5.675
REMARK UNBOUND:                -5.464
REMARK SMILES CCCCCCCCCCCCCCCCCCCCCCCCCCCCCC(=O)[O-]
REMARK SMILES IDX 16 1 17 2 18 3 19 4 20 5 21 6 22 7 23 8 24 9 25 10 26 11
REMARK SMILES IDX 27 12 28 13 29 14 30 15 31 16 32 17 15 18 14 19 13 20 12 21
REMARK SMILES IDX 11 22 10 23 9 24 8 25 7 26 6 27 5 28 4 29 3 30 2 31 1 32
REMARK H PARENT
REMARK Flexibility Score: inf
ROOT
ATOM      1  C   UNL     1      42.367  49.435   7.858  1.00  0.00     0.000 C 
ENDROOT
BRANCH   1   2
ATOM      2  C   UNL     1      41.146  48.748   7.223  1.00  0.00     0.000 C 
BRANCH   2   3
ATOM      3  C   UNL     1      41.535  47.724   6.146  1.00  0.00     0.000 C 
BRANCH   3   4
ATOM      4  C   UNL     1      40.349  46.814   5.803  1.00  0.00     0.000 C 
BRANCH   4   5
ATOM      5  C   UNL     1      39.307  46.815   6.930  1.00  0.00     0.000 C 
BRANCH   5   6
ATOM      6  C   UNL     1      38.754  45.411   7.235  1.00  0.00     0.000 C 
BRANCH   6   7
ATOM      7  C   UNL     1      38.992  44.948   8.687  1.00  0.00     0.000 C 
BRANCH   7   8
ATOM      8  C   UNL     1      39.273  46.123   9.640  1.00  0.00     0.000 C 
BRANCH   8   9
ATOM      9  C   UNL     1      40.689  46.067  10.237  1.00  0.00     0.000 C 
BRANCH   9  10
ATOM     10  C   UNL     1      41.172  47.442  10.730  1.00  0.00     0.000 C 
BRANCH  10  11
ATOM     11  C   UNL     1      41.915  47.357  12.073  1.00  0.00     0.000 C 
BRANCH  11  12
ATOM     12  C   UNL     1      41.787  48.647  12.897  1.00  0.00     0.000 C 
BRANCH  12  13
ATOM     13  C   UNL     1      40.381  49.245  12.765  1.00  0.00     0.006 C 
BRANCH  13  14
ATOM     14  C   UNL     1      40.427  50.776  12.838  1.00  0.00     0.053 C 
BRANCH  14  15
ATOM     15  C   UNL     1      39.560  51.275  13.949  1.00  0.00     0.041 C 
ATOM     16  O   UNL     1      39.976  51.253  15.137  1.00  0.00    -0.550 OA
ATOM     17  O   UNL     1      38.307  51.807  13.670  1.00  0.00    -0.550 OA
ENDBRANCH  14  15
ENDBRANCH  13  14
ENDBRANCH  12  13
ENDBRANCH  11  12
ENDBRANCH  10  11
ENDBRANCH   9  10
ENDBRANCH   8   9
ENDBRANCH   7   8
ENDBRANCH   6   7
ENDBRANCH   5   6
ENDBRANCH   4   5
ENDBRANCH   3   4
ENDBRANCH   2   3
ENDBRANCH   1   2
BRANCH   1  18
ATOM     18  C   UNL     1      42.010  50.761   8.556  1.00  0.00     0.000 C 
BRANCH  18  19
ATOM     19  C   UNL     1      42.660  50.908   9.941  1.00  0.00     0.000 C 
BRANCH  19  20
ATOM     20  C   UNL     1      43.957  50.096  10.082  1.00  0.00     0.000 C 
BRANCH  20  21
ATOM     21  C   UNL     1      44.637  50.296  11.449  1.00  0.00     0.000 C 
BRANCH  21  22
ATOM     22  C   UNL     1      46.179  50.265  11.389  1.00  0.00     0.000 C 
BRANCH  22  23
ATOM     23  C   UNL     1      46.706  49.466  10.186  1.00  0.00     0.000 C 
BRANCH  23  24
ATOM     24  C   UNL     1      47.382  48.165  10.647  1.00  0.00    -0.000 C 
BRANCH  24  25
ATOM     25  C   UNL     1      46.963  46.956   9.795  1.00  0.00    -0.000 C 
BRANCH  25  26
ATOM     26  C   UNL     1      46.440  45.791  10.656  1.00  0.00    -0.000 C 
BRANCH  26  27
ATOM     27  C   UNL     1      44.944  45.520  10.423  1.00  0.00    -0.000 C 
BRANCH  27  28
ATOM     28  C   UNL     1      44.347  46.432   9.342  1.00  0.00    -0.000 C 
BRANCH  28  29
ATOM     29  C   UNL     1      44.245  45.697   7.997  1.00  0.00    -0.000 C 
BRANCH  29  30
ATOM     30  C   UNL     1      42.909  44.941   7.842  1.00  0.00    -0.000 C 
BRANCH  30  31
ATOM     31  C   UNL     1      42.884  43.976   6.644  1.00  0.00    -0.003 C 
ATOM     32  C   UNL     1      41.566  43.213   6.516  1.00  0.00     0.004 C 
ENDBRANCH  30  31
ENDBRANCH  29  30
ENDBRANCH  28  29
ENDBRANCH  27  28
ENDBRANCH  26  27
ENDBRANCH  25  26
ENDBRANCH  24  25
ENDBRANCH  23  24
ENDBRANCH  22  23
ENDBRANCH  21  22
ENDBRANCH  20  21
ENDBRANCH  19  20
ENDBRANCH  18  19
ENDBRANCH   1  18
TORSDOF 28
ENDMDL
MODEL 4
REMARK VINA RESULT:    -5.022      1.977      6.082
REMARK INTER + INTRA:         -18.706
REMARK INTER:                 -13.938
REMARK INTRA:                  -4.768
REMARK UNBOUND:                -5.464
REMARK SMILES CCCCCCCCCCCCCCCCCCCCCCCCCCCCCC(=O)[O-]
REMARK SMILES IDX 16 1 17 2 18 3 19 4 20 5 21 6 22 7 23 8 24 9 25 10 26 11
REMARK SMILES IDX 27 12 28 13 29 14 30 15 31 16 32 17 15 18 14 19 13 20 12 21
REMARK SMILES IDX 11 22 10 23 9 24 8 25 7 26 6 27 5 28 4 29 3 30 2 31 1 32
REMARK H PARENT
REMARK Flexibility Score: inf
ROOT
ATOM      1  C   UNL     1      45.980  51.563   9.264  1.00  0.00     0.000 C 
ENDROOT
BRANCH   1   2
ATOM      2  C   UNL     1      44.990  51.731  10.429  1.00  0.00     0.000 C 
BRANCH   2   3
ATOM      3  C   UNL     1      43.679  50.962  10.209  1.00  0.00     0.000 C 
BRANCH   3   4
ATOM      4  C   UNL     1      43.507  50.582   8.732  1.00  0.00     0.000 C 
BRANCH   4   5
ATOM      5  C   UNL     1      42.670  49.304   8.584  1.00  0.00     0.000 C 
BRANCH   5   6
ATOM      6  C   UNL     1      43.380  48.215   7.759  1.00  0.00     0.000 C 
BRANCH   6   7
ATOM      7  C   UNL     1      42.434  47.121   7.222  1.00  0.00     0.000 C 
BRANCH   7   8
ATOM      8  C   UNL     1      43.176  45.814   6.890  1.00  0.00     0.000 C 
BRANCH   8   9
ATOM      9  C   UNL     1      42.601  44.606   7.648  1.00  0.00     0.000 C 
BRANCH   9  10
ATOM     10  C   UNL     1      41.507  43.878   6.847  1.00  0.00     0.000 C 
BRANCH  10  11
ATOM     11  C   UNL     1      40.156  43.858   7.582  1.00  0.00     0.000 C 
BRANCH  11  12
ATOM     12  C   UNL     1      39.172  44.899   7.028  1.00  0.00     0.000 C 
BRANCH  12  13
ATOM     13  C   UNL     1      38.977  46.052   8.019  1.00  0.00     0.006 C 
BRANCH  13  14
ATOM     14  C   UNL     1      38.602  45.525   9.409  1.00  0.00     0.053 C 
BRANCH  14  15
ATOM     15  C   UNL     1      39.626  45.933  10.420  1.00  0.00     0.041 C 
ATOM     16  O   UNL     1      40.647  46.577  10.063  1.00  0.00    -0.550 OA
ATOM     17  O   UNL     1      39.432  45.641  11.764  1.00  0.00    -0.550 OA
ENDBRANCH  14  15
ENDBRANCH  13  14
ENDBRANCH  12  13
ENDBRANCH  11  12
ENDBRANCH  10  11
ENDBRANCH   9  10
ENDBRANCH   8   9
ENDBRANCH   7   8
ENDBRANCH   6   7
ENDBRANCH   5   6
ENDBRANCH   4   5
ENDBRANCH   3   4
ENDBRANCH   2   3
ENDBRANCH   1   2
BRANCH   1  18
ATOM     18  C   UNL     1      47.115  50.573   9.584  1.00  0.00     0.000 C 
BRANCH  18  19
ATOM     19  C   UNL     1      46.852  49.740  10.848  1.00  0.00     0.000 C 
BRANCH  19  20
ATOM     20  C   UNL     1      47.014  48.230  10.615  1.00  0.00     0.000 C 
BRANCH  20  21
ATOM     21  C   UNL     1      46.774  47.826   9.148  1.00  0.00     0.000 C 
BRANCH  21  22
ATOM     22  C   UNL     1      46.289  46.372   8.972  1.00  0.00     0.000 C 
BRANCH  22  23
ATOM     23  C   UNL     1      46.566  45.505  10.212  1.00  0.00     0.000 C 
BRANCH  23  24
ATOM     24  C   UNL     1      45.256  44.970  10.810  1.00  0.00    -0.000 C 
BRANCH  24  25
ATOM     25  C   UNL     1      44.085  45.948  10.621  1.00  0.00    -0.000 C 
BRANCH  25  26
ATOM     26  C   UNL     1      43.524  46.450  11.964  1.00  0.00    -0.000 C 
BRANCH  26  27
ATOM     27  C   UNL     1      43.284  47.969  11.965  1.00  0.00    -0.000 C 
BRANCH  27  28
ATOM     28  C   UNL     1      42.182  48.386  12.948  1.00  0.00    -0.000 C 
BRANCH  28  29
ATOM     29  C   UNL     1      42.089  49.915  13.055  1.00  0.00    -0.000 C 
BRANCH  29  30
ATOM     30  C   UNL     1      42.192  50.407  14.514  1.00  0.00    -0.000 C 
BRANCH  30  31
ATOM     31  C   UNL     1      40.940  51.158  15.000  1.00  0.00    -0.003 C 
ATOM     32  C   UNL     1      39.803  51.150  13.979  1.00  0.00     0.004 C 
ENDBRANCH  30  31
ENDBRANCH  29  30
ENDBRANCH  28  29
ENDBRANCH  27  28
ENDBRANCH  26  27
ENDBRANCH  25  26
ENDBRANCH  24  25
ENDBRANCH  23  24
ENDBRANCH  22  23
ENDBRANCH  21  22
ENDBRANCH  20  21
ENDBRANCH  19  20
ENDBRANCH  18  19
ENDBRANCH   1  18
TORSDOF 28
ENDMDL
MODEL 5
REMARK VINA RESULT:    -4.967      1.126      5.865
REMARK INTER + INTRA:         -18.563
REMARK INTER:                 -13.711
REMARK INTRA:                  -4.852
REMARK UNBOUND:                -5.464
REMARK SMILES CCCCCCCCCCCCCCCCCCCCCCCCCCCCCC(=O)[O-]
REMARK SMILES IDX 16 1 17 2 18 3 19 4 20 5 21 6 22 7 23 8 24 9 25 10 26 11
REMARK SMILES IDX 27 12 28 13 29 14 30 15 31 16 32 17 15 18 14 19 13 20 12 21
REMARK SMILES IDX 11 22 10 23 9 24 8 25 7 26 6 27 5 28 4 29 3 30 2 31 1 32
REMARK H PARENT
REMARK Flexibility Score: inf
ROOT
ATOM      1  C   UNL     1      47.624  48.649  10.641  1.00  0.00     0.000 C 
ENDROOT
BRANCH   1   2
ATOM      2  C   UNL     1      46.750  47.912   9.613  1.00  0.00     0.000 C 
BRANCH   2   3
ATOM      3  C   UNL     1      45.921  46.781  10.240  1.00  0.00     0.000 C 
BRANCH   3   4
ATOM      4  C   UNL     1      46.579  45.417   9.991  1.00  0.00     0.000 C 
BRANCH   4   5
ATOM      5  C   UNL     1      47.566  45.486   8.817  1.00  0.00     0.000 C 
BRANCH   5   6
ATOM      6  C   UNL     1      47.132  44.622   7.619  1.00  0.00     0.000 C 
BRANCH   6   7
ATOM      7  C   UNL     1      45.796  43.881   7.834  1.00  0.00     0.000 C 
BRANCH   7   8
ATOM      8  C   UNL     1      44.993  43.728   6.531  1.00  0.00     0.000 C 
BRANCH   8   9
ATOM      9  C   UNL     1      44.209  45.002   6.173  1.00  0.00     0.000 C 
BRANCH   9  10
ATOM     10  C   UNL     1      43.685  45.737   7.419  1.00  0.00     0.000 C 
BRANCH  10  11
ATOM     11  C   UNL     1      42.980  47.058   7.069  1.00  0.00     0.000 C 
BRANCH  11  12
ATOM     12  C   UNL     1      43.208  48.143   8.133  1.00  0.00     0.000 C 
BRANCH  12  13
ATOM     13  C   UNL     1      41.947  48.993   8.328  1.00  0.00     0.006 C 
BRANCH  13  14
ATOM     14  C   UNL     1      41.344  49.400   6.978  1.00  0.00     0.053 C 
BRANCH  14  15
ATOM     15  C   UNL     1      41.448  50.879   6.781  1.00  0.00     0.041 C 
ATOM     16  O   UNL     1      42.400  51.364   6.114  1.00  0.00    -0.550 OA
ATOM     17  O   UNL     1      40.470  51.721   7.295  1.00  0.00    -0.550 OA
ENDBRANCH  14  15
ENDBRANCH  13  14
ENDBRANCH  12  13
ENDBRANCH  11  12
ENDBRANCH  10  11
ENDBRANCH   9  10
ENDBRANCH   8   9
ENDBRANCH   7   8
ENDBRANCH   6   7
ENDBRANCH   5   6
ENDBRANCH   4   5
ENDBRANCH   3   4
ENDBRANCH   2   3
ENDBRANCH   1   2
BRANCH   1  18
ATOM     18  C   UNL     1      47.676  50.169  10.399  1.00  0.00     0.000 C 
BRANCH  18  19
ATOM     19  C   UNL     1      46.679  50.953  11.268  1.00  0.00     0.000 C 
BRANCH  19  20
ATOM     20  C   UNL     1      45.532  51.569  10.454  1.00  0.00     0.000 C 
BRANCH  20  21
ATOM     21  C   UNL     1      44.191  50.845  10.673  1.00  0.00     0.000 C 
BRANCH  21  22
ATOM     22  C   UNL     1      44.242  49.753  11.762  1.00  0.00     0.000 C 
BRANCH  22  23
ATOM     23  C   UNL     1      42.858  49.151  12.057  1.00  0.00     0.000 C 
BRANCH  23  24
ATOM     24  C   UNL     1      42.946  47.624  12.207  1.00  0.00    -0.000 C 
BRANCH  24  25
ATOM     25  C   UNL     1      41.895  46.892  11.359  1.00  0.00    -0.000 C 
BRANCH  25  26
ATOM     26  C   UNL     1      40.578  46.671  12.125  1.00  0.00    -0.000 C 
BRANCH  26  27
ATOM     27  C   UNL     1      39.583  45.804  11.338  1.00  0.00    -0.000 C 
BRANCH  27  28
ATOM     28  C   UNL     1      39.750  45.955   9.820  1.00  0.00    -0.000 C 
BRANCH  28  29
ATOM     29  C   UNL     1      38.491  45.483   9.076  1.00  0.00    -0.000 C 
BRANCH  29  30
ATOM     30  C   UNL     1      38.754  45.239   7.575  1.00  0.00    -0.000 C 
BRANCH  30  31
ATOM     31  C   UNL     1      39.413  46.434   6.865  1.00  0.00    -0.003 C 
ATOM     32  C   UNL     1      38.957  46.596   5.416  1.00  0.00     0.004 C 
ENDBRANCH  30  31
ENDBRANCH  29  30
ENDBRANCH  28  29
ENDBRANCH  27  28
ENDBRANCH  26  27
ENDBRANCH  25  26
ENDBRANCH  24  25
ENDBRANCH  23  24
ENDBRANCH  22  23
ENDBRANCH  21  22
ENDBRANCH  20  21
ENDBRANCH  19  20
ENDBRANCH  18  19
ENDBRANCH   1  18
TORSDOF 28
ENDMDL
MODEL 6
REMARK VINA RESULT:    -4.960      2.039      7.283
REMARK INTER + INTRA:         -18.543
REMARK INTER:                 -13.993
REMARK INTRA:                  -4.550
REMARK UNBOUND:                -5.464
REMARK SMILES CCCCCCCCCCCCCCCCCCCCCCCCCCCCCC(=O)[O-]
REMARK SMILES IDX 16 1 17 2 18 3 19 4 20 5 21 6 22 7 23 8 24 9 25 10 26 11
REMARK SMILES IDX 27 12 28 13 29 14 30 15 31 16 32 17 15 18 14 19 13 20 12 21
REMARK SMILES IDX 11 22 10 23 9 24 8 25 7 26 6 27 5 28 4 29 3 30 2 31 1 32
REMARK H PARENT
REMARK Flexibility Score: inf
ROOT
ATOM      1  C   UNL     1      45.002  51.432   9.520  1.00  0.00     0.000 C 
ENDROOT
BRANCH   1   2
ATOM      2  C   UNL     1      45.261  51.385  11.035  1.00  0.00     0.000 C 
BRANCH   2   3
ATOM      3  C   UNL     1      45.957  50.089  11.478  1.00  0.00     0.000 C 
BRANCH   3   4
ATOM      4  C   UNL     1      47.232  49.845  10.659  1.00  0.00     0.000 C 
BRANCH   4   5
ATOM      5  C   UNL     1      47.678  48.379  10.755  1.00  0.00     0.000 C 
BRANCH   5   6
ATOM      6  C   UNL     1      46.778  47.425   9.949  1.00  0.00     0.000 C 
BRANCH   6   7
ATOM      7  C   UNL     1      46.511  46.077  10.649  1.00  0.00     0.000 C 
BRANCH   7   8
ATOM      8  C   UNL     1      45.323  45.318  10.031  1.00  0.00     0.000 C 
BRANCH   8   9
ATOM      9  C   UNL     1      43.984  46.038  10.261  1.00  0.00     0.000 C 
BRANCH   9  10
ATOM     10  C   UNL     1      43.805  46.488  11.721  1.00  0.00     0.000 C 
BRANCH  10  11
ATOM     11  C   UNL     1      43.093  47.846  11.835  1.00  0.00     0.000 C 
BRANCH  11  12
ATOM     12  C   UNL     1      42.746  48.207  13.287  1.00  0.00     0.000 C 
BRANCH  12  13
ATOM     13  C   UNL     1      42.536  49.718  13.443  1.00  0.00     0.006 C 
BRANCH  13  14
ATOM     14  C   UNL     1      41.270  50.175  12.707  1.00  0.00     0.053 C 
BRANCH  14  15
ATOM     15  C   UNL     1      40.279  50.744  13.672  1.00  0.00     0.041 C 
ATOM     16  O   UNL     1      40.647  51.105  14.820  1.00  0.00    -0.550 OA
ATOM     17  O   UNL     1      38.955  50.918  13.288  1.00  0.00    -0.550 OA
ENDBRANCH  14  15
ENDBRANCH  13  14
ENDBRANCH  12  13
ENDBRANCH  11  12
ENDBRANCH  10  11
ENDBRANCH   9  10
ENDBRANCH   8   9
ENDBRANCH   7   8
ENDBRANCH   6   7
ENDBRANCH   5   6
ENDBRANCH   4   5
ENDBRANCH   3   4
ENDBRANCH   2   3
ENDBRANCH   1   2
BRANCH   1  18
ATOM     18  C   UNL     1      43.567  51.019   9.146  1.00  0.00     0.000 C 
BRANCH  18  19
ATOM     19  C   UNL     1      43.444  49.532   8.776  1.00  0.00     0.000 C 
BRANCH  19  20
ATOM     20  C   UNL     1      41.985  49.065   8.654  1.00  0.00     0.000 C 
BRANCH  20  21
ATOM     21  C   UNL     1      41.841  47.776   7.825  1.00  0.00     0.000 C 
BRANCH  21  22
ATOM     22  C   UNL     1      40.861  47.901   6.640  1.00  0.00     0.000 C 
BRANCH  22  23
ATOM     23  C   UNL     1      41.424  47.297   5.343  1.00  0.00     0.000 C 
BRANCH  23  24
ATOM     24  C   UNL     1      40.394  46.372   4.677  1.00  0.00    -0.000 C 
BRANCH  24  25
ATOM     25  C   UNL     1      39.009  46.467   5.338  1.00  0.00    -0.000 C 
BRANCH  25  26
ATOM     26  C   UNL     1      38.448  45.085   5.718  1.00  0.00    -0.000 C 
BRANCH  26  27
ATOM     27  C   UNL     1      39.557  44.084   6.079  1.00  0.00    -0.000 C 
BRANCH  27  28
ATOM     28  C   UNL     1      39.474  43.622   7.541  1.00  0.00    -0.000 C 
BRANCH  28  29
ATOM     29  C   UNL     1      40.095  44.665   8.484  1.00  0.00    -0.000 C 
BRANCH  29  30
ATOM     30  C   UNL     1      39.052  45.674   9.009  1.00  0.00    -0.000 C 
BRANCH  30  31
ATOM     31  C   UNL     1      38.946  45.705  10.543  1.00  0.00    -0.003 C 
ATOM     32  C   UNL     1      40.210  46.231  11.221  1.00  0.00     0.004 C 
ENDBRANCH  30  31
ENDBRANCH  29  30
ENDBRANCH  28  29
ENDBRANCH  27  28
ENDBRANCH  26  27
ENDBRANCH  25  26
ENDBRANCH  24  25
ENDBRANCH  23  24
ENDBRANCH  22  23
ENDBRANCH  21  22
ENDBRANCH  20  21
ENDBRANCH  19  20
ENDBRANCH  18  19
ENDBRANCH   1  18
TORSDOF 28
ENDMDL
MODEL 7
REMARK VINA RESULT:    -4.947      1.673      4.161
REMARK INTER + INTRA:         -18.508
REMARK INTER:                 -13.696
REMARK INTRA:                  -4.812
REMARK UNBOUND:                -5.464
REMARK SMILES CCCCCCCCCCCCCCCCCCCCCCCCCCCCCC(=O)[O-]
REMARK SMILES IDX 16 1 17 2 18 3 19 4 20 5 21 6 22 7 23 8 24 9 25 10 26 11
REMARK SMILES IDX 27 12 28 13 29 14 30 15 31 16 32 17 15 18 14 19 13 20 12 21
REMARK SMILES IDX 11 22 10 23 9 24 8 25 7 26 6 27 5 28 4 29 3 30 2 31 1 32
REMARK H PARENT
REMARK Flexibility Score: inf
ROOT
ATOM      1  C   UNL     1      43.175  49.269   8.500  1.00  0.00     0.000 C 
ENDROOT
BRANCH   1   2
ATOM      2  C   UNL     1      42.046  49.011   7.488  1.00  0.00     0.000 C 
BRANCH   2   3
ATOM      3  C   UNL     1      42.544  48.328   6.206  1.00  0.00     0.000 C 
BRANCH   3   4
ATOM      4  C   UNL     1      41.380  47.683   5.442  1.00  0.00     0.000 C 
BRANCH   4   5
ATOM      5  C   UNL     1      40.225  47.329   6.390  1.00  0.00     0.000 C 
BRANCH   5   6
ATOM      6  C   UNL     1      39.007  46.740   5.655  1.00  0.00     0.000 C 
BRANCH   6   7
ATOM      7  C   UNL     1      38.529  45.388   6.223  1.00  0.00     0.000 C 
BRANCH   7   8
ATOM      8  C   UNL     1      39.699  44.455   6.585  1.00  0.00     0.000 C 
BRANCH   8   9
ATOM      9  C   UNL     1      39.700  44.068   8.073  1.00  0.00     0.000 C 
BRANCH   9  10
ATOM     10  C   UNL     1      38.939  45.083   8.943  1.00  0.00     0.000 C 
BRANCH  10  11
ATOM     11  C   UNL     1      39.873  45.877   9.872  1.00  0.00     0.000 C 
BRANCH  11  12
ATOM     12  C   UNL     1      39.518  45.694  11.355  1.00  0.00     0.000 C 
BRANCH  12  13
ATOM     13  C   UNL     1      39.923  46.926  12.174  1.00  0.00     0.006 C 
BRANCH  13  14
ATOM     14  C   UNL     1      41.318  47.418  11.771  1.00  0.00     0.053 C 
BRANCH  14  15
ATOM     15  C   UNL     1      41.794  48.478  12.714  1.00  0.00     0.041 C 
ATOM     16  O   UNL     1      41.197  49.585  12.777  1.00  0.00    -0.550 OA
ATOM     17  O   UNL     1      42.870  48.228  13.555  1.00  0.00    -0.550 OA
ENDBRANCH  14  15
ENDBRANCH  13  14
ENDBRANCH  12  13
ENDBRANCH  11  12
ENDBRANCH  10  11
ENDBRANCH   9  10
ENDBRANCH   8   9
ENDBRANCH   7   8
ENDBRANCH   6   7
ENDBRANCH   5   6
ENDBRANCH   4   5
ENDBRANCH   3   4
ENDBRANCH   2   3
ENDBRANCH   1   2
BRANCH   1  18
ATOM     18  C   UNL     1      42.749  50.210   9.642  1.00  0.00     0.000 C 
BRANCH  18  19
ATOM     19  C   UNL     1      43.925  50.994  10.249  1.00  0.00     0.000 C 
BRANCH  19  20
ATOM     20  C   UNL     1      44.700  50.188  11.302  1.00  0.00     0.000 C 
BRANCH  20  21
ATOM     21  C   UNL     1      46.207  50.505  11.302  1.00  0.00     0.000 C 
BRANCH  21  22
ATOM     22  C   UNL     1      47.095  49.320  10.867  1.00  0.00     0.000 C 
BRANCH  22  23
ATOM     23  C   UNL     1      46.967  49.008   9.367  1.00  0.00     0.000 C 
BRANCH  23  24
ATOM     24  C   UNL     1      46.365  47.611   9.147  1.00  0.00    -0.000 C 
BRANCH  24  25
ATOM     25  C   UNL     1      46.439  46.738  10.410  1.00  0.00    -0.000 C 
BRANCH  25  26
ATOM     26  C   UNL     1      46.806  45.277  10.087  1.00  0.00    -0.000 C 
BRANCH  26  27
ATOM     27  C   UNL     1      47.371  45.118   8.667  1.00  0.00    -0.000 C 
BRANCH  27  28
ATOM     28  C   UNL     1      46.977  43.779   8.028  1.00  0.00    -0.000 C 
BRANCH  28  29
ATOM     29  C   UNL     1      46.309  43.995   6.661  1.00  0.00    -0.000 C 
BRANCH  29  30
ATOM     30  C   UNL     1      44.769  43.987   6.754  1.00  0.00    -0.000 C 
BRANCH  30  31
ATOM     31  C   UNL     1      44.171  45.347   7.153  1.00  0.00    -0.003 C 
ATOM     32  C   UNL     1      43.258  45.265   8.375  1.00  0.00     0.004 C 
ENDBRANCH  30  31
ENDBRANCH  29  30
ENDBRANCH  28  29
ENDBRANCH  27  28
ENDBRANCH  26  27
ENDBRANCH  25  26
ENDBRANCH  24  25
ENDBRANCH  23  24
ENDBRANCH  22  23
ENDBRANCH  21  22
ENDBRANCH  20  21
ENDBRANCH  19  20
ENDBRANCH  18  19
ENDBRANCH   1  18
TORSDOF 28
ENDMDL
MODEL 8
REMARK VINA RESULT:    -4.927      1.173      6.225
REMARK INTER + INTRA:         -18.455
REMARK INTER:                 -12.443
REMARK INTRA:                  -6.012
REMARK UNBOUND:                -5.464
REMARK SMILES CCCCCCCCCCCCCCCCCCCCCCCCCCCCCC(=O)[O-]
REMARK SMILES IDX 16 1 17 2 18 3 19 4 20 5 21 6 22 7 23 8 24 9 25 10 26 11
REMARK SMILES IDX 27 12 28 13 29 14 30 15 31 16 32 17 15 18 14 19 13 20 12 21
REMARK SMILES IDX 11 22 10 23 9 24 8 25 7 26 6 27 5 28 4 29 3 30 2 31 1 32
REMARK H PARENT
REMARK Flexibility Score: inf
ROOT
ATOM      1  C   UNL     1      43.100  47.577  12.448  1.00  0.00     0.000 C 
ENDROOT
BRANCH   1   2
ATOM      2  C   UNL     1      42.576  48.834  13.161  1.00  0.00     0.000 C 
BRANCH   2   3
ATOM      3  C   UNL     1      43.342  50.105  12.763  1.00  0.00     0.000 C 
BRANCH   3   4
ATOM      4  C   UNL     1      44.452  49.783  11.755  1.00  0.00     0.000 C 
BRANCH   4   5
ATOM      5  C   UNL     1      45.331  51.013  11.488  1.00  0.00     0.000 C 
BRANCH   5   6
ATOM      6  C   UNL     1      46.755  50.644  11.034  1.00  0.00     0.000 C 
BRANCH   6   7
ATOM      7  C   UNL     1      46.813  49.427  10.088  1.00  0.00     0.000 C 
BRANCH   7   8
ATOM      8  C   UNL     1      47.558  48.233  10.711  1.00  0.00     0.000 C 
BRANCH   8   9
ATOM      9  C   UNL     1      46.883  46.889  10.389  1.00  0.00     0.000 C 
BRANCH   9  10
ATOM     10  C   UNL     1      45.878  47.002   9.229  1.00  0.00     0.000 C 
BRANCH  10  11
ATOM     11  C   UNL     1      44.592  46.199   9.486  1.00  0.00     0.000 C 
BRANCH  11  12
ATOM     12  C   UNL     1      43.391  46.749   8.703  1.00  0.00     0.000 C 
BRANCH  12  13
ATOM     13  C   UNL     1      43.464  48.276   8.585  1.00  0.00     0.006 C 
BRANCH  13  14
ATOM     14  C   UNL     1      42.178  48.929   9.103  1.00  0.00     0.053 C 
BRANCH  14  15
ATOM     15  C   UNL     1      42.140  50.379   8.737  1.00  0.00     0.041 C 
ATOM     16  O   UNL     1      42.280  50.733   7.536  1.00  0.00    -0.550 OA
ATOM     17  O   UNL     1      41.907  51.338   9.714  1.00  0.00    -0.550 OA
ENDBRANCH  14  15
ENDBRANCH  13  14
ENDBRANCH  12  13
ENDBRANCH  11  12
ENDBRANCH  10  11
ENDBRANCH   9  10
ENDBRANCH   8   9
ENDBRANCH   7   8
ENDBRANCH   6   7
ENDBRANCH   5   6
ENDBRANCH   4   5
ENDBRANCH   3   4
ENDBRANCH   2   3
ENDBRANCH   1   2
BRANCH   1  18
ATOM     18  C   UNL     1      42.023  46.489  12.286  1.00  0.00     0.000 C 
BRANCH  18  19
ATOM     19  C   UNL     1      40.626  47.061  11.993  1.00  0.00     0.000 C 
BRANCH  19  20
ATOM     20  C   UNL     1      39.678  46.030  11.362  1.00  0.00     0.000 C 
BRANCH  20  21
ATOM     21  C   UNL     1      39.950  45.812   9.862  1.00  0.00     0.000 C 
BRANCH  21  22
ATOM     22  C   UNL     1      38.735  45.270   9.080  1.00  0.00     0.000 C 
BRANCH  22  23
ATOM     23  C   UNL     1      38.574  45.939   7.705  1.00  0.00     0.000 C 
BRANCH  23  24
ATOM     24  C   UNL     1      39.750  46.886   7.416  1.00  0.00    -0.000 C 
BRANCH  24  25
ATOM     25  C   UNL     1      40.017  47.043   5.910  1.00  0.00    -0.000 C 
BRANCH  25  26
ATOM     26  C   UNL     1      41.321  47.810   5.627  1.00  0.00    -0.000 C 
BRANCH  26  27
ATOM     27  C   UNL     1      42.430  46.895   5.084  1.00  0.00    -0.000 C 
BRANCH  27  28
ATOM     28  C   UNL     1      41.908  45.903   4.035  1.00  0.00    -0.000 C 
BRANCH  28  29
ATOM     29  C   UNL     1      42.149  44.453   4.480  1.00  0.00    -0.000 C 
BRANCH  29  30
ATOM     30  C   UNL     1      40.838  43.726   4.845  1.00  0.00    -0.000 C 
BRANCH  30  31
ATOM     31  C   UNL     1      40.832  43.149   6.271  1.00  0.00    -0.003 C 
ATOM     32  C   UNL     1      41.832  43.836   7.200  1.00  0.00     0.004 C 
ENDBRANCH  30  31
ENDBRANCH  29  30
ENDBRANCH  28  29
ENDBRANCH  27  28
ENDBRANCH  26  27
ENDBRANCH  25  26
ENDBRANCH  24  25
ENDBRANCH  23  24
ENDBRANCH  22  23
ENDBRANCH  21  22
ENDBRANCH  20  21
ENDBRANCH  19  20
ENDBRANCH  18  19
ENDBRANCH   1  18
TORSDOF 28
ENDMDL
MODEL 9
REMARK VINA RESULT:    -4.848      2.410      7.010
REMARK INTER + INTRA:         -18.248
REMARK INTER:                 -12.894
REMARK INTRA:                  -5.353
REMARK UNBOUND:                -5.464
REMARK SMILES CCCCCCCCCCCCCCCCCCCCCCCCCCCCCC(=O)[O-]
REMARK SMILES IDX 16 1 17 2 18 3 19 4 20 5 21 6 22 7 23 8 24 9 25 10 26 11
REMARK SMILES IDX 27 12 28 13 29 14 30 15 31 16 32 17 15 18 14 19 13 20 12 21
REMARK SMILES IDX 11 22 10 23 9 24 8 25 7 26 6 27 5 28 4 29 3 30 2 31 1 32
REMARK H PARENT
REMARK Flexibility Score: inf
ROOT
ATOM      1  C   UNL     1      42.935  47.329  12.652  1.00  0.00     0.000 C 
ENDROOT
BRANCH   1   2
ATOM      2  C   UNL     1      42.349  48.647  13.184  1.00  0.00     0.000 C 
BRANCH   2   3
ATOM      3  C   UNL     1      42.632  49.839  12.258  1.00  0.00     0.000 C 
BRANCH   3   4
ATOM      4  C   UNL     1      43.945  49.638  11.490  1.00  0.00     0.000 C 
BRANCH   4   5
ATOM      5  C   UNL     1      44.285  50.872  10.643  1.00  0.00     0.000 C 
BRANCH   5   6
ATOM      6  C   UNL     1      45.777  51.243  10.698  1.00  0.00     0.000 C 
BRANCH   6   7
ATOM      7  C   UNL     1      46.599  50.708   9.508  1.00  0.00     0.000 C 
BRANCH   7   8
ATOM      8  C   UNL     1      47.883  49.986   9.957  1.00  0.00     0.000 C 
BRANCH   8   9
ATOM      9  C   UNL     1      47.587  48.658  10.673  1.00  0.00     0.000 C 
BRANCH   9  10
ATOM     10  C   UNL     1      46.671  47.738   9.848  1.00  0.00     0.000 C 
BRANCH  10  11
ATOM     11  C   UNL     1      46.172  46.528  10.655  1.00  0.00     0.000 C 
BRANCH  11  12
ATOM     12  C   UNL     1      46.250  45.219   9.856  1.00  0.00     0.000 C 
BRANCH  12  13
ATOM     13  C   UNL     1      46.961  45.434   8.515  1.00  0.00     0.006 C 
BRANCH  13  14
ATOM     14  C   UNL     1      47.601  44.133   8.018  1.00  0.00     0.053 C 
BRANCH  14  15
ATOM     15  C   UNL     1      46.654  43.385   7.134  1.00  0.00     0.041 C 
ATOM     16  O   UNL     1      46.395  43.811   5.977  1.00  0.00    -0.550 OA
ATOM     17  O   UNL     1      46.088  42.194   7.570  1.00  0.00    -0.550 OA
ENDBRANCH  14  15
ENDBRANCH  13  14
ENDBRANCH  12  13
ENDBRANCH  11  12
ENDBRANCH  10  11
ENDBRANCH   9  10
ENDBRANCH   8   9
ENDBRANCH   7   8
ENDBRANCH   6   7
ENDBRANCH   5   6
ENDBRANCH   4   5
ENDBRANCH   3   4
ENDBRANCH   2   3
ENDBRANCH   1   2
BRANCH   1  18
ATOM     18  C   UNL     1      41.915  46.504  11.847  1.00  0.00     0.000 C 
BRANCH  18  19
ATOM     19  C   UNL     1      40.458  46.906  12.127  1.00  0.00     0.000 C 
BRANCH  19  20
ATOM     20  C   UNL     1      39.440  45.930  11.517  1.00  0.00     0.000 C 
BRANCH  20  21
ATOM     21  C   UNL     1      39.746  45.594  10.046  1.00  0.00     0.000 C 
BRANCH  21  22
ATOM     22  C   UNL     1      38.595  45.932   9.076  1.00  0.00     0.000 C 
BRANCH  22  23
ATOM     23  C   UNL     1      38.983  45.716   7.604  1.00  0.00     0.000 C 
BRANCH  23  24
ATOM     24  C   UNL     1      39.579  44.315   7.395  1.00  0.00    -0.000 C 
BRANCH  24  25
ATOM     25  C   UNL     1      39.929  44.043   5.923  1.00  0.00    -0.000 C 
BRANCH  25  26
ATOM     26  C   UNL     1      40.696  45.213   5.280  1.00  0.00    -0.000 C 
BRANCH  26  27
ATOM     27  C   UNL     1      42.195  44.913   5.124  1.00  0.00    -0.000 C 
BRANCH  27  28
ATOM     28  C   UNL     1      43.065  45.804   6.021  1.00  0.00    -0.000 C 
BRANCH  28  29
ATOM     29  C   UNL     1      43.377  45.108   7.355  1.00  0.00    -0.000 C 
BRANCH  29  30
ATOM     30  C   UNL     1      42.964  45.962   8.572  1.00  0.00    -0.000 C 
BRANCH  30  31
ATOM     31  C   UNL     1      43.195  47.470   8.372  1.00  0.00    -0.003 C 
ATOM     32  C   UNL     1      41.936  48.304   8.600  1.00  0.00     0.004 C 
ENDBRANCH  30  31
ENDBRANCH  29  30
ENDBRANCH  28  29
ENDBRANCH  27  28
ENDBRANCH  26  27
ENDBRANCH  25  26
ENDBRANCH  24  25
ENDBRANCH  23  24
ENDBRANCH  22  23
ENDBRANCH  21  22
ENDBRANCH  20  21
ENDBRANCH  19  20
ENDBRANCH  18  19
ENDBRANCH   1  18
TORSDOF 28
ENDMDL
