MODEL 1
REMARK VINA RESULT:    -6.768      0.000      0.000
REMARK INTER + INTRA:         -11.260
REMARK INTER:                  -9.934
REMARK INTRA:                  -1.326
REMARK UNBOUND:                -1.326
REMARK SMILES O=c1c(O[C@@H]2O[C@H](CO)[C@@H](O)[C@H](O)[C@H]2O)c(-c2ccc(O)c(O)c2)oc2cc(O)cc(O)c12
REMARK SMILES IDX 4 1 3 2 16 3 25 4 2 5 26 6 1 7 33 8 27 9 31 10 28 11 30 12
REMARK SMILES IDX 17 13 18 14 19 15 20 16 24 17 22 18 21 19 23 21 32 23 29 25
REMARK SMILES IDX 5 27 14 28 6 29 12 30 7 31 10 32 15 33 13 35 8 37 9 38 11 40
REMARK H PARENT 21 20 23 22 32 24 29 26 15 34 13 36 9 39 11 41
REMARK Flexibility Score: inf
ROOT
ATOM      1  O   UNL     1      92.646  90.656  74.776  1.00  0.00    -0.454 OA
ENDROOT
BRANCH   1   2
ATOM      2  C   UNL     1      91.842  91.123  73.718  1.00  0.00     0.214 A 
ATOM      3  C   UNL     1      91.147  90.168  72.952  1.00  0.00     0.180 A 
ATOM      4  O   UNL     1      90.378  90.554  71.934  1.00  0.00    -0.452 OA
ATOM      5  C   UNL     1      91.695  92.489  73.382  1.00  0.00     0.239 A 
ATOM      6  C   UNL     1      90.205  91.822  71.592  1.00  0.00     0.146 A 
ATOM      7  O   UNL     1      92.300  93.380  74.040  1.00  0.00    -0.285 OA
ATOM      8  C   UNL     1      90.855  92.853  72.307  1.00  0.00     0.111 A 
ATOM      9  C   UNL     1      89.353  92.127  70.528  1.00  0.00     0.094 A 
ATOM     10  C   UNL     1      90.646  94.199  71.912  1.00  0.00     0.134 A 
ATOM     11  C   UNL     1      89.136  93.458  70.158  1.00  0.00     0.123 A 
ATOM     12  C   UNL     1      89.781  94.485  70.845  1.00  0.00     0.093 A 
BRANCH   3  13
ATOM     13  C   UNL     1      91.272  88.717  73.220  1.00  0.00     0.025 A 
ATOM     14  C   UNL     1      90.399  88.064  74.103  1.00  0.00     0.016 A 
ATOM     15  C   UNL     1      90.584  86.721  74.423  1.00  0.00     0.051 A 
ATOM     16  C   UNL     1      91.623  85.992  73.830  1.00  0.00     0.157 A 
ATOM     17  C   UNL     1      92.297  87.980  72.604  1.00  0.00     0.062 A 
ATOM     18  C   UNL     1      92.479  86.624  72.912  1.00  0.00     0.158 A 
BRANCH  16  19
ATOM     19  O   UNL     1      91.815  84.652  74.157  1.00  0.00    -0.504 OA
ATOM     20  H   UNL     1      92.531  84.093  73.712  1.00  0.00     0.293 HD
ENDBRANCH  16  19
BRANCH  18  21
ATOM     21  O   UNL     1      93.520  85.928  72.304  1.00  0.00    -0.504 OA
ATOM     22  H   UNL     1      93.777  86.078  71.332  1.00  0.00     0.293 HD
ENDBRANCH  18  21
ENDBRANCH   3  13
BRANCH  10  23
ATOM     23  O   UNL     1      91.283  95.255  72.573  1.00  0.00    -0.507 OA
ATOM     24  H   UNL     1      92.124  95.688  72.210  1.00  0.00     0.293 HD
ENDBRANCH  10  23
BRANCH  11  25
ATOM     25  O   UNL     1      88.287  93.771  69.093  1.00  0.00    -0.508 OA
ATOM     26  H   UNL     1      87.509  93.157  68.829  1.00  0.00     0.293 HD
ENDBRANCH  11  25
ENDBRANCH   1   2
BRANCH   1  27
ATOM     27  C   UNL     1      92.538  90.980  76.166  1.00  0.00     0.339 C 
ATOM     28  C   UNL     1      91.926  89.741  76.878  1.00  0.00     0.214 C 
ATOM     29  O   UNL     1      93.834  91.378  76.627  1.00  0.00    -0.332 OA
ATOM     30  C   UNL     1      93.019  88.708  77.201  1.00  0.00     0.180 C 
ATOM     31  C   UNL     1      94.144  90.903  77.923  1.00  0.00     0.179 C 
ATOM     32  C   UNL     1      94.235  89.350  77.922  1.00  0.00     0.177 C 
BRANCH  28  33
ATOM     33  O   UNL     1      91.271  90.153  78.050  1.00  0.00    -0.384 OA
ATOM     34  H   UNL     1      90.298  90.105  77.873  1.00  0.00     0.211 HD
ENDBRANCH  28  33
BRANCH  30  35
ATOM     35  O   UNL     1      93.423  88.089  76.006  1.00  0.00    -0.387 OA
ATOM     36  H   UNL     1      92.844  88.445  75.284  1.00  0.00     0.211 HD
ENDBRANCH  30  35
BRANCH  31  37
ATOM     37  C   UNL     1      95.468  91.542  78.367  1.00  0.00     0.191 C 
BRANCH  37  38
ATOM     38  O   UNL     1      95.697  92.732  77.663  1.00  0.00    -0.394 OA
ATOM     39  H   UNL     1      94.867  93.271  77.758  1.00  0.00     0.210 HD
ENDBRANCH  37  38
ENDBRANCH  31  37
BRANCH  32  40
ATOM     40  O   UNL     1      94.294  88.874  79.247  1.00  0.00    -0.387 OA
ATOM     41  H   UNL     1      93.829  89.539  79.821  1.00  0.00     0.211 HD
ENDBRANCH  32  40
ENDBRANCH   1  27
TORSDOF 12
ENDMDL
MODEL 2
REMARK VINA RESULT:    -6.622      1.868      5.292
REMARK INTER + INTRA:         -11.045
REMARK INTER:                 -10.161
REMARK INTRA:                  -0.884
REMARK UNBOUND:                -1.326
REMARK SMILES O=c1c(O[C@@H]2O[C@H](CO)[C@@H](O)[C@H](O)[C@H]2O)c(-c2ccc(O)c(O)c2)oc2cc(O)cc(O)c12
REMARK SMILES IDX 4 1 3 2 16 3 25 4 2 5 26 6 1 7 33 8 27 9 31 10 28 11 30 12
REMARK SMILES IDX 17 13 18 14 19 15 20 16 24 17 22 18 21 19 23 21 32 23 29 25
REMARK SMILES IDX 5 27 14 28 6 29 12 30 7 31 10 32 15 33 13 35 8 37 9 38 11 40
REMARK H PARENT 21 20 23 22 32 24 29 26 15 34 13 36 9 39 11 41
REMARK Flexibility Score: inf
ROOT
ATOM      1  O   UNL     1      93.131  88.634  74.675  1.00  0.00    -0.454 OA
ENDROOT
BRANCH   1   2
ATOM      2  C   UNL     1      92.441  89.848  74.496  1.00  0.00     0.214 A 
ATOM      3  C   UNL     1      92.566  90.828  75.500  1.00  0.00     0.180 A 
ATOM      4  O   UNL     1      91.928  91.993  75.385  1.00  0.00    -0.452 OA
ATOM      5  C   UNL     1      91.633  90.139  73.373  1.00  0.00     0.239 A 
ATOM      6  C   UNL     1      91.171  92.309  74.346  1.00  0.00     0.146 A 
ATOM      7  O   UNL     1      91.489  89.291  72.449  1.00  0.00    -0.285 OA
ATOM      8  C   UNL     1      90.991  91.394  73.284  1.00  0.00     0.111 A 
ATOM      9  C   UNL     1      90.569  93.569  74.304  1.00  0.00     0.094 A 
ATOM     10  C   UNL     1      90.172  91.767  72.188  1.00  0.00     0.134 A 
ATOM     11  C   UNL     1      89.781  93.938  73.210  1.00  0.00     0.123 A 
ATOM     12  C   UNL     1      89.583  93.040  72.162  1.00  0.00     0.093 A 
BRANCH   3  13
ATOM     13  C   UNL     1      93.368  90.589  76.722  1.00  0.00     0.025 A 
ATOM     14  C   UNL     1      93.003  89.602  77.650  1.00  0.00     0.016 A 
ATOM     15  C   UNL     1      93.708  89.451  78.842  1.00  0.00     0.051 A 
ATOM     16  C   UNL     1      94.822  90.256  79.108  1.00  0.00     0.157 A 
ATOM     17  C   UNL     1      94.502  91.378  76.976  1.00  0.00     0.062 A 
ATOM     18  C   UNL     1      95.223  91.220  78.168  1.00  0.00     0.158 A 
BRANCH  16  19
ATOM     19  O   UNL     1      95.522  90.113  80.304  1.00  0.00    -0.504 OA
ATOM     20  H   UNL     1      96.483  89.804  80.324  1.00  0.00     0.293 HD
ENDBRANCH  16  19
BRANCH  18  21
ATOM     21  O   UNL     1      96.327  92.036  78.402  1.00  0.00    -0.504 OA
ATOM     22  H   UNL     1      96.251  93.048  78.455  1.00  0.00     0.293 HD
ENDBRANCH  18  21
ENDBRANCH   3  13
BRANCH  10  23
ATOM     23  O   UNL     1      89.945  90.890  71.123  1.00  0.00    -0.507 OA
ATOM     24  H   UNL     1      89.460  91.179  70.282  1.00  0.00     0.293 HD
ENDBRANCH  10  23
BRANCH  11  25
ATOM     25  O   UNL     1      89.173  95.195  73.162  1.00  0.00    -0.508 OA
ATOM     26  H   UNL     1      89.720  96.058  73.258  1.00  0.00     0.293 HD
ENDBRANCH  11  25
ENDBRANCH   1   2
BRANCH   1  27
ATOM     27  C   UNL     1      92.577  87.316  74.752  1.00  0.00     0.339 C 
ATOM     28  C   UNL     1      92.779  86.653  73.361  1.00  0.00     0.214 C 
ATOM     29  O   UNL     1      93.198  86.642  75.853  1.00  0.00    -0.332 OA
ATOM     30  C   UNL     1      94.193  86.057  73.247  1.00  0.00     0.180 C 
ATOM     31  C   UNL     1      93.485  85.281  75.593  1.00  0.00     0.179 C 
ATOM     32  C   UNL     1      94.548  85.159  74.463  1.00  0.00     0.177 C 
BRANCH  28  33
ATOM     33  O   UNL     1      91.805  85.661  73.171  1.00  0.00    -0.384 OA
ATOM     34  H   UNL     1      91.964  84.961  73.854  1.00  0.00     0.211 HD
ENDBRANCH  28  33
BRANCH  30  35
ATOM     35  O   UNL     1      95.118  87.106  73.119  1.00  0.00    -0.387 OA
ATOM     36  H   UNL     1      94.960  87.727  73.876  1.00  0.00     0.211 HD
ENDBRANCH  30  35
BRANCH  31  37
ATOM     37  C   UNL     1      93.975  84.633  76.896  1.00  0.00     0.191 C 
BRANCH  37  38
ATOM     38  O   UNL     1      95.358  84.413  76.842  1.00  0.00    -0.394 OA
ATOM     39  H   UNL     1      95.682  84.468  77.780  1.00  0.00     0.210 HD
ENDBRANCH  37  38
ENDBRANCH  31  37
BRANCH  32  40
ATOM     40  O   UNL     1      94.643  83.819  74.039  1.00  0.00    -0.387 OA
ATOM     41  H   UNL     1      95.504  83.722  73.553  1.00  0.00     0.211 HD
ENDBRANCH  32  40
ENDBRANCH   1  27
TORSDOF 12
ENDMDL
MODEL 3
REMARK VINA RESULT:    -6.387      5.146      8.057
REMARK INTER + INTRA:         -10.700
REMARK INTER:                  -9.163
REMARK INTRA:                  -1.537
REMARK UNBOUND:                -1.326
REMARK SMILES O=c1c(O[C@@H]2O[C@H](CO)[C@@H](O)[C@H](O)[C@H]2O)c(-c2ccc(O)c(O)c2)oc2cc(O)cc(O)c12
REMARK SMILES IDX 4 1 3 2 16 3 25 4 2 5 26 6 1 7 33 8 27 9 31 10 28 11 30 12
REMARK SMILES IDX 17 13 18 14 19 15 20 16 24 17 22 18 21 19 23 21 32 23 29 25
REMARK SMILES IDX 5 27 14 28 6 29 12 30 7 31 10 32 15 33 13 35 8 37 9 38 11 40
REMARK H PARENT 21 20 23 22 32 24 29 26 15 34 13 36 9 39 11 41
REMARK Flexibility Score: inf
ROOT
ATOM      1  O   UNL     1      86.713  94.311  72.480  1.00  0.00    -0.454 OA
ENDROOT
BRANCH   1   2
ATOM      2  C   UNL     1      86.865  94.494  71.092  1.00  0.00     0.214 A 
ATOM      3  C   UNL     1      88.163  94.731  70.601  1.00  0.00     0.180 A 
ATOM      4  O   UNL     1      88.364  94.919  69.297  1.00  0.00    -0.452 OA
ATOM      5  C   UNL     1      85.795  94.456  70.168  1.00  0.00     0.239 A 
ATOM      6  C   UNL     1      87.393  94.881  68.398  1.00  0.00     0.146 A 
ATOM      7  O   UNL     1      84.614  94.249  70.563  1.00  0.00    -0.285 OA
ATOM      8  C   UNL     1      86.057  94.642  68.794  1.00  0.00     0.111 A 
ATOM      9  C   UNL     1      87.710  95.060  67.049  1.00  0.00     0.094 A 
ATOM     10  C   UNL     1      85.043  94.609  67.803  1.00  0.00     0.134 A 
ATOM     11  C   UNL     1      86.707  95.005  66.076  1.00  0.00     0.123 A 
ATOM     12  C   UNL     1      85.383  94.784  66.453  1.00  0.00     0.093 A 
BRANCH   3  13
ATOM     13  C   UNL     1      89.332  94.816  71.506  1.00  0.00     0.025 A 
ATOM     14  C   UNL     1      89.432  95.830  72.471  1.00  0.00     0.016 A 
ATOM     15  C   UNL     1      90.578  95.959  73.252  1.00  0.00     0.051 A 
ATOM     16  C   UNL     1      91.632  95.047  73.112  1.00  0.00     0.157 A 
ATOM     17  C   UNL     1      90.377  93.886  71.385  1.00  0.00     0.062 A 
ATOM     18  C   UNL     1      91.527  94.002  72.177  1.00  0.00     0.158 A 
BRANCH  16  19
ATOM     19  O   UNL     1      92.783  95.181  73.884  1.00  0.00    -0.504 OA
ATOM     20  H   UNL     1      92.995  94.543  74.638  1.00  0.00     0.293 HD
ENDBRANCH  16  19
BRANCH  18  21
ATOM     21  O   UNL     1      92.556  93.078  72.015  1.00  0.00    -0.504 OA
ATOM     22  H   UNL     1      92.383  92.121  71.720  1.00  0.00     0.293 HD
ENDBRANCH  18  21
ENDBRANCH   3  13
BRANCH  10  23
ATOM     23  O   UNL     1      83.703  94.398  68.145  1.00  0.00    -0.507 OA
ATOM     24  H   UNL     1      83.359  93.491  68.436  1.00  0.00     0.293 HD
ENDBRANCH  10  23
BRANCH  11  25
ATOM     25  O   UNL     1      87.015  95.185  64.725  1.00  0.00    -0.508 OA
ATOM     26  H   UNL     1      87.836  95.726  64.430  1.00  0.00     0.293 HD
ENDBRANCH  11  25
ENDBRANCH   1   2
BRANCH   1  27
ATOM     27  C   UNL     1      86.951  93.119  73.237  1.00  0.00     0.339 C 
ATOM     28  C   UNL     1      85.911  93.095  74.391  1.00  0.00     0.214 C 
ATOM     29  O   UNL     1      86.898  92.008  72.334  1.00  0.00    -0.332 OA
ATOM     30  C   UNL     1      84.572  92.519  73.900  1.00  0.00     0.180 C 
ATOM     31  C   UNL     1      86.257  90.869  72.878  1.00  0.00     0.179 C 
ATOM     32  C   UNL     1      84.755  91.173  73.148  1.00  0.00     0.177 C 
BRANCH  28  33
ATOM     33  O   UNL     1      86.416  92.335  75.458  1.00  0.00    -0.384 OA
ATOM     34  H   UNL     1      87.027  91.658  75.071  1.00  0.00     0.211 HD
ENDBRANCH  28  33
BRANCH  30  35
ATOM     35  O   UNL     1      83.948  93.467  73.071  1.00  0.00    -0.387 OA
ATOM     36  H   UNL     1      83.103  93.731  73.516  1.00  0.00     0.211 HD
ENDBRANCH  30  35
BRANCH  31  37
ATOM     37  C   UNL     1      86.425  89.704  71.891  1.00  0.00     0.191 C 
BRANCH  37  38
ATOM     38  O   UNL     1      86.269  88.478  72.552  1.00  0.00    -0.394 OA
ATOM     39  H   UNL     1      86.973  87.878  72.187  1.00  0.00     0.210 HD
ENDBRANCH  37  38
ENDBRANCH  31  37
BRANCH  32  40
ATOM     40  O   UNL     1      84.189  90.133  73.912  1.00  0.00    -0.387 OA
ATOM     41  H   UNL     1      83.489  90.537  74.490  1.00  0.00     0.211 HD
ENDBRANCH  32  40
ENDBRANCH   1  27
TORSDOF 12
ENDMDL
MODEL 4
REMARK VINA RESULT:    -6.366      1.947      5.142
REMARK INTER + INTRA:         -10.669
REMARK INTER:                  -9.841
REMARK INTRA:                  -0.828
REMARK UNBOUND:                -1.326
REMARK SMILES O=c1c(O[C@@H]2O[C@H](CO)[C@@H](O)[C@H](O)[C@H]2O)c(-c2ccc(O)c(O)c2)oc2cc(O)cc(O)c12
REMARK SMILES IDX 4 1 3 2 16 3 25 4 2 5 26 6 1 7 33 8 27 9 31 10 28 11 30 12
REMARK SMILES IDX 17 13 18 14 19 15 20 16 24 17 22 18 21 19 23 21 32 23 29 25
REMARK SMILES IDX 5 27 14 28 6 29 12 30 7 31 10 32 15 33 13 35 8 37 9 38 11 40
REMARK H PARENT 21 20 23 22 32 24 29 26 15 34 13 36 9 39 11 41
REMARK Flexibility Score: inf
ROOT
ATOM      1  O   UNL     1      91.685  88.283  74.861  1.00  0.00    -0.454 OA
ENDROOT
BRANCH   1   2
ATOM      2  C   UNL     1      91.739  89.664  74.595  1.00  0.00     0.214 A 
ATOM      3  C   UNL     1      92.107  90.520  75.651  1.00  0.00     0.180 A 
ATOM      4  O   UNL     1      92.168  91.838  75.457  1.00  0.00    -0.452 OA
ATOM      5  C   UNL     1      91.446  90.239  73.337  1.00  0.00     0.239 A 
ATOM      6  C   UNL     1      91.912  92.415  74.294  1.00  0.00     0.146 A 
ATOM      7  O   UNL     1      91.110  89.511  72.362  1.00  0.00    -0.285 OA
ATOM      8  C   UNL     1      91.542  91.638  73.173  1.00  0.00     0.111 A 
ATOM      9  C   UNL     1      92.033  93.803  74.184  1.00  0.00     0.094 A 
ATOM     10  C   UNL     1      91.274  92.291  71.943  1.00  0.00     0.134 A 
ATOM     11  C   UNL     1      91.788  94.437  72.962  1.00  0.00     0.123 A 
ATOM     12  C   UNL     1      91.409  93.685  71.852  1.00  0.00     0.093 A 
BRANCH   3  13
ATOM     13  C   UNL     1      92.400  90.000  77.006  1.00  0.00     0.025 A 
ATOM     14  C   UNL     1      91.369  89.590  77.866  1.00  0.00     0.016 A 
ATOM     15  C   UNL     1      91.648  89.194  79.172  1.00  0.00     0.051 A 
ATOM     16  C   UNL     1      92.971  89.158  79.630  1.00  0.00     0.157 A 
ATOM     17  C   UNL     1      93.729  89.938  77.457  1.00  0.00     0.062 A 
ATOM     18  C   UNL     1      94.016  89.527  78.766  1.00  0.00     0.158 A 
BRANCH  16  19
ATOM     19  O   UNL     1      93.249  88.772  80.939  1.00  0.00    -0.504 OA
ATOM     20  H   UNL     1      93.505  89.444  81.649  1.00  0.00     0.293 HD
ENDBRANCH  16  19
BRANCH  18  21
ATOM     21  O   UNL     1      95.342  89.500  79.190  1.00  0.00    -0.504 OA
ATOM     22  H   UNL     1      95.945  90.316  79.132  1.00  0.00     0.293 HD
ENDBRANCH  18  21
ENDBRANCH   3  13
BRANCH  10  23
ATOM     23  O   UNL     1      90.883  91.570  70.810  1.00  0.00    -0.507 OA
ATOM     24  H   UNL     1      90.849  91.992  69.889  1.00  0.00     0.293 HD
ENDBRANCH  10  23
BRANCH  11  25
ATOM     25  O   UNL     1      91.905  95.825  72.845  1.00  0.00    -0.508 OA
ATOM     26  H   UNL     1      92.588  96.354  73.398  1.00  0.00     0.293 HD
ENDBRANCH  11  25
ENDBRANCH   1   2
BRANCH   1  27
ATOM     27  C   UNL     1      92.731  87.446  75.367  1.00  0.00     0.339 C 
ATOM     28  C   UNL     1      92.060  86.356  76.247  1.00  0.00     0.214 C 
ATOM     29  O   UNL     1      93.484  86.960  74.249  1.00  0.00    -0.332 OA
ATOM     30  C   UNL     1      91.550  85.196  75.374  1.00  0.00     0.180 C 
ATOM     31  C   UNL     1      93.884  85.610  74.383  1.00  0.00     0.179 C 
ATOM     32  C   UNL     1      92.639  84.677  74.398  1.00  0.00     0.177 C 
BRANCH  28  33
ATOM     33  O   UNL     1      92.980  85.892  77.199  1.00  0.00    -0.384 OA
ATOM     34  H   UNL     1      92.860  84.912  77.270  1.00  0.00     0.211 HD
ENDBRANCH  28  33
BRANCH  30  35
ATOM     35  O   UNL     1      90.415  85.626  74.667  1.00  0.00    -0.387 OA
ATOM     36  H   UNL     1      90.385  86.615  74.738  1.00  0.00     0.211 HD
ENDBRANCH  30  35
BRANCH  31  37
ATOM     37  C   UNL     1      94.827  85.269  73.219  1.00  0.00     0.191 C 
BRANCH  37  38
ATOM     38  O   UNL     1      95.712  84.248  73.590  1.00  0.00    -0.394 OA
ATOM     39  H   UNL     1      95.571  83.512  72.937  1.00  0.00     0.210 HD
ENDBRANCH  37  38
ENDBRANCH  31  37
BRANCH  32  40
ATOM     40  O   UNL     1      93.023  83.375  74.778  1.00  0.00    -0.387 OA
ATOM     41  H   UNL     1      93.385  82.925  73.970  1.00  0.00     0.211 HD
ENDBRANCH  32  40
ENDBRANCH   1  27
TORSDOF 12
ENDMDL
MODEL 5
REMARK VINA RESULT:    -6.343      2.721      7.688
REMARK INTER + INTRA:         -10.635
REMARK INTER:                  -8.755
REMARK INTRA:                  -1.880
REMARK UNBOUND:                -1.326
REMARK SMILES O=c1c(O[C@@H]2O[C@H](CO)[C@@H](O)[C@H](O)[C@H]2O)c(-c2ccc(O)c(O)c2)oc2cc(O)cc(O)c12
REMARK SMILES IDX 4 1 3 2 16 3 25 4 2 5 26 6 1 7 33 8 27 9 31 10 28 11 30 12
REMARK SMILES IDX 17 13 18 14 19 15 20 16 24 17 22 18 21 19 23 21 32 23 29 25
REMARK SMILES IDX 5 27 14 28 6 29 12 30 7 31 10 32 15 33 13 35 8 37 9 38 11 40
REMARK H PARENT 21 20 23 22 32 24 29 26 15 34 13 36 9 39 11 41
REMARK Flexibility Score: inf
ROOT
ATOM      1  O   UNL     1      89.302  90.209  74.176  1.00  0.00    -0.454 OA
ENDROOT
BRANCH   1   2
ATOM      2  C   UNL     1      90.442  89.391  74.053  1.00  0.00     0.214 A 
ATOM      3  C   UNL     1      91.677  90.020  73.804  1.00  0.00     0.180 A 
ATOM      4  O   UNL     1      92.786  89.293  73.672  1.00  0.00    -0.452 OA
ATOM      5  C   UNL     1      90.418  87.981  74.164  1.00  0.00     0.239 A 
ATOM      6  C   UNL     1      92.809  87.974  73.778  1.00  0.00     0.146 A 
ATOM      7  O   UNL     1      89.334  87.373  74.385  1.00  0.00    -0.285 OA
ATOM      8  C   UNL     1      91.621  87.254  74.035  1.00  0.00     0.111 A 
ATOM      9  C   UNL     1      94.029  87.305  73.654  1.00  0.00     0.094 A 
ATOM     10  C   UNL     1      91.684  85.841  74.142  1.00  0.00     0.134 A 
ATOM     11  C   UNL     1      94.087  85.914  73.781  1.00  0.00     0.123 A 
ATOM     12  C   UNL     1      92.921  85.189  74.021  1.00  0.00     0.093 A 
BRANCH   3  13
ATOM     13  C   UNL     1      91.781  91.489  73.645  1.00  0.00     0.025 A 
ATOM     14  C   UNL     1      92.066  92.320  74.740  1.00  0.00     0.016 A 
ATOM     15  C   UNL     1      92.067  93.706  74.599  1.00  0.00     0.051 A 
ATOM     16  C   UNL     1      91.826  94.287  73.348  1.00  0.00     0.157 A 
ATOM     17  C   UNL     1      91.567  92.071  72.385  1.00  0.00     0.062 A 
ATOM     18  C   UNL     1      91.581  93.464  72.235  1.00  0.00     0.158 A 
BRANCH  16  19
ATOM     19  O   UNL     1      91.817  95.673  73.208  1.00  0.00    -0.504 OA
ATOM     20  H   UNL     1      91.938  96.118  72.309  1.00  0.00     0.293 HD
ENDBRANCH  16  19
BRANCH  18  21
ATOM     21  O   UNL     1      91.339  94.011  70.977  1.00  0.00    -0.504 OA
ATOM     22  H   UNL     1      90.796  94.861  70.852  1.00  0.00     0.293 HD
ENDBRANCH  18  21
ENDBRANCH   3  13
BRANCH  10  23
ATOM     23  O   UNL     1      90.534  85.080  74.373  1.00  0.00    -0.507 OA
ATOM     24  H   UNL     1      90.511  84.079  74.220  1.00  0.00     0.293 HD
ENDBRANCH  10  23
BRANCH  11  25
ATOM     25  O   UNL     1      95.303  85.237  73.656  1.00  0.00    -0.508 OA
ATOM     26  H   UNL     1      96.167  85.730  73.406  1.00  0.00     0.293 HD
ENDBRANCH  11  25
ENDBRANCH   1   2
BRANCH   1  27
ATOM     27  C   UNL     1      88.222  90.349  73.247  1.00  0.00     0.339 C 
ATOM     28  C   UNL     1      87.164  91.273  73.912  1.00  0.00     0.214 C 
ATOM     29  O   UNL     1      88.765  90.825  72.010  1.00  0.00    -0.332 OA
ATOM     30  C   UNL     1      87.534  92.752  73.710  1.00  0.00     0.180 C 
ATOM     31  C   UNL     1      87.948  91.784  71.366  1.00  0.00     0.179 C 
ATOM     32  C   UNL     1      87.854  93.077  72.226  1.00  0.00     0.177 C 
BRANCH  28  33
ATOM     33  O   UNL     1      85.898  91.000  73.369  1.00  0.00    -0.384 OA
ATOM     34  H   UNL     1      85.689  91.731  72.735  1.00  0.00     0.211 HD
ENDBRANCH  28  33
BRANCH  30  35
ATOM     35  O   UNL     1      88.632  93.060  74.531  1.00  0.00    -0.387 OA
ATOM     36  H   UNL     1      89.445  92.742  74.062  1.00  0.00     0.211 HD
ENDBRANCH  30  35
BRANCH  31  37
ATOM     37  C   UNL     1      88.546  92.074  69.981  1.00  0.00     0.191 C 
BRANCH  37  38
ATOM     38  O   UNL     1      88.847  93.437  69.855  1.00  0.00    -0.394 OA
ATOM     39  H   UNL     1      89.802  93.532  70.110  1.00  0.00     0.210 HD
ENDBRANCH  37  38
ENDBRANCH  31  37
BRANCH  32  40
ATOM     40  O   UNL     1      86.851  93.922  71.709  1.00  0.00    -0.387 OA
ATOM     41  H   UNL     1      86.462  94.423  72.474  1.00  0.00     0.211 HD
ENDBRANCH  32  40
ENDBRANCH   1  27
TORSDOF 12
ENDMDL
MODEL 6
REMARK VINA RESULT:    -6.305      2.022      2.907
REMARK INTER + INTRA:         -10.580
REMARK INTER:                  -9.158
REMARK INTRA:                  -1.422
REMARK UNBOUND:                -1.326
REMARK SMILES O=c1c(O[C@@H]2O[C@H](CO)[C@@H](O)[C@H](O)[C@H]2O)c(-c2ccc(O)c(O)c2)oc2cc(O)cc(O)c12
REMARK SMILES IDX 4 1 3 2 16 3 25 4 2 5 26 6 1 7 33 8 27 9 31 10 28 11 30 12
REMARK SMILES IDX 17 13 18 14 19 15 20 16 24 17 22 18 21 19 23 21 32 23 29 25
REMARK SMILES IDX 5 27 14 28 6 29 12 30 7 31 10 32 15 33 13 35 8 37 9 38 11 40
REMARK H PARENT 21 20 23 22 32 24 29 26 15 34 13 36 9 39 11 41
REMARK Flexibility Score: inf
ROOT
ATOM      1  O   UNL     1      93.553  88.656  76.474  1.00  0.00    -0.454 OA
ENDROOT
BRANCH   1   2
ATOM      2  C   UNL     1      92.901  89.109  75.311  1.00  0.00     0.214 A 
ATOM      3  C   UNL     1      92.536  88.149  74.347  1.00  0.00     0.180 A 
ATOM      4  O   UNL     1      91.924  88.524  73.225  1.00  0.00    -0.452 OA
ATOM      5  C   UNL     1      92.596  90.466  75.055  1.00  0.00     0.239 A 
ATOM      6  C   UNL     1      91.610  89.780  72.951  1.00  0.00     0.146 A 
ATOM      7  O   UNL     1      92.905  91.362  75.888  1.00  0.00    -0.285 OA
ATOM      8  C   UNL     1      91.929  90.814  73.860  1.00  0.00     0.111 A 
ATOM      9  C   UNL     1      90.939  90.068  71.759  1.00  0.00     0.094 A 
ATOM     10  C   UNL     1      91.578  92.149  73.533  1.00  0.00     0.134 A 
ATOM     11  C   UNL     1      90.578  91.383  71.453  1.00  0.00     0.123 A 
ATOM     12  C   UNL     1      90.899  92.415  72.334  1.00  0.00     0.093 A 
BRANCH   3  13
ATOM     13  C   UNL     1      92.848  86.712  74.526  1.00  0.00     0.025 A 
ATOM     14  C   UNL     1      92.012  85.876  75.283  1.00  0.00     0.016 A 
ATOM     15  C   UNL     1      92.364  84.550  75.525  1.00  0.00     0.051 A 
ATOM     16  C   UNL     1      93.539  84.022  74.977  1.00  0.00     0.157 A 
ATOM     17  C   UNL     1      94.012  86.175  73.954  1.00  0.00     0.062 A 
ATOM     18  C   UNL     1      94.364  84.838  74.183  1.00  0.00     0.158 A 
BRANCH  16  19
ATOM     19  O   UNL     1      93.897  82.699  75.228  1.00  0.00    -0.504 OA
ATOM     20  H   UNL     1      94.565  82.210  74.649  1.00  0.00     0.293 HD
ENDBRANCH  16  19
BRANCH  18  21
ATOM     21  O   UNL     1      95.538  84.342  73.623  1.00  0.00    -0.504 OA
ATOM     22  H   UNL     1      95.546  83.838  72.740  1.00  0.00     0.293 HD
ENDBRANCH  18  21
ENDBRANCH   3  13
BRANCH  10  23
ATOM     23  O   UNL     1      91.890  93.210  74.388  1.00  0.00    -0.507 OA
ATOM     24  H   UNL     1      92.816  93.329  74.783  1.00  0.00     0.293 HD
ENDBRANCH  10  23
BRANCH  11  25
ATOM     25  O   UNL     1      89.910  91.680  70.263  1.00  0.00    -0.508 OA
ATOM     26  H   UNL     1      90.404  91.714  69.364  1.00  0.00     0.293 HD
ENDBRANCH  11  25
ENDBRANCH   1   2
BRANCH   1  27
ATOM     27  C   UNL     1      93.194  88.913  77.835  1.00  0.00     0.339 C 
ATOM     28  C   UNL     1      92.694  87.571  78.438  1.00  0.00     0.214 C 
ATOM     29  O   UNL     1      94.328  89.498  78.486  1.00  0.00    -0.332 OA
ATOM     30  C   UNL     1      93.883  86.715  78.910  1.00  0.00     0.180 C 
ATOM     31  C   UNL     1      94.520  89.036  79.810  1.00  0.00     0.179 C 
ATOM     32  C   UNL     1      94.861  87.518  79.809  1.00  0.00     0.177 C 
BRANCH  28  33
ATOM     33  O   UNL     1      91.819  87.834  79.504  1.00  0.00    -0.384 OA
ATOM     34  H   UNL     1      90.987  88.203  79.113  1.00  0.00     0.211 HD
ENDBRANCH  28  33
BRANCH  30  35
ATOM     35  O   UNL     1      94.550  86.207  77.783  1.00  0.00    -0.387 OA
ATOM     36  H   UNL     1      95.054  86.959  77.379  1.00  0.00     0.211 HD
ENDBRANCH  30  35
BRANCH  31  37
ATOM     37  C   UNL     1      95.644  89.864  80.451  1.00  0.00     0.191 C 
BRANCH  37  38
ATOM     38  O   UNL     1      96.736  89.043  80.764  1.00  0.00    -0.394 OA
ATOM     39  H   UNL     1      96.354  88.163  81.021  1.00  0.00     0.210 HD
ENDBRANCH  37  38
ENDBRANCH  31  37
BRANCH  32  40
ATOM     40  O   UNL     1      94.803  87.015  81.124  1.00  0.00    -0.387 OA
ATOM     41  H   UNL     1      95.630  86.485  81.275  1.00  0.00     0.211 HD
ENDBRANCH  32  40
ENDBRANCH   1  27
TORSDOF 12
ENDMDL
MODEL 7
REMARK VINA RESULT:    -6.301      1.774      5.551
REMARK INTER + INTRA:         -10.573
REMARK INTER:                  -9.713
REMARK INTRA:                  -0.860
REMARK UNBOUND:                -1.326
REMARK SMILES O=c1c(O[C@@H]2O[C@H](CO)[C@@H](O)[C@H](O)[C@H]2O)c(-c2ccc(O)c(O)c2)oc2cc(O)cc(O)c12
REMARK SMILES IDX 4 1 3 2 16 3 25 4 2 5 26 6 1 7 33 8 27 9 31 10 28 11 30 12
REMARK SMILES IDX 17 13 18 14 19 15 20 16 24 17 22 18 21 19 23 21 32 23 29 25
REMARK SMILES IDX 5 27 14 28 6 29 12 30 7 31 10 32 15 33 13 35 8 37 9 38 11 40
REMARK H PARENT 21 20 23 22 32 24 29 26 15 34 13 36 9 39 11 41
REMARK Flexibility Score: inf
ROOT
ATOM      1  O   UNL     1      91.637  88.247  74.704  1.00  0.00    -0.454 OA
ENDROOT
BRANCH   1   2
ATOM      2  C   UNL     1      91.689  89.631  74.451  1.00  0.00     0.214 A 
ATOM      3  C   UNL     1      92.037  90.480  75.520  1.00  0.00     0.180 A 
ATOM      4  O   UNL     1      92.094  91.799  75.339  1.00  0.00    -0.452 OA
ATOM      5  C   UNL     1      91.411  90.216  73.194  1.00  0.00     0.239 A 
ATOM      6  C   UNL     1      91.852  92.386  74.177  1.00  0.00     0.146 A 
ATOM      7  O   UNL     1      91.093  89.496  72.208  1.00  0.00    -0.285 OA
ATOM      8  C   UNL     1      91.502  91.617  73.044  1.00  0.00     0.111 A 
ATOM      9  C   UNL     1      91.968  93.775  74.082  1.00  0.00     0.094 A 
ATOM     10  C   UNL     1      91.249  92.280  71.816  1.00  0.00     0.134 A 
ATOM     11  C   UNL     1      91.738  94.419  72.862  1.00  0.00     0.123 A 
ATOM     12  C   UNL     1      91.378  93.675  71.740  1.00  0.00     0.093 A 
BRANCH   3  13
ATOM     13  C   UNL     1      92.312  89.949  76.875  1.00  0.00     0.025 A 
ATOM     14  C   UNL     1      91.267  89.593  77.742  1.00  0.00     0.016 A 
ATOM     15  C   UNL     1      91.534  89.186  79.047  1.00  0.00     0.051 A 
ATOM     16  C   UNL     1      92.857  89.085  79.497  1.00  0.00     0.157 A 
ATOM     17  C   UNL     1      93.639  89.822  77.317  1.00  0.00     0.062 A 
ATOM     18  C   UNL     1      93.914  89.399  78.625  1.00  0.00     0.158 A 
BRANCH  16  19
ATOM     19  O   UNL     1      93.124  88.689  80.806  1.00  0.00    -0.504 OA
ATOM     20  H   UNL     1      92.627  87.926  81.242  1.00  0.00     0.293 HD
ENDBRANCH  16  19
BRANCH  18  21
ATOM     21  O   UNL     1      95.239  89.308  79.042  1.00  0.00    -0.504 OA
ATOM     22  H   UNL     1      95.493  89.007  79.979  1.00  0.00     0.293 HD
ENDBRANCH  18  21
ENDBRANCH   3  13
BRANCH  10  23
ATOM     23  O   UNL     1      90.879  91.568  70.671  1.00  0.00    -0.507 OA
ATOM     24  H   UNL     1      91.192  90.619  70.503  1.00  0.00     0.293 HD
ENDBRANCH  10  23
BRANCH  11  25
ATOM     25  O   UNL     1      91.849  95.808  72.759  1.00  0.00    -0.508 OA
ATOM     26  H   UNL     1      91.131  96.434  73.141  1.00  0.00     0.293 HD
ENDBRANCH  11  25
ENDBRANCH   1   2
BRANCH   1  27
ATOM     27  C   UNL     1      91.577  87.185  73.746  1.00  0.00     0.339 C 
ATOM     28  C   UNL     1      93.039  86.743  73.460  1.00  0.00     0.214 C 
ATOM     29  O   UNL     1      90.716  86.167  74.273  1.00  0.00    -0.332 OA
ATOM     30  C   UNL     1      93.524  85.753  74.533  1.00  0.00     0.180 C 
ATOM     31  C   UNL     1      91.173  84.853  74.015  1.00  0.00     0.179 C 
ATOM     32  C   UNL     1      92.516  84.593  74.756  1.00  0.00     0.177 C 
BRANCH  28  33
ATOM     33  O   UNL     1      93.110  86.164  72.183  1.00  0.00    -0.384 OA
ATOM     34  H   UNL     1      92.464  86.646  71.608  1.00  0.00     0.211 HD
ENDBRANCH  28  33
BRANCH  30  35
ATOM     35  O   UNL     1      93.744  86.455  75.730  1.00  0.00    -0.387 OA
ATOM     36  H   UNL     1      92.859  86.765  76.052  1.00  0.00     0.211 HD
ENDBRANCH  30  35
BRANCH  31  37
ATOM     37  C   UNL     1      90.084  83.867  74.466  1.00  0.00     0.191 C 
BRANCH  37  38
ATOM     38  O   UNL     1      90.423  82.560  74.090  1.00  0.00    -0.394 OA
ATOM     39  H   UNL     1      91.403  82.568  73.922  1.00  0.00     0.210 HD
ENDBRANCH  37  38
ENDBRANCH  31  37
BRANCH  32  40
ATOM     40  O   UNL     1      93.087  83.388  74.302  1.00  0.00    -0.387 OA
ATOM     41  H   UNL     1      93.025  83.385  73.310  1.00  0.00     0.211 HD
ENDBRANCH  32  40
ENDBRANCH   1  27
TORSDOF 12
ENDMDL
MODEL 8
REMARK VINA RESULT:    -6.277      3.891      7.852
REMARK INTER + INTRA:         -10.539
REMARK INTER:                  -9.055
REMARK INTRA:                  -1.484
REMARK UNBOUND:                -1.326
REMARK SMILES O=c1c(O[C@@H]2O[C@H](CO)[C@@H](O)[C@H](O)[C@H]2O)c(-c2ccc(O)c(O)c2)oc2cc(O)cc(O)c12
REMARK SMILES IDX 4 1 3 2 16 3 25 4 2 5 26 6 1 7 33 8 27 9 31 10 28 11 30 12
REMARK SMILES IDX 17 13 18 14 19 15 20 16 24 17 22 18 21 19 23 21 32 23 29 25
REMARK SMILES IDX 5 27 14 28 6 29 12 30 7 31 10 32 15 33 13 35 8 37 9 38 11 40
REMARK H PARENT 21 20 23 22 32 24 29 26 15 34 13 36 9 39 11 41
REMARK Flexibility Score: inf
ROOT
ATOM      1  O   UNL     1      91.024  84.741  76.144  1.00  0.00    -0.454 OA
ENDROOT
BRANCH   1   2
ATOM      2  C   UNL     1      91.635  86.008  76.211  1.00  0.00     0.214 A 
ATOM      3  C   UNL     1      92.887  86.100  76.848  1.00  0.00     0.180 A 
ATOM      4  O   UNL     1      93.506  87.276  76.946  1.00  0.00    -0.452 OA
ATOM      5  C   UNL     1      91.065  87.188  75.679  1.00  0.00     0.239 A 
ATOM      6  C   UNL     1      93.014  88.402  76.453  1.00  0.00     0.146 A 
ATOM      7  O   UNL     1      89.944  87.155  75.100  1.00  0.00    -0.285 OA
ATOM      8  C   UNL     1      91.766  88.409  75.789  1.00  0.00     0.111 A 
ATOM      9  C   UNL     1      93.755  89.579  76.580  1.00  0.00     0.094 A 
ATOM     10  C   UNL     1      91.269  89.634  75.275  1.00  0.00     0.134 A 
ATOM     11  C   UNL     1      93.268  90.779  76.051  1.00  0.00     0.123 A 
ATOM     12  C   UNL     1      92.032  90.804  75.406  1.00  0.00     0.093 A 
BRANCH   3  13
ATOM     13  C   UNL     1      93.536  84.917  77.457  1.00  0.00     0.025 A 
ATOM     14  C   UNL     1      93.242  84.523  78.773  1.00  0.00     0.016 A 
ATOM     15  C   UNL     1      93.929  83.468  79.369  1.00  0.00     0.051 A 
ATOM     16  C   UNL     1      94.894  82.756  78.645  1.00  0.00     0.157 A 
ATOM     17  C   UNL     1      94.484  84.186  76.723  1.00  0.00     0.062 A 
ATOM     18  C   UNL     1      95.168  83.114  77.314  1.00  0.00     0.158 A 
BRANCH  16  19
ATOM     19  O   UNL     1      95.588  81.708  79.245  1.00  0.00    -0.504 OA
ATOM     20  H   UNL     1      95.980  81.791  80.172  1.00  0.00     0.293 HD
ENDBRANCH  16  19
BRANCH  18  21
ATOM     21  O   UNL     1      96.120  82.426  76.567  1.00  0.00    -0.504 OA
ATOM     22  H   UNL     1      96.701  81.696  76.971  1.00  0.00     0.293 HD
ENDBRANCH  18  21
ENDBRANCH   3  13
BRANCH  10  23
ATOM     23  O   UNL     1      90.031  89.699  74.629  1.00  0.00    -0.507 OA
ATOM     24  H   UNL     1      89.454  90.532  74.653  1.00  0.00     0.293 HD
ENDBRANCH  10  23
BRANCH  11  25
ATOM     25  O   UNL     1      94.002  91.961  76.176  1.00  0.00    -0.508 OA
ATOM     26  H   UNL     1      94.377  92.449  75.354  1.00  0.00     0.293 HD
ENDBRANCH  11  25
ENDBRANCH   1   2
BRANCH   1  27
ATOM     27  C   UNL     1      90.656  84.007  74.971  1.00  0.00     0.339 C 
ATOM     28  C   UNL     1      91.674  82.843  74.822  1.00  0.00     0.214 C 
ATOM     29  O   UNL     1      89.285  83.614  75.111  1.00  0.00    -0.332 OA
ATOM     30  C   UNL     1      91.264  81.650  75.701  1.00  0.00     0.180 C 
ATOM     31  C   UNL     1      89.021  82.309  74.634  1.00  0.00     0.179 C 
ATOM     32  C   UNL     1      89.777  81.256  75.494  1.00  0.00     0.177 C 
BRANCH  28  33
ATOM     33  O   UNL     1      91.752  82.462  73.473  1.00  0.00    -0.384 OA
ATOM     34  H   UNL     1      91.755  83.293  72.934  1.00  0.00     0.211 HD
ENDBRANCH  28  33
BRANCH  30  35
ATOM     35  O   UNL     1      91.508  81.974  77.046  1.00  0.00    -0.387 OA
ATOM     36  H   UNL     1      91.512  82.963  77.111  1.00  0.00     0.211 HD
ENDBRANCH  30  35
BRANCH  31  37
ATOM     37  C   UNL     1      87.503  82.080  74.673  1.00  0.00     0.191 C 
BRANCH  37  38
ATOM     38  O   UNL     1      87.150  81.003  73.847  1.00  0.00    -0.394 OA
ATOM     39  H   UNL     1      87.348  81.294  72.918  1.00  0.00     0.210 HD
ENDBRANCH  37  38
ENDBRANCH  31  37
BRANCH  32  40
ATOM     40  O   UNL     1      89.713  79.994  74.870  1.00  0.00    -0.387 OA
ATOM     41  H   UNL     1      89.143  80.092  74.061  1.00  0.00     0.211 HD
ENDBRANCH  32  40
ENDBRANCH   1  27
TORSDOF 12
ENDMDL
MODEL 9
REMARK VINA RESULT:    -6.265      3.633      6.998
REMARK INTER + INTRA:         -10.521
REMARK INTER:                  -9.161
REMARK INTRA:                  -1.360
REMARK UNBOUND:                -1.326
REMARK SMILES O=c1c(O[C@@H]2O[C@H](CO)[C@@H](O)[C@H](O)[C@H]2O)c(-c2ccc(O)c(O)c2)oc2cc(O)cc(O)c12
REMARK SMILES IDX 4 1 3 2 16 3 25 4 2 5 26 6 1 7 33 8 27 9 31 10 28 11 30 12
REMARK SMILES IDX 17 13 18 14 19 15 20 16 24 17 22 18 21 19 23 21 32 23 29 25
REMARK SMILES IDX 5 27 14 28 6 29 12 30 7 31 10 32 15 33 13 35 8 37 9 38 11 40
REMARK H PARENT 21 20 23 22 32 24 29 26 15 34 13 36 9 39 11 41
REMARK Flexibility Score: inf
ROOT
ATOM      1  O   UNL     1      90.922  86.486  74.418  1.00  0.00    -0.454 OA
ENDROOT
BRANCH   1   2
ATOM      2  C   UNL     1      89.987  85.433  74.380  1.00  0.00     0.214 A 
ATOM      3  C   UNL     1      90.448  84.137  74.682  1.00  0.00     0.180 A 
ATOM      4  O   UNL     1      89.607  83.103  74.654  1.00  0.00    -0.452 OA
ATOM      5  C   UNL     1      88.621  85.602  74.058  1.00  0.00     0.239 A 
ATOM      6  C   UNL     1      88.320  83.218  74.368  1.00  0.00     0.146 A 
ATOM      7  O   UNL     1      88.164  86.745  73.779  1.00  0.00    -0.285 OA
ATOM      8  C   UNL     1      87.764  84.480  74.059  1.00  0.00     0.111 A 
ATOM      9  C   UNL     1      87.514  82.077  74.396  1.00  0.00     0.094 A 
ATOM     10  C   UNL     1      86.380  84.565  73.757  1.00  0.00     0.134 A 
ATOM     11  C   UNL     1      86.147  82.172  74.117  1.00  0.00     0.123 A 
ATOM     12  C   UNL     1      85.587  83.408  73.797  1.00  0.00     0.093 A 
BRANCH   3  13
ATOM     13  C   UNL     1      91.870  83.872  74.999  1.00  0.00     0.025 A 
ATOM     14  C   UNL     1      92.262  83.455  76.281  1.00  0.00     0.016 A 
ATOM     15  C   UNL     1      93.610  83.302  76.597  1.00  0.00     0.051 A 
ATOM     16  C   UNL     1      94.591  83.521  75.622  1.00  0.00     0.157 A 
ATOM     17  C   UNL     1      92.852  84.065  74.015  1.00  0.00     0.062 A 
ATOM     18  C   UNL     1      94.209  83.899  74.323  1.00  0.00     0.158 A 
BRANCH  16  19
ATOM     19  O   UNL     1      95.940  83.378  75.940  1.00  0.00    -0.504 OA
ATOM     20  H   UNL     1      96.632  83.160  75.237  1.00  0.00     0.293 HD
ENDBRANCH  16  19
BRANCH  18  21
ATOM     21  O   UNL     1      95.160  84.122  73.331  1.00  0.00    -0.504 OA
ATOM     22  H   UNL     1      96.158  84.053  73.512  1.00  0.00     0.293 HD
ENDBRANCH  18  21
ENDBRANCH   3  13
BRANCH  10  23
ATOM     23  O   UNL     1      85.786  85.786  73.424  1.00  0.00    -0.507 OA
ATOM     24  H   UNL     1      84.985  85.844  72.806  1.00  0.00     0.293 HD
ENDBRANCH  10  23
BRANCH  11  25
ATOM     25  O   UNL     1      85.335  81.036  74.140  1.00  0.00    -0.508 OA
ATOM     26  H   UNL     1      84.342  81.092  74.391  1.00  0.00     0.293 HD
ENDBRANCH  11  25
ENDBRANCH   1   2
BRANCH   1  27
ATOM     27  C   UNL     1      91.115  87.449  75.459  1.00  0.00     0.339 C 
ATOM     28  C   UNL     1      92.561  87.258  75.997  1.00  0.00     0.214 C 
ATOM     29  O   UNL     1      90.822  88.743  74.920  1.00  0.00    -0.332 OA
ATOM     30  C   UNL     1      93.570  88.009  75.111  1.00  0.00     0.180 C 
ATOM     31  C   UNL     1      91.702  89.755  75.373  1.00  0.00     0.179 C 
ATOM     32  C   UNL     1      93.146  89.483  74.863  1.00  0.00     0.177 C 
BRANCH  28  33
ATOM     33  O   UNL     1      92.630  87.714  77.322  1.00  0.00    -0.384 OA
ATOM     34  H   UNL     1      92.022  87.144  77.859  1.00  0.00     0.211 HD
ENDBRANCH  28  33
BRANCH  30  35
ATOM     35  O   UNL     1      93.703  87.321  73.893  1.00  0.00    -0.387 OA
ATOM     36  H   UNL     1      93.604  86.355  74.092  1.00  0.00     0.211 HD
ENDBRANCH  30  35
BRANCH  31  37
ATOM     37  C   UNL     1      91.177  91.109  74.872  1.00  0.00     0.191 C 
BRANCH  37  38
ATOM     38  O   UNL     1      92.093  91.691  73.986  1.00  0.00    -0.394 OA
ATOM     39  H   UNL     1      91.578  91.911  73.165  1.00  0.00     0.210 HD
ENDBRANCH  37  38
ENDBRANCH  31  37
BRANCH  32  40
ATOM     40  O   UNL     1      94.053  90.342  75.515  1.00  0.00    -0.387 OA
ATOM     41  H   UNL     1      94.945  90.203  75.100  1.00  0.00     0.211 HD
ENDBRANCH  32  40
ENDBRANCH   1  27
TORSDOF 12
ENDMDL
