MODEL 1
REMARK VINA RESULT:     9.158      0.000      0.000
REMARK INTER + INTRA:          21.440
REMARK INTER:                  23.077
REMARK INTRA:                  -1.638
REMARK UNBOUND:                -1.638
REMARK SMILES CCCCCCCCCCCCCCCCCCCCCCCCCCCC(=O)[O-]
REMARK SMILES IDX 15 1 16 2 17 3 18 4 19 5 20 6 21 7 22 8 23 9 24 10 25 11
REMARK SMILES IDX 26 12 27 13 28 14 29 15 30 16 14 17 13 18 12 19 11 20 10 21
REMARK SMILES IDX 9 22 8 23 7 24 6 25 5 26 4 27 3 28 2 29 1 30
REMARK H PARENT
REMARK Flexibility Score: inf
ROOT
ATOM      1  C   UNL     1      14.926  15.484  -7.718  1.00  0.00     0.000 C 
ENDROOT
BRANCH   1   2
ATOM      2  C   UNL     1      15.454  15.707  -9.146  1.00  0.00     0.000 C 
BRANCH   2   3
ATOM      3  C   UNL     1      14.509  15.153 -10.230  1.00  0.00     0.000 C 
BRANCH   3   4
ATOM      4  C   UNL     1      15.179  14.297 -11.322  1.00  0.00     0.000 C 
BRANCH   4   5
ATOM      5  C   UNL     1      15.649  15.123 -12.531  1.00  0.00     0.000 C 
BRANCH   5   6
ATOM      6  C   UNL     1      16.620  14.350 -13.439  1.00  0.00     0.000 C 
BRANCH   6   7
ATOM      7  C   UNL     1      18.091  14.801 -13.306  1.00  0.00     0.000 C 
BRANCH   7   8
ATOM      8  C   UNL     1      18.242  16.328 -13.382  1.00  0.00     0.000 C 
BRANCH   8   9
ATOM      9  C   UNL     1      18.916  16.877 -12.115  1.00  0.00     0.000 C 
BRANCH   9  10
ATOM     10  C   UNL     1      17.952  17.708 -11.252  1.00  0.00     0.000 C 
BRANCH  10  11
ATOM     11  C   UNL     1      18.443  19.153 -11.057  1.00  0.00     0.000 C 
BRANCH  11  12
ATOM     12  C   UNL     1      18.141  20.052 -12.266  1.00  0.00     0.006 C 
BRANCH  12  13
ATOM     13  C   UNL     1      19.103  21.246 -12.378  1.00  0.00     0.053 C 
BRANCH  13  14
ATOM     14  C   UNL     1      20.530  20.799 -12.309  1.00  0.00     0.041 C 
ATOM     15  O   UNL     1      20.954  19.897 -13.082  1.00  0.00    -0.550 OA
ATOM     16  O   UNL     1      21.409  21.407 -11.417  1.00  0.00    -0.550 OA
ENDBRANCH  13  14
ENDBRANCH  12  13
ENDBRANCH  11  12
ENDBRANCH  10  11
ENDBRANCH   9  10
ENDBRANCH   8   9
ENDBRANCH   7   8
ENDBRANCH   6   7
ENDBRANCH   5   6
ENDBRANCH   4   5
ENDBRANCH   3   4
ENDBRANCH   2   3
ENDBRANCH   1   2
BRANCH   1  17
ATOM     17  C   UNL     1      13.599  16.214  -7.458  1.00  0.00     0.000 C 
BRANCH  17  18
ATOM     18  C   UNL     1      13.734  17.347  -6.427  1.00  0.00     0.000 C 
BRANCH  18  19
ATOM     19  C   UNL     1      12.652  17.235  -5.343  1.00  0.00     0.000 C 
BRANCH  19  20
ATOM     20  C   UNL     1      11.709  16.039  -5.560  1.00  0.00     0.000 C 
BRANCH  20  21
ATOM     21  C   UNL     1      11.223  15.385  -4.249  1.00  0.00     0.000 C 
BRANCH  21  22
ATOM     22  C   UNL     1      11.135  13.852  -4.363  1.00  0.00    -0.000 C 
BRANCH  22  23
ATOM     23  C   UNL     1      10.968  13.161  -2.996  1.00  0.00    -0.000 C 
BRANCH  23  24
ATOM     24  C   UNL     1      11.314  14.056  -1.791  1.00  0.00    -0.000 C 
BRANCH  24  25
ATOM     25  C   UNL     1      11.719  13.241  -0.550  1.00  0.00    -0.000 C 
BRANCH  25  26
ATOM     26  C   UNL     1      11.177  13.844   0.756  1.00  0.00    -0.000 C 
BRANCH  26  27
ATOM     27  C   UNL     1       9.696  14.250   0.655  1.00  0.00    -0.000 C 
BRANCH  27  28
ATOM     28  C   UNL     1       9.217  15.066   1.869  1.00  0.00    -0.000 C 
BRANCH  28  29
ATOM     29  C   UNL     1       9.581  16.562   1.830  1.00  0.00    -0.003 C 
ATOM     30  C   UNL     1      11.057  16.826   2.122  1.00  0.00     0.004 C 
ENDBRANCH  28  29
ENDBRANCH  27  28
ENDBRANCH  26  27
ENDBRANCH  25  26
ENDBRANCH  24  25
ENDBRANCH  23  24
ENDBRANCH  22  23
ENDBRANCH  21  22
ENDBRANCH  20  21
ENDBRANCH  19  20
ENDBRANCH  18  19
ENDBRANCH  17  18
ENDBRANCH   1  17
TORSDOF 26
ENDMDL
MODEL 2
REMARK VINA RESULT:     9.551      4.789     13.022
REMARK INTER + INTRA:          22.431
REMARK INTER:                  24.369
REMARK INTRA:                  -1.938
REMARK UNBOUND:                -1.638
REMARK SMILES CCCCCCCCCCCCCCCCCCCCCCCCCCCC(=O)[O-]
REMARK SMILES IDX 15 1 16 2 17 3 18 4 19 5 20 6 21 7 22 8 23 9 24 10 25 11
REMARK SMILES IDX 26 12 27 13 28 14 29 15 30 16 14 17 13 18 12 19 11 20 10 21
REMARK SMILES IDX 9 22 8 23 7 24 6 25 5 26 4 27 3 28 2 29 1 30
REMARK H PARENT
REMARK Flexibility Score: inf
ROOT
ATOM      1  C   UNL     1      15.588  15.576  -8.011  1.00  0.00     0.000 C 
ENDROOT
BRANCH   1   2
ATOM      2  C   UNL     1      14.443  15.730  -6.995  1.00  0.00     0.000 C 
BRANCH   2   3
ATOM      3  C   UNL     1      14.014  17.196  -6.789  1.00  0.00     0.000 C 
BRANCH   3   4
ATOM      4  C   UNL     1      12.645  17.400  -6.113  1.00  0.00     0.000 C 
BRANCH   4   5
ATOM      5  C   UNL     1      12.455  16.526  -4.862  1.00  0.00     0.000 C 
BRANCH   5   6
ATOM      6  C   UNL     1      11.452  15.381  -5.082  1.00  0.00     0.000 C 
BRANCH   6   7
ATOM      7  C   UNL     1      10.587  15.064  -3.844  1.00  0.00     0.000 C 
BRANCH   7   8
ATOM      8  C   UNL     1      10.977  13.732  -3.185  1.00  0.00     0.000 C 
BRANCH   8   9
ATOM      9  C   UNL     1      11.686  13.970  -1.843  1.00  0.00     0.000 C 
BRANCH   9  10
ATOM     10  C   UNL     1      10.840  13.512  -0.643  1.00  0.00     0.000 C 
BRANCH  10  11
ATOM     11  C   UNL     1      11.655  13.462   0.660  1.00  0.00     0.000 C 
BRANCH  11  12
ATOM     12  C   UNL     1      10.886  14.028   1.865  1.00  0.00     0.006 C 
BRANCH  12  13
ATOM     13  C   UNL     1       9.607  14.778   1.458  1.00  0.00     0.053 C 
BRANCH  13  14
ATOM     14  C   UNL     1       9.701  16.233   1.801  1.00  0.00     0.041 C 
ATOM     15  O   UNL     1      10.826  16.777   1.971  1.00  0.00    -0.550 OA
ATOM     16  O   UNL     1       8.545  17.003   1.893  1.00  0.00    -0.550 OA
ENDBRANCH  13  14
ENDBRANCH  12  13
ENDBRANCH  11  12
ENDBRANCH  10  11
ENDBRANCH   9  10
ENDBRANCH   8   9
ENDBRANCH   7   8
ENDBRANCH   6   7
ENDBRANCH   5   6
ENDBRANCH   4   5
ENDBRANCH   3   4
ENDBRANCH   2   3
ENDBRANCH   1   2
BRANCH   1  17
ATOM     17  C   UNL     1      15.181  16.007  -9.429  1.00  0.00     0.000 C 
BRANCH  17  18
ATOM     18  C   UNL     1      14.241  14.999 -10.111  1.00  0.00     0.000 C 
BRANCH  18  19
ATOM     19  C   UNL     1      14.923  14.345 -11.322  1.00  0.00     0.000 C 
BRANCH  19  20
ATOM     20  C   UNL     1      15.742  15.342 -12.160  1.00  0.00     0.000 C 
BRANCH  20  21
ATOM     21  C   UNL     1      16.394  14.715 -13.410  1.00  0.00     0.000 C 
BRANCH  21  22
ATOM     22  C   UNL     1      17.908  14.987 -13.473  1.00  0.00    -0.000 C 
BRANCH  22  23
ATOM     23  C   UNL     1      18.270  16.439 -13.105  1.00  0.00    -0.000 C 
BRANCH  23  24
ATOM     24  C   UNL     1      19.501  16.568 -12.188  1.00  0.00    -0.000 C 
BRANCH  24  25
ATOM     25  C   UNL     1      19.446  17.827 -11.305  1.00  0.00    -0.000 C 
BRANCH  25  26
ATOM     26  C   UNL     1      18.008  18.239 -10.953  1.00  0.00    -0.000 C 
BRANCH  26  27
ATOM     27  C   UNL     1      17.674  19.675 -11.394  1.00  0.00    -0.000 C 
BRANCH  27  28
ATOM     28  C   UNL     1      18.539  20.153 -12.575  1.00  0.00    -0.000 C 
BRANCH  28  29
ATOM     29  C   UNL     1      19.594  21.216 -12.218  1.00  0.00    -0.003 C 
ATOM     30  C   UNL     1      21.026  20.751 -12.481  1.00  0.00     0.004 C 
ENDBRANCH  28  29
ENDBRANCH  27  28
ENDBRANCH  26  27
ENDBRANCH  25  26
ENDBRANCH  24  25
ENDBRANCH  23  24
ENDBRANCH  22  23
ENDBRANCH  21  22
ENDBRANCH  20  21
ENDBRANCH  19  20
ENDBRANCH  18  19
ENDBRANCH  17  18
ENDBRANCH   1  17
TORSDOF 26
ENDMDL
MODEL 3
REMARK VINA RESULT:    10.108      4.789     13.150
REMARK INTER + INTRA:          23.835
REMARK INTER:                  25.061
REMARK INTRA:                  -1.226
REMARK UNBOUND:                -1.638
REMARK SMILES CCCCCCCCCCCCCCCCCCCCCCCCCCCC(=O)[O-]
REMARK SMILES IDX 15 1 16 2 17 3 18 4 19 5 20 6 21 7 22 8 23 9 24 10 25 11
REMARK SMILES IDX 26 12 27 13 28 14 29 15 30 16 14 17 13 18 12 19 11 20 10 21
REMARK SMILES IDX 9 22 8 23 7 24 6 25 5 26 4 27 3 28 2 29 1 30
REMARK H PARENT
REMARK Flexibility Score: inf
ROOT
ATOM      1  C   UNL     1      14.505  15.671  -7.452  1.00  0.00     0.000 C 
ENDROOT
BRANCH   1   2
ATOM      2  C   UNL     1      14.412  16.861  -6.482  1.00  0.00     0.000 C 
BRANCH   2   3
ATOM      3  C   UNL     1      12.962  17.320  -6.230  1.00  0.00     0.000 C 
BRANCH   3   4
ATOM      4  C   UNL     1      12.282  16.723  -4.983  1.00  0.00     0.000 C 
BRANCH   4   5
ATOM      5  C   UNL     1      11.663  15.339  -5.238  1.00  0.00     0.000 C 
BRANCH   5   6
ATOM      6  C   UNL     1      10.496  15.024  -4.287  1.00  0.00     0.000 C 
BRANCH   6   7
ATOM      7  C   UNL     1      10.782  13.860  -3.314  1.00  0.00     0.000 C 
BRANCH   7   8
ATOM      8  C   UNL     1      11.430  14.338  -2.006  1.00  0.00     0.000 C 
BRANCH   8   9
ATOM      9  C   UNL     1      11.110  13.376  -0.851  1.00  0.00     0.000 C 
BRANCH   9  10
ATOM     10  C   UNL     1      11.912  13.700   0.421  1.00  0.00     0.000 C 
BRANCH  10  11
ATOM     11  C   UNL     1      11.008  13.863   1.654  1.00  0.00     0.000 C 
BRANCH  11  12
ATOM     12  C   UNL     1       9.516  13.937   1.292  1.00  0.00     0.006 C 
BRANCH  12  13
ATOM     13  C   UNL     1       8.751  14.980   2.123  1.00  0.00     0.053 C 
BRANCH  13  14
ATOM     14  C   UNL     1       9.206  16.370   1.799  1.00  0.00     0.041 C 
ATOM     15  O   UNL     1      10.431  16.614   1.621  1.00  0.00    -0.550 OA
ATOM     16  O   UNL     1       8.274  17.392   1.651  1.00  0.00    -0.550 OA
ENDBRANCH  13  14
ENDBRANCH  12  13
ENDBRANCH  11  12
ENDBRANCH  10  11
ENDBRANCH   9  10
ENDBRANCH   8   9
ENDBRANCH   7   8
ENDBRANCH   6   7
ENDBRANCH   5   6
ENDBRANCH   4   5
ENDBRANCH   3   4
ENDBRANCH   2   3
ENDBRANCH   1   2
BRANCH   1  17
ATOM     17  C   UNL     1      15.462  15.939  -8.625  1.00  0.00     0.000 C 
BRANCH  17  18
ATOM     18  C   UNL     1      14.861  15.548  -9.985  1.00  0.00     0.000 C 
BRANCH  18  19
ATOM     19  C   UNL     1      14.855  14.022 -10.165  1.00  0.00     0.000 C 
BRANCH  19  20
ATOM     20  C   UNL     1      15.072  13.590 -11.625  1.00  0.00     0.000 C 
BRANCH  20  21
ATOM     21  C   UNL     1      15.114  14.768 -12.622  1.00  0.00     0.000 C 
BRANCH  21  22
ATOM     22  C   UNL     1      16.242  14.612 -13.658  1.00  0.00    -0.000 C 
BRANCH  22  23
ATOM     23  C   UNL     1      17.557  14.103 -13.037  1.00  0.00    -0.000 C 
BRANCH  23  24
ATOM     24  C   UNL     1      18.684  15.153 -13.001  1.00  0.00    -0.000 C 
BRANCH  24  25
ATOM     25  C   UNL     1      18.144  16.593 -12.963  1.00  0.00    -0.000 C 
BRANCH  25  26
ATOM     26  C   UNL     1      18.907  17.484 -11.969  1.00  0.00    -0.000 C 
BRANCH  26  27
ATOM     27  C   UNL     1      18.015  18.565 -11.333  1.00  0.00    -0.000 C 
BRANCH  27  28
ATOM     28  C   UNL     1      18.321  19.979 -11.861  1.00  0.00    -0.000 C 
BRANCH  28  29
ATOM     29  C   UNL     1      19.641  20.106 -12.644  1.00  0.00    -0.003 C 
ATOM     30  C   UNL     1      20.498  21.285 -12.186  1.00  0.00     0.004 C 
ENDBRANCH  28  29
ENDBRANCH  27  28
ENDBRANCH  26  27
ENDBRANCH  25  26
ENDBRANCH  24  25
ENDBRANCH  23  24
ENDBRANCH  22  23
ENDBRANCH  21  22
ENDBRANCH  20  21
ENDBRANCH  19  20
ENDBRANCH  18  19
ENDBRANCH  17  18
ENDBRANCH   1  17
TORSDOF 26
ENDMDL
MODEL 4
REMARK VINA RESULT:    10.656      1.104      1.915
REMARK INTER + INTRA:          25.216
REMARK INTER:                  26.794
REMARK INTRA:                  -1.578
REMARK UNBOUND:                -1.638
REMARK SMILES CCCCCCCCCCCCCCCCCCCCCCCCCCCC(=O)[O-]
REMARK SMILES IDX 15 1 16 2 17 3 18 4 19 5 20 6 21 7 22 8 23 9 24 10 25 11
REMARK SMILES IDX 26 12 27 13 28 14 29 15 30 16 14 17 13 18 12 19 11 20 10 21
REMARK SMILES IDX 9 22 8 23 7 24 6 25 5 26 4 27 3 28 2 29 1 30
REMARK H PARENT
REMARK Flexibility Score: inf
ROOT
ATOM      1  C   UNL     1      14.517  16.915  -7.231  1.00  0.00     0.000 C 
ENDROOT
BRANCH   1   2
ATOM      2  C   UNL     1      14.911  15.583  -7.894  1.00  0.00     0.000 C 
BRANCH   2   3
ATOM      3  C   UNL     1      14.257  15.382  -9.275  1.00  0.00     0.000 C 
BRANCH   3   4
ATOM      4  C   UNL     1      15.227  15.079 -10.433  1.00  0.00     0.000 C 
BRANCH   4   5
ATOM      5  C   UNL     1      14.882  13.783 -11.185  1.00  0.00     0.000 C 
BRANCH   5   6
ATOM      6  C   UNL     1      15.134  13.887 -12.698  1.00  0.00     0.000 C 
BRANCH   6   7
ATOM      7  C   UNL     1      16.120  15.009 -13.091  1.00  0.00     0.000 C 
BRANCH   7   8
ATOM      8  C   UNL     1      17.478  14.457 -13.551  1.00  0.00     0.000 C 
BRANCH   8   9
ATOM      9  C   UNL     1      18.606  15.459 -13.258  1.00  0.00     0.000 C 
BRANCH   9  10
ATOM     10  C   UNL     1      18.070  16.844 -12.858  1.00  0.00     0.000 C 
BRANCH  10  11
ATOM     11  C   UNL     1      18.655  17.330 -11.520  1.00  0.00     0.000 C 
BRANCH  11  12
ATOM     12  C   UNL     1      18.572  18.856 -11.356  1.00  0.00     0.006 C 
BRANCH  12  13
ATOM     13  C   UNL     1      18.944  19.616 -12.639  1.00  0.00     0.053 C 
BRANCH  13  14
ATOM     14  C   UNL     1      19.460  20.987 -12.326  1.00  0.00     0.041 C 
ATOM     15  O   UNL     1      20.521  21.132 -11.661  1.00  0.00    -0.550 OA
ATOM     16  O   UNL     1      18.792  22.110 -12.806  1.00  0.00    -0.550 OA
ENDBRANCH  13  14
ENDBRANCH  12  13
ENDBRANCH  11  12
ENDBRANCH  10  11
ENDBRANCH   9  10
ENDBRANCH   8   9
ENDBRANCH   7   8
ENDBRANCH   6   7
ENDBRANCH   5   6
ENDBRANCH   4   5
ENDBRANCH   3   4
ENDBRANCH   2   3
ENDBRANCH   1   2
BRANCH   1  17
ATOM     17  C   UNL     1      13.790  16.715  -5.892  1.00  0.00     0.000 C 
BRANCH  17  18
ATOM     18  C   UNL     1      12.357  17.272  -5.904  1.00  0.00     0.000 C 
BRANCH  18  19
ATOM     19  C   UNL     1      11.358  16.230  -5.380  1.00  0.00     0.000 C 
BRANCH  19  20
ATOM     20  C   UNL     1      11.850  15.516  -4.109  1.00  0.00     0.000 C 
BRANCH  20  21
ATOM     21  C   UNL     1      10.760  14.679  -3.406  1.00  0.00     0.000 C 
BRANCH  21  22
ATOM     22  C   UNL     1      11.263  13.275  -3.023  1.00  0.00    -0.000 C 
BRANCH  22  23
ATOM     23  C   UNL     1      11.630  13.159  -1.530  1.00  0.00    -0.000 C 
BRANCH  23  24
ATOM     24  C   UNL     1      10.642  13.867  -0.583  1.00  0.00    -0.000 C 
BRANCH  24  25
ATOM     25  C   UNL     1      11.193  15.202  -0.051  1.00  0.00    -0.000 C 
BRANCH  25  26
ATOM     26  C   UNL     1      11.217  15.262   1.484  1.00  0.00    -0.000 C 
BRANCH  26  27
ATOM     27  C   UNL     1      10.418  16.451   2.047  1.00  0.00    -0.000 C 
BRANCH  27  28
ATOM     28  C   UNL     1       8.895  16.248   1.949  1.00  0.00    -0.000 C 
BRANCH  28  29
ATOM     29  C   UNL     1       8.423  14.792   2.125  1.00  0.00    -0.003 C 
ATOM     30  C   UNL     1       7.585  14.289   0.951  1.00  0.00     0.004 C 
ENDBRANCH  28  29
ENDBRANCH  27  28
ENDBRANCH  26  27
ENDBRANCH  25  26
ENDBRANCH  24  25
ENDBRANCH  23  24
ENDBRANCH  22  23
ENDBRANCH  21  22
ENDBRANCH  20  21
ENDBRANCH  19  20
ENDBRANCH  18  19
ENDBRANCH  17  18
ENDBRANCH   1  17
TORSDOF 26
ENDMDL
