MODEL 1
REMARK VINA RESULT:    -4.430      0.000      0.000
REMARK INTER + INTRA:          -4.883
REMARK INTER:                  -4.819
REMARK INTRA:                  -0.064
REMARK UNBOUND:                -0.064
REMARK SMILES COc1cc2ccc(=O)oc2cc1O
REMARK SMILES IDX 3 1 13 2 12 3 11 4 5 5 4 6 6 7 7 8 8 9 9 10 10 11 2 12 1 13
REMARK SMILES IDX 14 14
REMARK H PARENT 14 15
REMARK Flexibility Score: inf
ROOT
ATOM      1  C   UNL     1      29.985  48.576  40.608  1.00  0.00     0.161 A 
ATOM      2  C   UNL     1      30.851  49.357  41.390  1.00  0.00     0.161 A 
ATOM      3  C   UNL     1      30.702  50.750  41.434  1.00  0.00     0.098 A 
ATOM      4  C   UNL     1      29.691  51.375  40.699  1.00  0.00     0.142 A 
ATOM      5  C   UNL     1      28.817  50.598  39.911  1.00  0.00     0.022 A 
ATOM      6  C   UNL     1      28.964  49.204  39.866  1.00  0.00     0.062 A 
ATOM      7  C   UNL     1      27.815  51.251  39.187  1.00  0.00     0.019 A 
ATOM      8  C   UNL     1      27.709  52.640  39.264  1.00  0.00     0.094 A 
ATOM      9  C   UNL     1      28.612  53.345  40.066  1.00  0.00     0.336 A 
ATOM     10  O   UNL     1      28.533  54.598  40.150  1.00  0.00    -0.246 OA
ATOM     11  O   UNL     1      29.556  52.698  40.745  1.00  0.00    -0.423 OA
ENDROOT
BRANCH   1  12
ATOM     12  O   UNL     1      30.170  47.185  40.594  1.00  0.00    -0.493 OA
ATOM     13  C   UNL     1      29.405  46.261  41.363  1.00  0.00     0.278 C 
ENDBRANCH   1  12
BRANCH   2  14
ATOM     14  O   UNL     1      31.860  48.737  42.125  1.00  0.00    -0.504 OA
ATOM     15  H   UNL     1      31.818  47.752  42.359  1.00  0.00     0.293 HD
ENDBRANCH   2  14
TORSDOF 2
ENDMDL
MODEL 2
REMARK VINA RESULT:    -4.325      1.303      5.443
REMARK INTER + INTRA:          -4.768
REMARK INTER:                  -4.722
REMARK INTRA:                  -0.046
REMARK UNBOUND:                -0.064
REMARK SMILES COc1cc2ccc(=O)oc2cc1O
REMARK SMILES IDX 3 1 13 2 12 3 11 4 5 5 4 6 6 7 7 8 8 9 9 10 10 11 2 12 1 13
REMARK SMILES IDX 14 14
REMARK H PARENT 14 15
REMARK Flexibility Score: inf
ROOT
ATOM      1  C   UNL     1      28.686  53.262  40.250  1.00  0.00     0.161 A 
ATOM      2  C   UNL     1      27.894  52.622  39.283  1.00  0.00     0.161 A 
ATOM      3  C   UNL     1      27.981  51.235  39.103  1.00  0.00     0.098 A 
ATOM      4  C   UNL     1      28.856  50.476  39.885  1.00  0.00     0.142 A 
ATOM      5  C   UNL     1      29.655  51.111  40.858  1.00  0.00     0.022 A 
ATOM      6  C   UNL     1      29.570  52.499  41.039  1.00  0.00     0.062 A 
ATOM      7  C   UNL     1      30.521  50.325  41.625  1.00  0.00     0.019 A 
ATOM      8  C   UNL     1      30.570  48.948  41.407  1.00  0.00     0.094 A 
ATOM      9  C   UNL     1      29.748  48.388  40.424  1.00  0.00     0.336 A 
ATOM     10  O   UNL     1      29.777  47.148  40.213  1.00  0.00    -0.246 OA
ATOM     11  O   UNL     1      28.932  49.159  39.709  1.00  0.00    -0.423 OA
ENDROOT
BRANCH   1  12
ATOM     12  O   UNL     1      28.567  54.654  40.395  1.00  0.00    -0.493 OA
ATOM     13  C   UNL     1      28.931  55.376  41.567  1.00  0.00     0.278 C 
ENDBRANCH   1  12
BRANCH   2  14
ATOM     14  O   UNL     1      27.020  53.376  38.502  1.00  0.00    -0.504 OA
ATOM     15  H   UNL     1      26.704  54.294  38.793  1.00  0.00     0.293 HD
ENDBRANCH   2  14
TORSDOF 2
ENDMDL
MODEL 3
REMARK VINA RESULT:    -3.902     17.322     19.119
REMARK INTER + INTRA:          -4.308
REMARK INTER:                  -4.243
REMARK INTRA:                  -0.065
REMARK UNBOUND:                -0.064
REMARK SMILES COc1cc2ccc(=O)oc2cc1O
REMARK SMILES IDX 3 1 13 2 12 3 11 4 5 5 4 6 6 7 7 8 8 9 9 10 10 11 2 12 1 13
REMARK SMILES IDX 14 14
REMARK H PARENT 14 15
REMARK Flexibility Score: inf
ROOT
ATOM      1  C   UNL     1      27.146  42.161  26.080  1.00  0.00     0.161 A 
ATOM      2  C   UNL     1      26.256  42.426  25.026  1.00  0.00     0.161 A 
ATOM      3  C   UNL     1      25.625  41.372  24.351  1.00  0.00     0.098 A 
ATOM      4  C   UNL     1      25.875  40.048  24.721  1.00  0.00     0.142 A 
ATOM      5  C   UNL     1      26.768  39.773  25.778  1.00  0.00     0.022 A 
ATOM      6  C   UNL     1      27.400  40.827  26.454  1.00  0.00     0.062 A 
ATOM      7  C   UNL     1      26.999  38.438  26.125  1.00  0.00     0.019 A 
ATOM      8  C   UNL     1      26.346  37.425  25.422  1.00  0.00     0.094 A 
ATOM      9  C   UNL     1      25.474  37.773  24.385  1.00  0.00     0.336 A 
ATOM     10  O   UNL     1      24.875  36.875  23.740  1.00  0.00    -0.246 OA
ATOM     11  O   UNL     1      25.272  39.052  24.076  1.00  0.00    -0.423 OA
ENDROOT
BRANCH   1  12
ATOM     12  O   UNL     1      27.756  43.247  26.727  1.00  0.00    -0.493 OA
ATOM     13  C   UNL     1      29.101  43.664  26.512  1.00  0.00     0.278 C 
ENDBRANCH   1  12
BRANCH   2  14
ATOM     14  O   UNL     1      26.004  43.746  24.655  1.00  0.00    -0.504 OA
ATOM     15  H   UNL     1      26.189  44.519  25.284  1.00  0.00     0.293 HD
ENDBRANCH   2  14
TORSDOF 2
ENDMDL
MODEL 4
REMARK VINA RESULT:    -3.728      1.766      2.983
REMARK INTER + INTRA:          -4.119
REMARK INTER:                  -4.063
REMARK INTRA:                  -0.056
REMARK UNBOUND:                -0.064
REMARK SMILES COc1cc2ccc(=O)oc2cc1O
REMARK SMILES IDX 3 1 13 2 12 3 11 4 5 5 4 6 6 7 7 8 8 9 9 10 10 11 2 12 1 13
REMARK SMILES IDX 14 14
REMARK H PARENT 14 15
REMARK Flexibility Score: inf
ROOT
ATOM      1  C   UNL     1      28.619  50.304  41.214  1.00  0.00     0.161 A 
ATOM      2  C   UNL     1      28.213  50.396  39.873  1.00  0.00     0.161 A 
ATOM      3  C   UNL     1      28.106  51.647  39.251  1.00  0.00     0.098 A 
ATOM      4  C   UNL     1      28.403  52.815  39.958  1.00  0.00     0.142 A 
ATOM      5  C   UNL     1      28.812  52.731  41.306  1.00  0.00     0.022 A 
ATOM      6  C   UNL     1      28.919  51.480  41.930  1.00  0.00     0.062 A 
ATOM      7  C   UNL     1      29.103  53.917  41.988  1.00  0.00     0.019 A 
ATOM      8  C   UNL     1      28.981  55.137  41.323  1.00  0.00     0.094 A 
ATOM      9  C   UNL     1      28.570  55.143  39.986  1.00  0.00     0.336 A 
ATOM     10  O   UNL     1      28.454  56.232  39.368  1.00  0.00    -0.246 OA
ATOM     11  O   UNL     1      28.300  53.999  39.361  1.00  0.00    -0.423 OA
ENDROOT
BRANCH   1  12
ATOM     12  O   UNL     1      28.712  49.031  41.798  1.00  0.00    -0.493 OA
ATOM     13  C   UNL     1      29.910  48.264  41.874  1.00  0.00     0.278 C 
ENDBRANCH   1  12
BRANCH   2  14
ATOM     14  O   UNL     1      27.916  49.233  39.164  1.00  0.00    -0.504 OA
ATOM     15  H   UNL     1      27.035  49.118  38.677  1.00  0.00     0.293 HD
ENDBRANCH   2  14
TORSDOF 2
ENDMDL
MODEL 5
REMARK VINA RESULT:    -3.725     15.539     16.903
REMARK INTER + INTRA:          -4.116
REMARK INTER:                  -4.071
REMARK INTRA:                  -0.046
REMARK UNBOUND:                -0.064
REMARK SMILES COc1cc2ccc(=O)oc2cc1O
REMARK SMILES IDX 3 1 13 2 12 3 11 4 5 5 4 6 6 7 7 8 8 9 9 10 10 11 2 12 1 13
REMARK SMILES IDX 14 14
REMARK H PARENT 14 15
REMARK Flexibility Score: inf
ROOT
ATOM      1  C   UNL     1      25.991  40.930  26.835  1.00  0.00     0.161 A 
ATOM      2  C   UNL     1      25.944  41.353  25.496  1.00  0.00     0.161 A 
ATOM      3  C   UNL     1      26.963  42.161  24.973  1.00  0.00     0.098 A 
ATOM      4  C   UNL     1      28.035  42.553  25.778  1.00  0.00     0.142 A 
ATOM      5  C   UNL     1      28.091  42.132  27.124  1.00  0.00     0.022 A 
ATOM      6  C   UNL     1      27.072  41.324  27.649  1.00  0.00     0.062 A 
ATOM      7  C   UNL     1      29.177  42.540  27.905  1.00  0.00     0.019 A 
ATOM      8  C   UNL     1      30.165  43.344  27.337  1.00  0.00     0.094 A 
ATOM      9  C   UNL     1      30.043  43.722  25.996  1.00  0.00     0.336 A 
ATOM     10  O   UNL     1      30.924  44.447  25.465  1.00  0.00    -0.246 OA
ATOM     11  O   UNL     1      29.000  43.319  25.275  1.00  0.00    -0.423 OA
ENDROOT
BRANCH   1  12
ATOM     12  O   UNL     1      24.949  40.122  27.317  1.00  0.00    -0.493 OA
ATOM     13  C   UNL     1      24.998  39.383  28.533  1.00  0.00     0.278 C 
ENDBRANCH   1  12
BRANCH   2  14
ATOM     14  O   UNL     1      24.875  40.964  24.691  1.00  0.00    -0.504 OA
ATOM     15  H   UNL     1      24.114  41.597  24.476  1.00  0.00     0.293 HD
ENDBRANCH   2  14
TORSDOF 2
ENDMDL
MODEL 6
REMARK VINA RESULT:    -3.694      1.231      4.986
REMARK INTER + INTRA:          -4.082
REMARK INTER:                  -4.019
REMARK INTRA:                  -0.063
REMARK UNBOUND:                -0.064
REMARK SMILES COc1cc2ccc(=O)oc2cc1O
REMARK SMILES IDX 3 1 13 2 12 3 11 4 5 5 4 6 6 7 7 8 8 9 9 10 10 11 2 12 1 13
REMARK SMILES IDX 14 14
REMARK H PARENT 14 15
REMARK Flexibility Score: inf
ROOT
ATOM      1  C   UNL     1      28.635  51.170  40.312  1.00  0.00     0.161 A 
ATOM      2  C   UNL     1      29.652  51.599  41.181  1.00  0.00     0.161 A 
ATOM      3  C   UNL     1      30.564  50.677  41.713  1.00  0.00     0.098 A 
ATOM      4  C   UNL     1      30.470  49.322  41.384  1.00  0.00     0.142 A 
ATOM      5  C   UNL     1      29.451  48.883  40.512  1.00  0.00     0.022 A 
ATOM      6  C   UNL     1      28.538  49.804  39.980  1.00  0.00     0.062 A 
ATOM      7  C   UNL     1      29.382  47.521  40.202  1.00  0.00     0.019 A 
ATOM      8  C   UNL     1      30.314  46.643  40.757  1.00  0.00     0.094 A 
ATOM      9  C   UNL     1      31.296  47.151  41.614  1.00  0.00     0.336 A 
ATOM     10  O   UNL     1      32.146  46.377  42.125  1.00  0.00    -0.246 OA
ATOM     11  O   UNL     1      31.339  48.452  41.892  1.00  0.00    -0.423 OA
ENDROOT
BRANCH   1  12
ATOM     12  O   UNL     1      27.744  52.128  39.803  1.00  0.00    -0.493 OA
ATOM     13  C   UNL     1      27.850  52.723  38.514  1.00  0.00     0.278 C 
ENDBRANCH   1  12
BRANCH   2  14
ATOM     14  O   UNL     1      29.749  52.950  41.510  1.00  0.00    -0.504 OA
ATOM     15  H   UNL     1      30.137  53.628  40.864  1.00  0.00     0.293 HD
ENDBRANCH   2  14
TORSDOF 2
ENDMDL
MODEL 7
REMARK VINA RESULT:    -3.381     16.195     17.555
REMARK INTER + INTRA:          -3.742
REMARK INTER:                  -3.680
REMARK INTRA:                  -0.061
REMARK UNBOUND:                -0.064
REMARK SMILES COc1cc2ccc(=O)oc2cc1O
REMARK SMILES IDX 3 1 13 2 12 3 11 4 5 5 4 6 6 7 7 8 8 9 9 10 10 11 2 12 1 13
REMARK SMILES IDX 14 14
REMARK H PARENT 14 15
REMARK Flexibility Score: inf
ROOT
ATOM      1  C   UNL     1      25.622  38.941  28.763  1.00  0.00     0.161 A 
ATOM      2  C   UNL     1      25.259  38.214  27.617  1.00  0.00     0.161 A 
ATOM      3  C   UNL     1      25.283  38.824  26.355  1.00  0.00     0.098 A 
ATOM      4  C   UNL     1      25.668  40.161  26.225  1.00  0.00     0.142 A 
ATOM      5  C   UNL     1      26.033  40.898  27.371  1.00  0.00     0.022 A 
ATOM      6  C   UNL     1      26.010  40.289  28.634  1.00  0.00     0.062 A 
ATOM      7  C   UNL     1      26.414  42.234  27.209  1.00  0.00     0.019 A 
ATOM      8  C   UNL     1      26.421  42.795  25.932  1.00  0.00     0.094 A 
ATOM      9  C   UNL     1      26.045  42.002  24.842  1.00  0.00     0.336 A 
ATOM     10  O   UNL     1      26.045  42.489  23.682  1.00  0.00    -0.246 OA
ATOM     11  O   UNL     1      25.688  40.733  25.024  1.00  0.00    -0.423 OA
ENDROOT
BRANCH   1  12
ATOM     12  O   UNL     1      25.583  38.290  30.006  1.00  0.00    -0.493 OA
ATOM     13  C   UNL     1      26.721  38.056  30.829  1.00  0.00     0.278 C 
ENDBRANCH   1  12
BRANCH   2  14
ATOM     14  O   UNL     1      24.875  36.880  27.743  1.00  0.00    -0.504 OA
ATOM     15  H   UNL     1      25.507  36.121  27.514  1.00  0.00     0.293 HD
ENDBRANCH   2  14
TORSDOF 2
ENDMDL
MODEL 8
REMARK VINA RESULT:    -3.099     16.199     17.922
REMARK INTER + INTRA:          -3.435
REMARK INTER:                  -3.380
REMARK INTRA:                  -0.055
REMARK UNBOUND:                -0.064
REMARK SMILES COc1cc2ccc(=O)oc2cc1O
REMARK SMILES IDX 3 1 13 2 12 3 11 4 5 5 4 6 6 7 7 8 8 9 9 10 10 11 2 12 1 13
REMARK SMILES IDX 14 14
REMARK H PARENT 14 15
REMARK Flexibility Score: inf
ROOT
ATOM      1  C   UNL     1      25.952  37.896  29.359  1.00  0.00     0.161 A 
ATOM      2  C   UNL     1      25.250  39.093  29.576  1.00  0.00     0.161 A 
ATOM      3  C   UNL     1      24.928  39.930  28.499  1.00  0.00     0.098 A 
ATOM      4  C   UNL     1      25.302  39.581  27.199  1.00  0.00     0.142 A 
ATOM      5  C   UNL     1      26.007  38.381  26.972  1.00  0.00     0.022 A 
ATOM      6  C   UNL     1      26.330  37.542  28.048  1.00  0.00     0.062 A 
ATOM      7  C   UNL     1      26.367  38.058  25.659  1.00  0.00     0.019 A 
ATOM      8  C   UNL     1      26.023  38.925  24.622  1.00  0.00     0.094 A 
ATOM      9  C   UNL     1      25.323  40.098  24.923  1.00  0.00     0.336 A 
ATOM     10  O   UNL     1      25.003  40.893  24.002  1.00  0.00    -0.246 OA
ATOM     11  O   UNL     1      24.992  40.380  26.180  1.00  0.00    -0.423 OA
ENDROOT
BRANCH   1  12
ATOM     12  O   UNL     1      26.254  37.089  30.467  1.00  0.00    -0.493 OA
ATOM     13  C   UNL     1      27.483  37.131  31.185  1.00  0.00     0.278 C 
ENDBRANCH   1  12
BRANCH   2  14
ATOM     14  O   UNL     1      24.875  39.444  30.872  1.00  0.00    -0.504 OA
ATOM     15  H   UNL     1      25.528  39.394  31.646  1.00  0.00     0.293 HD
ENDBRANCH   2  14
TORSDOF 2
ENDMDL
