MODEL 1
REMARK VINA RESULT:    -4.983      0.000      0.000
REMARK INTER + INTRA:          -5.464
REMARK INTER:                  -5.420
REMARK INTRA:                  -0.044
REMARK UNBOUND:                -0.044
REMARK SMILES COc1cc2ccc(=O)oc2cc1O
REMARK SMILES IDX 3 1 13 2 12 3 11 4 5 5 4 6 6 7 7 8 8 9 9 10 10 11 2 12 1 13
REMARK SMILES IDX 14 14
REMARK H PARENT 14 15
REMARK Flexibility Score: inf
ROOT
ATOM      1  C   UNL     1     -45.033 -13.070  -1.091  1.00  0.00     0.161 A 
ATOM      2  C   UNL     1     -45.618 -14.095  -1.860  1.00  0.00     0.161 A 
ATOM      3  C   UNL     1     -44.815 -14.948  -2.626  1.00  0.00     0.098 A 
ATOM      4  C   UNL     1     -43.427 -14.793  -2.635  1.00  0.00     0.142 A 
ATOM      5  C   UNL     1     -42.831 -13.770  -1.868  1.00  0.00     0.022 A 
ATOM      6  C   UNL     1     -43.631 -12.914  -1.100  1.00  0.00     0.062 A 
ATOM      7  C   UNL     1     -41.438 -13.640  -1.898  1.00  0.00     0.019 A 
ATOM      8  C   UNL     1     -40.686 -14.517  -2.678  1.00  0.00     0.094 A 
ATOM      9  C   UNL     1     -41.345 -15.507  -3.413  1.00  0.00     0.336 A 
ATOM     10  O   UNL     1     -40.684 -16.309  -4.124  1.00  0.00    -0.246 OA
ATOM     11  O   UNL     1     -42.671 -15.609  -3.367  1.00  0.00    -0.423 OA
ENDROOT
BRANCH   1  12
ATOM     12  O   UNL     1     -45.868 -12.233  -0.334  1.00  0.00    -0.493 OA
ATOM     13  C   UNL     1     -45.503 -10.939   0.137  1.00  0.00     0.278 C 
ENDBRANCH   1  12
BRANCH   2  14
ATOM     14  O   UNL     1     -47.000 -14.282  -1.876  1.00  0.00    -0.504 OA
ATOM     15  H   UNL     1     -47.500 -14.543  -2.717  1.00  0.00     0.293 HD
ENDBRANCH   2  14
TORSDOF 2
ENDMDL
MODEL 2
REMARK VINA RESULT:    -4.771      2.176      5.068
REMARK INTER + INTRA:          -5.233
REMARK INTER:                  -5.171
REMARK INTRA:                  -0.062
REMARK UNBOUND:                -0.044
REMARK SMILES COc1cc2ccc(=O)oc2cc1O
REMARK SMILES IDX 3 1 13 2 12 3 11 4 5 5 4 6 6 7 7 8 8 9 9 10 10 11 2 12 1 13
REMARK SMILES IDX 14 14
REMARK H PARENT 14 15
REMARK Flexibility Score: inf
ROOT
ATOM      1  C   UNL     1     -42.550 -14.900  -2.395  1.00  0.00     0.161 A 
ATOM      2  C   UNL     1     -43.564 -14.024  -2.829  1.00  0.00     0.161 A 
ATOM      3  C   UNL     1     -44.597 -13.654  -1.960  1.00  0.00     0.098 A 
ATOM      4  C   UNL     1     -44.635 -14.149  -0.655  1.00  0.00     0.142 A 
ATOM      5  C   UNL     1     -43.625 -15.028  -0.210  1.00  0.00     0.022 A 
ATOM      6  C   UNL     1     -42.588 -15.400  -1.076  1.00  0.00     0.062 A 
ATOM      7  C   UNL     1     -43.690 -15.507   1.103  1.00  0.00     0.019 A 
ATOM      8  C   UNL     1     -44.742 -15.108   1.926  1.00  0.00     0.094 A 
ATOM      9  C   UNL     1     -45.707 -14.234   1.417  1.00  0.00     0.336 A 
ATOM     10  O   UNL     1     -46.665 -13.861   2.144  1.00  0.00    -0.246 OA
ATOM     11  O   UNL     1     -45.622 -13.793   0.164  1.00  0.00    -0.423 OA
ENDROOT
BRANCH   1  12
ATOM     12  O   UNL     1     -41.529 -15.250  -3.292  1.00  0.00    -0.493 OA
ATOM     13  C   UNL     1     -41.532 -16.419  -4.105  1.00  0.00     0.278 C 
ENDBRANCH   1  12
BRANCH   2  14
ATOM     14  O   UNL     1     -43.561 -13.507  -4.125  1.00  0.00    -0.504 OA
ATOM     15  H   UNL     1     -42.920 -13.837  -4.836  1.00  0.00     0.293 HD
ENDBRANCH   2  14
TORSDOF 2
ENDMDL
MODEL 3
REMARK VINA RESULT:    -4.615      1.328      4.895
REMARK INTER + INTRA:          -5.064
REMARK INTER:                  -5.002
REMARK INTRA:                  -0.061
REMARK UNBOUND:                -0.044
REMARK SMILES COc1cc2ccc(=O)oc2cc1O
REMARK SMILES IDX 3 1 13 2 12 3 11 4 5 5 4 6 6 7 7 8 8 9 9 10 10 11 2 12 1 13
REMARK SMILES IDX 14 14
REMARK H PARENT 14 15
REMARK Flexibility Score: inf
ROOT
ATOM      1  C   UNL     1     -43.634 -14.303  -3.006  1.00  0.00     0.161 A 
ATOM      2  C   UNL     1     -44.962 -14.684  -2.733  1.00  0.00     0.161 A 
ATOM      3  C   UNL     1     -45.737 -13.944  -1.833  1.00  0.00     0.098 A 
ATOM      4  C   UNL     1     -45.203 -12.822  -1.196  1.00  0.00     0.142 A 
ATOM      5  C   UNL     1     -43.874 -12.432  -1.462  1.00  0.00     0.022 A 
ATOM      6  C   UNL     1     -43.094 -13.170  -2.363  1.00  0.00     0.062 A 
ATOM      7  C   UNL     1     -43.367 -11.303  -0.809  1.00  0.00     0.019 A 
ATOM      8  C   UNL     1     -44.182 -10.603   0.079  1.00  0.00     0.094 A 
ATOM      9  C   UNL     1     -45.491 -11.048   0.294  1.00  0.00     0.336 A 
ATOM     10  O   UNL     1     -46.243 -10.429   1.092  1.00  0.00    -0.246 OA
ATOM     11  O   UNL     1     -45.948 -12.125  -0.340  1.00  0.00    -0.423 OA
ENDROOT
BRANCH   1  12
ATOM     12  O   UNL     1     -42.884 -15.068  -3.914  1.00  0.00    -0.493 OA
ATOM     13  C   UNL     1     -42.015 -16.135  -3.550  1.00  0.00     0.278 C 
ENDBRANCH   1  12
BRANCH   2  14
ATOM     14  O   UNL     1     -45.531 -15.798  -3.349  1.00  0.00    -0.504 OA
ATOM     15  H   UNL     1     -45.501 -15.935  -4.352  1.00  0.00     0.293 HD
ENDBRANCH   2  14
TORSDOF 2
ENDMDL
MODEL 4
REMARK VINA RESULT:    -4.546      2.996      3.604
REMARK INTER + INTRA:          -4.989
REMARK INTER:                  -4.929
REMARK INTRA:                  -0.061
REMARK UNBOUND:                -0.044
REMARK SMILES COc1cc2ccc(=O)oc2cc1O
REMARK SMILES IDX 3 1 13 2 12 3 11 4 5 5 4 6 6 7 7 8 8 9 9 10 10 11 2 12 1 13
REMARK SMILES IDX 14 14
REMARK H PARENT 14 15
REMARK Flexibility Score: inf
ROOT
ATOM      1  C   UNL     1     -44.801 -15.079   1.879  1.00  0.00     0.161 A 
ATOM      2  C   UNL     1     -45.813 -14.251   1.356  1.00  0.00     0.161 A 
ATOM      3  C   UNL     1     -45.774 -13.850   0.015  1.00  0.00     0.098 A 
ATOM      4  C   UNL     1     -44.732 -14.265  -0.817  1.00  0.00     0.142 A 
ATOM      5  C   UNL     1     -43.714 -15.095  -0.303  1.00  0.00     0.022 A 
ATOM      6  C   UNL     1     -43.749 -15.499   1.038  1.00  0.00     0.062 A 
ATOM      7  C   UNL     1     -42.684 -15.494  -1.162  1.00  0.00     0.019 A 
ATOM      8  C   UNL     1     -42.693 -15.065  -2.488  1.00  0.00     0.094 A 
ATOM      9  C   UNL     1     -43.736 -14.244  -2.928  1.00  0.00     0.336 A 
ATOM     10  O   UNL     1     -43.763 -13.845  -4.122  1.00  0.00    -0.246 OA
ATOM     11  O   UNL     1     -44.703 -13.878  -2.090  1.00  0.00    -0.423 OA
ENDROOT
BRANCH   1  12
ATOM     12  O   UNL     1     -44.871 -15.464   3.227  1.00  0.00    -0.493 OA
ATOM     13  C   UNL     1     -45.465 -16.670   3.695  1.00  0.00     0.278 C 
ENDBRANCH   1  12
BRANCH   2  14
ATOM     14  O   UNL     1     -46.870 -13.816   2.155  1.00  0.00    -0.504 OA
ATOM     15  H   UNL     1     -47.834 -14.042   1.945  1.00  0.00     0.293 HD
ENDBRANCH   2  14
TORSDOF 2
ENDMDL
MODEL 5
REMARK VINA RESULT:    -4.467      9.187      9.729
REMARK INTER + INTRA:          -4.903
REMARK INTER:                  -4.844
REMARK INTRA:                  -0.060
REMARK UNBOUND:                -0.044
REMARK SMILES COc1cc2ccc(=O)oc2cc1O
REMARK SMILES IDX 3 1 13 2 12 3 11 4 5 5 4 6 6 7 7 8 8 9 9 10 10 11 2 12 1 13
REMARK SMILES IDX 14 14
REMARK H PARENT 14 15
REMARK Flexibility Score: inf
ROOT
ATOM      1  C   UNL     1     -43.479 -14.845   6.905  1.00  0.00     0.161 A 
ATOM      2  C   UNL     1     -44.775 -15.017   7.429  1.00  0.00     0.161 A 
ATOM      3  C   UNL     1     -45.384 -16.277   7.404  1.00  0.00     0.098 A 
ATOM      4  C   UNL     1     -44.716 -17.375   6.859  1.00  0.00     0.142 A 
ATOM      5  C   UNL     1     -43.417 -17.213   6.332  1.00  0.00     0.022 A 
ATOM      6  C   UNL     1     -42.803 -15.954   6.355  1.00  0.00     0.062 A 
ATOM      7  C   UNL     1     -42.773 -18.332   5.793  1.00  0.00     0.019 A 
ATOM      8  C   UNL     1     -43.426 -19.564   5.792  1.00  0.00     0.094 A 
ATOM      9  C   UNL     1     -44.713 -19.649   6.333  1.00  0.00     0.336 A 
ATOM     10  O   UNL     1     -45.320 -20.752   6.342  1.00  0.00    -0.246 OA
ATOM     11  O   UNL     1     -45.303 -18.569   6.839  1.00  0.00    -0.423 OA
ENDROOT
BRANCH   1  12
ATOM     12  O   UNL     1     -42.897 -13.568   6.947  1.00  0.00    -0.493 OA
ATOM     13  C   UNL     1     -41.729 -13.235   7.690  1.00  0.00     0.278 C 
ENDBRANCH   1  12
BRANCH   2  14
ATOM     14  O   UNL     1     -45.475 -13.945   7.982  1.00  0.00    -0.504 OA
ATOM     15  H   UNL     1     -46.482 -13.864   7.912  1.00  0.00     0.293 HD
ENDBRANCH   2  14
TORSDOF 2
ENDMDL
MODEL 6
REMARK VINA RESULT:    -4.375      3.018      3.863
REMARK INTER + INTRA:          -4.804
REMARK INTER:                  -4.759
REMARK INTRA:                  -0.044
REMARK UNBOUND:                -0.044
REMARK SMILES COc1cc2ccc(=O)oc2cc1O
REMARK SMILES IDX 3 1 13 2 12 3 11 4 5 5 4 6 6 7 7 8 8 9 9 10 10 11 2 12 1 13
REMARK SMILES IDX 14 14
REMARK H PARENT 14 15
REMARK Flexibility Score: inf
ROOT
ATOM      1  C   UNL     1     -45.154 -14.744   2.009  1.00  0.00     0.161 A 
ATOM      2  C   UNL     1     -43.902 -15.370   1.860  1.00  0.00     0.161 A 
ATOM      3  C   UNL     1     -43.304 -15.462   0.598  1.00  0.00     0.098 A 
ATOM      4  C   UNL     1     -43.943 -14.935  -0.526  1.00  0.00     0.142 A 
ATOM      5  C   UNL     1     -45.198 -14.306  -0.389  1.00  0.00     0.022 A 
ATOM      6  C   UNL     1     -45.800 -14.211   0.873  1.00  0.00     0.062 A 
ATOM      7  C   UNL     1     -45.813 -13.788  -1.533  1.00  0.00     0.019 A 
ATOM      8  C   UNL     1     -45.174 -13.907  -2.767  1.00  0.00     0.094 A 
ATOM      9  C   UNL     1     -43.930 -14.543  -2.828  1.00  0.00     0.336 A 
ATOM     10  O   UNL     1     -43.337 -14.662  -3.932  1.00  0.00    -0.246 OA
ATOM     11  O   UNL     1     -43.368 -15.028  -1.723  1.00  0.00    -0.423 OA
ENDROOT
BRANCH   1  12
ATOM     12  O   UNL     1     -45.725 -14.668   3.290  1.00  0.00    -0.493 OA
ATOM     13  C   UNL     1     -46.696 -13.706   3.687  1.00  0.00     0.278 C 
ENDBRANCH   1  12
BRANCH   2  14
ATOM     14  O   UNL     1     -43.232 -15.908   2.960  1.00  0.00    -0.504 OA
ATOM     15  H   UNL     1     -43.565 -16.732   3.445  1.00  0.00     0.293 HD
ENDBRANCH   2  14
TORSDOF 2
ENDMDL
MODEL 7
REMARK VINA RESULT:    -4.282      7.895      8.759
REMARK INTER + INTRA:          -4.701
REMARK INTER:                  -4.638
REMARK INTRA:                  -0.063
REMARK UNBOUND:                -0.044
REMARK SMILES COc1cc2ccc(=O)oc2cc1O
REMARK SMILES IDX 3 1 13 2 12 3 11 4 5 5 4 6 6 7 7 8 8 9 9 10 10 11 2 12 1 13
REMARK SMILES IDX 14 14
REMARK H PARENT 14 15
REMARK Flexibility Score: inf
ROOT
ATOM      1  C   UNL     1     -44.628 -13.762   5.726  1.00  0.00     0.161 A 
ATOM      2  C   UNL     1     -45.541 -14.246   6.683  1.00  0.00     0.161 A 
ATOM      3  C   UNL     1     -45.440 -15.561   7.152  1.00  0.00     0.098 A 
ATOM      4  C   UNL     1     -44.435 -16.406   6.676  1.00  0.00     0.142 A 
ATOM      5  C   UNL     1     -43.515 -15.931   5.718  1.00  0.00     0.022 A 
ATOM      6  C   UNL     1     -43.612 -14.615   5.246  1.00  0.00     0.062 A 
ATOM      7  C   UNL     1     -42.519 -16.800   5.261  1.00  0.00     0.019 A 
ATOM      8  C   UNL     1     -42.464 -18.101   5.761  1.00  0.00     0.094 A 
ATOM      9  C   UNL     1     -43.409 -18.503   6.710  1.00  0.00     0.336 A 
ATOM     10  O   UNL     1     -43.377 -19.673   7.174  1.00  0.00    -0.246 OA
ATOM     11  O   UNL     1     -44.347 -17.655   7.128  1.00  0.00    -0.423 OA
ENDROOT
BRANCH   1  12
ATOM     12  O   UNL     1     -44.758 -12.438   5.277  1.00  0.00    -0.493 OA
ATOM     13  C   UNL     1     -45.456 -12.047   4.099  1.00  0.00     0.278 C 
ENDBRANCH   1  12
BRANCH   2  14
ATOM     14  O   UNL     1     -46.558 -13.433   7.182  1.00  0.00    -0.504 OA
ATOM     15  H   UNL     1     -47.488 -13.787   7.373  1.00  0.00     0.293 HD
ENDBRANCH   2  14
TORSDOF 2
ENDMDL
MODEL 8
REMARK VINA RESULT:    -4.280     10.353     10.988
REMARK INTER + INTRA:          -4.699
REMARK INTER:                  -4.642
REMARK INTRA:                  -0.057
REMARK UNBOUND:                -0.044
REMARK SMILES COc1cc2ccc(=O)oc2cc1O
REMARK SMILES IDX 3 1 13 2 12 3 11 4 5 5 4 6 6 7 7 8 8 9 9 10 10 11 2 12 1 13
REMARK SMILES IDX 14 14
REMARK H PARENT 14 15
REMARK Flexibility Score: inf
ROOT
ATOM      1  C   UNL     1     -47.487 -17.920   8.231  1.00  0.00     0.161 A 
ATOM      2  C   UNL     1     -46.158 -17.525   8.479  1.00  0.00     0.161 A 
ATOM      3  C   UNL     1     -45.099 -18.159   7.819  1.00  0.00     0.098 A 
ATOM      4  C   UNL     1     -45.348 -19.188   6.909  1.00  0.00     0.142 A 
ATOM      5  C   UNL     1     -46.675 -19.591   6.653  1.00  0.00     0.022 A 
ATOM      6  C   UNL     1     -47.739 -18.959   7.311  1.00  0.00     0.062 A 
ATOM      7  C   UNL     1     -46.892 -20.625   5.735  1.00  0.00     0.019 A 
ATOM      8  C   UNL     1     -45.801 -21.223   5.106  1.00  0.00     0.094 A 
ATOM      9  C   UNL     1     -44.512 -20.770   5.410  1.00  0.00     0.336 A 
ATOM     10  O   UNL     1     -43.513 -21.297   4.853  1.00  0.00    -0.246 OA
ATOM     11  O   UNL     1     -44.334 -19.785   6.287  1.00  0.00    -0.423 OA
ENDROOT
BRANCH   1  12
ATOM     12  O   UNL     1     -48.526 -17.263   8.909  1.00  0.00    -0.493 OA
ATOM     13  C   UNL     1     -49.580 -16.545   8.275  1.00  0.00     0.278 C 
ENDBRANCH   1  12
BRANCH   2  14
ATOM     14  O   UNL     1     -45.870 -16.501   9.381  1.00  0.00    -0.504 OA
ATOM     15  H   UNL     1     -46.465 -15.689   9.484  1.00  0.00     0.293 HD
ENDBRANCH   2  14
TORSDOF 2
ENDMDL
MODEL 9
REMARK VINA RESULT:    -4.168      7.837      9.091
REMARK INTER + INTRA:          -4.578
REMARK INTER:                  -4.513
REMARK INTRA:                  -0.065
REMARK UNBOUND:                -0.044
REMARK SMILES COc1cc2ccc(=O)oc2cc1O
REMARK SMILES IDX 3 1 13 2 12 3 11 4 5 5 4 6 6 7 7 8 8 9 9 10 10 11 2 12 1 13
REMARK SMILES IDX 14 14
REMARK H PARENT 14 15
REMARK Flexibility Score: inf
ROOT
ATOM      1  C   UNL     1     -44.000 -18.272   5.723  1.00  0.00     0.161 A 
ATOM      2  C   UNL     1     -45.112 -17.950   4.920  1.00  0.00     0.161 A 
ATOM      3  C   UNL     1     -45.452 -16.612   4.689  1.00  0.00     0.098 A 
ATOM      4  C   UNL     1     -44.695 -15.583   5.253  1.00  0.00     0.142 A 
ATOM      5  C   UNL     1     -43.580 -15.894   6.060  1.00  0.00     0.022 A 
ATOM      6  C   UNL     1     -43.235 -17.233   6.292  1.00  0.00     0.062 A 
ATOM      7  C   UNL     1     -42.841 -14.842   6.611  1.00  0.00     0.019 A 
ATOM      8  C   UNL     1     -43.224 -13.527   6.350  1.00  0.00     0.094 A 
ATOM      9  C   UNL     1     -44.340 -13.293   5.541  1.00  0.00     0.336 A 
ATOM     10  O   UNL     1     -44.703 -12.113   5.294  1.00  0.00    -0.246 OA
ATOM     11  O   UNL     1     -45.026 -14.313   5.030  1.00  0.00    -0.423 OA
ENDROOT
BRANCH   1  12
ATOM     12  O   UNL     1     -43.687 -19.624   5.933  1.00  0.00    -0.493 OA
ATOM     13  C   UNL     1     -44.016 -20.358   7.108  1.00  0.00     0.278 C 
ENDBRANCH   1  12
BRANCH   2  14
ATOM     14  O   UNL     1     -45.892 -18.949   4.338  1.00  0.00    -0.504 OA
ATOM     15  H   UNL     1     -46.686 -19.359   4.814  1.00  0.00     0.293 HD
ENDBRANCH   2  14
TORSDOF 2
ENDMDL
