MODEL 1
REMARK VINA RESULT:    -3.910      0.000      0.000
REMARK INTER + INTRA:         -10.273
REMARK INTER:                  -7.567
REMARK INTRA:                  -2.707
REMARK UNBOUND:                -2.707
REMARK SMILES CCCCCCCCCCCCCCCCCC(=O)[O-]
REMARK SMILES IDX 10 1 11 2 12 3 13 4 14 5 15 6 16 7 17 8 18 9 19 10 20 11
REMARK SMILES IDX 9 12 8 13 7 14 6 15 5 16 4 17 3 18 2 19 1 20
REMARK H PARENT
REMARK Flexibility Score: inf
ROOT
ATOM      1  C   UNL     1       1.672   8.647  -5.469  1.00  0.00     0.000 C 
ENDROOT
BRANCH   1   2
ATOM      2  C   UNL     1       3.108   8.442  -4.955  1.00  0.00     0.000 C 
BRANCH   2   3
ATOM      3  C   UNL     1       4.168   8.425  -6.076  1.00  0.00     0.000 C 
BRANCH   3   4
ATOM      4  C   UNL     1       4.091   7.145  -6.927  1.00  0.00     0.000 C 
BRANCH   4   5
ATOM      5  C   UNL     1       4.313   7.414  -8.424  1.00  0.00     0.000 C 
BRANCH   5   6
ATOM      6  C   UNL     1       4.606   8.896  -8.717  1.00  0.00     0.000 C 
BRANCH   6   7
ATOM      7  C   UNL     1       6.023   9.119  -9.278  1.00  0.00     0.006 C 
BRANCH   7   8
ATOM      8  C   UNL     1       7.086   8.179  -8.687  1.00  0.00     0.053 C 
BRANCH   8   9
ATOM      9  C   UNL     1       7.757   8.779  -7.489  1.00  0.00     0.041 C 
ATOM     10  O   UNL     1       7.934  10.024  -7.418  1.00  0.00    -0.550 OA
ATOM     11  O   UNL     1       8.152   7.966  -6.434  1.00  0.00    -0.550 OA
ENDBRANCH   8   9
ENDBRANCH   7   8
ENDBRANCH   6   7
ENDBRANCH   5   6
ENDBRANCH   4   5
ENDBRANCH   3   4
ENDBRANCH   2   3
ENDBRANCH   1   2
BRANCH   1  12
ATOM     12  C   UNL     1       1.532   9.879  -6.374  1.00  0.00     0.000 C 
BRANCH  12  13
ATOM     13  C   UNL     1       1.067   9.484  -7.779  1.00  0.00    -0.000 C 
BRANCH  13  14
ATOM     14  C   UNL     1       0.675   8.000  -7.832  1.00  0.00    -0.000 C 
BRANCH  14  15
ATOM     15  C   UNL     1       0.062   7.605  -9.192  1.00  0.00    -0.000 C 
BRANCH  15  16
ATOM     16  C   UNL     1       0.233   6.115  -9.533  1.00  0.00    -0.000 C 
BRANCH  16  17
ATOM     17  C   UNL     1       1.087   5.360  -8.506  1.00  0.00    -0.000 C 
BRANCH  17  18
ATOM     18  C   UNL     1       0.319   4.164  -7.926  1.00  0.00    -0.000 C 
BRANCH  18  19
ATOM     19  C   UNL     1       0.289   4.171  -6.390  1.00  0.00    -0.003 C 
ATOM     20  C   UNL     1       1.407   5.018  -5.782  1.00  0.00     0.004 C 
ENDBRANCH  18  19
ENDBRANCH  17  18
ENDBRANCH  16  17
ENDBRANCH  15  16
ENDBRANCH  14  15
ENDBRANCH  13  14
ENDBRANCH  12  13
ENDBRANCH   1  12
TORSDOF 16
ENDMDL
MODEL 2
REMARK VINA RESULT:    -3.846     18.992     22.607
REMARK INTER + INTRA:         -10.150
REMARK INTER:                  -7.537
REMARK INTRA:                  -2.613
REMARK UNBOUND:                -2.707
REMARK SMILES CCCCCCCCCCCCCCCCCC(=O)[O-]
REMARK SMILES IDX 10 1 11 2 12 3 13 4 14 5 15 6 16 7 17 8 18 9 19 10 20 11
REMARK SMILES IDX 9 12 8 13 7 14 6 15 5 16 4 17 3 18 2 19 1 20
REMARK H PARENT
REMARK Flexibility Score: inf
ROOT
ATOM      1  C   UNL     1      -6.616  -2.946   7.836  1.00  0.00     0.000 C 
ENDROOT
BRANCH   1   2
ATOM      2  C   UNL     1      -8.143  -2.781   7.740  1.00  0.00     0.000 C 
BRANCH   2   3
ATOM      3  C   UNL     1      -8.925  -4.067   8.081  1.00  0.00     0.000 C 
BRANCH   3   4
ATOM      4  C   UNL     1      -8.244  -5.326   7.516  1.00  0.00     0.000 C 
BRANCH   4   5
ATOM      5  C   UNL     1      -8.734  -5.682   6.103  1.00  0.00     0.000 C 
BRANCH   5   6
ATOM      6  C   UNL     1      -8.156  -7.018   5.602  1.00  0.00     0.000 C 
BRANCH   6   7
ATOM      7  C   UNL     1      -8.515  -8.200   6.523  1.00  0.00     0.006 C 
BRANCH   7   8
ATOM      8  C   UNL     1      -7.669  -9.461   6.281  1.00  0.00     0.053 C 
BRANCH   8   9
ATOM      9  C   UNL     1      -6.325  -9.364   6.934  1.00  0.00     0.041 C 
ATOM     10  O   UNL     1      -5.324  -9.924   6.414  1.00  0.00    -0.550 OA
ATOM     11  O   UNL     1      -6.170  -8.624   8.100  1.00  0.00    -0.550 OA
ENDBRANCH   8   9
ENDBRANCH   7   8
ENDBRANCH   6   7
ENDBRANCH   5   6
ENDBRANCH   4   5
ENDBRANCH   3   4
ENDBRANCH   2   3
ENDBRANCH   1   2
BRANCH   1  12
ATOM     12  C   UNL     1      -6.057  -2.545   9.209  1.00  0.00     0.000 C 
BRANCH  12  13
ATOM     13  C   UNL     1      -4.862  -3.422   9.597  1.00  0.00    -0.000 C 
BRANCH  13  14
ATOM     14  C   UNL     1      -5.228  -4.912   9.531  1.00  0.00    -0.000 C 
BRANCH  14  15
ATOM     15  C   UNL     1      -4.133  -5.753   8.842  1.00  0.00    -0.000 C 
BRANCH  15  16
ATOM     16  C   UNL     1      -3.809  -5.288   7.412  1.00  0.00    -0.000 C 
BRANCH  16  17
ATOM     17  C   UNL     1      -4.721  -5.925   6.356  1.00  0.00    -0.000 C 
BRANCH  17  18
ATOM     18  C   UNL     1      -4.986  -4.950   5.199  1.00  0.00    -0.000 C 
BRANCH  18  19
ATOM     19  C   UNL     1      -3.869  -3.906   5.041  1.00  0.00    -0.003 C 
ATOM     20  C   UNL     1      -4.385  -2.471   5.147  1.00  0.00     0.004 C 
ENDBRANCH  18  19
ENDBRANCH  17  18
ENDBRANCH  16  17
ENDBRANCH  15  16
ENDBRANCH  14  15
ENDBRANCH  13  14
ENDBRANCH  12  13
ENDBRANCH   1  12
TORSDOF 16
ENDMDL
MODEL 3
REMARK VINA RESULT:    -3.679      2.485      5.715
REMARK INTER + INTRA:          -9.827
REMARK INTER:                  -7.062
REMARK INTRA:                  -2.765
REMARK UNBOUND:                -2.707
REMARK SMILES CCCCCCCCCCCCCCCCCC(=O)[O-]
REMARK SMILES IDX 10 1 11 2 12 3 13 4 14 5 15 6 16 7 17 8 18 9 19 10 20 11
REMARK SMILES IDX 9 12 8 13 7 14 6 15 5 16 4 17 3 18 2 19 1 20
REMARK H PARENT
REMARK Flexibility Score: inf
ROOT
ATOM      1  C   UNL     1       1.189   5.278  -7.650  1.00  0.00     0.000 C 
ENDROOT
BRANCH   1   2
ATOM      2  C   UNL     1       0.170   6.331  -8.118  1.00  0.00     0.000 C 
BRANCH   2   3
ATOM      3  C   UNL     1       0.270   7.668  -7.353  1.00  0.00     0.000 C 
BRANCH   3   4
ATOM      4  C   UNL     1       0.804   8.806  -8.241  1.00  0.00     0.000 C 
BRANCH   4   5
ATOM      5  C   UNL     1       1.569   9.873  -7.443  1.00  0.00     0.000 C 
BRANCH   5   6
ATOM      6  C   UNL     1       1.437   9.674  -5.922  1.00  0.00     0.000 C 
BRANCH   6   7
ATOM      7  C   UNL     1       2.803   9.588  -5.215  1.00  0.00     0.006 C 
BRANCH   7   8
ATOM      8  C   UNL     1       3.389   8.168  -5.156  1.00  0.00     0.053 C 
BRANCH   8   9
ATOM      9  C   UNL     1       2.577   7.266  -4.279  1.00  0.00     0.041 C 
ATOM     10  O   UNL     1       2.253   6.116  -4.676  1.00  0.00    -0.550 OA
ATOM     11  O   UNL     1       2.210   7.682  -3.004  1.00  0.00    -0.550 OA
ENDBRANCH   8   9
ENDBRANCH   7   8
ENDBRANCH   6   7
ENDBRANCH   5   6
ENDBRANCH   4   5
ENDBRANCH   3   4
ENDBRANCH   2   3
ENDBRANCH   1   2
BRANCH   1  12
ATOM     12  C   UNL     1       2.582   5.480  -8.262  1.00  0.00     0.000 C 
BRANCH  12  13
ATOM     13  C   UNL     1       2.487   5.828  -9.751  1.00  0.00    -0.000 C 
BRANCH  13  14
ATOM     14  C   UNL     1       3.492   6.929 -10.124  1.00  0.00    -0.000 C 
BRANCH  14  15
ATOM     15  C   UNL     1       4.232   7.486  -8.890  1.00  0.00    -0.000 C 
BRANCH  15  16
ATOM     16  C   UNL     1       4.650   8.959  -9.039  1.00  0.00    -0.000 C 
BRANCH  16  17
ATOM     17  C   UNL     1       5.570   9.437  -7.907  1.00  0.00    -0.000 C 
BRANCH  17  18
ATOM     18  C   UNL     1       6.548   8.330  -7.489  1.00  0.00    -0.000 C 
BRANCH  18  19
ATOM     19  C   UNL     1       7.818   8.308  -8.354  1.00  0.00    -0.003 C 
ATOM     20  C   UNL     1       8.606   9.616  -8.279  1.00  0.00     0.004 C 
ENDBRANCH  18  19
ENDBRANCH  17  18
ENDBRANCH  16  17
ENDBRANCH  15  16
ENDBRANCH  14  15
ENDBRANCH  13  14
ENDBRANCH  12  13
ENDBRANCH   1  12
TORSDOF 16
ENDMDL
MODEL 4
REMARK VINA RESULT:    -3.628     19.392     22.607
REMARK INTER + INTRA:          -9.728
REMARK INTER:                  -7.296
REMARK INTRA:                  -2.432
REMARK UNBOUND:                -2.707
REMARK SMILES CCCCCCCCCCCCCCCCCC(=O)[O-]
REMARK SMILES IDX 10 1 11 2 12 3 13 4 14 5 15 6 16 7 17 8 18 9 19 10 20 11
REMARK SMILES IDX 9 12 8 13 7 14 6 15 5 16 4 17 3 18 2 19 1 20
REMARK H PARENT
REMARK Flexibility Score: inf
ROOT
ATOM      1  C   UNL     1      -4.328  -5.482   6.047  1.00  0.00     0.000 C 
ENDROOT
BRANCH   1   2
ATOM      2  C   UNL     1      -4.099  -4.249   5.158  1.00  0.00     0.000 C 
BRANCH   2   3
ATOM      3  C   UNL     1      -4.830  -2.984   5.656  1.00  0.00     0.000 C 
BRANCH   3   4
ATOM      4  C   UNL     1      -5.212  -3.085   7.144  1.00  0.00     0.000 C 
BRANCH   4   5
ATOM      5  C   UNL     1      -6.730  -3.003   7.373  1.00  0.00     0.000 C 
BRANCH   5   6
ATOM      6  C   UNL     1      -7.144  -3.546   8.753  1.00  0.00     0.000 C 
BRANCH   6   7
ATOM      7  C   UNL     1      -6.476  -4.894   9.082  1.00  0.00     0.006 C 
BRANCH   7   8
ATOM      8  C   UNL     1      -5.273  -4.781  10.033  1.00  0.00     0.053 C 
BRANCH   8   9
ATOM      9  C   UNL     1      -4.217  -5.795   9.717  1.00  0.00     0.041 C 
ATOM     10  O   UNL     1      -3.065  -5.424   9.366  1.00  0.00    -0.550 OA
ATOM     11  O   UNL     1      -4.492  -7.150   9.848  1.00  0.00    -0.550 OA
ENDBRANCH   8   9
ENDBRANCH   7   8
ENDBRANCH   6   7
ENDBRANCH   5   6
ENDBRANCH   4   5
ENDBRANCH   3   4
ENDBRANCH   2   3
ENDBRANCH   1   2
BRANCH   1  12
ATOM     12  C   UNL     1      -5.490  -6.361   5.563  1.00  0.00     0.000 C 
BRANCH  12  13
ATOM     13  C   UNL     1      -5.800  -7.473   6.571  1.00  0.00    -0.000 C 
BRANCH  13  14
ATOM     14  C   UNL     1      -5.656  -8.858   5.922  1.00  0.00    -0.000 C 
BRANCH  14  15
ATOM     15  C   UNL     1      -6.832  -9.793   6.272  1.00  0.00    -0.000 C 
BRANCH  15  16
ATOM     16  C   UNL     1      -7.788  -9.209   7.326  1.00  0.00    -0.000 C 
BRANCH  16  17
ATOM     17  C   UNL     1      -9.247  -9.167   6.852  1.00  0.00    -0.000 C 
BRANCH  17  18
ATOM     18  C   UNL     1      -9.519  -7.906   6.020  1.00  0.00    -0.000 C 
BRANCH  18  19
ATOM     19  C   UNL     1      -9.304  -6.613   6.823  1.00  0.00    -0.003 C 
ATOM     20  C   UNL     1      -9.220  -5.373   5.932  1.00  0.00     0.004 C 
ENDBRANCH  18  19
ENDBRANCH  17  18
ENDBRANCH  16  17
ENDBRANCH  15  16
ENDBRANCH  14  15
ENDBRANCH  13  14
ENDBRANCH  12  13
ENDBRANCH   1  12
TORSDOF 16
ENDMDL
MODEL 5
REMARK VINA RESULT:    -3.601     19.071     21.979
REMARK INTER + INTRA:          -9.676
REMARK INTER:                  -7.315
REMARK INTRA:                  -2.361
REMARK UNBOUND:                -2.707
REMARK SMILES CCCCCCCCCCCCCCCCCC(=O)[O-]
REMARK SMILES IDX 10 1 11 2 12 3 13 4 14 5 15 6 16 7 17 8 18 9 19 10 20 11
REMARK SMILES IDX 9 12 8 13 7 14 6 15 5 16 4 17 3 18 2 19 1 20
REMARK H PARENT
REMARK Flexibility Score: inf
ROOT
ATOM      1  C   UNL     1      -3.880  -4.143   5.237  1.00  0.00     0.000 C 
ENDROOT
BRANCH   1   2
ATOM      2  C   UNL     1      -4.575  -2.823   5.613  1.00  0.00     0.000 C 
BRANCH   2   3
ATOM      3  C   UNL     1      -5.844  -3.016   6.470  1.00  0.00     0.000 C 
BRANCH   3   4
ATOM      4  C   UNL     1      -5.524  -3.089   7.973  1.00  0.00     0.000 C 
BRANCH   4   5
ATOM      5  C   UNL     1      -6.756  -2.835   8.856  1.00  0.00     0.000 C 
BRANCH   5   6
ATOM      6  C   UNL     1      -7.957  -2.308   8.048  1.00  0.00     0.000 C 
BRANCH   6   7
ATOM      7  C   UNL     1      -8.526  -0.997   8.622  1.00  0.00     0.006 C 
BRANCH   7   8
ATOM      8  C   UNL     1      -9.899  -0.607   8.051  1.00  0.00     0.053 C 
BRANCH   8   9
ATOM      9  C   UNL     1      -9.775   0.335   6.894  1.00  0.00     0.041 C 
ATOM     10  O   UNL     1      -9.934   1.573   7.064  1.00  0.00    -0.550 OA
ATOM     11  O   UNL     1      -9.445  -0.149   5.634  1.00  0.00    -0.550 OA
ENDBRANCH   8   9
ENDBRANCH   7   8
ENDBRANCH   6   7
ENDBRANCH   5   6
ENDBRANCH   4   5
ENDBRANCH   3   4
ENDBRANCH   2   3
ENDBRANCH   1   2
BRANCH   1  12
ATOM     12  C   UNL     1      -4.872  -5.277   4.941  1.00  0.00     0.000 C 
BRANCH  12  13
ATOM     13  C   UNL     1      -4.808  -6.364   6.019  1.00  0.00    -0.000 C 
BRANCH  13  14
ATOM     14  C   UNL     1      -5.975  -7.352   5.874  1.00  0.00    -0.000 C 
BRANCH  14  15
ATOM     15  C   UNL     1      -7.340  -6.636   5.790  1.00  0.00    -0.000 C 
BRANCH  15  16
ATOM     16  C   UNL     1      -7.813  -6.057   7.133  1.00  0.00    -0.000 C 
BRANCH  16  17
ATOM     17  C   UNL     1      -7.632  -7.033   8.303  1.00  0.00    -0.000 C 
BRANCH  17  18
ATOM     18  C   UNL     1      -6.804  -6.395   9.428  1.00  0.00    -0.000 C 
BRANCH  18  19
ATOM     19  C   UNL     1      -5.441  -7.078   9.617  1.00  0.00    -0.003 C 
ATOM     20  C   UNL     1      -5.501  -8.589   9.393  1.00  0.00     0.004 C 
ENDBRANCH  18  19
ENDBRANCH  17  18
ENDBRANCH  16  17
ENDBRANCH  15  16
ENDBRANCH  14  15
ENDBRANCH  13  14
ENDBRANCH  12  13
ENDBRANCH   1  12
TORSDOF 16
ENDMDL
MODEL 6
REMARK VINA RESULT:    -3.572     18.708     21.982
REMARK INTER + INTRA:          -9.620
REMARK INTER:                  -7.009
REMARK INTRA:                  -2.612
REMARK UNBOUND:                -2.707
REMARK SMILES CCCCCCCCCCCCCCCCCC(=O)[O-]
REMARK SMILES IDX 10 1 11 2 12 3 13 4 14 5 15 6 16 7 17 8 18 9 19 10 20 11
REMARK SMILES IDX 9 12 8 13 7 14 6 15 5 16 4 17 3 18 2 19 1 20
REMARK H PARENT
REMARK Flexibility Score: inf
ROOT
ATOM      1  C   UNL     1      -7.716  -2.954   8.857  1.00  0.00     0.000 C 
ENDROOT
BRANCH   1   2
ATOM      2  C   UNL     1      -6.317  -2.315   8.853  1.00  0.00     0.000 C 
BRANCH   2   3
ATOM      3  C   UNL     1      -5.256  -3.148   9.603  1.00  0.00     0.000 C 
BRANCH   3   4
ATOM      4  C   UNL     1      -5.723  -4.593   9.851  1.00  0.00     0.000 C 
BRANCH   4   5
ATOM      5  C   UNL     1      -5.235  -5.569   8.768  1.00  0.00     0.000 C 
BRANCH   5   6
ATOM      6  C   UNL     1      -3.815  -5.234   8.275  1.00  0.00     0.000 C 
BRANCH   6   7
ATOM      7  C   UNL     1      -3.722  -5.167   6.739  1.00  0.00     0.006 C 
BRANCH   7   8
ATOM      8  C   UNL     1      -4.773  -4.253   6.088  1.00  0.00     0.053 C 
BRANCH   8   9
ATOM      9  C   UNL     1      -4.149  -3.261   5.156  1.00  0.00     0.041 C 
ATOM     10  O   UNL     1      -4.580  -2.079   5.103  1.00  0.00    -0.550 OA
ATOM     11  O   UNL     1      -3.063  -3.632   4.371  1.00  0.00    -0.550 OA
ENDBRANCH   8   9
ENDBRANCH   7   8
ENDBRANCH   6   7
ENDBRANCH   5   6
ENDBRANCH   4   5
ENDBRANCH   3   4
ENDBRANCH   2   3
ENDBRANCH   1   2
BRANCH   1  12
ATOM     12  C   UNL     1      -8.085  -3.593   7.511  1.00  0.00     0.000 C 
BRANCH  12  13
ATOM     13  C   UNL     1      -9.361  -4.434   7.629  1.00  0.00    -0.000 C 
BRANCH  13  14
ATOM     14  C   UNL     1      -9.330  -5.305   8.894  1.00  0.00    -0.000 C 
BRANCH  14  15
ATOM     15  C   UNL     1      -9.560  -6.798   8.582  1.00  0.00    -0.000 C 
BRANCH  15  16
ATOM     16  C   UNL     1      -8.257  -7.594   8.394  1.00  0.00    -0.000 C 
BRANCH  16  17
ATOM     17  C   UNL     1      -8.125  -8.203   6.992  1.00  0.00    -0.000 C 
BRANCH  17  18
ATOM     18  C   UNL     1      -7.260  -7.315   6.086  1.00  0.00    -0.000 C 
BRANCH  18  19
ATOM     19  C   UNL     1      -5.834  -7.860   5.916  1.00  0.00    -0.003 C 
ATOM     20  C   UNL     1      -5.743  -9.366   6.161  1.00  0.00     0.004 C 
ENDBRANCH  18  19
ENDBRANCH  17  18
ENDBRANCH  16  17
ENDBRANCH  15  16
ENDBRANCH  14  15
ENDBRANCH  13  14
ENDBRANCH  12  13
ENDBRANCH   1  12
TORSDOF 16
ENDMDL
MODEL 7
REMARK VINA RESULT:    -3.552      2.751      6.053
REMARK INTER + INTRA:          -9.581
REMARK INTER:                  -6.544
REMARK INTRA:                  -3.037
REMARK UNBOUND:                -2.707
REMARK SMILES CCCCCCCCCCCCCCCCCC(=O)[O-]
REMARK SMILES IDX 10 1 11 2 12 3 13 4 14 5 15 6 16 7 17 8 18 9 19 10 20 11
REMARK SMILES IDX 9 12 8 13 7 14 6 15 5 16 4 17 3 18 2 19 1 20
REMARK H PARENT
REMARK Flexibility Score: inf
ROOT
ATOM      1  C   UNL     1       2.309   8.301  -5.706  1.00  0.00     0.000 C 
ENDROOT
BRANCH   1   2
ATOM      2  C   UNL     1       1.136   9.015  -6.401  1.00  0.00     0.000 C 
BRANCH   2   3
ATOM      3  C   UNL     1       1.575   9.949  -7.548  1.00  0.00     0.000 C 
BRANCH   3   4
ATOM      4  C   UNL     1       1.168   9.403  -8.928  1.00  0.00     0.000 C 
BRANCH   4   5
ATOM      5  C   UNL     1       0.269   8.160  -8.832  1.00  0.00     0.000 C 
BRANCH   5   6
ATOM      6  C   UNL     1       0.760   7.011  -9.733  1.00  0.00     0.000 C 
BRANCH   6   7
ATOM      7  C   UNL     1       0.619   5.632  -9.061  1.00  0.00     0.006 C 
BRANCH   7   8
ATOM      8  C   UNL     1       0.040   5.685  -7.638  1.00  0.00     0.053 C 
BRANCH   8   9
ATOM      9  C   UNL     1       0.608   4.610  -6.764  1.00  0.00     0.041 C 
ATOM     10  O   UNL     1       0.095   3.460  -6.757  1.00  0.00    -0.550 OA
ATOM     11  O   UNL     1       1.729   4.868  -5.984  1.00  0.00    -0.550 OA
ENDBRANCH   8   9
ENDBRANCH   7   8
ENDBRANCH   6   7
ENDBRANCH   5   6
ENDBRANCH   4   5
ENDBRANCH   3   4
ENDBRANCH   2   3
ENDBRANCH   1   2
BRANCH   1  12
ATOM     12  C   UNL     1       3.680   8.801  -6.183  1.00  0.00     0.000 C 
BRANCH  12  13
ATOM     13  C   UNL     1       4.535   7.646  -6.714  1.00  0.00    -0.000 C 
BRANCH  13  14
ATOM     14  C   UNL     1       3.940   7.070  -8.008  1.00  0.00    -0.000 C 
BRANCH  14  15
ATOM     15  C   UNL     1       4.809   7.386  -9.243  1.00  0.00    -0.000 C 
BRANCH  15  16
ATOM     16  C   UNL     1       4.448   8.716  -9.925  1.00  0.00    -0.000 C 
BRANCH  16  17
ATOM     17  C   UNL     1       5.391   9.863  -9.537  1.00  0.00    -0.000 C 
BRANCH  17  18
ATOM     18  C   UNL     1       6.802   9.337  -9.237  1.00  0.00    -0.000 C 
BRANCH  18  19
ATOM     19  C   UNL     1       7.310   9.768  -7.853  1.00  0.00    -0.003 C 
ATOM     20  C   UNL     1       8.250   8.741  -7.223  1.00  0.00     0.004 C 
ENDBRANCH  18  19
ENDBRANCH  17  18
ENDBRANCH  16  17
ENDBRANCH  15  16
ENDBRANCH  14  15
ENDBRANCH  13  14
ENDBRANCH  12  13
ENDBRANCH   1  12
TORSDOF 16
ENDMDL
MODEL 8
REMARK VINA RESULT:    -3.491      1.025      1.819
REMARK INTER + INTRA:          -9.464
REMARK INTER:                  -7.152
REMARK INTRA:                  -2.312
REMARK UNBOUND:                -2.707
REMARK SMILES CCCCCCCCCCCCCCCCCC(=O)[O-]
REMARK SMILES IDX 10 1 11 2 12 3 13 4 14 5 15 6 16 7 17 8 18 9 19 10 20 11
REMARK SMILES IDX 9 12 8 13 7 14 6 15 5 16 4 17 3 18 2 19 1 20
REMARK H PARENT
REMARK Flexibility Score: inf
ROOT
ATOM      1  C   UNL     1       3.419   8.155  -5.383  1.00  0.00     0.000 C 
ENDROOT
BRANCH   1   2
ATOM      2  C   UNL     1       4.589   7.944  -6.360  1.00  0.00     0.000 C 
BRANCH   2   3
ATOM      3  C   UNL     1       4.215   7.097  -7.595  1.00  0.00     0.000 C 
BRANCH   3   4
ATOM      4  C   UNL     1       4.468   7.852  -8.912  1.00  0.00     0.000 C 
BRANCH   4   5
ATOM      5  C   UNL     1       5.964   8.041  -9.210  1.00  0.00     0.000 C 
BRANCH   5   6
ATOM      6  C   UNL     1       6.398   9.515  -9.117  1.00  0.00     0.000 C 
BRANCH   6   7
ATOM      7  C   UNL     1       7.448   9.754  -8.016  1.00  0.00     0.006 C 
BRANCH   7   8
ATOM      8  C   UNL     1       8.392   8.563  -7.782  1.00  0.00     0.053 C 
BRANCH   8   9
ATOM      9  C   UNL     1       9.013   8.603  -6.420  1.00  0.00     0.041 C 
ATOM     10  O   UNL     1       9.382   9.699  -5.922  1.00  0.00    -0.550 OA
ATOM     11  O   UNL     1       9.152   7.432  -5.685  1.00  0.00    -0.550 OA
ENDBRANCH   8   9
ENDBRANCH   7   8
ENDBRANCH   6   7
ENDBRANCH   5   6
ENDBRANCH   4   5
ENDBRANCH   3   4
ENDBRANCH   2   3
ENDBRANCH   1   2
BRANCH   1  12
ATOM     12  C   UNL     1       3.017   9.630  -5.243  1.00  0.00     0.000 C 
BRANCH  12  13
ATOM     13  C   UNL     1       1.541   9.837  -5.598  1.00  0.00    -0.000 C 
BRANCH  13  14
ATOM     14  C   UNL     1       1.039   8.727  -6.534  1.00  0.00    -0.000 C 
BRANCH  14  15
ATOM     15  C   UNL     1       1.085   9.147  -8.018  1.00  0.00    -0.000 C 
BRANCH  15  16
ATOM     16  C   UNL     1       0.827   7.987  -8.993  1.00  0.00    -0.000 C 
BRANCH  16  17
ATOM     17  C   UNL     1      -0.028   6.869  -8.381  1.00  0.00    -0.000 C 
BRANCH  17  18
ATOM     18  C   UNL     1       0.741   5.541  -8.352  1.00  0.00    -0.000 C 
BRANCH  18  19
ATOM     19  C   UNL     1       0.499   4.748  -7.059  1.00  0.00    -0.003 C 
ATOM     20  C   UNL     1       1.526   5.065  -5.971  1.00  0.00     0.004 C 
ENDBRANCH  18  19
ENDBRANCH  17  18
ENDBRANCH  16  17
ENDBRANCH  15  16
ENDBRANCH  14  15
ENDBRANCH  13  14
ENDBRANCH  12  13
ENDBRANCH   1  12
TORSDOF 16
ENDMDL
MODEL 9
REMARK VINA RESULT:    -3.418     20.008     22.421
REMARK INTER + INTRA:          -9.322
REMARK INTER:                  -6.922
REMARK INTRA:                  -2.400
REMARK UNBOUND:                -2.707
REMARK SMILES CCCCCCCCCCCCCCCCCC(=O)[O-]
REMARK SMILES IDX 10 1 11 2 12 3 13 4 14 5 15 6 16 7 17 8 18 9 19 10 20 11
REMARK SMILES IDX 9 12 8 13 7 14 6 15 5 16 4 17 3 18 2 19 1 20
REMARK H PARENT
REMARK Flexibility Score: inf
ROOT
ATOM      1  C   UNL     1      -4.876  -5.247   4.876  1.00  0.00     0.000 C 
ENDROOT
BRANCH   1   2
ATOM      2  C   UNL     1      -4.236  -4.540   6.083  1.00  0.00     0.000 C 
BRANCH   2   3
ATOM      3  C   UNL     1      -5.129  -3.444   6.702  1.00  0.00     0.000 C 
BRANCH   3   4
ATOM      4  C   UNL     1      -5.374  -3.675   8.203  1.00  0.00     0.000 C 
BRANCH   4   5
ATOM      5  C   UNL     1      -6.868  -3.682   8.567  1.00  0.00     0.000 C 
BRANCH   5   6
ATOM      6  C   UNL     1      -7.737  -3.014   7.485  1.00  0.00     0.000 C 
BRANCH   6   7
ATOM      7  C   UNL     1      -9.151  -2.671   7.992  1.00  0.00     0.006 C 
BRANCH   7   8
ATOM      8  C   UNL     1      -9.957  -1.775   7.037  1.00  0.00     0.053 C 
BRANCH   8   9
ATOM      9  C   UNL     1      -9.458  -0.363   7.043  1.00  0.00     0.041 C 
ATOM     10  O   UNL     1      -9.422   0.302   5.974  1.00  0.00    -0.550 OA
ATOM     11  O   UNL     1      -9.069   0.232   8.236  1.00  0.00    -0.550 OA
ENDBRANCH   8   9
ENDBRANCH   7   8
ENDBRANCH   6   7
ENDBRANCH   5   6
ENDBRANCH   4   5
ENDBRANCH   3   4
ENDBRANCH   2   3
ENDBRANCH   1   2
BRANCH   1  12
ATOM     12  C   UNL     1      -5.996  -6.218   5.278  1.00  0.00     0.000 C 
BRANCH  12  13
ATOM     13  C   UNL     1      -5.547  -7.139   6.417  1.00  0.00    -0.000 C 
BRANCH  13  14
ATOM     14  C   UNL     1      -5.699  -8.616   6.022  1.00  0.00    -0.000 C 
BRANCH  14  15
ATOM     15  C   UNL     1      -6.656  -9.377   6.963  1.00  0.00    -0.000 C 
BRANCH  15  16
ATOM     16  C   UNL     1      -7.958  -9.830   6.280  1.00  0.00    -0.000 C 
BRANCH  16  17
ATOM     17  C   UNL     1      -8.989  -8.701   6.152  1.00  0.00    -0.000 C 
BRANCH  17  18
ATOM     18  C   UNL     1      -9.178  -7.974   7.491  1.00  0.00    -0.000 C 
BRANCH  18  19
ATOM     19  C   UNL     1      -9.115  -6.446   7.346  1.00  0.00    -0.003 C 
ATOM     20  C   UNL     1      -9.547  -5.967   5.959  1.00  0.00     0.004 C 
ENDBRANCH  18  19
ENDBRANCH  17  18
ENDBRANCH  16  17
ENDBRANCH  15  16
ENDBRANCH  14  15
ENDBRANCH  13  14
ENDBRANCH  12  13
ENDBRANCH   1  12
TORSDOF 16
ENDMDL
