MODEL 1
REMARK VINA RESULT:    -5.365      0.000      0.000
REMARK INTER + INTRA:         -15.146
REMARK INTER:                 -13.520
REMARK INTRA:                  -1.626
REMARK UNBOUND:                -1.626
REMARK SMILES CCCCCCCCCCCCCCCCCCCCCCCCCCCC(=O)[O-]
REMARK SMILES IDX 15 1 16 2 17 3 18 4 19 5 20 6 21 7 22 8 23 9 24 10 25 11
REMARK SMILES IDX 26 12 27 13 28 14 29 15 30 16 14 17 13 18 12 19 11 20 10 21
REMARK SMILES IDX 9 22 8 23 7 24 6 25 5 26 4 27 3 28 2 29 1 30
REMARK H PARENT
REMARK Flexibility Score: inf
ROOT
ATOM      1  C   UNL     1      55.300 143.421 -23.928  1.00  0.00     0.000 C 
ENDROOT
BRANCH   1   2
ATOM      2  C   UNL     1      55.034 141.905 -24.017  1.00  0.00     0.000 C 
BRANCH   2   3
ATOM      3  C   UNL     1      56.036 141.015 -23.252  1.00  0.00     0.000 C 
BRANCH   3   4
ATOM      4  C   UNL     1      57.401 141.667 -22.966  1.00  0.00     0.000 C 
BRANCH   4   5
ATOM      5  C   UNL     1      58.310 140.785 -22.094  1.00  0.00     0.000 C 
BRANCH   5   6
ATOM      6  C   UNL     1      59.242 141.602 -21.176  1.00  0.00     0.000 C 
BRANCH   6   7
ATOM      7  C   UNL     1      58.588 142.811 -20.479  1.00  0.00     0.000 C 
BRANCH   7   8
ATOM      8  C   UNL     1      59.230 144.175 -20.790  1.00  0.00     0.000 C 
BRANCH   8   9
ATOM      9  C   UNL     1      60.669 144.332 -20.253  1.00  0.00     0.000 C 
BRANCH   9  10
ATOM     10  C   UNL     1      60.787 143.969 -18.762  1.00  0.00     0.000 C 
BRANCH  10  11
ATOM     11  C   UNL     1      61.033 145.195 -17.862  1.00  0.00     0.000 C 
BRANCH  11  12
ATOM     12  C   UNL     1      59.947 146.290 -17.927  1.00  0.00     0.006 C 
BRANCH  12  13
ATOM     13  C   UNL     1      60.230 147.532 -17.065  1.00  0.00     0.053 C 
BRANCH  13  14
ATOM     14  C   UNL     1      59.759 148.792 -17.722  1.00  0.00     0.041 C 
ATOM     15  O   UNL     1      60.177 149.105 -18.868  1.00  0.00    -0.550 OA
ATOM     16  O   UNL     1      58.887 149.642 -17.052  1.00  0.00    -0.550 OA
ENDBRANCH  13  14
ENDBRANCH  12  13
ENDBRANCH  11  12
ENDBRANCH  10  11
ENDBRANCH   9  10
ENDBRANCH   8   9
ENDBRANCH   7   8
ENDBRANCH   6   7
ENDBRANCH   5   6
ENDBRANCH   4   5
ENDBRANCH   3   4
ENDBRANCH   2   3
ENDBRANCH   1   2
BRANCH   1  17
ATOM     17  C   UNL     1      55.406 144.142 -25.285  1.00  0.00     0.000 C 
BRANCH  17  18
ATOM     18  C   UNL     1      56.114 143.295 -26.357  1.00  0.00     0.000 C 
BRANCH  18  19
ATOM     19  C   UNL     1      56.576 144.135 -27.559  1.00  0.00     0.000 C 
BRANCH  19  20
ATOM     20  C   UNL     1      55.745 143.848 -28.824  1.00  0.00     0.000 C 
BRANCH  20  21
ATOM     21  C   UNL     1      56.614 143.687 -30.080  1.00  0.00     0.000 C 
BRANCH  21  22
ATOM     22  C   UNL     1      58.069 144.142 -29.863  1.00  0.00    -0.000 C 
BRANCH  22  23
ATOM     23  C   UNL     1      59.020 143.598 -30.949  1.00  0.00    -0.000 C 
BRANCH  23  24
ATOM     24  C   UNL     1      58.917 144.339 -32.293  1.00  0.00    -0.000 C 
BRANCH  24  25
ATOM     25  C   UNL     1      60.022 143.945 -33.281  1.00  0.00    -0.000 C 
BRANCH  25  26
ATOM     26  C   UNL     1      60.108 144.946 -34.444  1.00  0.00    -0.000 C 
BRANCH  26  27
ATOM     27  C   UNL     1      61.404 145.772 -34.422  1.00  0.00    -0.000 C 
BRANCH  27  28
ATOM     28  C   UNL     1      61.242 147.243 -34.850  1.00  0.00    -0.000 C 
BRANCH  28  29
ATOM     29  C   UNL     1      60.077 147.970 -34.147  1.00  0.00    -0.003 C 
ATOM     30  C   UNL     1      60.170 147.887 -32.623  1.00  0.00     0.004 C 
ENDBRANCH  28  29
ENDBRANCH  27  28
ENDBRANCH  26  27
ENDBRANCH  25  26
ENDBRANCH  24  25
ENDBRANCH  23  24
ENDBRANCH  22  23
ENDBRANCH  21  22
ENDBRANCH  20  21
ENDBRANCH  19  20
ENDBRANCH  18  19
ENDBRANCH  17  18
ENDBRANCH   1  17
TORSDOF 26
ENDMDL
MODEL 2
REMARK VINA RESULT:    -5.321      2.581      3.011
REMARK INTER + INTRA:         -15.035
REMARK INTER:                 -12.370
REMARK INTRA:                  -2.665
REMARK UNBOUND:                -1.626
REMARK SMILES CCCCCCCCCCCCCCCCCCCCCCCCCCCC(=O)[O-]
REMARK SMILES IDX 15 1 16 2 17 3 18 4 19 5 20 6 21 7 22 8 23 9 24 10 25 11
REMARK SMILES IDX 26 12 27 13 28 14 29 15 30 16 14 17 13 18 12 19 11 20 10 21
REMARK SMILES IDX 9 22 8 23 7 24 6 25 5 26 4 27 3 28 2 29 1 30
REMARK H PARENT
REMARK Flexibility Score: inf
ROOT
ATOM      1  C   UNL     1      54.906 142.334 -23.967  1.00  0.00     0.000 C 
ENDROOT
BRANCH   1   2
ATOM      2  C   UNL     1      56.027 141.336 -24.319  1.00  0.00     0.000 C 
BRANCH   2   3
ATOM      3  C   UNL     1      56.360 140.304 -23.221  1.00  0.00     0.000 C 
BRANCH   3   4
ATOM      4  C   UNL     1      57.330 140.799 -22.133  1.00  0.00     0.000 C 
BRANCH   4   5
ATOM      5  C   UNL     1      58.560 141.517 -22.714  1.00  0.00     0.000 C 
BRANCH   5   6
ATOM      6  C   UNL     1      58.464 143.053 -22.618  1.00  0.00     0.000 C 
BRANCH   6   7
ATOM      7  C   UNL     1      59.812 143.799 -22.615  1.00  0.00     0.000 C 
BRANCH   7   8
ATOM      8  C   UNL     1      61.056 142.912 -22.808  1.00  0.00     0.000 C 
BRANCH   8   9
ATOM      9  C   UNL     1      61.982 142.851 -21.574  1.00  0.00     0.000 C 
BRANCH   9  10
ATOM     10  C   UNL     1      61.202 142.736 -20.253  1.00  0.00     0.000 C 
BRANCH  10  11
ATOM     11  C   UNL     1      60.866 141.281 -19.875  1.00  0.00     0.000 C 
BRANCH  11  12
ATOM     12  C   UNL     1      59.732 141.113 -18.842  1.00  0.00     0.006 C 
BRANCH  12  13
ATOM     13  C   UNL     1      58.692 142.246 -18.836  1.00  0.00     0.053 C 
BRANCH  13  14
ATOM     14  C   UNL     1      58.345 142.684 -17.447  1.00  0.00     0.041 C 
ATOM     15  O   UNL     1      59.189 143.306 -16.748  1.00  0.00    -0.550 OA
ATOM     16  O   UNL     1      57.103 142.372 -16.909  1.00  0.00    -0.550 OA
ENDBRANCH  13  14
ENDBRANCH  12  13
ENDBRANCH  11  12
ENDBRANCH  10  11
ENDBRANCH   9  10
ENDBRANCH   8   9
ENDBRANCH   7   8
ENDBRANCH   6   7
ENDBRANCH   5   6
ENDBRANCH   4   5
ENDBRANCH   3   4
ENDBRANCH   2   3
ENDBRANCH   1   2
BRANCH   1  17
ATOM     17  C   UNL     1      55.228 143.808 -24.273  1.00  0.00     0.000 C 
BRANCH  17  18
ATOM     18  C   UNL     1      56.201 143.972 -25.454  1.00  0.00     0.000 C 
BRANCH  18  19
ATOM     19  C   UNL     1      55.473 144.219 -26.786  1.00  0.00     0.000 C 
BRANCH  19  20
ATOM     20  C   UNL     1      56.447 144.296 -27.977  1.00  0.00     0.000 C 
BRANCH  20  21
ATOM     21  C   UNL     1      55.964 143.487 -29.190  1.00  0.00     0.000 C 
BRANCH  21  22
ATOM     22  C   UNL     1      56.768 143.789 -30.468  1.00  0.00    -0.000 C 
BRANCH  22  23
ATOM     23  C   UNL     1      58.266 144.016 -30.176  1.00  0.00    -0.000 C 
BRANCH  23  24
ATOM     24  C   UNL     1      59.200 143.485 -31.276  1.00  0.00    -0.000 C 
BRANCH  24  25
ATOM     25  C   UNL     1      59.287 144.417 -32.491  1.00  0.00    -0.000 C 
BRANCH  25  26
ATOM     26  C   UNL     1      60.175 143.814 -33.591  1.00  0.00    -0.000 C 
BRANCH  26  27
ATOM     27  C   UNL     1      60.837 144.883 -34.475  1.00  0.00    -0.000 C 
BRANCH  27  28
ATOM     28  C   UNL     1      61.505 146.037 -33.704  1.00  0.00    -0.000 C 
BRANCH  28  29
ATOM     29  C   UNL     1      60.921 147.427 -34.035  1.00  0.00    -0.003 C 
ATOM     30  C   UNL     1      59.982 147.942 -32.944  1.00  0.00     0.004 C 
ENDBRANCH  28  29
ENDBRANCH  27  28
ENDBRANCH  26  27
ENDBRANCH  25  26
ENDBRANCH  24  25
ENDBRANCH  23  24
ENDBRANCH  22  23
ENDBRANCH  21  22
ENDBRANCH  20  21
ENDBRANCH  19  20
ENDBRANCH  18  19
ENDBRANCH  17  18
ENDBRANCH   1  17
TORSDOF 26
ENDMDL
MODEL 3
REMARK VINA RESULT:    -5.258      5.537      6.731
REMARK INTER + INTRA:         -14.876
REMARK INTER:                 -13.055
REMARK INTRA:                  -1.821
REMARK UNBOUND:                -1.626
REMARK SMILES CCCCCCCCCCCCCCCCCCCCCCCCCCCC(=O)[O-]
REMARK SMILES IDX 15 1 16 2 17 3 18 4 19 5 20 6 21 7 22 8 23 9 24 10 25 11
REMARK SMILES IDX 26 12 27 13 28 14 29 15 30 16 14 17 13 18 12 19 11 20 10 21
REMARK SMILES IDX 9 22 8 23 7 24 6 25 5 26 4 27 3 28 2 29 1 30
REMARK H PARENT
REMARK Flexibility Score: inf
ROOT
ATOM      1  C   UNL     1      55.866 142.764 -25.494  1.00  0.00     0.000 C 
ENDROOT
BRANCH   1   2
ATOM      2  C   UNL     1      55.113 141.568 -26.111  1.00  0.00     0.000 C 
BRANCH   2   3
ATOM      3  C   UNL     1      55.597 140.177 -25.652  1.00  0.00     0.000 C 
BRANCH   3   4
ATOM      4  C   UNL     1      54.490 139.236 -25.142  1.00  0.00     0.000 C 
BRANCH   4   5
ATOM      5  C   UNL     1      54.390 139.213 -23.608  1.00  0.00     0.000 C 
BRANCH   5   6
ATOM      6  C   UNL     1      52.985 139.578 -23.088  1.00  0.00     0.000 C 
BRANCH   6   7
ATOM      7  C   UNL     1      52.438 140.937 -23.565  1.00  0.00     0.000 C 
BRANCH   7   8
ATOM      8  C   UNL     1      51.403 141.593 -22.633  1.00  0.00     0.000 C 
BRANCH   8   9
ATOM      9  C   UNL     1      49.944 141.181 -22.924  1.00  0.00     0.000 C 
BRANCH   9  10
ATOM     10  C   UNL     1      49.256 140.539 -21.706  1.00  0.00     0.000 C 
BRANCH  10  11
ATOM     11  C   UNL     1      49.841 141.014 -20.363  1.00  0.00     0.000 C 
BRANCH  11  12
ATOM     12  C   UNL     1      49.740 140.000 -19.204  1.00  0.00     0.006 C 
BRANCH  12  13
ATOM     13  C   UNL     1      51.063 139.730 -18.467  1.00  0.00     0.053 C 
BRANCH  13  14
ATOM     14  C   UNL     1      51.476 140.886 -17.610  1.00  0.00     0.041 C 
ATOM     15  O   UNL     1      52.607 140.894 -17.056  1.00  0.00    -0.550 OA
ATOM     16  O   UNL     1      50.597 141.940 -17.392  1.00  0.00    -0.550 OA
ENDBRANCH  13  14
ENDBRANCH  12  13
ENDBRANCH  11  12
ENDBRANCH  10  11
ENDBRANCH   9  10
ENDBRANCH   8   9
ENDBRANCH   7   8
ENDBRANCH   6   7
ENDBRANCH   5   6
ENDBRANCH   4   5
ENDBRANCH   3   4
ENDBRANCH   2   3
ENDBRANCH   1   2
BRANCH   1  17
ATOM     17  C   UNL     1      55.725 144.089 -26.266  1.00  0.00     0.000 C 
BRANCH  17  18
ATOM     18  C   UNL     1      56.472 144.078 -27.612  1.00  0.00     0.000 C 
BRANCH  18  19
ATOM     19  C   UNL     1      55.539 143.786 -28.799  1.00  0.00     0.000 C 
BRANCH  19  20
ATOM     20  C   UNL     1      56.297 143.746 -30.139  1.00  0.00     0.000 C 
BRANCH  20  21
ATOM     21  C   UNL     1      57.791 144.067 -29.985  1.00  0.00     0.000 C 
BRANCH  21  22
ATOM     22  C   UNL     1      58.532 144.127 -31.333  1.00  0.00    -0.000 C 
BRANCH  22  23
ATOM     23  C   UNL     1      59.684 143.105 -31.414  1.00  0.00    -0.000 C 
BRANCH  23  24
ATOM     24  C   UNL     1      60.191 142.851 -32.844  1.00  0.00    -0.000 C 
BRANCH  24  25
ATOM     25  C   UNL     1      59.905 144.019 -33.797  1.00  0.00    -0.000 C 
BRANCH  25  26
ATOM     26  C   UNL     1      61.199 144.532 -34.448  1.00  0.00    -0.000 C 
BRANCH  26  27
ATOM     27  C   UNL     1      61.117 146.015 -34.847  1.00  0.00    -0.000 C 
BRANCH  27  28
ATOM     28  C   UNL     1      59.699 146.617 -34.811  1.00  0.00    -0.000 C 
BRANCH  28  29
ATOM     29  C   UNL     1      59.533 147.754 -33.781  1.00  0.00    -0.003 C 
ATOM     30  C   UNL     1      60.343 147.513 -32.507  1.00  0.00     0.004 C 
ENDBRANCH  28  29
ENDBRANCH  27  28
ENDBRANCH  26  27
ENDBRANCH  25  26
ENDBRANCH  24  25
ENDBRANCH  23  24
ENDBRANCH  22  23
ENDBRANCH  21  22
ENDBRANCH  20  21
ENDBRANCH  19  20
ENDBRANCH  18  19
ENDBRANCH  17  18
ENDBRANCH   1  17
TORSDOF 26
ENDMDL
MODEL 4
REMARK VINA RESULT:    -5.157      1.835      2.236
REMARK INTER + INTRA:         -14.622
REMARK INTER:                 -12.491
REMARK INTRA:                  -2.131
REMARK UNBOUND:                -1.626
REMARK SMILES CCCCCCCCCCCCCCCCCCCCCCCCCCCC(=O)[O-]
REMARK SMILES IDX 15 1 16 2 17 3 18 4 19 5 20 6 21 7 22 8 23 9 24 10 25 11
REMARK SMILES IDX 26 12 27 13 28 14 29 15 30 16 14 17 13 18 12 19 11 20 10 21
REMARK SMILES IDX 9 22 8 23 7 24 6 25 5 26 4 27 3 28 2 29 1 30
REMARK H PARENT
REMARK Flexibility Score: inf
ROOT
ATOM      1  C   UNL     1      54.668 142.532 -23.877  1.00  0.00     0.000 C 
ENDROOT
BRANCH   1   2
ATOM      2  C   UNL     1      55.259 141.311 -24.609  1.00  0.00     0.000 C 
BRANCH   2   3
ATOM      3  C   UNL     1      55.386 140.030 -23.759  1.00  0.00     0.000 C 
BRANCH   3   4
ATOM      4  C   UNL     1      56.537 140.038 -22.736  1.00  0.00     0.000 C 
BRANCH   4   5
ATOM      5  C   UNL     1      57.656 141.025 -23.107  1.00  0.00     0.000 C 
BRANCH   5   6
ATOM      6  C   UNL     1      57.972 142.030 -21.981  1.00  0.00     0.000 C 
BRANCH   6   7
ATOM      7  C   UNL     1      58.380 143.440 -22.451  1.00  0.00     0.000 C 
BRANCH   7   8
ATOM      8  C   UNL     1      59.305 144.211 -21.492  1.00  0.00     0.000 C 
BRANCH   8   9
ATOM      9  C   UNL     1      60.753 143.678 -21.448  1.00  0.00     0.000 C 
BRANCH   9  10
ATOM     10  C   UNL     1      61.381 143.782 -20.047  1.00  0.00     0.000 C 
BRANCH  10  11
ATOM     11  C   UNL     1      62.887 144.102 -20.084  1.00  0.00     0.000 C 
BRANCH  11  12
ATOM     12  C   UNL     1      63.312 145.160 -21.125  1.00  0.00     0.006 C 
BRANCH  12  13
ATOM     13  C   UNL     1      63.306 146.609 -20.610  1.00  0.00     0.053 C 
BRANCH  13  14
ATOM     14  C   UNL     1      62.071 147.348 -21.021  1.00  0.00     0.041 C 
ATOM     15  O   UNL     1      61.482 147.052 -22.095  1.00  0.00    -0.550 OA
ATOM     16  O   UNL     1      61.591 148.391 -20.238  1.00  0.00    -0.550 OA
ENDBRANCH  13  14
ENDBRANCH  12  13
ENDBRANCH  11  12
ENDBRANCH  10  11
ENDBRANCH   9  10
ENDBRANCH   8   9
ENDBRANCH   7   8
ENDBRANCH   6   7
ENDBRANCH   5   6
ENDBRANCH   4   5
ENDBRANCH   3   4
ENDBRANCH   2   3
ENDBRANCH   1   2
BRANCH   1  17
ATOM     17  C   UNL     1      55.274 143.889 -24.280  1.00  0.00     0.000 C 
BRANCH  17  18
ATOM     18  C   UNL     1      56.227 143.782 -25.484  1.00  0.00     0.000 C 
BRANCH  18  19
ATOM     19  C   UNL     1      55.581 144.271 -26.790  1.00  0.00     0.000 C 
BRANCH  19  20
ATOM     20  C   UNL     1      56.550 144.193 -27.985  1.00  0.00     0.000 C 
BRANCH  20  21
ATOM     21  C   UNL     1      55.863 143.725 -29.276  1.00  0.00     0.000 C 
BRANCH  21  22
ATOM     22  C   UNL     1      56.795 143.773 -30.500  1.00  0.00    -0.000 C 
BRANCH  22  23
ATOM     23  C   UNL     1      58.248 144.117 -30.115  1.00  0.00    -0.000 C 
BRANCH  23  24
ATOM     24  C   UNL     1      59.291 143.656 -31.148  1.00  0.00    -0.000 C 
BRANCH  24  25
ATOM     25  C   UNL     1      59.221 144.441 -32.464  1.00  0.00    -0.000 C 
BRANCH  25  26
ATOM     26  C   UNL     1      60.065 143.767 -33.557  1.00  0.00    -0.000 C 
BRANCH  26  27
ATOM     27  C   UNL     1      61.042 144.739 -34.237  1.00  0.00    -0.000 C 
BRANCH  27  28
ATOM     28  C   UNL     1      61.268 146.063 -33.484  1.00  0.00    -0.000 C 
BRANCH  28  29
ATOM     29  C   UNL     1      60.511 147.262 -34.094  1.00  0.00    -0.003 C 
ATOM     30  C   UNL     1      59.867 148.150 -33.029  1.00  0.00     0.004 C 
ENDBRANCH  28  29
ENDBRANCH  27  28
ENDBRANCH  26  27
ENDBRANCH  25  26
ENDBRANCH  24  25
ENDBRANCH  23  24
ENDBRANCH  22  23
ENDBRANCH  21  22
ENDBRANCH  20  21
ENDBRANCH  19  20
ENDBRANCH  18  19
ENDBRANCH  17  18
ENDBRANCH   1  17
TORSDOF 26
ENDMDL
MODEL 5
REMARK VINA RESULT:    -5.153      3.991     11.939
REMARK INTER + INTRA:         -14.612
REMARK INTER:                 -12.780
REMARK INTRA:                  -1.831
REMARK UNBOUND:                -1.626
REMARK SMILES CCCCCCCCCCCCCCCCCCCCCCCCCCCC(=O)[O-]
REMARK SMILES IDX 15 1 16 2 17 3 18 4 19 5 20 6 21 7 22 8 23 9 24 10 25 11
REMARK SMILES IDX 26 12 27 13 28 14 29 15 30 16 14 17 13 18 12 19 11 20 10 21
REMARK SMILES IDX 9 22 8 23 7 24 6 25 5 26 4 27 3 28 2 29 1 30
REMARK H PARENT
REMARK Flexibility Score: inf
ROOT
ATOM      1  C   UNL     1      54.653 142.814 -23.830  1.00  0.00     0.000 C 
ENDROOT
BRANCH   1   2
ATOM      2  C   UNL     1      55.179 144.119 -24.461  1.00  0.00     0.000 C 
BRANCH   2   3
ATOM      3  C   UNL     1      55.897 143.953 -25.817  1.00  0.00     0.000 C 
BRANCH   3   4
ATOM      4  C   UNL     1      55.072 144.369 -27.048  1.00  0.00     0.000 C 
BRANCH   4   5
ATOM      5  C   UNL     1      55.528 143.665 -28.336  1.00  0.00     0.000 C 
BRANCH   5   6
ATOM      6  C   UNL     1      56.941 144.088 -28.787  1.00  0.00     0.000 C 
BRANCH   6   7
ATOM      7  C   UNL     1      57.306 143.727 -30.240  1.00  0.00     0.000 C 
BRANCH   7   8
ATOM      8  C   UNL     1      58.747 144.066 -30.661  1.00  0.00     0.000 C 
BRANCH   8   9
ATOM      9  C   UNL     1      58.898 144.431 -32.153  1.00  0.00     0.000 C 
BRANCH   9  10
ATOM     10  C   UNL     1      59.976 143.591 -32.862  1.00  0.00     0.000 C 
BRANCH  10  11
ATOM     11  C   UNL     1      60.476 144.234 -34.170  1.00  0.00     0.000 C 
BRANCH  11  12
ATOM     12  C   UNL     1      59.907 145.635 -34.476  1.00  0.00     0.006 C 
BRANCH  12  13
ATOM     13  C   UNL     1      60.964 146.743 -34.618  1.00  0.00     0.053 C 
BRANCH  13  14
ATOM     14  C   UNL     1      60.466 148.063 -34.118  1.00  0.00     0.041 C 
ATOM     15  O   UNL     1      60.755 149.125 -34.731  1.00  0.00    -0.550 OA
ATOM     16  O   UNL     1      59.712 148.126 -32.952  1.00  0.00    -0.550 OA
ENDBRANCH  13  14
ENDBRANCH  12  13
ENDBRANCH  11  12
ENDBRANCH  10  11
ENDBRANCH   9  10
ENDBRANCH   8   9
ENDBRANCH   7   8
ENDBRANCH   6   7
ENDBRANCH   5   6
ENDBRANCH   4   5
ENDBRANCH   3   4
ENDBRANCH   2   3
ENDBRANCH   1   2
BRANCH   1  17
ATOM     17  C   UNL     1      54.848 141.552 -24.691  1.00  0.00     0.000 C 
BRANCH  17  18
ATOM     18  C   UNL     1      55.768 140.513 -24.027  1.00  0.00     0.000 C 
BRANCH  18  19
ATOM     19  C   UNL     1      57.102 141.121 -23.561  1.00  0.00     0.000 C 
BRANCH  19  20
ATOM     20  C   UNL     1      57.479 140.676 -22.136  1.00  0.00     0.000 C 
BRANCH  20  21
ATOM     21  C   UNL     1      58.016 141.831 -21.277  1.00  0.00     0.000 C 
BRANCH  21  22
ATOM     22  C   UNL     1      58.133 143.152 -22.058  1.00  0.00    -0.000 C 
BRANCH  22  23
ATOM     23  C   UNL     1      59.519 143.809 -21.890  1.00  0.00    -0.000 C 
BRANCH  23  24
ATOM     24  C   UNL     1      59.644 144.684 -20.631  1.00  0.00    -0.000 C 
BRANCH  24  25
ATOM     25  C   UNL     1      60.958 144.459 -19.872  1.00  0.00    -0.000 C 
BRANCH  25  26
ATOM     26  C   UNL     1      61.811 145.737 -19.851  1.00  0.00    -0.000 C 
BRANCH  26  27
ATOM     27  C   UNL     1      61.204 146.844 -18.974  1.00  0.00    -0.000 C 
BRANCH  27  28
ATOM     28  C   UNL     1      60.738 146.383 -17.580  1.00  0.00    -0.000 C 
BRANCH  28  29
ATOM     29  C   UNL     1      60.044 147.489 -16.759  1.00  0.00    -0.003 C 
ATOM     30  C   UNL     1      59.716 148.723 -17.599  1.00  0.00     0.004 C 
ENDBRANCH  28  29
ENDBRANCH  27  28
ENDBRANCH  26  27
ENDBRANCH  25  26
ENDBRANCH  24  25
ENDBRANCH  23  24
ENDBRANCH  22  23
ENDBRANCH  21  22
ENDBRANCH  20  21
ENDBRANCH  19  20
ENDBRANCH  18  19
ENDBRANCH  17  18
ENDBRANCH   1  17
TORSDOF 26
ENDMDL
MODEL 6
REMARK VINA RESULT:    -5.135     12.747     14.837
REMARK INTER + INTRA:         -14.565
REMARK INTER:                  -9.796
REMARK INTRA:                  -4.769
REMARK UNBOUND:                -1.626
REMARK SMILES CCCCCCCCCCCCCCCCCCCCCCCCCCCC(=O)[O-]
REMARK SMILES IDX 15 1 16 2 17 3 18 4 19 5 20 6 21 7 22 8 23 9 24 10 25 11
REMARK SMILES IDX 26 12 27 13 28 14 29 15 30 16 14 17 13 18 12 19 11 20 10 21
REMARK SMILES IDX 9 22 8 23 7 24 6 25 5 26 4 27 3 28 2 29 1 30
REMARK H PARENT
REMARK Flexibility Score: inf
ROOT
ATOM      1  C   UNL     1      49.490 154.165 -28.675  1.00  0.00     0.000 C 
ENDROOT
BRANCH   1   2
ATOM      2  C   UNL     1      49.376 155.701 -28.740  1.00  0.00     0.000 C 
BRANCH   2   3
ATOM      3  C   UNL     1      48.439 156.337 -27.692  1.00  0.00     0.000 C 
BRANCH   3   4
ATOM      4  C   UNL     1      48.246 155.515 -26.405  1.00  0.00     0.000 C 
BRANCH   4   5
ATOM      5  C   UNL     1      48.491 156.338 -25.130  1.00  0.00     0.000 C 
BRANCH   5   6
ATOM      6  C   UNL     1      49.078 157.735 -25.417  1.00  0.00     0.000 C 
BRANCH   6   7
ATOM      7  C   UNL     1      50.417 158.044 -24.719  1.00  0.00     0.000 C 
BRANCH   7   8
ATOM      8  C   UNL     1      51.594 158.354 -25.661  1.00  0.00     0.000 C 
BRANCH   8   9
ATOM      9  C   UNL     1      52.080 157.140 -26.481  1.00  0.00     0.000 C 
BRANCH   9  10
ATOM     10  C   UNL     1      52.446 155.936 -25.597  1.00  0.00     0.000 C 
BRANCH  10  11
ATOM     11  C   UNL     1      52.003 154.589 -26.199  1.00  0.00     0.000 C 
BRANCH  11  12
ATOM     12  C   UNL     1      51.724 153.468 -25.175  1.00  0.00     0.006 C 
BRANCH  12  13
ATOM     13  C   UNL     1      51.159 153.951 -23.829  1.00  0.00     0.053 C 
BRANCH  13  14
ATOM     14  C   UNL     1      50.266 152.930 -23.194  1.00  0.00     0.041 C 
ATOM     15  O   UNL     1      50.620 152.348 -22.134  1.00  0.00    -0.550 OA
ATOM     16  O   UNL     1      49.059 152.592 -23.795  1.00  0.00    -0.550 OA
ENDBRANCH  13  14
ENDBRANCH  12  13
ENDBRANCH  11  12
ENDBRANCH  10  11
ENDBRANCH   9  10
ENDBRANCH   8   9
ENDBRANCH   7   8
ENDBRANCH   6   7
ENDBRANCH   5   6
ENDBRANCH   4   5
ENDBRANCH   3   4
ENDBRANCH   2   3
ENDBRANCH   1   2
BRANCH   1  17
ATOM     17  C   UNL     1      49.902 153.488 -29.995  1.00  0.00     0.000 C 
BRANCH  17  18
ATOM     18  C   UNL     1      48.735 152.750 -30.676  1.00  0.00     0.000 C 
BRANCH  18  19
ATOM     19  C   UNL     1      47.451 152.774 -29.830  1.00  0.00     0.000 C 
BRANCH  19  20
ATOM     20  C   UNL     1      46.278 153.443 -30.570  1.00  0.00     0.000 C 
BRANCH  20  21
ATOM     21  C   UNL     1      46.057 154.900 -30.136  1.00  0.00     0.000 C 
BRANCH  21  22
ATOM     22  C   UNL     1      45.875 155.857 -31.328  1.00  0.00    -0.000 C 
BRANCH  22  23
ATOM     23  C   UNL     1      47.105 156.764 -31.542  1.00  0.00    -0.000 C 
BRANCH  23  24
ATOM     24  C   UNL     1      48.261 156.077 -32.289  1.00  0.00    -0.000 C 
BRANCH  24  25
ATOM     25  C   UNL     1      49.495 156.976 -32.441  1.00  0.00    -0.000 C 
BRANCH  25  26
ATOM     26  C   UNL     1      50.554 156.316 -33.337  1.00  0.00    -0.000 C 
BRANCH  26  27
ATOM     27  C   UNL     1      50.720 154.814 -33.054  1.00  0.00    -0.000 C 
BRANCH  27  28
ATOM     28  C   UNL     1      51.958 154.166 -33.702  1.00  0.00    -0.000 C 
BRANCH  28  29
ATOM     29  C   UNL     1      53.286 154.865 -33.342  1.00  0.00    -0.003 C 
ATOM     30  C   UNL     1      54.369 153.875 -32.911  1.00  0.00     0.004 C 
ENDBRANCH  28  29
ENDBRANCH  27  28
ENDBRANCH  26  27
ENDBRANCH  25  26
ENDBRANCH  24  25
ENDBRANCH  23  24
ENDBRANCH  22  23
ENDBRANCH  21  22
ENDBRANCH  20  21
ENDBRANCH  19  20
ENDBRANCH  18  19
ENDBRANCH  17  18
ENDBRANCH   1  17
TORSDOF 26
ENDMDL
MODEL 7
REMARK VINA RESULT:    -5.129      2.871      3.501
REMARK INTER + INTRA:         -14.551
REMARK INTER:                 -12.597
REMARK INTRA:                  -1.954
REMARK UNBOUND:                -1.626
REMARK SMILES CCCCCCCCCCCCCCCCCCCCCCCCCCCC(=O)[O-]
REMARK SMILES IDX 15 1 16 2 17 3 18 4 19 5 20 6 21 7 22 8 23 9 24 10 25 11
REMARK SMILES IDX 26 12 27 13 28 14 29 15 30 16 14 17 13 18 12 19 11 20 10 21
REMARK SMILES IDX 9 22 8 23 7 24 6 25 5 26 4 27 3 28 2 29 1 30
REMARK H PARENT
REMARK Flexibility Score: inf
ROOT
ATOM      1  C   UNL     1      55.515 143.768 -25.119  1.00  0.00     0.000 C 
ENDROOT
BRANCH   1   2
ATOM      2  C   UNL     1      55.101 142.305 -24.866  1.00  0.00     0.000 C 
BRANCH   2   3
ATOM      3  C   UNL     1      56.266 141.298 -24.766  1.00  0.00     0.000 C 
BRANCH   3   4
ATOM      4  C   UNL     1      56.144 140.271 -23.626  1.00  0.00     0.000 C 
BRANCH   4   5
ATOM      5  C   UNL     1      57.130 140.538 -22.476  1.00  0.00     0.000 C 
BRANCH   5   6
ATOM      6  C   UNL     1      57.682 141.978 -22.477  1.00  0.00     0.000 C 
BRANCH   6   7
ATOM      7  C   UNL     1      59.204 142.100 -22.270  1.00  0.00     0.000 C 
BRANCH   7   8
ATOM      8  C   UNL     1      59.695 141.858 -20.831  1.00  0.00     0.000 C 
BRANCH   8   9
ATOM      9  C   UNL     1      60.078 143.147 -20.072  1.00  0.00     0.000 C 
BRANCH   9  10
ATOM     10  C   UNL     1      58.873 143.802 -19.372  1.00  0.00     0.000 C 
BRANCH  10  11
ATOM     11  C   UNL     1      58.916 143.659 -17.839  1.00  0.00     0.000 C 
BRANCH  11  12
ATOM     12  C   UNL     1      57.801 142.784 -17.227  1.00  0.00     0.006 C 
BRANCH  12  13
ATOM     13  C   UNL     1      58.296 141.514 -16.514  1.00  0.00     0.053 C 
BRANCH  13  14
ATOM     14  C   UNL     1      58.910 140.537 -17.468  1.00  0.00     0.041 C 
ATOM     15  O   UNL     1      58.178 139.813 -18.195  1.00  0.00    -0.550 OA
ATOM     16  O   UNL     1      60.291 140.396 -17.527  1.00  0.00    -0.550 OA
ENDBRANCH  13  14
ENDBRANCH  12  13
ENDBRANCH  11  12
ENDBRANCH  10  11
ENDBRANCH   9  10
ENDBRANCH   8   9
ENDBRANCH   7   8
ENDBRANCH   6   7
ENDBRANCH   5   6
ENDBRANCH   4   5
ENDBRANCH   3   4
ENDBRANCH   2   3
ENDBRANCH   1   2
BRANCH   1  17
ATOM     17  C   UNL     1      56.425 143.983 -26.343  1.00  0.00     0.000 C 
BRANCH  17  18
ATOM     18  C   UNL     1      55.652 144.460 -27.585  1.00  0.00     0.000 C 
BRANCH  18  19
ATOM     19  C   UNL     1      55.522 143.363 -28.654  1.00  0.00     0.000 C 
BRANCH  19  20
ATOM     20  C   UNL     1      56.251 143.733 -29.960  1.00  0.00     0.000 C 
BRANCH  20  21
ATOM     21  C   UNL     1      57.770 143.864 -29.775  1.00  0.00     0.000 C 
BRANCH  21  22
ATOM     22  C   UNL     1      58.514 144.110 -31.100  1.00  0.00    -0.000 C 
BRANCH  22  23
ATOM     23  C   UNL     1      59.590 143.039 -31.373  1.00  0.00    -0.000 C 
BRANCH  23  24
ATOM     24  C   UNL     1      60.058 142.987 -32.838  1.00  0.00    -0.000 C 
BRANCH  24  25
ATOM     25  C   UNL     1      59.754 144.278 -33.610  1.00  0.00    -0.000 C 
BRANCH  25  26
ATOM     26  C   UNL     1      60.778 144.506 -34.732  1.00  0.00    -0.000 C 
BRANCH  26  27
ATOM     27  C   UNL     1      61.377 145.922 -34.713  1.00  0.00    -0.000 C 
BRANCH  27  28
ATOM     28  C   UNL     1      61.592 146.515 -33.308  1.00  0.00    -0.000 C 
BRANCH  28  29
ATOM     29  C   UNL     1      60.449 147.441 -32.843  1.00  0.00    -0.003 C 
ATOM     30  C   UNL     1      59.927 148.336 -33.968  1.00  0.00     0.004 C 
ENDBRANCH  28  29
ENDBRANCH  27  28
ENDBRANCH  26  27
ENDBRANCH  25  26
ENDBRANCH  24  25
ENDBRANCH  23  24
ENDBRANCH  22  23
ENDBRANCH  21  22
ENDBRANCH  20  21
ENDBRANCH  19  20
ENDBRANCH  18  19
ENDBRANCH  17  18
ENDBRANCH   1  17
TORSDOF 26
ENDMDL
MODEL 8
REMARK VINA RESULT:    -5.088      1.860      2.316
REMARK INTER + INTRA:         -14.447
REMARK INTER:                 -12.474
REMARK INTRA:                  -1.973
REMARK UNBOUND:                -1.626
REMARK SMILES CCCCCCCCCCCCCCCCCCCCCCCCCCCC(=O)[O-]
REMARK SMILES IDX 15 1 16 2 17 3 18 4 19 5 20 6 21 7 22 8 23 9 24 10 25 11
REMARK SMILES IDX 26 12 27 13 28 14 29 15 30 16 14 17 13 18 12 19 11 20 10 21
REMARK SMILES IDX 9 22 8 23 7 24 6 25 5 26 4 27 3 28 2 29 1 30
REMARK H PARENT
REMARK Flexibility Score: inf
ROOT
ATOM      1  C   UNL     1      56.242 143.632 -24.683  1.00  0.00     0.000 C 
ENDROOT
BRANCH   1   2
ATOM      2  C   UNL     1      54.979 142.917 -24.162  1.00  0.00     0.000 C 
BRANCH   2   3
ATOM      3  C   UNL     1      55.164 141.426 -23.810  1.00  0.00     0.000 C 
BRANCH   3   4
ATOM      4  C   UNL     1      56.625 140.942 -23.767  1.00  0.00     0.000 C 
BRANCH   4   5
ATOM      5  C   UNL     1      57.042 140.432 -22.378  1.00  0.00     0.000 C 
BRANCH   5   6
ATOM      6  C   UNL     1      57.890 141.450 -21.590  1.00  0.00     0.000 C 
BRANCH   6   7
ATOM      7  C   UNL     1      58.671 140.873 -20.394  1.00  0.00     0.000 C 
BRANCH   7   8
ATOM      8  C   UNL     1      58.494 141.630 -19.065  1.00  0.00     0.000 C 
BRANCH   8   9
ATOM      9  C   UNL     1      59.821 142.077 -18.414  1.00  0.00     0.000 C 
BRANCH   9  10
ATOM     10  C   UNL     1      61.043 141.795 -19.306  1.00  0.00     0.000 C 
BRANCH  10  11
ATOM     11  C   UNL     1      62.280 142.625 -18.913  1.00  0.00     0.000 C 
BRANCH  11  12
ATOM     12  C   UNL     1      62.294 144.076 -19.439  1.00  0.00     0.006 C 
BRANCH  12  13
ATOM     13  C   UNL     1      61.456 144.311 -20.707  1.00  0.00     0.053 C 
BRANCH  13  14
ATOM     14  C   UNL     1      60.222 145.111 -20.425  1.00  0.00     0.041 C 
ATOM     15  O   UNL     1      59.135 144.822 -20.992  1.00  0.00    -0.550 OA
ATOM     16  O   UNL     1      60.281 146.201 -19.566  1.00  0.00    -0.550 OA
ENDBRANCH  13  14
ENDBRANCH  12  13
ENDBRANCH  11  12
ENDBRANCH  10  11
ENDBRANCH   9  10
ENDBRANCH   8   9
ENDBRANCH   7   8
ENDBRANCH   6   7
ENDBRANCH   5   6
ENDBRANCH   4   5
ENDBRANCH   3   4
ENDBRANCH   2   3
ENDBRANCH   1   2
BRANCH   1  17
ATOM     17  C   UNL     1      56.197 144.028 -26.171  1.00  0.00     0.000 C 
BRANCH  17  18
ATOM     18  C   UNL     1      55.110 143.273 -26.956  1.00  0.00     0.000 C 
BRANCH  18  19
ATOM     19  C   UNL     1      55.476 143.089 -28.438  1.00  0.00     0.000 C 
BRANCH  19  20
ATOM     20  C   UNL     1      56.504 144.131 -28.918  1.00  0.00     0.000 C 
BRANCH  20  21
ATOM     21  C   UNL     1      57.136 143.761 -30.268  1.00  0.00     0.000 C 
BRANCH  21  22
ATOM     22  C   UNL     1      58.627 144.139 -30.353  1.00  0.00    -0.000 C 
BRANCH  22  23
ATOM     23  C   UNL     1      59.353 143.398 -31.495  1.00  0.00    -0.000 C 
BRANCH  23  24
ATOM     24  C   UNL     1      59.582 144.261 -32.748  1.00  0.00    -0.000 C 
BRANCH  24  25
ATOM     25  C   UNL     1      60.349 143.523 -33.852  1.00  0.00    -0.000 C 
BRANCH  25  26
ATOM     26  C   UNL     1      61.075 144.512 -34.779  1.00  0.00    -0.000 C 
BRANCH  26  27
ATOM     27  C   UNL     1      61.327 145.874 -34.113  1.00  0.00    -0.000 C 
BRANCH  27  28
ATOM     28  C   UNL     1      60.987 147.095 -34.989  1.00  0.00    -0.000 C 
BRANCH  28  29
ATOM     29  C   UNL     1      60.488 148.316 -34.187  1.00  0.00    -0.003 C 
ATOM     30  C   UNL     1      59.683 147.914 -32.950  1.00  0.00     0.004 C 
ENDBRANCH  28  29
ENDBRANCH  27  28
ENDBRANCH  26  27
ENDBRANCH  25  26
ENDBRANCH  24  25
ENDBRANCH  23  24
ENDBRANCH  22  23
ENDBRANCH  21  22
ENDBRANCH  20  21
ENDBRANCH  19  20
ENDBRANCH  18  19
ENDBRANCH  17  18
ENDBRANCH   1  17
TORSDOF 26
ENDMDL
MODEL 9
REMARK VINA RESULT:    -5.004     12.935     14.968
REMARK INTER + INTRA:         -14.236
REMARK INTER:                  -9.277
REMARK INTRA:                  -4.958
REMARK UNBOUND:                -1.626
REMARK SMILES CCCCCCCCCCCCCCCCCCCCCCCCCCCC(=O)[O-]
REMARK SMILES IDX 15 1 16 2 17 3 18 4 19 5 20 6 21 7 22 8 23 9 24 10 25 11
REMARK SMILES IDX 26 12 27 13 28 14 29 15 30 16 14 17 13 18 12 19 11 20 10 21
REMARK SMILES IDX 9 22 8 23 7 24 6 25 5 26 4 27 3 28 2 29 1 30
REMARK H PARENT
REMARK Flexibility Score: inf
ROOT
ATOM      1  C   UNL     1      48.417 152.666 -30.247  1.00  0.00     0.000 C 
ENDROOT
BRANCH   1   2
ATOM      2  C   UNL     1      49.397 153.854 -30.167  1.00  0.00     0.000 C 
BRANCH   2   3
ATOM      3  C   UNL     1      49.916 154.186 -28.753  1.00  0.00     0.000 C 
BRANCH   3   4
ATOM      4  C   UNL     1      49.586 155.604 -28.253  1.00  0.00     0.000 C 
BRANCH   4   5
ATOM      5  C   UNL     1      48.817 155.601 -26.921  1.00  0.00     0.000 C 
BRANCH   5   6
ATOM      6  C   UNL     1      49.279 156.711 -25.955  1.00  0.00     0.000 C 
BRANCH   6   7
ATOM      7  C   UNL     1      50.173 157.799 -26.579  1.00  0.00     0.000 C 
BRANCH   7   8
ATOM      8  C   UNL     1      51.527 158.020 -25.879  1.00  0.00     0.000 C 
BRANCH   8   9
ATOM      9  C   UNL     1      52.713 157.305 -26.562  1.00  0.00     0.000 C 
BRANCH   9  10
ATOM     10  C   UNL     1      53.298 156.172 -25.701  1.00  0.00     0.000 C 
BRANCH  10  11
ATOM     11  C   UNL     1      52.466 154.877 -25.763  1.00  0.00     0.000 C 
BRANCH  11  12
ATOM     12  C   UNL     1      52.125 154.246 -24.396  1.00  0.00     0.006 C 
BRANCH  12  13
ATOM     13  C   UNL     1      50.661 153.801 -24.238  1.00  0.00     0.053 C 
BRANCH  13  14
ATOM     14  C   UNL     1      50.537 152.555 -23.417  1.00  0.00     0.041 C 
ATOM     15  O   UNL     1      50.051 151.508 -23.921  1.00  0.00    -0.550 OA
ATOM     16  O   UNL     1      50.924 152.560 -22.082  1.00  0.00    -0.550 OA
ENDBRANCH  13  14
ENDBRANCH  12  13
ENDBRANCH  11  12
ENDBRANCH  10  11
ENDBRANCH   9  10
ENDBRANCH   8   9
ENDBRANCH   7   8
ENDBRANCH   6   7
ENDBRANCH   5   6
ENDBRANCH   4   5
ENDBRANCH   3   4
ENDBRANCH   2   3
ENDBRANCH   1   2
BRANCH   1  17
ATOM     17  C   UNL     1      46.928 153.054 -30.302  1.00  0.00     0.000 C 
BRANCH  17  18
ATOM     18  C   UNL     1      46.308 153.238 -28.905  1.00  0.00     0.000 C 
BRANCH  18  19
ATOM     19  C   UNL     1      45.796 154.669 -28.673  1.00  0.00     0.000 C 
BRANCH  19  20
ATOM     20  C   UNL     1      45.729 155.483 -29.979  1.00  0.00     0.000 C 
BRANCH  20  21
ATOM     21  C   UNL     1      46.617 156.735 -29.943  1.00  0.00     0.000 C 
BRANCH  21  22
ATOM     22  C   UNL     1      47.522 156.862 -31.183  1.00  0.00    -0.000 C 
BRANCH  22  23
ATOM     23  C   UNL     1      46.997 156.037 -32.376  1.00  0.00    -0.000 C 
BRANCH  23  24
ATOM     24  C   UNL     1      47.568 156.478 -33.735  1.00  0.00    -0.000 C 
BRANCH  24  25
ATOM     25  C   UNL     1      47.984 155.298 -34.622  1.00  0.00    -0.000 C 
BRANCH  25  26
ATOM     26  C   UNL     1      47.987 153.982 -33.829  1.00  0.00    -0.000 C 
BRANCH  26  27
ATOM     27  C   UNL     1      49.346 153.264 -33.872  1.00  0.00    -0.000 C 
BRANCH  27  28
ATOM     28  C   UNL     1      50.527 154.142 -34.327  1.00  0.00    -0.000 C 
BRANCH  28  29
ATOM     29  C   UNL     1      51.375 154.696 -33.163  1.00  0.00    -0.003 C 
ATOM     30  C   UNL     1      52.833 154.241 -33.233  1.00  0.00     0.004 C 
ENDBRANCH  28  29
ENDBRANCH  27  28
ENDBRANCH  26  27
ENDBRANCH  25  26
ENDBRANCH  24  25
ENDBRANCH  23  24
ENDBRANCH  22  23
ENDBRANCH  21  22
ENDBRANCH  20  21
ENDBRANCH  19  20
ENDBRANCH  18  19
ENDBRANCH  17  18
ENDBRANCH   1  17
TORSDOF 26
ENDMDL
