MODEL 1
REMARK VINA RESULT:    -8.613      0.000      0.000
REMARK INTER + INTRA:         -10.428
REMARK INTER:                 -10.124
REMARK INTRA:                  -0.304
REMARK UNBOUND:                -0.304
REMARK SMILES O=c1cc(-c2ccc(O)c(O)c2)oc2cc(O)cc(O)c12
REMARK SMILES IDX 4 1 3 2 2 3 1 4 21 5 19 6 18 7 16 8 15 9 14 10 13 11 5 12
REMARK SMILES IDX 6 13 7 14 8 15 12 16 10 17 9 18 11 20 20 22 17 24
REMARK H PARENT 9 19 11 21 20 23 17 25
REMARK Flexibility Score: inf
ROOT
ATOM      1  C   UNL     1       7.453 -25.035  34.725  1.00  0.00     0.138 A 
ATOM      2  C   UNL     1       7.177 -23.709  34.352  1.00  0.00     0.100 A 
ATOM      3  C   UNL     1       6.098 -23.444  33.508  1.00  0.00     0.197 A 
ATOM      4  O   UNL     1       5.860 -22.251  33.177  1.00  0.00    -0.289 OA
ATOM      5  C   UNL     1       5.304 -24.508  33.038  1.00  0.00     0.107 A 
ATOM      6  C   UNL     1       4.192 -24.327  32.181  1.00  0.00     0.134 A 
ATOM      7  C   UNL     1       3.455 -25.441  31.754  1.00  0.00     0.093 A 
ATOM      8  C   UNL     1       3.807 -26.729  32.166  1.00  0.00     0.123 A 
ATOM      9  C   UNL     1       4.903 -26.915  33.012  1.00  0.00     0.094 A 
ATOM     10  C   UNL     1       5.650 -25.818  33.451  1.00  0.00     0.146 A 
ATOM     11  O   UNL     1       6.688 -26.019  34.257  1.00  0.00    -0.456 OA
ENDROOT
BRANCH   1  12
ATOM     12  C   UNL     1       8.587 -25.377  35.620  1.00  0.00     0.021 A 
ATOM     13  C   UNL     1       9.769 -24.620  35.558  1.00  0.00     0.016 A 
ATOM     14  C   UNL     1      10.854 -24.925  36.384  1.00  0.00     0.051 A 
ATOM     15  C   UNL     1      10.780 -25.999  37.279  1.00  0.00     0.157 A 
ATOM     16  C   UNL     1       8.525 -26.465  36.513  1.00  0.00     0.062 A 
ATOM     17  C   UNL     1       9.611 -26.774  37.340  1.00  0.00     0.158 A 
BRANCH  15  18
ATOM     18  O   UNL     1      11.864 -26.300  38.102  1.00  0.00    -0.504 OA
ATOM     19  H   UNL     1      12.820 -26.191  37.784  1.00  0.00     0.293 HD
ENDBRANCH  15  18
BRANCH  17  20
ATOM     20  O   UNL     1       9.510 -27.857  38.213  1.00  0.00    -0.504 OA
ATOM     21  H   UNL     1       8.696 -28.461  38.228  1.00  0.00     0.293 HD
ENDBRANCH  17  20
ENDBRANCH   1  12
BRANCH   6  22
ATOM     22  O   UNL     1       3.817 -23.053  31.753  1.00  0.00    -0.507 OA
ATOM     23  H   UNL     1       3.164 -22.919  30.989  1.00  0.00     0.293 HD
ENDBRANCH   6  22
BRANCH   8  24
ATOM     24  O   UNL     1       3.057 -27.818  31.726  1.00  0.00    -0.508 OA
ATOM     25  H   UNL     1       3.241 -28.757  32.060  1.00  0.00     0.293 HD
ENDBRANCH   8  24
TORSDOF 5
ENDMDL
MODEL 2
REMARK VINA RESULT:    -8.239      1.554      6.954
REMARK INTER + INTRA:          -9.988
REMARK INTER:                  -9.692
REMARK INTRA:                  -0.296
REMARK UNBOUND:                -0.304
REMARK SMILES O=c1cc(-c2ccc(O)c(O)c2)oc2cc(O)cc(O)c12
REMARK SMILES IDX 4 1 3 2 2 3 1 4 21 5 19 6 18 7 16 8 15 9 14 10 13 11 5 12
REMARK SMILES IDX 6 13 7 14 8 15 12 16 10 17 9 18 11 20 20 22 17 24
REMARK H PARENT 9 19 11 21 20 23 17 25
REMARK Flexibility Score: inf
ROOT
ATOM      1  C   UNL     1       7.162 -25.208  34.606  1.00  0.00     0.138 A 
ATOM      2  C   UNL     1       7.435 -23.947  35.162  1.00  0.00     0.100 A 
ATOM      3  C   UNL     1       8.518 -23.800  36.031  1.00  0.00     0.197 A 
ATOM      4  O   UNL     1       8.754 -22.665  36.526  1.00  0.00    -0.289 OA
ATOM      5  C   UNL     1       9.319 -24.918  36.339  1.00  0.00     0.107 A 
ATOM      6  C   UNL     1      10.435 -24.856  37.208  1.00  0.00     0.134 A 
ATOM      7  C   UNL     1      11.178 -26.016  37.468  1.00  0.00     0.093 A 
ATOM      8  C   UNL     1      10.828 -27.233  36.879  1.00  0.00     0.123 A 
ATOM      9  C   UNL     1       9.727 -27.301  36.020  1.00  0.00     0.094 A 
ATOM     10  C   UNL     1       8.974 -26.156  35.746  1.00  0.00     0.146 A 
ATOM     11  O   UNL     1       7.932 -26.245  34.925  1.00  0.00    -0.456 OA
ENDROOT
BRANCH   1  12
ATOM     12  C   UNL     1       6.023 -25.424  33.677  1.00  0.00     0.021 A 
ATOM     13  C   UNL     1       5.652 -26.734  33.331  1.00  0.00     0.016 A 
ATOM     14  C   UNL     1       4.589 -26.964  32.455  1.00  0.00     0.051 A 
ATOM     15  C   UNL     1       3.886 -25.888  31.900  1.00  0.00     0.157 A 
ATOM     16  C   UNL     1       5.319 -24.346  33.105  1.00  0.00     0.062 A 
ATOM     17  C   UNL     1       4.255 -24.574  32.225  1.00  0.00     0.158 A 
BRANCH  15  18
ATOM     18  O   UNL     1       2.824 -26.123  31.026  1.00  0.00    -0.504 OA
ATOM     19  H   UNL     1       2.646 -25.518  30.233  1.00  0.00     0.293 HD
ENDBRANCH  15  18
BRANCH  17  20
ATOM     20  O   UNL     1       3.581 -23.481  31.681  1.00  0.00    -0.504 OA
ATOM     21  H   UNL     1       3.725 -23.183  30.723  1.00  0.00     0.293 HD
ENDBRANCH  17  20
ENDBRANCH   1  12
BRANCH   6  22
ATOM     22  O   UNL     1      10.808 -23.653  37.811  1.00  0.00    -0.507 OA
ATOM     23  H   UNL     1      11.766 -23.471  38.086  1.00  0.00     0.293 HD
ENDBRANCH   6  22
BRANCH   8  24
ATOM     24  O   UNL     1      11.584 -28.371  37.155  1.00  0.00    -0.508 OA
ATOM     25  H   UNL     1      11.411 -29.249  36.680  1.00  0.00     0.293 HD
ENDBRANCH   8  24
TORSDOF 5
ENDMDL
MODEL 3
REMARK VINA RESULT:    -8.185      3.536      5.621
REMARK INTER + INTRA:          -9.925
REMARK INTER:                  -9.656
REMARK INTRA:                  -0.268
REMARK UNBOUND:                -0.304
REMARK SMILES O=c1cc(-c2ccc(O)c(O)c2)oc2cc(O)cc(O)c12
REMARK SMILES IDX 4 1 3 2 2 3 1 4 21 5 19 6 18 7 16 8 15 9 14 10 13 11 5 12
REMARK SMILES IDX 6 13 7 14 8 15 12 16 10 17 9 18 11 20 20 22 17 24
REMARK H PARENT 9 19 11 21 20 23 17 25
REMARK Flexibility Score: inf
ROOT
ATOM      1  C   UNL     1      10.113 -23.499  35.072  1.00  0.00     0.138 A 
ATOM      2  C   UNL     1      10.568 -24.377  36.069  1.00  0.00     0.100 A 
ATOM      3  C   UNL     1       9.837 -25.532  36.352  1.00  0.00     0.197 A 
ATOM      4  O   UNL     1      10.252 -26.314  37.250  1.00  0.00    -0.289 OA
ATOM      5  C   UNL     1       8.653 -25.799  35.636  1.00  0.00     0.107 A 
ATOM      6  C   UNL     1       7.855 -26.947  35.859  1.00  0.00     0.134 A 
ATOM      7  C   UNL     1       6.687 -27.137  35.106  1.00  0.00     0.093 A 
ATOM      8  C   UNL     1       6.302 -26.205  34.139  1.00  0.00     0.123 A 
ATOM      9  C   UNL     1       7.086 -25.070  33.915  1.00  0.00     0.094 A 
ATOM     10  C   UNL     1       8.255 -24.862  34.653  1.00  0.00     0.146 A 
ATOM     11  O   UNL     1       8.986 -23.776  34.420  1.00  0.00    -0.456 OA
ENDROOT
BRANCH   1  12
ATOM     12  C   UNL     1      10.848 -22.255  34.729  1.00  0.00     0.021 A 
ATOM     13  C   UNL     1      10.202 -21.014  34.855  1.00  0.00     0.016 A 
ATOM     14  C   UNL     1      10.868 -19.829  34.533  1.00  0.00     0.051 A 
ATOM     15  C   UNL     1      12.189 -19.865  34.069  1.00  0.00     0.157 A 
ATOM     16  C   UNL     1      12.172 -22.285  34.249  1.00  0.00     0.062 A 
ATOM     17  C   UNL     1      12.842 -21.100  33.924  1.00  0.00     0.158 A 
BRANCH  15  18
ATOM     18  O   UNL     1      12.852 -18.681  33.750  1.00  0.00    -0.504 OA
ATOM     19  H   UNL     1      12.750 -17.846  34.315  1.00  0.00     0.293 HD
ENDBRANCH  15  18
BRANCH  17  20
ATOM     20  O   UNL     1      14.153 -21.170  33.454  1.00  0.00    -0.504 OA
ATOM     21  H   UNL     1      14.518 -22.001  33.002  1.00  0.00     0.293 HD
ENDBRANCH  17  20
ENDBRANCH   1  12
BRANCH   6  22
ATOM     22  O   UNL     1       8.214 -27.895  36.818  1.00  0.00    -0.507 OA
ATOM     23  H   UNL     1       9.183 -28.145  36.982  1.00  0.00     0.293 HD
ENDBRANCH   6  22
BRANCH   8  24
ATOM     24  O   UNL     1       5.137 -26.418  33.406  1.00  0.00    -0.508 OA
ATOM     25  H   UNL     1       4.282 -26.732  33.850  1.00  0.00     0.293 HD
ENDBRANCH   8  24
TORSDOF 5
ENDMDL
MODEL 4
REMARK VINA RESULT:    -8.174      1.891      7.327
REMARK INTER + INTRA:          -9.911
REMARK INTER:                  -9.594
REMARK INTRA:                  -0.317
REMARK UNBOUND:                -0.304
REMARK SMILES O=c1cc(-c2ccc(O)c(O)c2)oc2cc(O)cc(O)c12
REMARK SMILES IDX 4 1 3 2 2 3 1 4 21 5 19 6 18 7 16 8 15 9 14 10 13 11 5 12
REMARK SMILES IDX 6 13 7 14 8 15 12 16 10 17 9 18 11 20 20 22 17 24
REMARK H PARENT 9 19 11 21 20 23 17 25
REMARK Flexibility Score: inf
ROOT
ATOM      1  C   UNL     1       7.222 -25.263  34.733  1.00  0.00     0.138 A 
ATOM      2  C   UNL     1       8.016 -26.358  35.112  1.00  0.00     0.100 A 
ATOM      3  C   UNL     1       9.110 -26.155  35.954  1.00  0.00     0.197 A 
ATOM      4  O   UNL     1       9.818 -27.143  36.287  1.00  0.00    -0.289 OA
ATOM      5  C   UNL     1       9.405 -24.854  36.410  1.00  0.00     0.107 A 
ATOM      6  C   UNL     1      10.493 -24.560  37.266  1.00  0.00     0.134 A 
ATOM      7  C   UNL     1      10.722 -23.237  37.670  1.00  0.00     0.093 A 
ATOM      8  C   UNL     1       9.887 -22.205  37.236  1.00  0.00     0.123 A 
ATOM      9  C   UNL     1       8.811 -22.488  36.390  1.00  0.00     0.094 A 
ATOM     10  C   UNL     1       8.564 -23.801  35.977  1.00  0.00     0.146 A 
ATOM     11  O   UNL     1       7.533 -24.046  35.173  1.00  0.00    -0.456 OA
ENDROOT
BRANCH   1  12
ATOM     12  C   UNL     1       6.048 -25.419  33.839  1.00  0.00     0.021 A 
ATOM     13  C   UNL     1       5.603 -26.708  33.501  1.00  0.00     0.016 A 
ATOM     14  C   UNL     1       4.504 -26.883  32.656  1.00  0.00     0.051 A 
ATOM     15  C   UNL     1       3.838 -25.772  32.125  1.00  0.00     0.157 A 
ATOM     16  C   UNL     1       5.381 -24.306  33.290  1.00  0.00     0.062 A 
ATOM     17  C   UNL     1       4.281 -24.478  32.441  1.00  0.00     0.158 A 
BRANCH  15  18
ATOM     18  O   UNL     1       2.741 -25.951  31.283  1.00  0.00    -0.504 OA
ATOM     19  H   UNL     1       2.240 -26.831  31.242  1.00  0.00     0.293 HD
ENDBRANCH  15  18
BRANCH  17  20
ATOM     20  O   UNL     1       3.645 -23.352  31.920  1.00  0.00    -0.504 OA
ATOM     21  H   UNL     1       3.257 -22.630  32.516  1.00  0.00     0.293 HD
ENDBRANCH  17  20
ENDBRANCH   1  12
BRANCH   6  22
ATOM     22  O   UNL     1      11.344 -25.571  37.716  1.00  0.00    -0.507 OA
ATOM     23  H   UNL     1      11.983 -25.424  38.489  1.00  0.00     0.293 HD
ENDBRANCH   6  22
BRANCH   8  24
ATOM     24  O   UNL     1      10.137 -20.899  37.653  1.00  0.00    -0.508 OA
ATOM     25  H   UNL     1       9.936 -20.105  37.056  1.00  0.00     0.293 HD
ENDBRANCH   8  24
TORSDOF 5
ENDMDL
MODEL 5
REMARK VINA RESULT:    -8.154      3.916      5.999
REMARK INTER + INTRA:          -9.888
REMARK INTER:                  -9.591
REMARK INTRA:                  -0.298
REMARK UNBOUND:                -0.304
REMARK SMILES O=c1cc(-c2ccc(O)c(O)c2)oc2cc(O)cc(O)c12
REMARK SMILES IDX 4 1 3 2 2 3 1 4 21 5 19 6 18 7 16 8 15 9 14 10 13 11 5 12
REMARK SMILES IDX 6 13 7 14 8 15 12 16 10 17 9 18 11 20 20 22 17 24
REMARK H PARENT 9 19 11 21 20 23 17 25
REMARK Flexibility Score: inf
ROOT
ATOM      1  C   UNL     1       9.783 -22.390  35.038  1.00  0.00     0.138 A 
ATOM      2  C   UNL     1       8.432 -22.218  34.692  1.00  0.00     0.100 A 
ATOM      3  C   UNL     1       7.503 -23.199  35.041  1.00  0.00     0.197 A 
ATOM      4  O   UNL     1       6.294 -23.036  34.725  1.00  0.00    -0.289 OA
ATOM      5  C   UNL     1       7.933 -24.349  35.733  1.00  0.00     0.107 A 
ATOM      6  C   UNL     1       7.057 -25.389  36.127  1.00  0.00     0.134 A 
ATOM      7  C   UNL     1       7.565 -26.504  36.808  1.00  0.00     0.093 A 
ATOM      8  C   UNL     1       8.928 -26.600  37.103  1.00  0.00     0.123 A 
ATOM      9  C   UNL     1       9.798 -25.576  36.717  1.00  0.00     0.094 A 
ATOM     10  C   UNL     1       9.311 -24.455  36.039  1.00  0.00     0.146 A 
ATOM     11  O   UNL     1      10.158 -23.493  35.683  1.00  0.00    -0.456 OA
ENDROOT
BRANCH   1  12
ATOM     12  C   UNL     1      10.815 -21.381  34.691  1.00  0.00     0.021 A 
ATOM     13  C   UNL     1      10.506 -20.014  34.789  1.00  0.00     0.016 A 
ATOM     14  C   UNL     1      11.457 -19.044  34.463  1.00  0.00     0.051 A 
ATOM     15  C   UNL     1      12.730 -19.424  34.021  1.00  0.00     0.157 A 
ATOM     16  C   UNL     1      12.094 -21.756  34.233  1.00  0.00     0.062 A 
ATOM     17  C   UNL     1      13.048 -20.787  33.902  1.00  0.00     0.158 A 
BRANCH  15  18
ATOM     18  O   UNL     1      13.677 -18.454  33.697  1.00  0.00    -0.504 OA
ATOM     19  H   UNL     1      14.003 -18.325  32.746  1.00  0.00     0.293 HD
ENDBRANCH  15  18
BRANCH  17  20
ATOM     20  O   UNL     1      14.304 -21.198  33.455  1.00  0.00    -0.504 OA
ATOM     21  H   UNL     1      14.946 -20.561  32.999  1.00  0.00     0.293 HD
ENDBRANCH  17  20
ENDBRANCH   1  12
BRANCH   6  22
ATOM     22  O   UNL     1       5.692 -25.322  35.846  1.00  0.00    -0.507 OA
ATOM     23  H   UNL     1       5.111 -24.575  36.209  1.00  0.00     0.293 HD
ENDBRANCH   6  22
BRANCH   8  24
ATOM     24  O   UNL     1       9.406 -27.719  37.781  1.00  0.00    -0.508 OA
ATOM     25  H   UNL     1      10.004 -27.630  38.594  1.00  0.00     0.293 HD
ENDBRANCH   8  24
TORSDOF 5
ENDMDL
MODEL 6
REMARK VINA RESULT:    -8.090      3.083      5.041
REMARK INTER + INTRA:          -9.812
REMARK INTER:                  -9.539
REMARK INTRA:                  -0.273
REMARK UNBOUND:                -0.304
REMARK SMILES O=c1cc(-c2ccc(O)c(O)c2)oc2cc(O)cc(O)c12
REMARK SMILES IDX 4 1 3 2 2 3 1 4 21 5 19 6 18 7 16 8 15 9 14 10 13 11 5 12
REMARK SMILES IDX 6 13 7 14 8 15 12 16 10 17 9 18 11 20 20 22 17 24
REMARK H PARENT 9 19 11 21 20 23 17 25
REMARK Flexibility Score: inf
ROOT
ATOM      1  C   UNL     1       8.986 -24.092  34.854  1.00  0.00     0.138 A 
ATOM      2  C   UNL     1       7.890 -24.193  33.982  1.00  0.00     0.100 A 
ATOM      3  C   UNL     1       6.934 -25.187  34.194  1.00  0.00     0.197 A 
ATOM      4  O   UNL     1       5.954 -25.271  33.405  1.00  0.00    -0.289 OA
ATOM      5  C   UNL     1       7.083 -26.077  35.277  1.00  0.00     0.107 A 
ATOM      6  C   UNL     1       6.160 -27.111  35.564  1.00  0.00     0.134 A 
ATOM      7  C   UNL     1       6.384 -27.958  36.658  1.00  0.00     0.093 A 
ATOM      8  C   UNL     1       7.509 -27.793  37.469  1.00  0.00     0.123 A 
ATOM      9  C   UNL     1       8.424 -26.773  37.191  1.00  0.00     0.094 A 
ATOM     10  C   UNL     1       8.219 -25.917  36.106  1.00  0.00     0.146 A 
ATOM     11  O   UNL     1       9.103 -24.953  35.862  1.00  0.00    -0.456 OA
ENDROOT
BRANCH   1  12
ATOM     12  C   UNL     1      10.035 -23.055  34.677  1.00  0.00     0.021 A 
ATOM     13  C   UNL     1       9.699 -21.700  34.829  1.00  0.00     0.016 A 
ATOM     14  C   UNL     1      10.664 -20.704  34.661  1.00  0.00     0.051 A 
ATOM     15  C   UNL     1      11.981 -21.046  34.327  1.00  0.00     0.157 A 
ATOM     16  C   UNL     1      11.358 -23.392  34.328  1.00  0.00     0.062 A 
ATOM     17  C   UNL     1      12.327 -22.396  34.157  1.00  0.00     0.158 A 
BRANCH  15  18
ATOM     18  O   UNL     1      12.942 -20.050  34.162  1.00  0.00    -0.504 OA
ATOM     19  H   UNL     1      13.822 -20.233  33.694  1.00  0.00     0.293 HD
ENDBRANCH  15  18
BRANCH  17  20
ATOM     20  O   UNL     1      13.626 -22.769  33.814  1.00  0.00    -0.504 OA
ATOM     21  H   UNL     1      14.382 -22.096  33.760  1.00  0.00     0.293 HD
ENDBRANCH  17  20
ENDBRANCH   1  12
BRANCH   6  22
ATOM     22  O   UNL     1       5.026 -27.301  34.771  1.00  0.00    -0.507 OA
ATOM     23  H   UNL     1       4.103 -27.400  35.178  1.00  0.00     0.293 HD
ENDBRANCH   6  22
BRANCH   8  24
ATOM     24  O   UNL     1       7.708 -28.649  38.551  1.00  0.00    -0.508 OA
ATOM     25  H   UNL     1       8.509 -28.551  39.163  1.00  0.00     0.293 HD
ENDBRANCH   8  24
TORSDOF 5
ENDMDL
MODEL 7
REMARK VINA RESULT:    -8.078      3.404      5.796
REMARK INTER + INTRA:          -9.798
REMARK INTER:                  -9.505
REMARK INTRA:                  -0.293
REMARK UNBOUND:                -0.304
REMARK SMILES O=c1cc(-c2ccc(O)c(O)c2)oc2cc(O)cc(O)c12
REMARK SMILES IDX 4 1 3 2 2 3 1 4 21 5 19 6 18 7 16 8 15 9 14 10 13 11 5 12
REMARK SMILES IDX 6 13 7 14 8 15 12 16 10 17 9 18 11 20 20 22 17 24
REMARK H PARENT 9 19 11 21 20 23 17 25
REMARK Flexibility Score: inf
ROOT
ATOM      1  C   UNL     1       8.086 -24.515  35.971  1.00  0.00     0.138 A 
ATOM      2  C   UNL     1       7.444 -23.265  35.997  1.00  0.00     0.100 A 
ATOM      3  C   UNL     1       8.133 -22.131  35.564  1.00  0.00     0.197 A 
ATOM      4  O   UNL     1       7.550 -21.014  35.592  1.00  0.00    -0.289 OA
ATOM      5  C   UNL     1       9.462 -22.254  35.111  1.00  0.00     0.107 A 
ATOM      6  C   UNL     1      10.230 -21.157  34.654  1.00  0.00     0.134 A 
ATOM      7  C   UNL     1      11.549 -21.363  34.224  1.00  0.00     0.093 A 
ATOM      8  C   UNL     1      12.113 -22.642  34.242  1.00  0.00     0.123 A 
ATOM      9  C   UNL     1      11.359 -23.729  34.692  1.00  0.00     0.094 A 
ATOM     10  C   UNL     1      10.042 -23.546  35.123  1.00  0.00     0.146 A 
ATOM     11  O   UNL     1       9.344 -24.596  35.546  1.00  0.00    -0.456 OA
ENDROOT
BRANCH   1  12
ATOM     12  C   UNL     1       7.403 -25.754  36.421  1.00  0.00     0.021 A 
ATOM     13  C   UNL     1       6.081 -26.001  36.015  1.00  0.00     0.016 A 
ATOM     14  C   UNL     1       5.413 -27.157  36.429  1.00  0.00     0.051 A 
ATOM     15  C   UNL     1       6.053 -28.080  37.265  1.00  0.00     0.157 A 
ATOM     16  C   UNL     1       8.035 -26.681  37.272  1.00  0.00     0.062 A 
ATOM     17  C   UNL     1       7.368 -27.839  37.691  1.00  0.00     0.158 A 
BRANCH  15  18
ATOM     18  O   UNL     1       5.384 -29.233  37.675  1.00  0.00    -0.504 OA
ATOM     19  H   UNL     1       4.574 -29.190  38.283  1.00  0.00     0.293 HD
ENDBRANCH  15  18
BRANCH  17  20
ATOM     20  O   UNL     1       8.029 -28.734  38.532  1.00  0.00    -0.504 OA
ATOM     21  H   UNL     1       8.814 -29.290  38.215  1.00  0.00     0.293 HD
ENDBRANCH  17  20
ENDBRANCH   1  12
BRANCH   6  22
ATOM     22  O   UNL     1       9.694 -19.869  34.624  1.00  0.00    -0.507 OA
ATOM     23  H   UNL     1      10.248 -19.068  34.342  1.00  0.00     0.293 HD
ENDBRANCH   6  22
BRANCH   8  24
ATOM     24  O   UNL     1      13.425 -22.819  33.809  1.00  0.00    -0.508 OA
ATOM     25  H   UNL     1      13.642 -23.007  32.838  1.00  0.00     0.293 HD
ENDBRANCH   8  24
TORSDOF 5
ENDMDL
MODEL 8
REMARK VINA RESULT:    -8.039      3.477      7.047
REMARK INTER + INTRA:          -9.753
REMARK INTER:                  -9.435
REMARK INTRA:                  -0.318
REMARK UNBOUND:                -0.304
REMARK SMILES O=c1cc(-c2ccc(O)c(O)c2)oc2cc(O)cc(O)c12
REMARK SMILES IDX 4 1 3 2 2 3 1 4 21 5 19 6 18 7 16 8 15 9 14 10 13 11 5 12
REMARK SMILES IDX 6 13 7 14 8 15 12 16 10 17 9 18 11 20 20 22 17 24
REMARK H PARENT 9 19 11 21 20 23 17 25
REMARK Flexibility Score: inf
ROOT
ATOM      1  C   UNL     1       8.485 -23.381  35.734  1.00  0.00     0.138 A 
ATOM      2  C   UNL     1       7.349 -24.203  35.818  1.00  0.00     0.100 A 
ATOM      3  C   UNL     1       7.441 -25.437  36.462  1.00  0.00     0.197 A 
ATOM      4  O   UNL     1       6.416 -26.169  36.532  1.00  0.00    -0.289 OA
ATOM      5  C   UNL     1       8.671 -25.843  37.016  1.00  0.00     0.107 A 
ATOM      6  C   UNL     1       8.851 -27.077  37.687  1.00  0.00     0.134 A 
ATOM      7  C   UNL     1      10.110 -27.409  38.206  1.00  0.00     0.093 A 
ATOM      8  C   UNL     1      11.191 -26.534  38.068  1.00  0.00     0.123 A 
ATOM      9  C   UNL     1      11.020 -25.315  37.407  1.00  0.00     0.094 A 
ATOM     10  C   UNL     1       9.773 -24.964  36.884  1.00  0.00     0.146 A 
ATOM     11  O   UNL     1       9.634 -23.798  36.260  1.00  0.00    -0.456 OA
ENDROOT
BRANCH   1  12
ATOM     12  C   UNL     1       8.446 -22.059  35.060  1.00  0.00     0.021 A 
ATOM     13  C   UNL     1       7.299 -21.682  34.341  1.00  0.00     0.016 A 
ATOM     14  C   UNL     1       7.240 -20.447  33.692  1.00  0.00     0.051 A 
ATOM     15  C   UNL     1       8.331 -19.570  33.741  1.00  0.00     0.157 A 
ATOM     16  C   UNL     1       9.545 -21.178  35.093  1.00  0.00     0.062 A 
ATOM     17  C   UNL     1       9.490 -19.940  34.441  1.00  0.00     0.158 A 
BRANCH  15  18
ATOM     18  O   UNL     1       8.268 -18.337  33.092  1.00  0.00    -0.504 OA
ATOM     19  H   UNL     1       8.493 -18.242  32.109  1.00  0.00     0.293 HD
ENDBRANCH  15  18
BRANCH  17  20
ATOM     20  O   UNL     1      10.597 -19.094  34.500  1.00  0.00    -0.504 OA
ATOM     21  H   UNL     1      10.790 -18.517  35.309  1.00  0.00     0.293 HD
ENDBRANCH  17  20
ENDBRANCH   1  12
BRANCH   6  22
ATOM     22  O   UNL     1       7.789 -27.970  37.841  1.00  0.00    -0.507 OA
ATOM     23  H   UNL     1       6.975 -27.937  37.237  1.00  0.00     0.293 HD
ENDBRANCH   6  22
BRANCH   8  24
ATOM     24  O   UNL     1      12.432 -26.889  38.593  1.00  0.00    -0.508 OA
ATOM     25  H   UNL     1      12.542 -27.698  39.192  1.00  0.00     0.293 HD
ENDBRANCH   8  24
TORSDOF 5
ENDMDL
MODEL 9
REMARK VINA RESULT:    -7.995      4.026      6.166
REMARK INTER + INTRA:          -9.701
REMARK INTER:                  -9.383
REMARK INTRA:                  -0.318
REMARK UNBOUND:                -0.304
REMARK SMILES O=c1cc(-c2ccc(O)c(O)c2)oc2cc(O)cc(O)c12
REMARK SMILES IDX 4 1 3 2 2 3 1 4 21 5 19 6 18 7 16 8 15 9 14 10 13 11 5 12
REMARK SMILES IDX 6 13 7 14 8 15 12 16 10 17 9 18 11 20 20 22 17 24
REMARK H PARENT 9 19 11 21 20 23 17 25
REMARK Flexibility Score: inf
ROOT
ATOM      1  C   UNL     1       9.480 -23.964  36.930  1.00  0.00     0.138 A 
ATOM      2  C   UNL     1       8.490 -23.653  35.983  1.00  0.00     0.100 A 
ATOM      3  C   UNL     1       7.872 -22.403  36.022  1.00  0.00     0.197 A 
ATOM      4  O   UNL     1       6.984 -22.133  35.168  1.00  0.00    -0.289 OA
ATOM      5  C   UNL     1       8.245 -21.472  37.011  1.00  0.00     0.107 A 
ATOM      6  C   UNL     1       7.670 -20.183  37.120  1.00  0.00     0.134 A 
ATOM      7  C   UNL     1       8.094 -19.316  38.138  1.00  0.00     0.093 A 
ATOM      8  C   UNL     1       9.079 -19.712  39.047  1.00  0.00     0.123 A 
ATOM      9  C   UNL     1       9.651 -20.984  38.944  1.00  0.00     0.094 A 
ATOM     10  C   UNL     1       9.244 -21.862  37.936  1.00  0.00     0.146 A 
ATOM     11  O   UNL     1       9.803 -23.066  37.858  1.00  0.00    -0.456 OA
ENDROOT
BRANCH   1  12
ATOM     12  C   UNL     1      10.171 -25.278  36.939  1.00  0.00     0.021 A 
ATOM     13  C   UNL     1       9.805 -26.257  35.999  1.00  0.00     0.016 A 
ATOM     14  C   UNL     1      10.435 -27.504  35.989  1.00  0.00     0.051 A 
ATOM     15  C   UNL     1      11.433 -27.798  36.926  1.00  0.00     0.157 A 
ATOM     16  C   UNL     1      11.167 -25.586  37.886  1.00  0.00     0.062 A 
ATOM     17  C   UNL     1      11.798 -26.835  37.880  1.00  0.00     0.158 A 
BRANCH  15  18
ATOM     18  O   UNL     1      12.060 -29.044  36.912  1.00  0.00    -0.504 OA
ATOM     19  H   UNL     1      12.078 -29.620  36.079  1.00  0.00     0.293 HD
ENDBRANCH  15  18
BRANCH  17  20
ATOM     20  O   UNL     1      12.781 -27.101  38.833  1.00  0.00    -0.504 OA
ATOM     21  H   UNL     1      13.141 -28.036  38.987  1.00  0.00     0.293 HD
ENDBRANCH  17  20
ENDBRANCH   1  12
BRANCH   6  22
ATOM     22  O   UNL     1       6.684 -19.760  36.227  1.00  0.00    -0.507 OA
ATOM     23  H   UNL     1       6.828 -19.789  35.224  1.00  0.00     0.293 HD
ENDBRANCH   6  22
BRANCH   8  24
ATOM     24  O   UNL     1       9.481 -18.832  40.049  1.00  0.00    -0.508 OA
ATOM     25  H   UNL     1       8.945 -18.002  40.272  1.00  0.00     0.293 HD
ENDBRANCH   8  24
TORSDOF 5
ENDMDL
