MODEL 1
REMARK VINA RESULT:    -6.287      0.000      0.000
REMARK INTER + INTRA:         -20.009
REMARK INTER:                 -16.577
REMARK INTRA:                  -3.432
REMARK UNBOUND:                -3.432
REMARK SMILES CCCCCCCCCCCCCCCCCCCCCCCCCCCCCC(=O)[O-]
REMARK SMILES IDX 16 1 17 2 18 3 19 4 20 5 21 6 22 7 23 8 24 9 25 10 26 11
REMARK SMILES IDX 27 12 28 13 29 14 30 15 31 16 32 17 15 18 14 19 13 20 12 21
REMARK SMILES IDX 11 22 10 23 9 24 8 25 7 26 6 27 5 28 4 29 3 30 2 31 1 32
REMARK H PARENT
REMARK Flexibility Score: inf
ROOT
ATOM      1  C   UNL     1      55.511  34.023  42.966  1.00  0.00     0.000 C 
ENDROOT
BRANCH   1   2
ATOM      2  C   UNL     1      55.627  32.535  42.569  1.00  0.00     0.000 C 
BRANCH   2   3
ATOM      3  C   UNL     1      55.107  31.562  43.643  1.00  0.00     0.000 C 
BRANCH   3   4
ATOM      4  C   UNL     1      54.831  30.131  43.148  1.00  0.00     0.000 C 
BRANCH   4   5
ATOM      5  C   UNL     1      53.338  29.767  43.179  1.00  0.00     0.000 C 
BRANCH   5   6
ATOM      6  C   UNL     1      52.733  29.592  41.773  1.00  0.00     0.000 C 
BRANCH   6   7
ATOM      7  C   UNL     1      51.249  29.983  41.647  1.00  0.00     0.000 C 
BRANCH   7   8
ATOM      8  C   UNL     1      50.673  30.590  42.934  1.00  0.00     0.000 C 
BRANCH   8   9
ATOM      9  C   UNL     1      50.382  32.087  42.756  1.00  0.00     0.000 C 
BRANCH   9  10
ATOM     10  C   UNL     1      51.647  32.911  42.458  1.00  0.00     0.000 C 
BRANCH  10  11
ATOM     11  C   UNL     1      51.896  34.087  43.423  1.00  0.00     0.000 C 
BRANCH  11  12
ATOM     12  C   UNL     1      52.260  35.424  42.748  1.00  0.00     0.000 C 
BRANCH  12  13
ATOM     13  C   UNL     1      52.032  36.672  43.619  1.00  0.00     0.006 C 
BRANCH  13  14
ATOM     14  C   UNL     1      53.138  36.881  44.662  1.00  0.00     0.053 C 
BRANCH  14  15
ATOM     15  C   UNL     1      52.581  36.802  46.051  1.00  0.00     0.041 C 
ATOM     16  O   UNL     1      53.083  37.496  46.976  1.00  0.00    -0.550 OA
ATOM     17  O   UNL     1      51.530  35.937  46.333  1.00  0.00    -0.550 OA
ENDBRANCH  14  15
ENDBRANCH  13  14
ENDBRANCH  12  13
ENDBRANCH  11  12
ENDBRANCH  10  11
ENDBRANCH   9  10
ENDBRANCH   8   9
ENDBRANCH   7   8
ENDBRANCH   6   7
ENDBRANCH   5   6
ENDBRANCH   4   5
ENDBRANCH   3   4
ENDBRANCH   2   3
ENDBRANCH   1   2
BRANCH   1  18
ATOM     18  C   UNL     1      55.646  34.963  41.754  1.00  0.00     0.000 C 
BRANCH  18  19
ATOM     19  C   UNL     1      55.901  36.425  42.178  1.00  0.00     0.000 C 
BRANCH  19  20
ATOM     20  C   UNL     1      55.315  37.460  41.204  1.00  0.00     0.000 C 
BRANCH  20  21
ATOM     21  C   UNL     1      55.961  37.398  39.810  1.00  0.00     0.000 C 
BRANCH  21  22
ATOM     22  C   UNL     1      57.320  38.116  39.749  1.00  0.00     0.000 C 
BRANCH  22  23
ATOM     23  C   UNL     1      57.789  38.508  38.333  1.00  0.00     0.000 C 
BRANCH  23  24
ATOM     24  C   UNL     1      57.037  37.776  37.201  1.00  0.00    -0.000 C 
BRANCH  24  25
ATOM     25  C   UNL     1      57.890  37.640  35.926  1.00  0.00    -0.000 C 
BRANCH  25  26
ATOM     26  C   UNL     1      59.243  36.951  36.201  1.00  0.00    -0.000 C 
BRANCH  26  27
ATOM     27  C   UNL     1      60.146  36.841  34.961  1.00  0.00    -0.000 C 
BRANCH  27  28
ATOM     28  C   UNL     1      61.595  37.265  35.238  1.00  0.00    -0.000 C 
BRANCH  28  29
ATOM     29  C   UNL     1      61.819  38.738  34.869  1.00  0.00    -0.000 C 
BRANCH  29  30
ATOM     30  C   UNL     1      62.330  39.572  36.054  1.00  0.00    -0.000 C 
BRANCH  30  31
ATOM     31  C   UNL     1      61.220  39.913  37.059  1.00  0.00    -0.003 C 
ATOM     32  C   UNL     1      61.448  39.201  38.390  1.00  0.00     0.004 C 
ENDBRANCH  30  31
ENDBRANCH  29  30
ENDBRANCH  28  29
ENDBRANCH  27  28
ENDBRANCH  26  27
ENDBRANCH  25  26
ENDBRANCH  24  25
ENDBRANCH  23  24
ENDBRANCH  22  23
ENDBRANCH  21  22
ENDBRANCH  20  21
ENDBRANCH  19  20
ENDBRANCH  18  19
ENDBRANCH   1  18
TORSDOF 28
ENDMDL
MODEL 2
REMARK VINA RESULT:    -6.225      5.234      8.672
REMARK INTER + INTRA:         -19.846
REMARK INTER:                 -16.690
REMARK INTRA:                  -3.156
REMARK UNBOUND:                -3.432
REMARK SMILES CCCCCCCCCCCCCCCCCCCCCCCCCCCCCC(=O)[O-]
REMARK SMILES IDX 16 1 17 2 18 3 19 4 20 5 21 6 22 7 23 8 24 9 25 10 26 11
REMARK SMILES IDX 27 12 28 13 29 14 30 15 31 16 32 17 15 18 14 19 13 20 12 21
REMARK SMILES IDX 11 22 10 23 9 24 8 25 7 26 6 27 5 28 4 29 3 30 2 31 1 32
REMARK H PARENT
REMARK Flexibility Score: inf
ROOT
ATOM      1  C   UNL     1      50.398  32.153  42.832  1.00  0.00     0.000 C 
ENDROOT
BRANCH   1   2
ATOM      2  C   UNL     1      51.448  33.260  42.596  1.00  0.00     0.000 C 
BRANCH   2   3
ATOM      3  C   UNL     1      51.622  34.219  43.788  1.00  0.00     0.000 C 
BRANCH   3   4
ATOM      4  C   UNL     1      50.393  34.347  44.705  1.00  0.00     0.000 C 
BRANCH   4   5
ATOM      5  C   UNL     1      50.368  35.673  45.484  1.00  0.00     0.000 C 
BRANCH   5   6
ATOM      6  C   UNL     1      51.672  35.940  46.258  1.00  0.00     0.000 C 
BRANCH   6   7
ATOM      7  C   UNL     1      51.487  36.329  47.736  1.00  0.00     0.000 C 
BRANCH   7   8
ATOM      8  C   UNL     1      50.042  36.163  48.227  1.00  0.00     0.000 C 
BRANCH   8   9
ATOM      9  C   UNL     1      49.842  34.799  48.903  1.00  0.00     0.000 C 
BRANCH   9  10
ATOM     10  C   UNL     1      49.964  34.867  50.436  1.00  0.00     0.000 C 
BRANCH  10  11
ATOM     11  C   UNL     1      48.683  35.310  51.169  1.00  0.00     0.000 C 
BRANCH  11  12
ATOM     12  C   UNL     1      47.652  34.193  51.423  1.00  0.00     0.000 C 
BRANCH  12  13
ATOM     13  C   UNL     1      46.203  34.552  51.051  1.00  0.00     0.006 C 
BRANCH  13  14
ATOM     14  C   UNL     1      46.019  36.045  50.746  1.00  0.00     0.053 C 
BRANCH  14  15
ATOM     15  C   UNL     1      44.798  36.271  49.909  1.00  0.00     0.041 C 
ATOM     16  O   UNL     1      44.150  37.347  50.010  1.00  0.00    -0.550 OA
ATOM     17  O   UNL     1      44.354  35.279  49.041  1.00  0.00    -0.550 OA
ENDBRANCH  14  15
ENDBRANCH  13  14
ENDBRANCH  12  13
ENDBRANCH  11  12
ENDBRANCH  10  11
ENDBRANCH   9  10
ENDBRANCH   8   9
ENDBRANCH   7   8
ENDBRANCH   6   7
ENDBRANCH   5   6
ENDBRANCH   4   5
ENDBRANCH   3   4
ENDBRANCH   2   3
ENDBRANCH   1   2
BRANCH   1  18
ATOM     18  C   UNL     1      50.752  30.846  42.099  1.00  0.00     0.000 C 
BRANCH  18  19
ATOM     19  C   UNL     1      50.823  29.641  43.062  1.00  0.00     0.000 C 
BRANCH  19  20
ATOM     20  C   UNL     1      52.251  29.122  43.297  1.00  0.00     0.000 C 
BRANCH  20  21
ATOM     21  C   UNL     1      53.323  30.035  42.679  1.00  0.00     0.000 C 
BRANCH  21  22
ATOM     22  C   UNL     1      54.700  29.879  43.349  1.00  0.00     0.000 C 
BRANCH  22  23
ATOM     23  C   UNL     1      55.342  31.193  43.838  1.00  0.00     0.000 C 
BRANCH  23  24
ATOM     24  C   UNL     1      55.629  32.206  42.709  1.00  0.00    -0.000 C 
BRANCH  24  25
ATOM     25  C   UNL     1      55.047  33.599  43.011  1.00  0.00    -0.000 C 
BRANCH  25  26
ATOM     26  C   UNL     1      55.651  34.692  42.104  1.00  0.00    -0.000 C 
BRANCH  26  27
ATOM     27  C   UNL     1      55.287  36.123  42.533  1.00  0.00    -0.000 C 
BRANCH  27  28
ATOM     28  C   UNL     1      55.128  36.269  44.052  1.00  0.00    -0.000 C 
BRANCH  28  29
ATOM     29  C   UNL     1      54.394  37.570  44.407  1.00  0.00    -0.000 C 
BRANCH  29  30
ATOM     30  C   UNL     1      53.252  37.888  43.430  1.00  0.00    -0.000 C 
BRANCH  30  31
ATOM     31  C   UNL     1      52.236  38.883  44.011  1.00  0.00    -0.003 C 
ATOM     32  C   UNL     1      52.595  40.317  43.631  1.00  0.00     0.004 C 
ENDBRANCH  30  31
ENDBRANCH  29  30
ENDBRANCH  28  29
ENDBRANCH  27  28
ENDBRANCH  26  27
ENDBRANCH  25  26
ENDBRANCH  24  25
ENDBRANCH  23  24
ENDBRANCH  22  23
ENDBRANCH  21  22
ENDBRANCH  20  21
ENDBRANCH  19  20
ENDBRANCH  18  19
ENDBRANCH   1  18
TORSDOF 28
ENDMDL
MODEL 3
REMARK VINA RESULT:    -6.197      1.382      2.585
REMARK INTER + INTRA:         -19.772
REMARK INTER:                 -16.596
REMARK INTRA:                  -3.176
REMARK UNBOUND:                -3.432
REMARK SMILES CCCCCCCCCCCCCCCCCCCCCCCCCCCCCC(=O)[O-]
REMARK SMILES IDX 16 1 17 2 18 3 19 4 20 5 21 6 22 7 23 8 24 9 25 10 26 11
REMARK SMILES IDX 27 12 28 13 29 14 30 15 31 16 32 17 15 18 14 19 13 20 12 21
REMARK SMILES IDX 11 22 10 23 9 24 8 25 7 26 6 27 5 28 4 29 3 30 2 31 1 32
REMARK H PARENT
REMARK Flexibility Score: inf
ROOT
ATOM      1  C   UNL     1      56.000  35.266  42.897  1.00  0.00     0.000 C 
ENDROOT
BRANCH   1   2
ATOM      2  C   UNL     1      55.634  33.895  42.289  1.00  0.00     0.000 C 
BRANCH   2   3
ATOM      3  C   UNL     1      54.706  33.046  43.178  1.00  0.00     0.000 C 
BRANCH   3   4
ATOM      4  C   UNL     1      55.306  31.715  43.662  1.00  0.00     0.000 C 
BRANCH   4   5
ATOM      5  C   UNL     1      54.902  30.523  42.778  1.00  0.00     0.000 C 
BRANCH   5   6
ATOM      6  C   UNL     1      53.593  29.853  43.236  1.00  0.00     0.000 C 
BRANCH   6   7
ATOM      7  C   UNL     1      52.554  29.619  42.123  1.00  0.00     0.000 C 
BRANCH   7   8
ATOM      8  C   UNL     1      51.128  30.006  42.539  1.00  0.00     0.000 C 
BRANCH   8   9
ATOM      9  C   UNL     1      50.771  31.414  42.042  1.00  0.00     0.000 C 
BRANCH   9  10
ATOM     10  C   UNL     1      50.581  32.424  43.189  1.00  0.00     0.000 C 
BRANCH  10  11
ATOM     11  C   UNL     1      51.453  33.690  43.087  1.00  0.00     0.000 C 
BRANCH  11  12
ATOM     12  C   UNL     1      51.333  34.666  44.274  1.00  0.00     0.000 C 
BRANCH  12  13
ATOM     13  C   UNL     1      52.413  35.761  44.323  1.00  0.00     0.006 C 
BRANCH  13  14
ATOM     14  C   UNL     1      52.112  36.938  43.385  1.00  0.00     0.053 C 
BRANCH  14  15
ATOM     15  C   UNL     1      52.669  38.214  43.935  1.00  0.00     0.041 C 
ATOM     16  O   UNL     1      53.305  39.004  43.187  1.00  0.00    -0.550 OA
ATOM     17  O   UNL     1      52.516  38.518  45.283  1.00  0.00    -0.550 OA
ENDBRANCH  14  15
ENDBRANCH  13  14
ENDBRANCH  12  13
ENDBRANCH  11  12
ENDBRANCH  10  11
ENDBRANCH   9  10
ENDBRANCH   8   9
ENDBRANCH   7   8
ENDBRANCH   6   7
ENDBRANCH   5   6
ENDBRANCH   4   5
ENDBRANCH   3   4
ENDBRANCH   2   3
ENDBRANCH   1   2
BRANCH   1  18
ATOM     18  C   UNL     1      55.434  36.439  42.077  1.00  0.00     0.000 C 
BRANCH  18  19
ATOM     19  C   UNL     1      55.925  36.415  40.613  1.00  0.00     0.000 C 
BRANCH  19  20
ATOM     20  C   UNL     1      56.420  37.781  40.108  1.00  0.00     0.000 C 
BRANCH  20  21
ATOM     21  C   UNL     1      56.756  37.772  38.607  1.00  0.00     0.000 C 
BRANCH  21  22
ATOM     22  C   UNL     1      58.033  38.564  38.275  1.00  0.00     0.000 C 
BRANCH  22  23
ATOM     23  C   UNL     1      59.292  38.131  39.051  1.00  0.00     0.000 C 
BRANCH  23  24
ATOM     24  C   UNL     1      60.617  38.505  38.351  1.00  0.00    -0.000 C 
BRANCH  24  25
ATOM     25  C   UNL     1      60.391  39.068  36.936  1.00  0.00    -0.000 C 
BRANCH  25  26
ATOM     26  C   UNL     1      61.505  38.644  35.955  1.00  0.00    -0.000 C 
BRANCH  26  27
ATOM     27  C   UNL     1      61.128  37.446  35.069  1.00  0.00    -0.000 C 
BRANCH  27  28
ATOM     28  C   UNL     1      59.736  36.883  35.387  1.00  0.00    -0.000 C 
BRANCH  28  29
ATOM     29  C   UNL     1      58.741  37.206  34.264  1.00  0.00    -0.000 C 
BRANCH  29  30
ATOM     30  C   UNL     1      57.324  37.482  34.793  1.00  0.00    -0.000 C 
BRANCH  30  31
ATOM     31  C   UNL     1      56.770  38.835  34.321  1.00  0.00    -0.003 C 
ATOM     32  C   UNL     1      57.737  39.968  34.651  1.00  0.00     0.004 C 
ENDBRANCH  30  31
ENDBRANCH  29  30
ENDBRANCH  28  29
ENDBRANCH  27  28
ENDBRANCH  26  27
ENDBRANCH  25  26
ENDBRANCH  24  25
ENDBRANCH  23  24
ENDBRANCH  22  23
ENDBRANCH  21  22
ENDBRANCH  20  21
ENDBRANCH  19  20
ENDBRANCH  18  19
ENDBRANCH   1  18
TORSDOF 28
ENDMDL
MODEL 4
REMARK VINA RESULT:    -6.167      2.500      4.016
REMARK INTER + INTRA:         -19.694
REMARK INTER:                 -15.465
REMARK INTRA:                  -4.229
REMARK UNBOUND:                -3.432
REMARK SMILES CCCCCCCCCCCCCCCCCCCCCCCCCCCCCC(=O)[O-]
REMARK SMILES IDX 16 1 17 2 18 3 19 4 20 5 21 6 22 7 23 8 24 9 25 10 26 11
REMARK SMILES IDX 27 12 28 13 29 14 30 15 31 16 32 17 15 18 14 19 13 20 12 21
REMARK SMILES IDX 11 22 10 23 9 24 8 25 7 26 6 27 5 28 4 29 3 30 2 31 1 32
REMARK H PARENT
REMARK Flexibility Score: inf
ROOT
ATOM      1  C   UNL     1      54.879  37.167  41.539  1.00  0.00     0.000 C 
ENDROOT
BRANCH   1   2
ATOM      2  C   UNL     1      56.105  36.964  42.455  1.00  0.00     0.000 C 
BRANCH   2   3
ATOM      3  C   UNL     1      56.302  35.510  42.922  1.00  0.00     0.000 C 
BRANCH   3   4
ATOM      4  C   UNL     1      55.392  34.476  42.235  1.00  0.00     0.000 C 
BRANCH   4   5
ATOM      5  C   UNL     1      54.464  33.750  43.223  1.00  0.00     0.000 C 
BRANCH   5   6
ATOM      6  C   UNL     1      52.985  33.789  42.797  1.00  0.00     0.000 C 
BRANCH   6   7
ATOM      7  C   UNL     1      52.261  35.120  43.071  1.00  0.00     0.000 C 
BRANCH   7   8
ATOM      8  C   UNL     1      51.481  35.121  44.393  1.00  0.00     0.000 C 
BRANCH   8   9
ATOM      9  C   UNL     1      52.425  35.301  45.591  1.00  0.00     0.000 C 
BRANCH   9  10
ATOM     10  C   UNL     1      51.975  36.423  46.544  1.00  0.00     0.000 C 
BRANCH  10  11
ATOM     11  C   UNL     1      52.990  37.569  46.720  1.00  0.00     0.000 C 
BRANCH  11  12
ATOM     12  C   UNL     1      53.863  37.868  45.485  1.00  0.00     0.000 C 
BRANCH  12  13
ATOM     13  C   UNL     1      53.634  39.250  44.849  1.00  0.00     0.006 C 
BRANCH  13  14
ATOM     14  C   UNL     1      52.756  39.188  43.591  1.00  0.00     0.053 C 
BRANCH  14  15
ATOM     15  C   UNL     1      52.846  40.467  42.816  1.00  0.00     0.041 C 
ATOM     16  O   UNL     1      53.468  40.503  41.721  1.00  0.00    -0.550 OA
ATOM     17  O   UNL     1      52.272  41.629  43.319  1.00  0.00    -0.550 OA
ENDBRANCH  14  15
ENDBRANCH  13  14
ENDBRANCH  12  13
ENDBRANCH  11  12
ENDBRANCH  10  11
ENDBRANCH   9  10
ENDBRANCH   8   9
ENDBRANCH   7   8
ENDBRANCH   6   7
ENDBRANCH   5   6
ENDBRANCH   4   5
ENDBRANCH   3   4
ENDBRANCH   2   3
ENDBRANCH   1   2
BRANCH   1  18
ATOM     18  C   UNL     1      55.244  37.872  40.221  1.00  0.00     0.000 C 
BRANCH  18  19
ATOM     19  C   UNL     1      56.582  37.363  39.641  1.00  0.00     0.000 C 
BRANCH  19  20
ATOM     20  C   UNL     1      57.498  38.487  39.129  1.00  0.00     0.000 C 
BRANCH  20  21
ATOM     21  C   UNL     1      58.166  38.143  37.788  1.00  0.00     0.000 C 
BRANCH  21  22
ATOM     22  C   UNL     1      57.153  37.955  36.646  1.00  0.00     0.000 C 
BRANCH  22  23
ATOM     23  C   UNL     1      57.740  37.392  35.336  1.00  0.00     0.000 C 
BRANCH  23  24
ATOM     24  C   UNL     1      57.983  38.462  34.250  1.00  0.00    -0.000 C 
BRANCH  24  25
ATOM     25  C   UNL     1      57.366  39.823  34.621  1.00  0.00    -0.000 C 
BRANCH  25  26
ATOM     26  C   UNL     1      58.441  40.879  34.956  1.00  0.00    -0.000 C 
BRANCH  26  27
ATOM     27  C   UNL     1      59.881  40.350  34.855  1.00  0.00    -0.000 C 
BRANCH  27  28
ATOM     28  C   UNL     1      60.596  40.302  36.212  1.00  0.00    -0.000 C 
BRANCH  28  29
ATOM     29  C   UNL     1      61.592  39.135  36.269  1.00  0.00    -0.000 C 
BRANCH  29  30
ATOM     30  C   UNL     1      61.708  38.393  34.928  1.00  0.00    -0.000 C 
BRANCH  30  31
ATOM     31  C   UNL     1      61.243  36.932  35.019  1.00  0.00    -0.003 C 
ATOM     32  C   UNL     1      61.112  36.488  36.473  1.00  0.00     0.004 C 
ENDBRANCH  30  31
ENDBRANCH  29  30
ENDBRANCH  28  29
ENDBRANCH  27  28
ENDBRANCH  26  27
ENDBRANCH  25  26
ENDBRANCH  24  25
ENDBRANCH  23  24
ENDBRANCH  22  23
ENDBRANCH  21  22
ENDBRANCH  20  21
ENDBRANCH  19  20
ENDBRANCH  18  19
ENDBRANCH   1  18
TORSDOF 28
ENDMDL
MODEL 5
REMARK VINA RESULT:    -6.163      4.982     11.810
REMARK INTER + INTRA:         -19.683
REMARK INTER:                 -16.604
REMARK INTRA:                  -3.079
REMARK UNBOUND:                -3.432
REMARK SMILES CCCCCCCCCCCCCCCCCCCCCCCCCCCCCC(=O)[O-]
REMARK SMILES IDX 16 1 17 2 18 3 19 4 20 5 21 6 22 7 23 8 24 9 25 10 26 11
REMARK SMILES IDX 27 12 28 13 29 14 30 15 31 16 32 17 15 18 14 19 13 20 12 21
REMARK SMILES IDX 11 22 10 23 9 24 8 25 7 26 6 27 5 28 4 29 3 30 2 31 1 32
REMARK H PARENT
REMARK Flexibility Score: inf
ROOT
ATOM      1  C   UNL     1      51.512  32.912  42.504  1.00  0.00     0.000 C 
ENDROOT
BRANCH   1   2
ATOM      2  C   UNL     1      50.384  31.902  42.805  1.00  0.00     0.000 C 
BRANCH   2   3
ATOM      3  C   UNL     1      50.763  30.438  42.515  1.00  0.00     0.000 C 
BRANCH   3   4
ATOM      4  C   UNL     1      52.232  30.212  42.117  1.00  0.00     0.000 C 
BRANCH   4   5
ATOM      5  C   UNL     1      53.090  29.686  43.280  1.00  0.00     0.000 C 
BRANCH   5   6
ATOM      6  C   UNL     1      54.599  29.882  43.049  1.00  0.00     0.000 C 
BRANCH   6   7
ATOM      7  C   UNL     1      55.204  31.135  43.708  1.00  0.00     0.000 C 
BRANCH   7   8
ATOM      8  C   UNL     1      55.636  32.202  42.692  1.00  0.00     0.000 C 
BRANCH   8   9
ATOM      9  C   UNL     1      55.204  33.604  43.146  1.00  0.00     0.000 C 
BRANCH   9  10
ATOM     10  C   UNL     1      55.606  34.706  42.149  1.00  0.00     0.000 C 
BRANCH  10  11
ATOM     11  C   UNL     1      55.671  36.126  42.745  1.00  0.00     0.000 C 
BRANCH  11  12
ATOM     12  C   UNL     1      54.757  36.369  43.962  1.00  0.00     0.000 C 
BRANCH  12  13
ATOM     13  C   UNL     1      53.997  37.708  43.944  1.00  0.00     0.006 C 
BRANCH  13  14
ATOM     14  C   UNL     1      52.888  37.748  42.884  1.00  0.00     0.053 C 
BRANCH  14  15
ATOM     15  C   UNL     1      53.126  38.858  41.907  1.00  0.00     0.041 C 
ATOM     16  O   UNL     1      52.919  38.676  40.677  1.00  0.00    -0.550 OA
ATOM     17  O   UNL     1      53.610  40.084  42.348  1.00  0.00    -0.550 OA
ENDBRANCH  14  15
ENDBRANCH  13  14
ENDBRANCH  12  13
ENDBRANCH  11  12
ENDBRANCH  10  11
ENDBRANCH   9  10
ENDBRANCH   8   9
ENDBRANCH   7   8
ENDBRANCH   6   7
ENDBRANCH   5   6
ENDBRANCH   4   5
ENDBRANCH   3   4
ENDBRANCH   2   3
ENDBRANCH   1   2
BRANCH   1  18
ATOM     18  C   UNL     1      51.538  34.077  43.509  1.00  0.00     0.000 C 
BRANCH  18  19
ATOM     19  C   UNL     1      50.367  34.004  44.513  1.00  0.00     0.000 C 
BRANCH  19  20
ATOM     20  C   UNL     1      50.232  35.257  45.394  1.00  0.00     0.000 C 
BRANCH  20  21
ATOM     21  C   UNL     1      51.593  35.829  45.826  1.00  0.00     0.000 C 
BRANCH  21  22
ATOM     22  C   UNL     1      51.624  36.247  47.306  1.00  0.00     0.000 C 
BRANCH  22  23
ATOM     23  C   UNL     1      50.302  36.038  48.072  1.00  0.00     0.000 C 
BRANCH  23  24
ATOM     24  C   UNL     1      50.410  35.033  49.240  1.00  0.00    -0.000 C 
BRANCH  24  25
ATOM     25  C   UNL     1      49.219  35.136  50.211  1.00  0.00    -0.000 C 
BRANCH  25  26
ATOM     26  C   UNL     1      49.514  34.462  51.568  1.00  0.00    -0.000 C 
BRANCH  26  27
ATOM     27  C   UNL     1      48.283  34.347  52.483  1.00  0.00    -0.000 C 
BRANCH  27  28
ATOM     28  C   UNL     1      47.005  33.972  51.720  1.00  0.00    -0.000 C 
BRANCH  28  29
ATOM     29  C   UNL     1      45.841  34.895  52.108  1.00  0.00    -0.000 C 
BRANCH  29  30
ATOM     30  C   UNL     1      45.901  36.253  51.394  1.00  0.00    -0.000 C 
BRANCH  30  31
ATOM     31  C   UNL     1      45.193  36.236  50.031  1.00  0.00    -0.003 C 
ATOM     32  C   UNL     1      43.982  37.164  50.031  1.00  0.00     0.004 C 
ENDBRANCH  30  31
ENDBRANCH  29  30
ENDBRANCH  28  29
ENDBRANCH  27  28
ENDBRANCH  26  27
ENDBRANCH  25  26
ENDBRANCH  24  25
ENDBRANCH  23  24
ENDBRANCH  22  23
ENDBRANCH  21  22
ENDBRANCH  20  21
ENDBRANCH  19  20
ENDBRANCH  18  19
ENDBRANCH   1  18
TORSDOF 28
ENDMDL
MODEL 6
REMARK VINA RESULT:    -6.140      1.518      2.212
REMARK INTER + INTRA:         -19.622
REMARK INTER:                 -16.523
REMARK INTRA:                  -3.099
REMARK UNBOUND:                -3.432
REMARK SMILES CCCCCCCCCCCCCCCCCCCCCCCCCCCCCC(=O)[O-]
REMARK SMILES IDX 16 1 17 2 18 3 19 4 20 5 21 6 22 7 23 8 24 9 25 10 26 11
REMARK SMILES IDX 27 12 28 13 29 14 30 15 31 16 32 17 15 18 14 19 13 20 12 21
REMARK SMILES IDX 11 22 10 23 9 24 8 25 7 26 6 27 5 28 4 29 3 30 2 31 1 32
REMARK H PARENT
REMARK Flexibility Score: inf
ROOT
ATOM      1  C   UNL     1      55.628  34.632  41.658  1.00  0.00     0.000 C 
ENDROOT
BRANCH   1   2
ATOM      2  C   UNL     1      55.321  33.760  42.894  1.00  0.00     0.000 C 
BRANCH   2   3
ATOM      3  C   UNL     1      55.613  32.262  42.689  1.00  0.00     0.000 C 
BRANCH   3   4
ATOM      4  C   UNL     1      54.912  31.320  43.682  1.00  0.00     0.000 C 
BRANCH   4   5
ATOM      5  C   UNL     1      54.623  29.932  43.084  1.00  0.00     0.000 C 
BRANCH   5   6
ATOM      6  C   UNL     1      53.148  29.514  43.223  1.00  0.00     0.000 C 
BRANCH   6   7
ATOM      7  C   UNL     1      52.220  30.008  42.097  1.00  0.00     0.000 C 
BRANCH   7   8
ATOM      8  C   UNL     1      50.790  30.296  42.577  1.00  0.00     0.000 C 
BRANCH   8   9
ATOM      9  C   UNL     1      50.389  31.747  42.275  1.00  0.00     0.000 C 
BRANCH   9  10
ATOM     10  C   UNL     1      51.513  32.754  42.578  1.00  0.00     0.000 C 
BRANCH  10  11
ATOM     11  C   UNL     1      51.159  33.823  43.631  1.00  0.00     0.000 C 
BRANCH  11  12
ATOM     12  C   UNL     1      52.305  34.784  44.002  1.00  0.00     0.000 C 
BRANCH  12  13
ATOM     13  C   UNL     1      51.926  36.276  43.995  1.00  0.00     0.006 C 
BRANCH  13  14
ATOM     14  C   UNL     1      53.107  37.190  44.350  1.00  0.00     0.053 C 
BRANCH  14  15
ATOM     15  C   UNL     1      52.889  38.572  43.813  1.00  0.00     0.041 C 
ATOM     16  O   UNL     1      51.961  39.292  44.270  1.00  0.00    -0.550 OA
ATOM     17  O   UNL     1      53.690  39.054  42.783  1.00  0.00    -0.550 OA
ENDBRANCH  14  15
ENDBRANCH  13  14
ENDBRANCH  12  13
ENDBRANCH  11  12
ENDBRANCH  10  11
ENDBRANCH   9  10
ENDBRANCH   8   9
ENDBRANCH   7   8
ENDBRANCH   6   7
ENDBRANCH   5   6
ENDBRANCH   4   5
ENDBRANCH   3   4
ENDBRANCH   2   3
ENDBRANCH   1   2
BRANCH   1  18
ATOM     18  C   UNL     1      55.712  36.130  42.004  1.00  0.00     0.000 C 
BRANCH  18  19
ATOM     19  C   UNL     1      55.728  37.019  40.743  1.00  0.00     0.000 C 
BRANCH  19  20
ATOM     20  C   UNL     1      56.987  37.893  40.621  1.00  0.00     0.000 C 
BRANCH  20  21
ATOM     21  C   UNL     1      57.143  38.520  39.226  1.00  0.00     0.000 C 
BRANCH  21  22
ATOM     22  C   UNL     1      56.802  37.540  38.089  1.00  0.00     0.000 C 
BRANCH  22  23
ATOM     23  C   UNL     1      57.589  37.756  36.782  1.00  0.00     0.000 C 
BRANCH  23  24
ATOM     24  C   UNL     1      56.706  37.767  35.515  1.00  0.00    -0.000 C 
BRANCH  24  25
ATOM     25  C   UNL     1      57.323  38.604  34.380  1.00  0.00    -0.000 C 
BRANCH  25  26
ATOM     26  C   UNL     1      57.862  39.960  34.881  1.00  0.00    -0.000 C 
BRANCH  26  27
ATOM     27  C   UNL     1      59.221  40.350  34.276  1.00  0.00    -0.000 C 
BRANCH  27  28
ATOM     28  C   UNL     1      60.260  40.734  35.338  1.00  0.00    -0.000 C 
BRANCH  28  29
ATOM     29  C   UNL     1      60.778  39.491  36.075  1.00  0.00    -0.000 C 
BRANCH  29  30
ATOM     30  C   UNL     1      61.562  38.543  35.154  1.00  0.00    -0.000 C 
BRANCH  30  31
ATOM     31  C   UNL     1      60.868  37.184  34.977  1.00  0.00    -0.003 C 
ATOM     32  C   UNL     1      60.885  36.387  36.278  1.00  0.00     0.004 C 
ENDBRANCH  30  31
ENDBRANCH  29  30
ENDBRANCH  28  29
ENDBRANCH  27  28
ENDBRANCH  26  27
ENDBRANCH  25  26
ENDBRANCH  24  25
ENDBRANCH  23  24
ENDBRANCH  22  23
ENDBRANCH  21  22
ENDBRANCH  20  21
ENDBRANCH  19  20
ENDBRANCH  18  19
ENDBRANCH   1  18
TORSDOF 28
ENDMDL
MODEL 7
REMARK VINA RESULT:    -6.138      2.588      5.134
REMARK INTER + INTRA:         -19.618
REMARK INTER:                 -15.979
REMARK INTRA:                  -3.639
REMARK UNBOUND:                -3.432
REMARK SMILES CCCCCCCCCCCCCCCCCCCCCCCCCCCCCC(=O)[O-]
REMARK SMILES IDX 16 1 17 2 18 3 19 4 20 5 21 6 22 7 23 8 24 9 25 10 26 11
REMARK SMILES IDX 27 12 28 13 29 14 30 15 31 16 32 17 15 18 14 19 13 20 12 21
REMARK SMILES IDX 11 22 10 23 9 24 8 25 7 26 6 27 5 28 4 29 3 30 2 31 1 32
REMARK H PARENT
REMARK Flexibility Score: inf
ROOT
ATOM      1  C   UNL     1      56.754  37.404  37.870  1.00  0.00     0.000 C 
ENDROOT
BRANCH   1   2
ATOM      2  C   UNL     1      57.278  38.134  39.126  1.00  0.00     0.000 C 
BRANCH   2   3
ATOM      3  C   UNL     1      56.238  38.255  40.255  1.00  0.00     0.000 C 
BRANCH   3   4
ATOM      4  C   UNL     1      55.679  36.919  40.773  1.00  0.00     0.000 C 
BRANCH   4   5
ATOM      5  C   UNL     1      55.585  36.866  42.307  1.00  0.00     0.000 C 
BRANCH   5   6
ATOM      6  C   UNL     1      56.215  35.593  42.903  1.00  0.00     0.000 C 
BRANCH   6   7
ATOM      7  C   UNL     1      55.694  34.269  42.314  1.00  0.00     0.000 C 
BRANCH   7   8
ATOM      8  C   UNL     1      54.709  33.544  43.242  1.00  0.00     0.000 C 
BRANCH   8   9
ATOM      9  C   UNL     1      53.316  34.186  43.178  1.00  0.00     0.000 C 
BRANCH   9  10
ATOM     10  C   UNL     1      52.815  34.667  44.553  1.00  0.00     0.000 C 
BRANCH  10  11
ATOM     11  C   UNL     1      51.939  35.935  44.515  1.00  0.00     0.000 C 
BRANCH  11  12
ATOM     12  C   UNL     1      52.674  37.250  44.843  1.00  0.00     0.000 C 
BRANCH  12  13
ATOM     13  C   UNL     1      52.240  38.461  43.999  1.00  0.00     0.006 C 
BRANCH  13  14
ATOM     14  C   UNL     1      53.405  39.406  43.673  1.00  0.00     0.053 C 
BRANCH  14  15
ATOM     15  C   UNL     1      53.281  39.942  42.279  1.00  0.00     0.041 C 
ATOM     16  O   UNL     1      53.010  39.167  41.323  1.00  0.00    -0.550 OA
ATOM     17  O   UNL     1      53.498  41.292  42.030  1.00  0.00    -0.550 OA
ENDBRANCH  14  15
ENDBRANCH  13  14
ENDBRANCH  12  13
ENDBRANCH  11  12
ENDBRANCH  10  11
ENDBRANCH   9  10
ENDBRANCH   8   9
ENDBRANCH   7   8
ENDBRANCH   6   7
ENDBRANCH   5   6
ENDBRANCH   4   5
ENDBRANCH   3   4
ENDBRANCH   2   3
ENDBRANCH   1   2
BRANCH   1  18
ATOM     18  C   UNL     1      57.160  38.117  36.567  1.00  0.00     0.000 C 
BRANCH  18  19
ATOM     19  C   UNL     1      56.133  37.892  35.438  1.00  0.00     0.000 C 
BRANCH  19  20
ATOM     20  C   UNL     1      56.559  38.496  34.089  1.00  0.00     0.000 C 
BRANCH  20  21
ATOM     21  C   UNL     1      58.047  38.881  34.054  1.00  0.00     0.000 C 
BRANCH  21  22
ATOM     22  C   UNL     1      58.297  40.340  34.472  1.00  0.00     0.000 C 
BRANCH  22  23
ATOM     23  C   UNL     1      59.704  40.629  35.032  1.00  0.00     0.000 C 
BRANCH  23  24
ATOM     24  C   UNL     1      60.849  40.253  34.067  1.00  0.00    -0.000 C 
BRANCH  24  25
ATOM     25  C   UNL     1      61.827  39.238  34.687  1.00  0.00    -0.000 C 
BRANCH  25  26
ATOM     26  C   UNL     1      61.469  37.783  34.318  1.00  0.00    -0.000 C 
BRANCH  26  27
ATOM     27  C   UNL     1      61.478  36.819  35.516  1.00  0.00    -0.000 C 
BRANCH  27  28
ATOM     28  C   UNL     1      60.258  36.992  36.431  1.00  0.00    -0.000 C 
BRANCH  28  29
ATOM     29  C   UNL     1      60.686  37.367  37.857  1.00  0.00    -0.000 C 
BRANCH  29  30
ATOM     30  C   UNL     1      60.714  38.887  38.083  1.00  0.00    -0.000 C 
BRANCH  30  31
ATOM     31  C   UNL     1      62.044  39.372  38.677  1.00  0.00    -0.003 C 
ATOM     32  C   UNL     1      62.488  40.681  38.030  1.00  0.00     0.004 C 
ENDBRANCH  30  31
ENDBRANCH  29  30
ENDBRANCH  28  29
ENDBRANCH  27  28
ENDBRANCH  26  27
ENDBRANCH  25  26
ENDBRANCH  24  25
ENDBRANCH  23  24
ENDBRANCH  22  23
ENDBRANCH  21  22
ENDBRANCH  20  21
ENDBRANCH  19  20
ENDBRANCH  18  19
ENDBRANCH   1  18
TORSDOF 28
ENDMDL
MODEL 8
REMARK VINA RESULT:    -6.101      1.250      2.525
REMARK INTER + INTRA:         -19.519
REMARK INTER:                 -15.745
REMARK INTRA:                  -3.774
REMARK UNBOUND:                -3.432
REMARK SMILES CCCCCCCCCCCCCCCCCCCCCCCCCCCCCC(=O)[O-]
REMARK SMILES IDX 16 1 17 2 18 3 19 4 20 5 21 6 22 7 23 8 24 9 25 10 26 11
REMARK SMILES IDX 27 12 28 13 29 14 30 15 31 16 32 17 15 18 14 19 13 20 12 21
REMARK SMILES IDX 11 22 10 23 9 24 8 25 7 26 6 27 5 28 4 29 3 30 2 31 1 32
REMARK H PARENT
REMARK Flexibility Score: inf
ROOT
ATOM      1  C   UNL     1      56.145  35.874  43.301  1.00  0.00     0.000 C 
ENDROOT
BRANCH   1   2
ATOM      2  C   UNL     1      55.879  34.588  42.489  1.00  0.00     0.000 C 
BRANCH   2   3
ATOM      3  C   UNL     1      54.498  33.959  42.753  1.00  0.00     0.000 C 
BRANCH   3   4
ATOM      4  C   UNL     1      54.497  32.778  43.739  1.00  0.00     0.000 C 
BRANCH   4   5
ATOM      5  C   UNL     1      55.260  31.555  43.204  1.00  0.00     0.000 C 
BRANCH   5   6
ATOM      6  C   UNL     1      54.475  30.240  43.365  1.00  0.00     0.000 C 
BRANCH   6   7
ATOM      7  C   UNL     1      53.357  30.015  42.331  1.00  0.00     0.000 C 
BRANCH   7   8
ATOM      8  C   UNL     1      52.158  29.240  42.897  1.00  0.00     0.000 C 
BRANCH   8   9
ATOM      9  C   UNL     1      50.951  30.166  43.104  1.00  0.00     0.000 C 
BRANCH   9  10
ATOM     10  C   UNL     1      50.831  31.246  42.013  1.00  0.00     0.000 C 
BRANCH  10  11
ATOM     11  C   UNL     1      50.958  32.696  42.520  1.00  0.00     0.000 C 
BRANCH  11  12
ATOM     12  C   UNL     1      50.495  32.926  43.972  1.00  0.00     0.000 C 
BRANCH  12  13
ATOM     13  C   UNL     1      50.431  34.401  44.405  1.00  0.00     0.006 C 
BRANCH  13  14
ATOM     14  C   UNL     1      51.731  34.886  45.060  1.00  0.00     0.053 C 
BRANCH  14  15
ATOM     15  C   UNL     1      51.442  35.855  46.165  1.00  0.00     0.041 C 
ATOM     16  O   UNL     1      52.277  36.753  46.457  1.00  0.00    -0.550 OA
ATOM     17  O   UNL     1      50.265  35.746  46.898  1.00  0.00    -0.550 OA
ENDBRANCH  14  15
ENDBRANCH  13  14
ENDBRANCH  12  13
ENDBRANCH  11  12
ENDBRANCH  10  11
ENDBRANCH   9  10
ENDBRANCH   8   9
ENDBRANCH   7   8
ENDBRANCH   6   7
ENDBRANCH   5   6
ENDBRANCH   4   5
ENDBRANCH   3   4
ENDBRANCH   2   3
ENDBRANCH   1   2
BRANCH   1  18
ATOM     18  C   UNL     1      54.889  36.368  44.041  1.00  0.00     0.000 C 
BRANCH  18  19
ATOM     19  C   UNL     1      54.329  37.670  43.429  1.00  0.00     0.000 C 
BRANCH  19  20
ATOM     20  C   UNL     1      53.119  37.446  42.507  1.00  0.00     0.000 C 
BRANCH  20  21
ATOM     21  C   UNL     1      53.418  37.794  41.039  1.00  0.00     0.000 C 
BRANCH  21  22
ATOM     22  C   UNL     1      54.856  38.298  40.826  1.00  0.00     0.000 C 
BRANCH  22  23
ATOM     23  C   UNL     1      55.762  37.362  40.002  1.00  0.00     0.000 C 
BRANCH  23  24
ATOM     24  C   UNL     1      56.942  38.081  39.313  1.00  0.00    -0.000 C 
BRANCH  24  25
ATOM     25  C   UNL     1      57.131  37.628  37.854  1.00  0.00    -0.000 C 
BRANCH  25  26
ATOM     26  C   UNL     1      58.502  38.051  37.285  1.00  0.00    -0.000 C 
BRANCH  26  27
ATOM     27  C   UNL     1      58.637  39.565  37.056  1.00  0.00    -0.000 C 
BRANCH  27  28
ATOM     28  C   UNL     1      60.095  40.015  36.886  1.00  0.00    -0.000 C 
BRANCH  28  29
ATOM     29  C   UNL     1      61.046  38.810  36.877  1.00  0.00    -0.000 C 
BRANCH  29  30
ATOM     30  C   UNL     1      61.993  38.815  35.667  1.00  0.00    -0.000 C 
BRANCH  30  31
ATOM     31  C   UNL     1      61.295  38.383  34.368  1.00  0.00    -0.003 C 
ATOM     32  C   UNL     1      60.628  37.020  34.532  1.00  0.00     0.004 C 
ENDBRANCH  30  31
ENDBRANCH  29  30
ENDBRANCH  28  29
ENDBRANCH  27  28
ENDBRANCH  26  27
ENDBRANCH  25  26
ENDBRANCH  24  25
ENDBRANCH  23  24
ENDBRANCH  22  23
ENDBRANCH  21  22
ENDBRANCH  20  21
ENDBRANCH  19  20
ENDBRANCH  18  19
ENDBRANCH   1  18
TORSDOF 28
ENDMDL
MODEL 9
REMARK VINA RESULT:    -6.028      2.591      4.234
REMARK INTER + INTRA:         -19.327
REMARK INTER:                 -15.702
REMARK INTRA:                  -3.625
REMARK UNBOUND:                -3.432
REMARK SMILES CCCCCCCCCCCCCCCCCCCCCCCCCCCCCC(=O)[O-]
REMARK SMILES IDX 16 1 17 2 18 3 19 4 20 5 21 6 22 7 23 8 24 9 25 10 26 11
REMARK SMILES IDX 27 12 28 13 29 14 30 15 31 16 32 17 15 18 14 19 13 20 12 21
REMARK SMILES IDX 11 22 10 23 9 24 8 25 7 26 6 27 5 28 4 29 3 30 2 31 1 32
REMARK H PARENT
REMARK Flexibility Score: inf
ROOT
ATOM      1  C   UNL     1      54.977  36.613  41.788  1.00  0.00     0.000 C 
ENDROOT
BRANCH   1   2
ATOM      2  C   UNL     1      55.699  35.608  42.710  1.00  0.00     0.000 C 
BRANCH   2   3
ATOM      3  C   UNL     1      55.046  34.213  42.745  1.00  0.00     0.000 C 
BRANCH   3   4
ATOM      4  C   UNL     1      54.101  33.966  43.934  1.00  0.00     0.000 C 
BRANCH   4   5
ATOM      5  C   UNL     1      52.864  34.880  43.912  1.00  0.00     0.000 C 
BRANCH   5   6
ATOM      6  C   UNL     1      51.546  34.102  43.740  1.00  0.00     0.000 C 
BRANCH   6   7
ATOM      7  C   UNL     1      50.389  34.570  44.642  1.00  0.00     0.000 C 
BRANCH   7   8
ATOM      8  C   UNL     1      50.695  35.879  45.384  1.00  0.00     0.000 C 
BRANCH   8   9
ATOM      9  C   UNL     1      51.091  35.606  46.843  1.00  0.00     0.000 C 
BRANCH   9  10
ATOM     10  C   UNL     1      51.909  36.753  47.465  1.00  0.00     0.000 C 
BRANCH  10  11
ATOM     11  C   UNL     1      53.239  37.061  46.750  1.00  0.00     0.000 C 
BRANCH  11  12
ATOM     12  C   UNL     1      53.465  38.543  46.395  1.00  0.00     0.000 C 
BRANCH  12  13
ATOM     13  C   UNL     1      53.846  38.807  44.927  1.00  0.00     0.006 C 
BRANCH  13  14
ATOM     14  C   UNL     1      52.625  38.876  44.000  1.00  0.00     0.053 C 
BRANCH  14  15
ATOM     15  C   UNL     1      52.778  39.980  42.999  1.00  0.00     0.041 C 
ATOM     16  O   UNL     1      52.326  41.130  43.249  1.00  0.00    -0.550 OA
ATOM     17  O   UNL     1      53.389  39.733  41.775  1.00  0.00    -0.550 OA
ENDBRANCH  14  15
ENDBRANCH  13  14
ENDBRANCH  12  13
ENDBRANCH  11  12
ENDBRANCH  10  11
ENDBRANCH   9  10
ENDBRANCH   8   9
ENDBRANCH   7   8
ENDBRANCH   6   7
ENDBRANCH   5   6
ENDBRANCH   4   5
ENDBRANCH   3   4
ENDBRANCH   2   3
ENDBRANCH   1   2
BRANCH   1  18
ATOM     18  C   UNL     1      55.955  37.383  40.882  1.00  0.00     0.000 C 
BRANCH  18  19
ATOM     19  C   UNL     1      55.997  36.808  39.451  1.00  0.00     0.000 C 
BRANCH  19  20
ATOM     20  C   UNL     1      56.646  37.754  38.426  1.00  0.00     0.000 C 
BRANCH  20  21
ATOM     21  C   UNL     1      57.879  38.482  38.987  1.00  0.00     0.000 C 
BRANCH  21  22
ATOM     22  C   UNL     1      59.076  38.465  38.021  1.00  0.00     0.000 C 
BRANCH  22  23
ATOM     23  C   UNL     1      59.003  37.400  36.909  1.00  0.00     0.000 C 
BRANCH  23  24
ATOM     24  C   UNL     1      60.381  36.851  36.479  1.00  0.00    -0.000 C 
BRANCH  24  25
ATOM     25  C   UNL     1      60.882  37.489  35.171  1.00  0.00    -0.000 C 
BRANCH  25  26
ATOM     26  C   UNL     1      61.715  38.763  35.425  1.00  0.00    -0.000 C 
BRANCH  26  27
ATOM     27  C   UNL     1      61.368  39.930  34.485  1.00  0.00    -0.000 C 
BRANCH  27  28
ATOM     28  C   UNL     1      59.964  39.807  33.876  1.00  0.00    -0.000 C 
BRANCH  28  29
ATOM     29  C   UNL     1      58.976  40.752  34.575  1.00  0.00    -0.000 C 
BRANCH  29  30
ATOM     30  C   UNL     1      57.614  40.091  34.838  1.00  0.00    -0.000 C 
BRANCH  30  31
ATOM     31  C   UNL     1      57.379  38.851  33.963  1.00  0.00    -0.003 C 
ATOM     32  C   UNL     1      56.298  37.955  34.560  1.00  0.00     0.004 C 
ENDBRANCH  30  31
ENDBRANCH  29  30
ENDBRANCH  28  29
ENDBRANCH  27  28
ENDBRANCH  26  27
ENDBRANCH  25  26
ENDBRANCH  24  25
ENDBRANCH  23  24
ENDBRANCH  22  23
ENDBRANCH  21  22
ENDBRANCH  20  21
ENDBRANCH  19  20
ENDBRANCH  18  19
ENDBRANCH   1  18
TORSDOF 28
ENDMDL
