MODEL 1
REMARK VINA RESULT:    -3.218      0.000      0.000
REMARK INTER + INTRA:          -3.914
REMARK INTER:                  -3.782
REMARK INTRA:                  -0.132
REMARK UNBOUND:                -0.132
REMARK SMILES O=C([O-])C=Cc1ccc(O)c(O)c1
REMARK SMILES IDX 6 1 13 2 7 3 11 4 8 5 9 6 5 7 4 8 2 9 1 10 3 11 12 12 10 14
REMARK H PARENT 12 13 10 15
REMARK Flexibility Score: inf
ROOT
ATOM      1  C   UNL     1      -8.997   8.743  -0.430  1.00  0.00    -0.022 A 
ATOM      2  C   UNL     1      -7.759   8.985  -1.049  1.00  0.00     0.058 A 
ATOM      3  C   UNL     1     -10.109   8.427  -1.234  1.00  0.00     0.012 A 
ATOM      4  C   UNL     1      -7.623   8.888  -2.443  1.00  0.00     0.157 A 
ATOM      5  C   UNL     1      -9.974   8.332  -2.622  1.00  0.00     0.051 A 
ATOM      6  C   UNL     1      -8.736   8.557  -3.231  1.00  0.00     0.157 A 
ENDROOT
BRANCH   1   7
ATOM      7  C   UNL     1      -9.089   8.868   1.046  1.00  0.00     0.010 C 
ATOM      8  C   UNL     1      -9.393   7.850   1.862  1.00  0.00     0.025 C 
BRANCH   8   9
ATOM      9  C   UNL     1      -9.463   8.016   3.322  1.00  0.00     0.064 C 
ATOM     10  O   UNL     1     -10.124   8.970   3.808  1.00  0.00    -0.545 OA
ATOM     11  O   UNL     1      -8.807   7.137   4.176  1.00  0.00    -0.545 OA
ENDBRANCH   8   9
ENDBRANCH   1   7
BRANCH   4  12
ATOM     12  O   UNL     1      -6.386   9.121  -3.043  1.00  0.00    -0.504 OA
ATOM     13  H   UNL     1      -6.188   8.816  -3.988  1.00  0.00     0.293 HD
ENDBRANCH   4  12
BRANCH   6  14
ATOM     14  O   UNL     1      -8.633   8.453  -4.618  1.00  0.00    -0.504 OA
ATOM     15  H   UNL     1      -8.955   9.186  -5.238  1.00  0.00     0.293 HD
ENDBRANCH   6  14
TORSDOF 4
ENDMDL
MODEL 2
REMARK VINA RESULT:    -3.191      0.776      1.844
REMARK INTER + INTRA:          -3.883
REMARK INTER:                  -3.748
REMARK INTRA:                  -0.136
REMARK UNBOUND:                -0.132
REMARK SMILES O=C([O-])C=Cc1ccc(O)c(O)c1
REMARK SMILES IDX 6 1 13 2 7 3 11 4 8 5 9 6 5 7 4 8 2 9 1 10 3 11 12 12 10 14
REMARK H PARENT 12 13 10 15
REMARK Flexibility Score: inf
ROOT
ATOM      1  C   UNL     1      -8.648   8.770  -0.177  1.00  0.00    -0.022 A 
ATOM      2  C   UNL     1      -9.449   8.441  -1.284  1.00  0.00     0.058 A 
ATOM      3  C   UNL     1      -7.302   9.122  -0.393  1.00  0.00     0.012 A 
ATOM      4  C   UNL     1      -8.927   8.488  -2.586  1.00  0.00     0.157 A 
ATOM      5  C   UNL     1      -6.782   9.168  -1.689  1.00  0.00     0.051 A 
ATOM      6  C   UNL     1      -7.587   8.855  -2.788  1.00  0.00     0.157 A 
ENDROOT
BRANCH   1   7
ATOM      7  C   UNL     1      -9.247   8.696   1.179  1.00  0.00     0.010 C 
ATOM      8  C   UNL     1      -8.713   8.001   2.191  1.00  0.00     0.025 C 
BRANCH   8   9
ATOM      9  C   UNL     1      -9.336   7.964   3.524  1.00  0.00     0.064 C 
ATOM     10  O   UNL     1     -10.125   8.882   3.867  1.00  0.00    -0.545 OA
ATOM     11  O   UNL     1      -9.066   6.930   4.414  1.00  0.00    -0.545 OA
ENDBRANCH   8   9
ENDBRANCH   1   7
BRANCH   4  12
ATOM     12  O   UNL     1      -9.736   8.168  -3.676  1.00  0.00    -0.504 OA
ATOM     13  H   UNL     1      -9.754   8.742  -4.511  1.00  0.00     0.293 HD
ENDBRANCH   4  12
BRANCH   6  14
ATOM     14  O   UNL     1      -7.039   8.911  -4.069  1.00  0.00    -0.504 OA
ATOM     15  H   UNL     1      -6.040   8.961  -4.225  1.00  0.00     0.293 HD
ENDBRANCH   6  14
TORSDOF 4
ENDMDL
MODEL 3
REMARK VINA RESULT:    -3.160     16.532     17.919
REMARK INTER + INTRA:          -3.846
REMARK INTER:                  -3.719
REMARK INTRA:                  -0.127
REMARK UNBOUND:                -0.132
REMARK SMILES O=C([O-])C=Cc1ccc(O)c(O)c1
REMARK SMILES IDX 6 1 13 2 7 3 11 4 8 5 9 6 5 7 4 8 2 9 1 10 3 11 12 12 10 14
REMARK H PARENT 12 13 10 15
REMARK Flexibility Score: inf
ROOT
ATOM      1  C   UNL     1      -9.051  -8.738  -0.499  1.00  0.00    -0.022 A 
ATOM      2  C   UNL     1      -7.801  -9.069   0.050  1.00  0.00     0.058 A 
ATOM      3  C   UNL     1     -10.122  -8.457   0.371  1.00  0.00     0.012 A 
ATOM      4  C   UNL     1      -7.611  -9.093   1.440  1.00  0.00     0.157 A 
ATOM      5  C   UNL     1      -9.934  -8.482   1.756  1.00  0.00     0.051 A 
ATOM      6  C   UNL     1      -8.683  -8.795   2.295  1.00  0.00     0.157 A 
ENDROOT
BRANCH   1   7
ATOM      7  C   UNL     1      -9.200  -8.737  -1.976  1.00  0.00     0.010 C 
ATOM      8  C   UNL     1      -8.982  -7.662  -2.744  1.00  0.00     0.025 C 
BRANCH   8   9
ATOM      9  C   UNL     1      -9.131  -7.708  -4.208  1.00  0.00     0.064 C 
ATOM     10  O   UNL     1      -8.583  -6.824  -4.916  1.00  0.00    -0.545 OA
ATOM     11  O   UNL     1      -9.870  -8.713  -4.822  1.00  0.00    -0.545 OA
ENDBRANCH   8   9
ENDBRANCH   1   7
BRANCH   4  12
ATOM     12  O   UNL     1      -6.362  -9.413   1.971  1.00  0.00    -0.504 OA
ATOM     13  H   UNL     1      -5.565  -8.797   1.862  1.00  0.00     0.293 HD
ENDBRANCH   4  12
BRANCH   6  14
ATOM     14  O   UNL     1      -8.527  -8.811   3.681  1.00  0.00    -0.504 OA
ATOM     15  H   UNL     1      -7.758  -8.338   4.141  1.00  0.00     0.293 HD
ENDBRANCH   6  14
TORSDOF 4
ENDMDL
MODEL 4
REMARK VINA RESULT:    -3.158     11.481     13.633
REMARK INTER + INTRA:          -3.844
REMARK INTER:                  -3.720
REMARK INTRA:                  -0.124
REMARK UNBOUND:                -0.132
REMARK SMILES O=C([O-])C=Cc1ccc(O)c(O)c1
REMARK SMILES IDX 6 1 13 2 7 3 11 4 8 5 9 6 5 7 4 8 2 9 1 10 3 11 12 12 10 14
REMARK H PARENT 12 13 10 15
REMARK Flexibility Score: inf
ROOT
ATOM      1  C   UNL     1       0.569   8.980  -9.379  1.00  0.00    -0.022 A 
ATOM      2  C   UNL     1      -0.076   7.769  -9.685  1.00  0.00     0.058 A 
ATOM      3  C   UNL     1      -0.215  10.125  -9.140  1.00  0.00     0.012 A 
ATOM      4  C   UNL     1      -1.476   7.692  -9.727  1.00  0.00     0.157 A 
ATOM      5  C   UNL     1      -1.610  10.049  -9.183  1.00  0.00     0.051 A 
ATOM      6  C   UNL     1      -2.245   8.838  -9.471  1.00  0.00     0.157 A 
ENDROOT
BRANCH   1   7
ATOM      7  C   UNL     1       2.052   9.009  -9.357  1.00  0.00     0.010 C 
ATOM      8  C   UNL     1       2.782   8.928  -8.237  1.00  0.00     0.025 C 
BRANCH   8   9
ATOM      9  C   UNL     1       4.253   8.949  -8.263  1.00  0.00     0.064 C 
ATOM     10  O   UNL     1       4.896   7.946  -7.860  1.00  0.00    -0.545 OA
ATOM     11  O   UNL     1       4.946  10.062  -8.726  1.00  0.00    -0.545 OA
ENDBRANCH   8   9
ENDBRANCH   1   7
BRANCH   4  12
ATOM     12  O   UNL     1      -2.102   6.481 -10.022  1.00  0.00    -0.504 OA
ATOM     13  H   UNL     1      -2.552   5.927  -9.303  1.00  0.00     0.293 HD
ENDBRANCH   4  12
BRANCH   6  14
ATOM     14  O   UNL     1      -3.639   8.794  -9.505  1.00  0.00    -0.504 OA
ATOM     15  H   UNL     1      -4.210   9.544  -9.135  1.00  0.00     0.293 HD
ENDBRANCH   6  14
TORSDOF 4
ENDMDL
MODEL 5
REMARK VINA RESULT:    -3.131     18.912     20.223
REMARK INTER + INTRA:          -3.812
REMARK INTER:                  -3.680
REMARK INTRA:                  -0.132
REMARK UNBOUND:                -0.132
REMARK SMILES O=C([O-])C=Cc1ccc(O)c(O)c1
REMARK SMILES IDX 6 1 13 2 7 3 11 4 8 5 9 6 5 7 4 8 2 9 1 10 3 11 12 12 10 14
REMARK H PARENT 12 13 10 15
REMARK Flexibility Score: inf
ROOT
ATOM      1  C   UNL     1      -0.114  -6.558   9.288  1.00  0.00    -0.022 A 
ATOM      2  C   UNL     1      -1.511  -6.557   9.436  1.00  0.00     0.058 A 
ATOM      3  C   UNL     1       0.521  -7.732   8.838  1.00  0.00     0.012 A 
ATOM      4  C   UNL     1      -2.267  -7.695   9.117  1.00  0.00     0.157 A 
ATOM      5  C   UNL     1      -0.232  -8.866   8.521  1.00  0.00     0.051 A 
ATOM      6  C   UNL     1      -1.623  -8.853   8.655  1.00  0.00     0.157 A 
ENDROOT
BRANCH   1   7
ATOM      7  C   UNL     1       0.639  -5.331   9.649  1.00  0.00     0.010 C 
ATOM      8  C   UNL     1       1.569  -4.771   8.865  1.00  0.00     0.025 C 
BRANCH   8   9
ATOM      9  C   UNL     1       2.284  -3.546   9.259  1.00  0.00     0.064 C 
ATOM     10  O   UNL     1       3.496  -3.614   9.589  1.00  0.00    -0.545 OA
ATOM     11  O   UNL     1       1.641  -2.313   9.273  1.00  0.00    -0.545 OA
ENDBRANCH   8   9
ENDBRANCH   1   7
BRANCH   4  12
ATOM     12  O   UNL     1      -3.655  -7.676   9.259  1.00  0.00    -0.504 OA
ATOM     13  H   UNL     1      -4.116  -7.019   9.876  1.00  0.00     0.293 HD
ENDBRANCH   4  12
BRANCH   6  14
ATOM     14  O   UNL     1      -2.346 -10.000   8.328  1.00  0.00    -0.504 OA
ATOM     15  H   UNL     1      -3.168  -9.968   7.737  1.00  0.00     0.293 HD
ENDBRANCH   6  14
TORSDOF 4
ENDMDL
MODEL 6
REMARK VINA RESULT:    -3.120     17.013     18.397
REMARK INTER + INTRA:          -3.799
REMARK INTER:                  -3.671
REMARK INTRA:                  -0.128
REMARK UNBOUND:                -0.132
REMARK SMILES O=C([O-])C=Cc1ccc(O)c(O)c1
REMARK SMILES IDX 6 1 13 2 7 3 11 4 8 5 9 6 5 7 4 8 2 9 1 10 3 11 12 12 10 14
REMARK H PARENT 12 13 10 15
REMARK Flexibility Score: inf
ROOT
ATOM      1  C   UNL     1      -7.578  -9.014   0.156  1.00  0.00    -0.022 A 
ATOM      2  C   UNL     1      -8.352  -8.648   1.271  1.00  0.00     0.058 A 
ATOM      3  C   UNL     1      -6.386  -9.733   0.364  1.00  0.00     0.012 A 
ATOM      4  C   UNL     1      -7.961  -9.015   2.568  1.00  0.00     0.157 A 
ATOM      5  C   UNL     1      -5.995 -10.098   1.655  1.00  0.00     0.051 A 
ATOM      6  C   UNL     1      -6.778  -9.745   2.758  1.00  0.00     0.157 A 
ENDROOT
BRANCH   1   7
ATOM      7  C   UNL     1      -8.032  -8.592  -1.192  1.00  0.00     0.010 C 
ATOM      8  C   UNL     1      -9.307  -8.649  -1.600  1.00  0.00     0.025 C 
BRANCH   8   9
ATOM      9  C   UNL     1      -9.715  -8.210  -2.944  1.00  0.00     0.064 C 
ATOM     10  O   UNL     1     -10.099  -9.062  -3.786  1.00  0.00    -0.545 OA
ATOM     11  O   UNL     1      -9.681  -6.867  -3.301  1.00  0.00    -0.545 OA
ENDBRANCH   8   9
ENDBRANCH   1   7
BRANCH   4  12
ATOM     12  O   UNL     1      -8.744  -8.654   3.663  1.00  0.00    -0.504 OA
ATOM     13  H   UNL     1      -9.369  -7.857   3.630  1.00  0.00     0.293 HD
ENDBRANCH   4  12
BRANCH   6  14
ATOM     14  O   UNL     1      -6.362 -10.125   4.035  1.00  0.00    -0.504 OA
ATOM     15  H   UNL     1      -5.534  -9.736   4.468  1.00  0.00     0.293 HD
ENDBRANCH   6  14
TORSDOF 4
ENDMDL
MODEL 7
REMARK VINA RESULT:    -3.107     19.617     21.730
REMARK INTER + INTRA:          -3.784
REMARK INTER:                  -3.644
REMARK INTRA:                  -0.140
REMARK UNBOUND:                -0.132
REMARK SMILES O=C([O-])C=Cc1ccc(O)c(O)c1
REMARK SMILES IDX 6 1 13 2 7 3 11 4 8 5 9 6 5 7 4 8 2 9 1 10 3 11 12 12 10 14
REMARK H PARENT 12 13 10 15
REMARK Flexibility Score: inf
ROOT
ATOM      1  C   UNL     1       0.348  -8.334   8.524  1.00  0.00    -0.022 A 
ATOM      2  C   UNL     1      -0.957  -8.856   8.549  1.00  0.00     0.058 A 
ATOM      3  C   UNL     1       0.554  -7.003   8.932  1.00  0.00     0.012 A 
ATOM      4  C   UNL     1      -2.033  -8.077   8.998  1.00  0.00     0.157 A 
ATOM      5  C   UNL     1      -0.518  -6.226   9.379  1.00  0.00     0.051 A 
ATOM      6  C   UNL     1      -1.811  -6.756   9.417  1.00  0.00     0.157 A 
ENDROOT
BRANCH   1   7
ATOM      7  C   UNL     1       1.449  -9.199   8.030  1.00  0.00     0.010 C 
ATOM      8  C   UNL     1       2.711  -8.779   7.875  1.00  0.00     0.025 C 
BRANCH   8   9
ATOM      9  C   UNL     1       3.775  -9.674   7.392  1.00  0.00     0.064 C 
ATOM     10  O   UNL     1       3.780 -10.041   6.189  1.00  0.00    -0.545 OA
ATOM     11  O   UNL     1       4.777 -10.124   8.245  1.00  0.00    -0.545 OA
ENDBRANCH   8   9
ENDBRANCH   1   7
BRANCH   4  12
ATOM     12  O   UNL     1      -3.321  -8.612   9.027  1.00  0.00    -0.504 OA
ATOM     13  H   UNL     1      -3.952  -8.435   9.799  1.00  0.00     0.293 HD
ENDBRANCH   4  12
BRANCH   6  14
ATOM     14  O   UNL     1      -2.860  -5.956   9.870  1.00  0.00    -0.504 OA
ATOM     15  H   UNL     1      -2.715  -5.001  10.176  1.00  0.00     0.293 HD
ENDBRANCH   6  14
TORSDOF 4
ENDMDL
MODEL 8
REMARK VINA RESULT:    -3.103      2.428      3.172
REMARK INTER + INTRA:          -3.779
REMARK INTER:                  -3.635
REMARK INTRA:                  -0.144
REMARK UNBOUND:                -0.132
REMARK SMILES O=C([O-])C=Cc1ccc(O)c(O)c1
REMARK SMILES IDX 6 1 13 2 7 3 11 4 8 5 9 6 5 7 4 8 2 9 1 10 3 11 12 12 10 14
REMARK H PARENT 12 13 10 15
REMARK Flexibility Score: inf
ROOT
ATOM      1  C   UNL     1      -9.991   7.077  -1.765  1.00  0.00    -0.022 A 
ATOM      2  C   UNL     1      -9.997   7.504  -3.103  1.00  0.00     0.058 A 
ATOM      3  C   UNL     1     -10.054   5.697  -1.492  1.00  0.00     0.012 A 
ATOM      4  C   UNL     1     -10.038   6.575  -4.153  1.00  0.00     0.157 A 
ATOM      5  C   UNL     1     -10.095   4.770  -2.538  1.00  0.00     0.051 A 
ATOM      6  C   UNL     1     -10.084   5.201  -3.867  1.00  0.00     0.157 A 
ENDROOT
BRANCH   1   7
ATOM      7  C   UNL     1      -9.957   8.102  -0.692  1.00  0.00     0.010 C 
ATOM      8  C   UNL     1     -10.003   7.814   0.615  1.00  0.00     0.025 C 
BRANCH   8   9
ATOM      9  C   UNL     1      -9.956   8.863   1.646  1.00  0.00     0.064 C 
ATOM     10  O   UNL     1      -9.866  10.069   1.300  1.00  0.00    -0.545 OA
ATOM     11  O   UNL     1     -10.007   8.543   2.998  1.00  0.00    -0.545 OA
ENDBRANCH   8   9
ENDBRANCH   1   7
BRANCH   4  12
ATOM     12  O   UNL     1     -10.033   7.013  -5.477  1.00  0.00    -0.504 OA
ATOM     13  H   UNL     1      -9.604   7.891  -5.744  1.00  0.00     0.293 HD
ENDBRANCH   4  12
BRANCH   6  14
ATOM     14  O   UNL     1     -10.125   4.252  -4.889  1.00  0.00    -0.504 OA
ATOM     15  H   UNL     1     -10.379   4.495  -5.838  1.00  0.00     0.293 HD
ENDBRANCH   6  14
TORSDOF 4
ENDMDL
MODEL 9
REMARK VINA RESULT:    -3.035     19.473     21.522
REMARK INTER + INTRA:          -3.700
REMARK INTER:                  -3.571
REMARK INTRA:                  -0.129
REMARK UNBOUND:                -0.132
REMARK SMILES O=C([O-])C=Cc1ccc(O)c(O)c1
REMARK SMILES IDX 6 1 13 2 7 3 11 4 8 5 9 6 5 7 4 8 2 9 1 10 3 11 12 12 10 14
REMARK H PARENT 12 13 10 15
REMARK Flexibility Score: inf
ROOT
ATOM      1  C   UNL     1       0.317  -8.366   8.606  1.00  0.00    -0.022 A 
ATOM      2  C   UNL     1       0.572  -7.043   9.005  1.00  0.00     0.058 A 
ATOM      3  C   UNL     1      -1.014  -8.823   8.581  1.00  0.00     0.012 A 
ATOM      4  C   UNL     1      -0.481  -6.181   9.348  1.00  0.00     0.157 A 
ATOM      5  C   UNL     1      -2.063  -7.966   8.923  1.00  0.00     0.051 A 
ATOM      6  C   UNL     1      -1.805  -6.646   9.304  1.00  0.00     0.157 A 
ENDROOT
BRANCH   1   7
ATOM      7  C   UNL     1       1.468  -9.238   8.263  1.00  0.00     0.010 C 
ATOM      8  C   UNL     1       2.543  -8.818   7.581  1.00  0.00     0.025 C 
BRANCH   8   9
ATOM      9  C   UNL     1       3.667  -9.715   7.272  1.00  0.00     0.064 C 
ATOM     10  O   UNL     1       3.832 -10.120   6.092  1.00  0.00    -0.545 OA
ATOM     11  O   UNL     1       4.552 -10.125   8.263  1.00  0.00    -0.545 OA
ENDBRANCH   8   9
ENDBRANCH   1   7
BRANCH   4  12
ATOM     12  O   UNL     1      -0.214  -4.868   9.734  1.00  0.00    -0.504 OA
ATOM     13  H   UNL     1      -0.321  -4.094   9.090  1.00  0.00     0.293 HD
ENDBRANCH   4  12
BRANCH   6  14
ATOM     14  O   UNL     1      -2.873  -5.815   9.639  1.00  0.00    -0.504 OA
ATOM     15  H   UNL     1      -3.508  -5.448   8.941  1.00  0.00     0.293 HD
ENDBRANCH   6  14
TORSDOF 4
ENDMDL
