MODEL 1
REMARK VINA RESULT:     3.367      0.000      0.000
REMARK INTER + INTRA:           6.708
REMARK INTER:                   7.305
REMARK INTRA:                  -0.596
REMARK UNBOUND:                -0.596
REMARK SMILES CCCCCCCCCCCCCCCCCCCCCC(=O)[O-]
REMARK SMILES IDX 12 1 11 2 10 3 9 4 8 5 7 6 6 7 5 8 4 9 3 10 2 11 1 12 13 13
REMARK SMILES IDX 14 14 15 15 16 16 17 17 18 18 19 19 20 20 21 21 22 22 23 23
REMARK SMILES IDX 24 24
REMARK H PARENT
REMARK Flexibility Score: inf
ROOT
ATOM      1  C   UNL     1      -4.395  34.279  22.339  1.00  0.00     0.000 C 
ENDROOT
BRANCH   1   2
ATOM      2  C   UNL     1      -4.623  34.947  20.968  1.00  0.00     0.000 C 
BRANCH   2   3
ATOM      3  C   UNL     1      -5.967  34.542  20.338  1.00  0.00     0.000 C 
BRANCH   3   4
ATOM      4  C   UNL     1      -5.933  34.550  18.800  1.00  0.00    -0.000 C 
BRANCH   4   5
ATOM      5  C   UNL     1      -4.541  34.338  18.179  1.00  0.00    -0.000 C 
BRANCH   5   6
ATOM      6  C   UNL     1      -4.105  35.508  17.280  1.00  0.00    -0.000 C 
BRANCH   6   7
ATOM      7  C   UNL     1      -3.062  35.096  16.228  1.00  0.00    -0.000 C 
BRANCH   7   8
ATOM      8  C   UNL     1      -2.816  36.129  15.110  1.00  0.00    -0.000 C 
BRANCH   8   9
ATOM      9  C   UNL     1      -3.855  36.075  13.971  1.00  0.00    -0.000 C 
BRANCH   9  10
ATOM     10  C   UNL     1      -4.685  37.365  13.879  1.00  0.00    -0.000 C 
BRANCH  10  11
ATOM     11  C   UNL     1      -3.973  38.528  14.580  1.00  0.00    -0.003 C 
ATOM     12  C   UNL     1      -4.862  39.768  14.627  1.00  0.00     0.004 C 
ENDBRANCH  10  11
ENDBRANCH   9  10
ENDBRANCH   8   9
ENDBRANCH   7   8
ENDBRANCH   6   7
ENDBRANCH   5   6
ENDBRANCH   4   5
ENDBRANCH   3   4
ENDBRANCH   2   3
ENDBRANCH   1   2
BRANCH   1  13
ATOM     13  C   UNL     1      -5.686  34.055  23.150  1.00  0.00     0.000 C 
BRANCH  13  14
ATOM     14  C   UNL     1      -6.114  35.266  24.006  1.00  0.00     0.000 C 
BRANCH  14  15
ATOM     15  C   UNL     1      -5.158  35.596  25.172  1.00  0.00     0.000 C 
BRANCH  15  16
ATOM     16  C   UNL     1      -5.441  36.924  25.909  1.00  0.00     0.000 C 
BRANCH  16  17
ATOM     17  C   UNL     1      -4.261  37.912  25.969  1.00  0.00     0.000 C 
BRANCH  17  18
ATOM     18  C   UNL     1      -4.202  38.925  24.808  1.00  0.00     0.000 C 
BRANCH  18  19
ATOM     19  C   UNL     1      -5.589  39.297  24.238  1.00  0.00     0.000 C 
BRANCH  19  20
ATOM     20  C   UNL     1      -5.515  39.803  22.786  1.00  0.00     0.006 C 
BRANCH  20  21
ATOM     21  C   UNL     1      -4.617  38.921  21.911  1.00  0.00     0.053 C 
BRANCH  21  22
ATOM     22  C   UNL     1      -5.395  38.242  20.825  1.00  0.00     0.041 C 
ATOM     23  O   UNL     1      -6.090  37.224  21.083  1.00  0.00    -0.550 OA
ATOM     24  O   UNL     1      -5.377  38.753  19.533  1.00  0.00    -0.550 OA
ENDBRANCH  21  22
ENDBRANCH  20  21
ENDBRANCH  19  20
ENDBRANCH  18  19
ENDBRANCH  17  18
ENDBRANCH  16  17
ENDBRANCH  15  16
ENDBRANCH  14  15
ENDBRANCH  13  14
ENDBRANCH   1  13
TORSDOF 20
ENDMDL
MODEL 2
REMARK VINA RESULT:     3.594      1.461      2.565
REMARK INTER + INTRA:           7.199
REMARK INTER:                   7.151
REMARK INTRA:                   0.048
REMARK UNBOUND:                -0.596
REMARK SMILES CCCCCCCCCCCCCCCCCCCCCC(=O)[O-]
REMARK SMILES IDX 12 1 11 2 10 3 9 4 8 5 7 6 6 7 5 8 4 9 3 10 2 11 1 12 13 13
REMARK SMILES IDX 14 14 15 15 16 16 17 17 18 18 19 19 20 20 21 21 22 22 23 23
REMARK SMILES IDX 24 24
REMARK H PARENT
REMARK Flexibility Score: inf
ROOT
ATOM      1  C   UNL     1      -5.257  36.618  20.892  1.00  0.00     0.000 C 
ENDROOT
BRANCH   1   2
ATOM      2  C   UNL     1      -4.617  36.023  19.621  1.00  0.00     0.000 C 
BRANCH   2   3
ATOM      3  C   UNL     1      -5.572  35.074  18.877  1.00  0.00     0.000 C 
BRANCH   3   4
ATOM      4  C   UNL     1      -4.847  33.886  18.223  1.00  0.00    -0.000 C 
BRANCH   4   5
ATOM      5  C   UNL     1      -3.790  34.268  17.172  1.00  0.00    -0.000 C 
BRANCH   5   6
ATOM      6  C   UNL     1      -3.883  35.741  16.741  1.00  0.00    -0.000 C 
BRANCH   6   7
ATOM      7  C   UNL     1      -2.945  36.082  15.571  1.00  0.00    -0.000 C 
BRANCH   7   8
ATOM      8  C   UNL     1      -3.580  35.981  14.170  1.00  0.00    -0.000 C 
BRANCH   8   9
ATOM      9  C   UNL     1      -4.619  37.082  13.875  1.00  0.00    -0.000 C 
BRANCH   9  10
ATOM     10  C   UNL     1      -4.150  38.467  14.350  1.00  0.00    -0.000 C 
BRANCH  10  11
ATOM     11  C   UNL     1      -5.142  39.558  13.927  1.00  0.00    -0.003 C 
ATOM     12  C   UNL     1      -4.787  40.899  14.563  1.00  0.00     0.004 C 
ENDBRANCH  10  11
ENDBRANCH   9  10
ENDBRANCH   8   9
ENDBRANCH   7   8
ENDBRANCH   6   7
ENDBRANCH   5   6
ENDBRANCH   4   5
ENDBRANCH   3   4
ENDBRANCH   2   3
ENDBRANCH   1   2
BRANCH   1  13
ATOM     13  C   UNL     1      -6.125  35.620  21.684  1.00  0.00     0.000 C 
BRANCH  13  14
ATOM     14  C   UNL     1      -5.669  34.150  21.564  1.00  0.00     0.000 C 
BRANCH  14  15
ATOM     15  C   UNL     1      -4.978  33.589  22.825  1.00  0.00     0.000 C 
BRANCH  15  16
ATOM     16  C   UNL     1      -5.923  33.193  23.981  1.00  0.00     0.000 C 
BRANCH  16  17
ATOM     17  C   UNL     1      -6.100  34.252  25.084  1.00  0.00     0.000 C 
BRANCH  17  18
ATOM     18  C   UNL     1      -5.254  35.528  24.903  1.00  0.00     0.000 C 
BRANCH  18  19
ATOM     19  C   UNL     1      -5.774  36.738  25.709  1.00  0.00     0.000 C 
BRANCH  19  20
ATOM     20  C   UNL     1      -5.316  38.084  25.119  1.00  0.00     0.006 C 
BRANCH  20  21
ATOM     21  C   UNL     1      -5.892  38.328  23.720  1.00  0.00     0.053 C 
BRANCH  21  22
ATOM     22  C   UNL     1      -5.358  39.591  23.114  1.00  0.00     0.041 C 
ATOM     23  O   UNL     1      -5.637  39.891  21.923  1.00  0.00    -0.550 OA
ATOM     24  O   UNL     1      -4.578  40.453  23.877  1.00  0.00    -0.550 OA
ENDBRANCH  21  22
ENDBRANCH  20  21
ENDBRANCH  19  20
ENDBRANCH  18  19
ENDBRANCH  17  18
ENDBRANCH  16  17
ENDBRANCH  15  16
ENDBRANCH  14  15
ENDBRANCH  13  14
ENDBRANCH   1  13
TORSDOF 20
ENDMDL
MODEL 3
REMARK VINA RESULT:     4.654      3.542      4.727
REMARK INTER + INTRA:           9.499
REMARK INTER:                  10.052
REMARK INTRA:                  -0.553
REMARK UNBOUND:                -0.596
REMARK SMILES CCCCCCCCCCCCCCCCCCCCCC(=O)[O-]
REMARK SMILES IDX 12 1 11 2 10 3 9 4 8 5 7 6 6 7 5 8 4 9 3 10 2 11 1 12 13 13
REMARK SMILES IDX 14 14 15 15 16 16 17 17 18 18 19 19 20 20 21 21 22 22 23 23
REMARK SMILES IDX 24 24
REMARK H PARENT
REMARK Flexibility Score: inf
ROOT
ATOM      1  C   UNL     1      -4.251  34.107  22.603  1.00  0.00     0.000 C 
ENDROOT
BRANCH   1   2
ATOM      2  C   UNL     1      -3.984  34.868  21.289  1.00  0.00     0.000 C 
BRANCH   2   3
ATOM      3  C   UNL     1      -5.006  35.993  21.049  1.00  0.00     0.000 C 
BRANCH   3   4
ATOM      4  C   UNL     1      -5.325  36.204  19.559  1.00  0.00    -0.000 C 
BRANCH   4   5
ATOM      5  C   UNL     1      -5.752  34.935  18.800  1.00  0.00    -0.000 C 
BRANCH   5   6
ATOM      6  C   UNL     1      -4.639  34.379  17.894  1.00  0.00    -0.000 C 
BRANCH   6   7
ATOM      7  C   UNL     1      -4.118  35.413  16.883  1.00  0.00    -0.000 C 
BRANCH   7   8
ATOM      8  C   UNL     1      -2.904  34.961  16.049  1.00  0.00    -0.000 C 
BRANCH   8   9
ATOM      9  C   UNL     1      -2.209  36.107  15.285  1.00  0.00    -0.000 C 
BRANCH   9  10
ATOM     10  C   UNL     1      -2.788  36.303  13.875  1.00  0.00    -0.000 C 
BRANCH  10  11
ATOM     11  C   UNL     1      -4.222  36.842  13.939  1.00  0.00    -0.003 C 
ATOM     12  C   UNL     1      -4.234  38.340  14.227  1.00  0.00     0.004 C 
ENDBRANCH  10  11
ENDBRANCH   9  10
ENDBRANCH   8   9
ENDBRANCH   7   8
ENDBRANCH   6   7
ENDBRANCH   5   6
ENDBRANCH   4   5
ENDBRANCH   3   4
ENDBRANCH   2   3
ENDBRANCH   1   2
BRANCH   1  13
ATOM     13  C   UNL     1      -5.717  34.164  23.075  1.00  0.00     0.000 C 
BRANCH  13  14
ATOM     14  C   UNL     1      -6.111  35.493  23.755  1.00  0.00     0.000 C 
BRANCH  14  15
ATOM     15  C   UNL     1      -5.723  35.588  25.246  1.00  0.00     0.000 C 
BRANCH  15  16
ATOM     16  C   UNL     1      -5.663  37.019  25.827  1.00  0.00     0.000 C 
BRANCH  16  17
ATOM     17  C   UNL     1      -4.266  37.665  25.854  1.00  0.00     0.000 C 
BRANCH  17  18
ATOM     18  C   UNL     1      -3.479  37.457  27.163  1.00  0.00     0.000 C 
BRANCH  18  19
ATOM     19  C   UNL     1      -1.962  37.253  26.949  1.00  0.00     0.000 C 
BRANCH  19  20
ATOM     20  C   UNL     1      -1.462  35.908  27.505  1.00  0.00     0.006 C 
BRANCH  20  21
ATOM     21  C   UNL     1      -2.399  35.341  28.579  1.00  0.00     0.053 C 
BRANCH  21  22
ATOM     22  C   UNL     1      -1.713  34.314  29.427  1.00  0.00     0.041 C 
ATOM     23  O   UNL     1      -2.350  33.704  30.326  1.00  0.00    -0.550 OA
ATOM     24  O   UNL     1      -0.375  34.008  29.203  1.00  0.00    -0.550 OA
ENDBRANCH  21  22
ENDBRANCH  20  21
ENDBRANCH  19  20
ENDBRANCH  18  19
ENDBRANCH  17  18
ENDBRANCH  16  17
ENDBRANCH  15  16
ENDBRANCH  14  15
ENDBRANCH  13  14
ENDBRANCH   1  13
TORSDOF 20
ENDMDL
MODEL 4
REMARK VINA RESULT:     5.118      2.774      9.190
REMARK INTER + INTRA:          10.505
REMARK INTER:                  10.744
REMARK INTRA:                  -0.238
REMARK UNBOUND:                -0.596
REMARK SMILES CCCCCCCCCCCCCCCCCCCCCC(=O)[O-]
REMARK SMILES IDX 12 1 11 2 10 3 9 4 8 5 7 6 6 7 5 8 4 9 3 10 2 11 1 12 13 13
REMARK SMILES IDX 14 14 15 15 16 16 17 17 18 18 19 19 20 20 21 21 22 22 23 23
REMARK SMILES IDX 24 24
REMARK H PARENT
REMARK Flexibility Score: inf
ROOT
ATOM      1  C   UNL     1      -5.880  38.790  20.967  1.00  0.00     0.000 C 
ENDROOT
BRANCH   1   2
ATOM      2  C   UNL     1      -5.245  39.527  22.163  1.00  0.00     0.000 C 
BRANCH   2   3
ATOM      3  C   UNL     1      -5.610  38.878  23.509  1.00  0.00     0.000 C 
BRANCH   3   4
ATOM      4  C   UNL     1      -5.941  37.381  23.381  1.00  0.00    -0.000 C 
BRANCH   4   5
ATOM      5  C   UNL     1      -5.705  36.552  24.656  1.00  0.00    -0.000 C 
BRANCH   5   6
ATOM      6  C   UNL     1      -5.053  37.367  25.785  1.00  0.00    -0.000 C 
BRANCH   6   7
ATOM      7  C   UNL     1      -3.997  36.567  26.567  1.00  0.00    -0.000 C 
BRANCH   7   8
ATOM      8  C   UNL     1      -2.633  37.265  26.728  1.00  0.00    -0.000 C 
BRANCH   8   9
ATOM      9  C   UNL     1      -1.628  36.479  27.597  1.00  0.00    -0.000 C 
BRANCH   9  10
ATOM     10  C   UNL     1      -2.325  35.470  28.523  1.00  0.00    -0.000 C 
BRANCH  10  11
ATOM     11  C   UNL     1      -1.313  34.492  29.133  1.00  0.00    -0.003 C 
ATOM     12  C   UNL     1      -1.994  33.526  30.097  1.00  0.00     0.004 C 
ENDBRANCH  10  11
ENDBRANCH   9  10
ENDBRANCH   8   9
ENDBRANCH   7   8
ENDBRANCH   6   7
ENDBRANCH   5   6
ENDBRANCH   4   5
ENDBRANCH   3   4
ENDBRANCH   2   3
ENDBRANCH   1   2
BRANCH   1  13
ATOM     13  C   UNL     1      -4.920  37.828  20.241  1.00  0.00     0.000 C 
BRANCH  13  14
ATOM     14  C   UNL     1      -4.792  36.440  20.905  1.00  0.00     0.000 C 
BRANCH  14  15
ATOM     15  C   UNL     1      -5.748  35.369  20.339  1.00  0.00     0.000 C 
BRANCH  15  16
ATOM     16  C   UNL     1      -5.066  34.157  19.667  1.00  0.00     0.000 C 
BRANCH  16  17
ATOM     17  C   UNL     1      -5.076  34.162  18.126  1.00  0.00     0.000 C 
BRANCH  17  18
ATOM     18  C   UNL     1      -4.291  35.318  17.475  1.00  0.00     0.000 C 
BRANCH  18  19
ATOM     19  C   UNL     1      -3.702  34.966  16.091  1.00  0.00     0.000 C 
BRANCH  19  20
ATOM     20  C   UNL     1      -2.450  35.793  15.752  1.00  0.00     0.006 C 
BRANCH  20  21
ATOM     21  C   UNL     1      -2.563  36.485  14.389  1.00  0.00     0.053 C 
BRANCH  21  22
ATOM     22  C   UNL     1      -3.870  37.204  14.240  1.00  0.00     0.041 C 
ATOM     23  O   UNL     1      -3.933  38.449  14.416  1.00  0.00    -0.550 OA
ATOM     24  O   UNL     1      -5.013  36.501  13.875  1.00  0.00    -0.550 OA
ENDBRANCH  21  22
ENDBRANCH  20  21
ENDBRANCH  19  20
ENDBRANCH  18  19
ENDBRANCH  17  18
ENDBRANCH  16  17
ENDBRANCH  15  16
ENDBRANCH  14  15
ENDBRANCH  13  14
ENDBRANCH   1  13
TORSDOF 20
ENDMDL
MODEL 5
REMARK VINA RESULT:     5.314      2.060      8.309
REMARK INTER + INTRA:          10.932
REMARK INTER:                  11.040
REMARK INTRA:                  -0.108
REMARK UNBOUND:                -0.596
REMARK SMILES CCCCCCCCCCCCCCCCCCCCCC(=O)[O-]
REMARK SMILES IDX 12 1 11 2 10 3 9 4 8 5 7 6 6 7 5 8 4 9 3 10 2 11 1 12 13 13
REMARK SMILES IDX 14 14 15 15 16 16 17 17 18 18 19 19 20 20 21 21 22 22 23 23
REMARK SMILES IDX 24 24
REMARK H PARENT
REMARK Flexibility Score: inf
ROOT
ATOM      1  C   UNL     1      -5.724  38.320  20.646  1.00  0.00     0.000 C 
ENDROOT
BRANCH   1   2
ATOM      2  C   UNL     1      -5.014  39.593  21.150  1.00  0.00     0.000 C 
BRANCH   2   3
ATOM      3  C   UNL     1      -5.563  40.068  22.506  1.00  0.00     0.000 C 
BRANCH   3   4
ATOM      4  C   UNL     1      -5.285  39.073  23.646  1.00  0.00    -0.000 C 
BRANCH   4   5
ATOM      5  C   UNL     1      -4.455  39.636  24.813  1.00  0.00    -0.000 C 
BRANCH   5   6
ATOM      6  C   UNL     1      -4.534  38.763  26.077  1.00  0.00    -0.000 C 
BRANCH   6   7
ATOM      7  C   UNL     1      -4.054  37.322  25.840  1.00  0.00    -0.000 C 
BRANCH   7   8
ATOM      8  C   UNL     1      -5.146  36.240  25.953  1.00  0.00    -0.000 C 
BRANCH   8   9
ATOM      9  C   UNL     1      -6.125  36.214  24.760  1.00  0.00    -0.000 C 
BRANCH   9  10
ATOM     10  C   UNL     1      -5.605  35.351  23.600  1.00  0.00    -0.000 C 
BRANCH  10  11
ATOM     11  C   UNL     1      -5.894  33.866  23.846  1.00  0.00    -0.003 C 
ATOM     12  C   UNL     1      -5.710  33.050  22.570  1.00  0.00     0.004 C 
ENDBRANCH  10  11
ENDBRANCH   9  10
ENDBRANCH   8   9
ENDBRANCH   7   8
ENDBRANCH   6   7
ENDBRANCH   5   6
ENDBRANCH   4   5
ENDBRANCH   3   4
ENDBRANCH   2   3
ENDBRANCH   1   2
BRANCH   1  13
ATOM     13  C   UNL     1      -5.032  37.008  21.065  1.00  0.00     0.000 C 
BRANCH  13  14
ATOM     14  C   UNL     1      -5.486  35.769  20.264  1.00  0.00     0.000 C 
BRANCH  14  15
ATOM     15  C   UNL     1      -4.950  35.710  18.818  1.00  0.00     0.000 C 
BRANCH  15  16
ATOM     16  C   UNL     1      -4.093  34.471  18.477  1.00  0.00     0.000 C 
BRANCH  16  17
ATOM     17  C   UNL     1      -3.943  34.163  16.975  1.00  0.00     0.000 C 
BRANCH  17  18
ATOM     18  C   UNL     1      -3.143  35.209  16.174  1.00  0.00     0.000 C 
BRANCH  18  19
ATOM     19  C   UNL     1      -3.707  35.471  14.760  1.00  0.00     0.000 C 
BRANCH  19  20
ATOM     20  C   UNL     1      -2.809  36.404  13.929  1.00  0.00     0.006 C 
BRANCH  20  21
ATOM     21  C   UNL     1      -2.933  37.868  14.367  1.00  0.00     0.053 C 
BRANCH  21  22
ATOM     22  C   UNL     1      -4.342  38.363  14.254  1.00  0.00     0.041 C 
ATOM     23  O   UNL     1      -4.608  39.577  14.463  1.00  0.00    -0.550 OA
ATOM     24  O   UNL     1      -5.359  37.490  13.887  1.00  0.00    -0.550 OA
ENDBRANCH  21  22
ENDBRANCH  20  21
ENDBRANCH  19  20
ENDBRANCH  18  19
ENDBRANCH  17  18
ENDBRANCH  16  17
ENDBRANCH  15  16
ENDBRANCH  14  15
ENDBRANCH  13  14
ENDBRANCH   1  13
TORSDOF 20
ENDMDL
MODEL 6
REMARK VINA RESULT:     5.505      2.769      8.854
REMARK INTER + INTRA:          11.344
REMARK INTER:                  11.537
REMARK INTRA:                  -0.192
REMARK UNBOUND:                -0.596
REMARK SMILES CCCCCCCCCCCCCCCCCCCCCC(=O)[O-]
REMARK SMILES IDX 12 1 11 2 10 3 9 4 8 5 7 6 6 7 5 8 4 9 3 10 2 11 1 12 13 13
REMARK SMILES IDX 14 14 15 15 16 16 17 17 18 18 19 19 20 20 21 21 22 22 23 23
REMARK SMILES IDX 24 24
REMARK H PARENT
REMARK Flexibility Score: inf
ROOT
ATOM      1  C   UNL     1      -5.313  34.401  22.844  1.00  0.00     0.000 C 
ENDROOT
BRANCH   1   2
ATOM      2  C   UNL     1      -6.121  33.661  23.929  1.00  0.00     0.000 C 
BRANCH   2   3
ATOM      3  C   UNL     1      -6.125  34.414  25.270  1.00  0.00     0.000 C 
BRANCH   3   4
ATOM      4  C   UNL     1      -5.348  35.741  25.213  1.00  0.00    -0.000 C 
BRANCH   4   5
ATOM      5  C   UNL     1      -5.771  36.788  26.259  1.00  0.00    -0.000 C 
BRANCH   5   6
ATOM      6  C   UNL     1      -5.050  38.134  26.080  1.00  0.00    -0.000 C 
BRANCH   6   7
ATOM      7  C   UNL     1      -3.836  38.291  27.011  1.00  0.00    -0.000 C 
BRANCH   7   8
ATOM      8  C   UNL     1      -2.525  37.672  26.489  1.00  0.00    -0.000 C 
BRANCH   8   9
ATOM      9  C   UNL     1      -1.710  36.932  27.570  1.00  0.00    -0.000 C 
BRANCH   9  10
ATOM     10  C   UNL     1      -2.396  35.636  28.032  1.00  0.00    -0.000 C 
BRANCH  10  11
ATOM     11  C   UNL     1      -1.473  34.818  28.941  1.00  0.00    -0.003 C 
ATOM     12  C   UNL     1      -2.276  33.898  29.855  1.00  0.00     0.004 C 
ENDBRANCH  10  11
ENDBRANCH   9  10
ENDBRANCH   8   9
ENDBRANCH   7   8
ENDBRANCH   6   7
ENDBRANCH   5   6
ENDBRANCH   4   5
ENDBRANCH   3   4
ENDBRANCH   2   3
ENDBRANCH   1   2
BRANCH   1  13
ATOM     13  C   UNL     1      -6.124  35.459  22.069  1.00  0.00     0.000 C 
BRANCH  13  14
ATOM     14  C   UNL     1      -5.761  36.917  22.420  1.00  0.00     0.000 C 
BRANCH  14  15
ATOM     15  C   UNL     1      -5.701  37.871  21.208  1.00  0.00     0.000 C 
BRANCH  15  16
ATOM     16  C   UNL     1      -4.894  37.356  19.996  1.00  0.00     0.000 C 
BRANCH  16  17
ATOM     17  C   UNL     1      -5.408  36.048  19.366  1.00  0.00     0.000 C 
BRANCH  17  18
ATOM     18  C   UNL     1      -4.343  34.946  19.195  1.00  0.00     0.000 C 
BRANCH  18  19
ATOM     19  C   UNL     1      -4.288  34.351  17.771  1.00  0.00     0.000 C 
BRANCH  19  20
ATOM     20  C   UNL     1      -4.320  35.432  16.676  1.00  0.00     0.006 C 
BRANCH  20  21
ATOM     21  C   UNL     1      -3.361  35.115  15.522  1.00  0.00     0.053 C 
BRANCH  21  22
ATOM     22  C   UNL     1      -3.092  36.324  14.678  1.00  0.00     0.041 C 
ATOM     23  O   UNL     1      -3.989  37.191  14.506  1.00  0.00    -0.550 OA
ATOM     24  O   UNL     1      -1.839  36.508  14.105  1.00  0.00    -0.550 OA
ENDBRANCH  21  22
ENDBRANCH  20  21
ENDBRANCH  19  20
ENDBRANCH  18  19
ENDBRANCH  17  18
ENDBRANCH  16  17
ENDBRANCH  15  16
ENDBRANCH  14  15
ENDBRANCH  13  14
ENDBRANCH   1  13
TORSDOF 20
ENDMDL
MODEL 7
REMARK VINA RESULT:     5.802      2.650      3.970
REMARK INTER + INTRA:          11.989
REMARK INTER:                  11.019
REMARK INTRA:                   0.969
REMARK UNBOUND:                -0.596
REMARK SMILES CCCCCCCCCCCCCCCCCCCCCC(=O)[O-]
REMARK SMILES IDX 12 1 11 2 10 3 9 4 8 5 7 6 6 7 5 8 4 9 3 10 2 11 1 12 13 13
REMARK SMILES IDX 14 14 15 15 16 16 17 17 18 18 19 19 20 20 21 21 22 22 23 23
REMARK SMILES IDX 24 24
REMARK H PARENT
REMARK Flexibility Score: inf
ROOT
ATOM      1  C   UNL     1      -4.693  37.490  21.853  1.00  0.00     0.000 C 
ENDROOT
BRANCH   1   2
ATOM      2  C   UNL     1      -5.784  38.228  21.051  1.00  0.00     0.000 C 
BRANCH   2   3
ATOM      3  C   UNL     1      -5.272  38.718  19.685  1.00  0.00     0.000 C 
BRANCH   3   4
ATOM      4  C   UNL     1      -4.866  37.566  18.750  1.00  0.00    -0.000 C 
BRANCH   4   5
ATOM      5  C   UNL     1      -5.448  36.190  19.122  1.00  0.00    -0.000 C 
BRANCH   5   6
ATOM      6  C   UNL     1      -4.389  35.075  19.120  1.00  0.00    -0.000 C 
BRANCH   6   7
ATOM      7  C   UNL     1      -4.358  34.281  17.803  1.00  0.00    -0.000 C 
BRANCH   7   8
ATOM      8  C   UNL     1      -4.333  35.138  16.523  1.00  0.00    -0.000 C 
BRANCH   8   9
ATOM      9  C   UNL     1      -2.935  35.258  15.880  1.00  0.00    -0.000 C 
BRANCH   9  10
ATOM     10  C   UNL     1      -2.750  36.589  15.134  1.00  0.00    -0.000 C 
BRANCH  10  11
ATOM     11  C   UNL     1      -3.715  36.693  13.947  1.00  0.00    -0.003 C 
ATOM     12  C   UNL     1      -4.394  38.059  13.909  1.00  0.00     0.004 C 
ENDBRANCH  10  11
ENDBRANCH   9  10
ENDBRANCH   8   9
ENDBRANCH   7   8
ENDBRANCH   6   7
ENDBRANCH   5   6
ENDBRANCH   4   5
ENDBRANCH   3   4
ENDBRANCH   2   3
ENDBRANCH   1   2
BRANCH   1  13
ATOM     13  C   UNL     1      -4.792  35.953  21.782  1.00  0.00     0.000 C 
BRANCH  13  14
ATOM     14  C   UNL     1      -6.125  35.380  22.308  1.00  0.00     0.000 C 
BRANCH  14  15
ATOM     15  C   UNL     1      -6.104  33.862  22.585  1.00  0.00     0.000 C 
BRANCH  15  16
ATOM     16  C   UNL     1      -5.914  33.459  24.064  1.00  0.00     0.000 C 
BRANCH  16  17
ATOM     17  C   UNL     1      -6.124  34.587  25.090  1.00  0.00     0.000 C 
BRANCH  17  18
ATOM     18  C   UNL     1      -4.970  35.604  25.184  1.00  0.00     0.000 C 
BRANCH  18  19
ATOM     19  C   UNL     1      -5.440  37.076  25.212  1.00  0.00     0.000 C 
BRANCH  19  20
ATOM     20  C   UNL     1      -4.698  37.914  26.269  1.00  0.00     0.006 C 
BRANCH  20  21
ATOM     21  C   UNL     1      -3.225  38.133  25.905  1.00  0.00     0.053 C 
BRANCH  21  22
ATOM     22  C   UNL     1      -2.307  37.485  26.896  1.00  0.00     0.041 C 
ATOM     23  O   UNL     1      -1.132  37.912  27.046  1.00  0.00    -0.550 OA
ATOM     24  O   UNL     1      -2.760  36.428  27.677  1.00  0.00    -0.550 OA
ENDBRANCH  21  22
ENDBRANCH  20  21
ENDBRANCH  19  20
ENDBRANCH  18  19
ENDBRANCH  17  18
ENDBRANCH  16  17
ENDBRANCH  15  16
ENDBRANCH  14  15
ENDBRANCH  13  14
ENDBRANCH   1  13
TORSDOF 20
ENDMDL
