MODEL 1
REMARK VINA RESULT:    35.322      0.000      0.000
REMARK INTER + INTRA:          42.321
REMARK INTER:                  42.549
REMARK INTRA:                  -0.228
REMARK UNBOUND:                -0.228
REMARK SMILES O=c1c(O)c(-c2ccc(O)c(O)c2)oc2cc(O)cc(O)c12
REMARK SMILES IDX 5 1 3 2 2 3 1 4 22 5 20 6 19 7 17 8 16 9 15 10 14 11 6 12
REMARK SMILES IDX 7 13 8 14 9 15 13 16 11 17 10 18 12 20 4 22 21 24 18 26
REMARK H PARENT 10 19 12 21 4 23 21 25 18 27
REMARK Flexibility Score: inf
ROOT
ATOM      1  C   UNL     1     -22.963  28.029  -7.162  1.00  0.00     0.180 A 
ATOM      2  C   UNL     1     -24.294  27.600  -7.295  1.00  0.00     0.208 A 
ATOM      3  C   UNL     1     -25.243  28.482  -7.836  1.00  0.00     0.238 A 
ATOM      4  O   UNL     1     -26.417  28.066  -8.021  1.00  0.00    -0.285 OA
ATOM      5  C   UNL     1     -24.863  29.801  -8.184  1.00  0.00     0.111 A 
ATOM      6  C   UNL     1     -25.750  30.794  -8.698  1.00  0.00     0.134 A 
ATOM      7  C   UNL     1     -25.239  32.032  -9.108  1.00  0.00     0.093 A 
ATOM      8  C   UNL     1     -23.883  32.336  -8.963  1.00  0.00     0.123 A 
ATOM      9  C   UNL     1     -23.019  31.394  -8.412  1.00  0.00     0.094 A 
ATOM     10  C   UNL     1     -23.491  30.136  -8.029  1.00  0.00     0.146 A 
ATOM     11  O   UNL     1     -22.628  29.260  -7.527  1.00  0.00    -0.452 OA
ENDROOT
BRANCH   1  12
ATOM     12  C   UNL     1     -21.902  27.152  -6.615  1.00  0.00     0.025 A 
ATOM     13  C   UNL     1     -21.883  26.869  -5.240  1.00  0.00     0.016 A 
ATOM     14  C   UNL     1     -20.880  26.061  -4.698  1.00  0.00     0.051 A 
ATOM     15  C   UNL     1     -19.872  25.537  -5.520  1.00  0.00     0.157 A 
ATOM     16  C   UNL     1     -20.879  26.642  -7.433  1.00  0.00     0.062 A 
ATOM     17  C   UNL     1     -19.871  25.834  -6.894  1.00  0.00     0.158 A 
BRANCH  15  18
ATOM     18  O   UNL     1     -18.875  24.729  -4.978  1.00  0.00    -0.504 OA
ATOM     19  H   UNL     1     -17.983  25.110  -4.685  1.00  0.00     0.293 HD
ENDBRANCH  15  18
BRANCH  17  20
ATOM     20  O   UNL     1     -18.875  25.341  -7.736  1.00  0.00    -0.504 OA
ATOM     21  H   UNL     1     -17.984  25.811  -7.849  1.00  0.00     0.293 HD
ENDBRANCH  17  20
ENDBRANCH   1  12
BRANCH   2  22
ATOM     22  O   UNL     1     -24.667  26.321  -6.874  1.00  0.00    -0.502 OA
ATOM     23  H   UNL     1     -23.997  25.645  -6.527  1.00  0.00     0.293 HD
ENDBRANCH   2  22
BRANCH   6  24
ATOM     24  O   UNL     1     -27.135  30.629  -8.803  1.00  0.00    -0.507 OA
ATOM     25  H   UNL     1     -27.655  30.650  -9.666  1.00  0.00     0.293 HD
ENDBRANCH   6  24
BRANCH   8  26
ATOM     26  O   UNL     1     -23.387  33.576  -9.357  1.00  0.00    -0.508 OA
ATOM     27  H   UNL     1     -23.999  34.370  -9.507  1.00  0.00     0.293 HD
ENDBRANCH   8  26
TORSDOF 6
ENDMDL
