MODEL 1
REMARK VINA RESULT:    -4.479      0.000      0.000
REMARK INTER + INTRA:          -9.799
REMARK INTER:                  -8.668
REMARK INTRA:                  -1.131
REMARK UNBOUND:                -1.131
REMARK SMILES CCCCCCCCCCCCCCCCCC(=O)[O-]
REMARK SMILES IDX 10 1 11 2 12 3 13 4 14 5 15 6 16 7 17 8 18 9 19 10 20 11
REMARK SMILES IDX 9 12 8 13 7 14 6 15 5 16 4 17 3 18 2 19 1 20
REMARK H PARENT
REMARK Flexibility Score: inf
ROOT
ATOM      1  C   UNL     1      32.235  25.613  71.233  1.00  0.00     0.000 C 
ENDROOT
BRANCH   1   2
ATOM      2  C   UNL     1      31.147  25.445  70.161  1.00  0.00     0.000 C 
BRANCH   2   3
ATOM      3  C   UNL     1      31.169  24.023  69.579  1.00  0.00     0.000 C 
BRANCH   3   4
ATOM      4  C   UNL     1      31.379  24.007  68.056  1.00  0.00     0.000 C 
BRANCH   4   5
ATOM      5  C   UNL     1      32.865  23.909  67.668  1.00  0.00     0.000 C 
BRANCH   5   6
ATOM      6  C   UNL     1      33.129  24.297  66.200  1.00  0.00     0.000 C 
BRANCH   6   7
ATOM      7  C   UNL     1      31.909  24.852  65.441  1.00  0.00     0.006 C 
BRANCH   7   8
ATOM      8  C   UNL     1      32.205  25.143  63.965  1.00  0.00     0.053 C 
BRANCH   8   9
ATOM      9  C   UNL     1      31.203  26.105  63.410  1.00  0.00     0.041 C 
ATOM     10  O   UNL     1      31.585  27.153  62.826  1.00  0.00    -0.550 OA
ATOM     11  O   UNL     1      29.844  25.868  63.579  1.00  0.00    -0.550 OA
ENDBRANCH   8   9
ENDBRANCH   7   8
ENDBRANCH   6   7
ENDBRANCH   5   6
ENDBRANCH   4   5
ENDBRANCH   3   4
ENDBRANCH   2   3
ENDBRANCH   1   2
BRANCH   1  12
ATOM     12  C   UNL     1      33.181  26.788  70.940  1.00  0.00     0.000 C 
BRANCH  12  13
ATOM     13  C   UNL     1      34.665  26.391  71.030  1.00  0.00    -0.000 C 
BRANCH  13  14
ATOM     14  C   UNL     1      34.873  24.870  70.954  1.00  0.00    -0.000 C 
BRANCH  14  15
ATOM     15  C   UNL     1      35.339  24.404  69.562  1.00  0.00    -0.000 C 
BRANCH  15  16
ATOM     16  C   UNL     1      36.867  24.262  69.473  1.00  0.00    -0.000 C 
BRANCH  16  17
ATOM     17  C   UNL     1      37.509  23.936  70.833  1.00  0.00    -0.000 C 
BRANCH  17  18
ATOM     18  C   UNL     1      39.021  24.240  70.850  1.00  0.00    -0.000 C 
BRANCH  18  19
ATOM     19  C   UNL     1      39.686  23.976  72.211  1.00  0.00    -0.003 C 
ATOM     20  C   UNL     1      39.348  25.035  73.257  1.00  0.00     0.004 C 
ENDBRANCH  18  19
ENDBRANCH  17  18
ENDBRANCH  16  17
ENDBRANCH  15  16
ENDBRANCH  14  15
ENDBRANCH  13  14
ENDBRANCH  12  13
ENDBRANCH   1  12
TORSDOF 16
ENDMDL
MODEL 2
REMARK VINA RESULT:    -4.388      1.541      3.801
REMARK INTER + INTRA:          -9.623
REMARK INTER:                  -8.365
REMARK INTRA:                  -1.258
REMARK UNBOUND:                -1.131
REMARK SMILES CCCCCCCCCCCCCCCCCC(=O)[O-]
REMARK SMILES IDX 10 1 11 2 12 3 13 4 14 5 15 6 16 7 17 8 18 9 19 10 20 11
REMARK SMILES IDX 9 12 8 13 7 14 6 15 5 16 4 17 3 18 2 19 1 20
REMARK H PARENT
REMARK Flexibility Score: inf
ROOT
ATOM      1  C   UNL     1      33.024  24.023  67.697  1.00  0.00     0.000 C 
ENDROOT
BRANCH   1   2
ATOM      2  C   UNL     1      32.813  24.002  66.176  1.00  0.00     0.000 C 
BRANCH   2   3
ATOM      3  C   UNL     1      31.692  24.970  65.765  1.00  0.00     0.000 C 
BRANCH   3   4
ATOM      4  C   UNL     1      31.333  24.866  64.274  1.00  0.00     0.000 C 
BRANCH   4   5
ATOM      5  C   UNL     1      32.078  25.903  63.415  1.00  0.00     0.000 C 
BRANCH   5   6
ATOM      6  C   UNL     1      31.264  27.192  63.191  1.00  0.00     0.000 C 
BRANCH   6   7
ATOM      7  C   UNL     1      30.006  27.028  62.318  1.00  0.00     0.006 C 
BRANCH   7   8
ATOM      8  C   UNL     1      28.755  26.678  63.133  1.00  0.00     0.053 C 
BRANCH   8   9
ATOM      9  C   UNL     1      28.032  25.525  62.513  1.00  0.00     0.041 C 
ATOM     10  O   UNL     1      28.675  24.526  62.093  1.00  0.00    -0.550 OA
ATOM     11  O   UNL     1      26.653  25.571  62.355  1.00  0.00    -0.550 OA
ENDBRANCH   8   9
ENDBRANCH   7   8
ENDBRANCH   6   7
ENDBRANCH   5   6
ENDBRANCH   4   5
ENDBRANCH   3   4
ENDBRANCH   2   3
ENDBRANCH   1   2
BRANCH   1  12
ATOM     12  C   UNL     1      31.849  24.668  68.451  1.00  0.00     0.000 C 
BRANCH  12  13
ATOM     13  C   UNL     1      31.651  24.076  69.858  1.00  0.00    -0.000 C 
BRANCH  13  14
ATOM     14  C   UNL     1      31.642  25.153  70.954  1.00  0.00    -0.000 C 
BRANCH  14  15
ATOM     15  C   UNL     1      32.651  26.284  70.682  1.00  0.00    -0.000 C 
BRANCH  15  16
ATOM     16  C   UNL     1      34.007  26.037  71.363  1.00  0.00    -0.000 C 
BRANCH  16  17
ATOM     17  C   UNL     1      35.122  25.706  70.355  1.00  0.00    -0.000 C 
BRANCH  17  18
ATOM     18  C   UNL     1      35.427  24.195  70.301  1.00  0.00    -0.000 C 
BRANCH  18  19
ATOM     19  C   UNL     1      36.927  23.875  70.189  1.00  0.00    -0.003 C 
ATOM     20  C   UNL     1      37.709  24.227  71.453  1.00  0.00     0.004 C 
ENDBRANCH  18  19
ENDBRANCH  17  18
ENDBRANCH  16  17
ENDBRANCH  15  16
ENDBRANCH  14  15
ENDBRANCH  13  14
ENDBRANCH  12  13
ENDBRANCH   1  12
TORSDOF 16
ENDMDL
MODEL 3
REMARK VINA RESULT:    -4.086      3.687      8.873
REMARK INTER + INTRA:          -9.039
REMARK INTER:                  -7.741
REMARK INTRA:                  -1.298
REMARK UNBOUND:                -1.131
REMARK SMILES CCCCCCCCCCCCCCCCCC(=O)[O-]
REMARK SMILES IDX 10 1 11 2 12 3 13 4 14 5 15 6 16 7 17 8 18 9 19 10 20 11
REMARK SMILES IDX 9 12 8 13 7 14 6 15 5 16 4 17 3 18 2 19 1 20
REMARK H PARENT
REMARK Flexibility Score: inf
ROOT
ATOM      1  C   UNL     1      31.551  24.113  66.353  1.00  0.00     0.000 C 
ENDROOT
BRANCH   1   2
ATOM      2  C   UNL     1      30.363  24.180  67.324  1.00  0.00     0.000 C 
BRANCH   2   3
ATOM      3  C   UNL     1      30.850  24.219  68.782  1.00  0.00     0.000 C 
BRANCH   3   4
ATOM      4  C   UNL     1      32.380  24.323  68.895  1.00  0.00     0.000 C 
BRANCH   4   5
ATOM      5  C   UNL     1      32.851  24.539  70.344  1.00  0.00     0.000 C 
BRANCH   5   6
ATOM      6  C   UNL     1      33.638  25.850  70.529  1.00  0.00     0.000 C 
BRANCH   6   7
ATOM      7  C   UNL     1      35.138  25.676  70.830  1.00  0.00     0.006 C 
BRANCH   7   8
ATOM      8  C   UNL     1      35.608  24.221  70.704  1.00  0.00     0.053 C 
BRANCH   8   9
ATOM      9  C   UNL     1      37.099  24.161  70.606  1.00  0.00     0.041 C 
ATOM     10  O   UNL     1      37.669  24.315  69.493  1.00  0.00    -0.550 OA
ATOM     11  O   UNL     1      37.860  23.887  71.735  1.00  0.00    -0.550 OA
ENDBRANCH   8   9
ENDBRANCH   7   8
ENDBRANCH   6   7
ENDBRANCH   5   6
ENDBRANCH   4   5
ENDBRANCH   3   4
ENDBRANCH   2   3
ENDBRANCH   1   2
BRANCH   1  12
ATOM     12  C   UNL     1      31.116  23.875  64.897  1.00  0.00     0.000 C 
BRANCH  12  13
ATOM     13  C   UNL     1      32.210  24.250  63.882  1.00  0.00    -0.000 C 
BRANCH  13  14
ATOM     14  C   UNL     1      32.720  25.688  64.070  1.00  0.00    -0.000 C 
BRANCH  14  15
ATOM     15  C   UNL     1      32.420  26.586  62.856  1.00  0.00    -0.000 C 
BRANCH  15  16
ATOM     16  C   UNL     1      31.264  27.564  63.123  1.00  0.00    -0.000 C 
BRANCH  16  17
ATOM     17  C   UNL     1      29.980  27.179  62.368  1.00  0.00    -0.000 C 
BRANCH  17  18
ATOM     18  C   UNL     1      28.805  26.896  63.327  1.00  0.00    -0.000 C 
BRANCH  18  19
ATOM     19  C   UNL     1      27.761  25.925  62.749  1.00  0.00    -0.003 C 
ATOM     20  C   UNL     1      28.386  24.747  62.007  1.00  0.00     0.004 C 
ENDBRANCH  18  19
ENDBRANCH  17  18
ENDBRANCH  16  17
ENDBRANCH  15  16
ENDBRANCH  14  15
ENDBRANCH  13  14
ENDBRANCH  12  13
ENDBRANCH   1  12
TORSDOF 16
ENDMDL
MODEL 4
REMARK VINA RESULT:    -4.085      3.503      7.908
REMARK INTER + INTRA:          -9.036
REMARK INTER:                  -8.169
REMARK INTRA:                  -0.867
REMARK UNBOUND:                -1.131
REMARK SMILES CCCCCCCCCCCCCCCCCC(=O)[O-]
REMARK SMILES IDX 10 1 11 2 12 3 13 4 14 5 15 6 16 7 17 8 18 9 19 10 20 11
REMARK SMILES IDX 9 12 8 13 7 14 6 15 5 16 4 17 3 18 2 19 1 20
REMARK H PARENT
REMARK Flexibility Score: inf
ROOT
ATOM      1  C   UNL     1      32.056  23.878  69.808  1.00  0.00     0.000 C 
ENDROOT
BRANCH   1   2
ATOM      2  C   UNL     1      30.852  24.211  70.702  1.00  0.00     0.000 C 
BRANCH   2   3
ATOM      3  C   UNL     1      30.849  25.700  71.082  1.00  0.00     0.000 C 
BRANCH   3   4
ATOM      4  C   UNL     1      32.140  26.135  71.796  1.00  0.00     0.000 C 
BRANCH   4   5
ATOM      5  C   UNL     1      33.140  26.811  70.842  1.00  0.00     0.000 C 
BRANCH   5   6
ATOM      6  C   UNL     1      34.603  26.428  71.137  1.00  0.00     0.000 C 
BRANCH   6   7
ATOM      7  C   UNL     1      35.222  25.410  70.162  1.00  0.00     0.006 C 
BRANCH   7   8
ATOM      8  C   UNL     1      35.796  24.176  70.870  1.00  0.00     0.053 C 
BRANCH   8   9
ATOM      9  C   UNL     1      37.282  24.125  70.708  1.00  0.00     0.041 C 
ATOM     10  O   UNL     1      37.801  24.254  69.567  1.00  0.00    -0.550 OA
ATOM     11  O   UNL     1      38.094  23.887  71.810  1.00  0.00    -0.550 OA
ENDBRANCH   8   9
ENDBRANCH   7   8
ENDBRANCH   6   7
ENDBRANCH   5   6
ENDBRANCH   4   5
ENDBRANCH   3   4
ENDBRANCH   2   3
ENDBRANCH   1   2
BRANCH   1  12
ATOM     12  C   UNL     1      31.733  23.994  68.309  1.00  0.00     0.000 C 
BRANCH  12  13
ATOM     13  C   UNL     1      32.991  24.187  67.445  1.00  0.00    -0.000 C 
BRANCH  13  14
ATOM     14  C   UNL     1      32.657  24.613  66.006  1.00  0.00    -0.000 C 
BRANCH  14  15
ATOM     15  C   UNL     1      31.337  24.003  65.499  1.00  0.00    -0.000 C 
BRANCH  15  16
ATOM     16  C   UNL     1      30.665  24.873  64.424  1.00  0.00    -0.000 C 
BRANCH  16  17
ATOM     17  C   UNL     1      31.512  24.988  63.144  1.00  0.00    -0.000 C 
BRANCH  17  18
ATOM     18  C   UNL     1      32.231  26.349  63.044  1.00  0.00    -0.000 C 
BRANCH  18  19
ATOM     19  C   UNL     1      31.275  27.554  63.099  1.00  0.00    -0.003 C 
ATOM     20  C   UNL     1      29.913  27.264  62.473  1.00  0.00     0.004 C 
ENDBRANCH  18  19
ENDBRANCH  17  18
ENDBRANCH  16  17
ENDBRANCH  15  16
ENDBRANCH  14  15
ENDBRANCH  13  14
ENDBRANCH  12  13
ENDBRANCH   1  12
TORSDOF 16
ENDMDL
MODEL 5
REMARK VINA RESULT:    -4.044      3.110      8.011
REMARK INTER + INTRA:          -8.958
REMARK INTER:                  -7.848
REMARK INTRA:                  -1.110
REMARK UNBOUND:                -1.131
REMARK SMILES CCCCCCCCCCCCCCCCCC(=O)[O-]
REMARK SMILES IDX 10 1 11 2 12 3 13 4 14 5 15 6 16 7 17 8 18 9 19 10 20 11
REMARK SMILES IDX 9 12 8 13 7 14 6 15 5 16 4 17 3 18 2 19 1 20
REMARK H PARENT
REMARK Flexibility Score: inf
ROOT
ATOM      1  C   UNL     1      35.411  24.368  67.313  1.00  0.00     0.000 C 
ENDROOT
BRANCH   1   2
ATOM      2  C   UNL     1      35.934  24.937  68.640  1.00  0.00     0.000 C 
BRANCH   2   3
ATOM      3  C   UNL     1      36.744  23.880  69.407  1.00  0.00     0.000 C 
BRANCH   3   4
ATOM      4  C   UNL     1      36.439  23.875  70.914  1.00  0.00     0.000 C 
BRANCH   4   5
ATOM      5  C   UNL     1      34.995  24.305  71.225  1.00  0.00     0.000 C 
BRANCH   5   6
ATOM      6  C   UNL     1      34.845  25.829  71.392  1.00  0.00     0.000 C 
BRANCH   6   7
ATOM      7  C   UNL     1      33.506  26.413  70.905  1.00  0.00     0.006 C 
BRANCH   7   8
ATOM      8  C   UNL     1      32.555  25.346  70.349  1.00  0.00     0.053 C 
BRANCH   8   9
ATOM      9  C   UNL     1      31.390  25.154  71.268  1.00  0.00     0.041 C 
ATOM     10  O   UNL     1      31.183  25.968  72.207  1.00  0.00    -0.550 OA
ATOM     11  O   UNL     1      30.558  24.052  71.117  1.00  0.00    -0.550 OA
ENDBRANCH   8   9
ENDBRANCH   7   8
ENDBRANCH   6   7
ENDBRANCH   5   6
ENDBRANCH   4   5
ENDBRANCH   3   4
ENDBRANCH   2   3
ENDBRANCH   1   2
BRANCH   1  12
ATOM     12  C   UNL     1      33.957  23.877  67.408  1.00  0.00     0.000 C 
BRANCH  12  13
ATOM     13  C   UNL     1      33.239  23.882  66.047  1.00  0.00    -0.000 C 
BRANCH  13  14
ATOM     14  C   UNL     1      32.031  24.831  66.022  1.00  0.00    -0.000 C 
BRANCH  14  15
ATOM     15  C   UNL     1      31.026  24.482  64.909  1.00  0.00    -0.000 C 
BRANCH  15  16
ATOM     16  C   UNL     1      31.515  24.922  63.519  1.00  0.00    -0.000 C 
BRANCH  16  17
ATOM     17  C   UNL     1      32.099  26.346  63.523  1.00  0.00    -0.000 C 
BRANCH  17  18
ATOM     18  C   UNL     1      31.349  27.283  62.553  1.00  0.00    -0.000 C 
BRANCH  18  19
ATOM     19  C   UNL     1      29.852  26.956  62.417  1.00  0.00    -0.003 C 
ATOM     20  C   UNL     1      28.996  27.611  63.498  1.00  0.00     0.004 C 
ENDBRANCH  18  19
ENDBRANCH  17  18
ENDBRANCH  16  17
ENDBRANCH  15  16
ENDBRANCH  14  15
ENDBRANCH  13  14
ENDBRANCH  12  13
ENDBRANCH   1  12
TORSDOF 16
ENDMDL
MODEL 6
REMARK VINA RESULT:    -3.998      2.981      5.706
REMARK INTER + INTRA:          -8.869
REMARK INTER:                  -7.917
REMARK INTRA:                  -0.952
REMARK UNBOUND:                -1.131
REMARK SMILES CCCCCCCCCCCCCCCCCC(=O)[O-]
REMARK SMILES IDX 10 1 11 2 12 3 13 4 14 5 15 6 16 7 17 8 18 9 19 10 20 11
REMARK SMILES IDX 9 12 8 13 7 14 6 15 5 16 4 17 3 18 2 19 1 20
REMARK H PARENT
REMARK Flexibility Score: inf
ROOT
ATOM      1  C   UNL     1      33.436  24.150  65.155  1.00  0.00     0.000 C 
ENDROOT
BRANCH   1   2
ATOM      2  C   UNL     1      32.144  24.939  64.895  1.00  0.00     0.000 C 
BRANCH   2   3
ATOM      3  C   UNL     1      32.142  25.533  63.478  1.00  0.00     0.000 C 
BRANCH   3   4
ATOM      4  C   UNL     1      31.022  26.566  63.269  1.00  0.00     0.000 C 
BRANCH   4   5
ATOM      5  C   UNL     1      29.621  25.932  63.306  1.00  0.00     0.000 C 
BRANCH   5   6
ATOM      6  C   UNL     1      29.416  24.865  62.214  1.00  0.00     0.000 C 
BRANCH   6   7
ATOM      7  C   UNL     1      28.004  24.253  62.154  1.00  0.00     0.006 C 
BRANCH   7   8
ATOM      8  C   UNL     1      26.892  25.308  62.209  1.00  0.00     0.053 C 
BRANCH   8   9
ATOM      9  C   UNL     1      25.561  24.679  61.942  1.00  0.00     0.041 C 
ATOM     10  O   UNL     1      24.621  24.809  62.771  1.00  0.00    -0.550 OA
ATOM     11  O   UNL     1      25.371  23.909  60.802  1.00  0.00    -0.550 OA
ENDBRANCH   8   9
ENDBRANCH   7   8
ENDBRANCH   6   7
ENDBRANCH   5   6
ENDBRANCH   4   5
ENDBRANCH   3   4
ENDBRANCH   2   3
ENDBRANCH   1   2
BRANCH   1  12
ATOM     12  C   UNL     1      33.675  23.876  66.649  1.00  0.00     0.000 C 
BRANCH  12  13
ATOM     13  C   UNL     1      35.135  24.119  67.071  1.00  0.00    -0.000 C 
BRANCH  13  14
ATOM     14  C   UNL     1      35.345  23.957  68.585  1.00  0.00    -0.000 C 
BRANCH  14  15
ATOM     15  C   UNL     1      35.166  25.280  69.353  1.00  0.00    -0.000 C 
BRANCH  15  16
ATOM     16  C   UNL     1      34.731  25.057  70.810  1.00  0.00    -0.000 C 
BRANCH  16  17
ATOM     17  C   UNL     1      34.075  26.304  71.428  1.00  0.00    -0.000 C 
BRANCH  17  18
ATOM     18  C   UNL     1      32.655  26.548  70.875  1.00  0.00    -0.000 C 
BRANCH  18  19
ATOM     19  C   UNL     1      31.721  25.336  71.025  1.00  0.00    -0.003 C 
ATOM     20  C   UNL     1      31.423  24.643  69.698  1.00  0.00     0.004 C 
ENDBRANCH  18  19
ENDBRANCH  17  18
ENDBRANCH  16  17
ENDBRANCH  15  16
ENDBRANCH  14  15
ENDBRANCH  13  14
ENDBRANCH  12  13
ENDBRANCH   1  12
TORSDOF 16
ENDMDL
MODEL 7
REMARK VINA RESULT:    -3.993      4.672     10.564
REMARK INTER + INTRA:          -8.858
REMARK INTER:                  -7.713
REMARK INTRA:                  -1.146
REMARK UNBOUND:                -1.131
REMARK SMILES CCCCCCCCCCCCCCCCCC(=O)[O-]
REMARK SMILES IDX 10 1 11 2 12 3 13 4 14 5 15 6 16 7 17 8 18 9 19 10 20 11
REMARK SMILES IDX 9 12 8 13 7 14 6 15 5 16 4 17 3 18 2 19 1 20
REMARK H PARENT
REMARK Flexibility Score: inf
ROOT
ATOM      1  C   UNL     1      30.638  27.148  63.724  1.00  0.00     0.000 C 
ENDROOT
BRANCH   1   2
ATOM      2  C   UNL     1      32.029  26.918  63.115  1.00  0.00     0.000 C 
BRANCH   2   3
ATOM      3  C   UNL     1      32.239  25.435  62.773  1.00  0.00     0.000 C 
BRANCH   3   4
ATOM      4  C   UNL     1      31.792  24.495  63.905  1.00  0.00     0.000 C 
BRANCH   4   5
ATOM      5  C   UNL     1      32.761  24.510  65.100  1.00  0.00     0.000 C 
BRANCH   5   6
ATOM      6  C   UNL     1      32.060  24.814  66.437  1.00  0.00     0.000 C 
BRANCH   6   7
ATOM      7  C   UNL     1      32.436  23.878  67.601  1.00  0.00     0.006 C 
BRANCH   7   8
ATOM      8  C   UNL     1      33.543  24.451  68.496  1.00  0.00     0.053 C 
BRANCH   8   9
ATOM      9  C   UNL     1      32.989  24.835  69.831  1.00  0.00     0.041 C 
ATOM     10  O   UNL     1      31.744  24.929  69.998  1.00  0.00    -0.550 OA
ATOM     11  O   UNL     1      33.848  25.134  70.881  1.00  0.00    -0.550 OA
ENDBRANCH   8   9
ENDBRANCH   7   8
ENDBRANCH   6   7
ENDBRANCH   5   6
ENDBRANCH   4   5
ENDBRANCH   3   4
ENDBRANCH   2   3
ENDBRANCH   1   2
BRANCH   1  12
ATOM     12  C   UNL     1      29.526  27.196  62.664  1.00  0.00     0.000 C 
BRANCH  12  13
ATOM     13  C   UNL     1      28.455  26.111  62.878  1.00  0.00    -0.000 C 
BRANCH  13  14
ATOM     14  C   UNL     1      28.769  24.816  62.111  1.00  0.00    -0.000 C 
BRANCH  14  15
ATOM     15  C   UNL     1      27.549  23.884  61.997  1.00  0.00    -0.000 C 
BRANCH  15  16
ATOM     16  C   UNL     1      26.223  24.660  61.943  1.00  0.00    -0.000 C 
BRANCH  16  17
ATOM     17  C   UNL     1      25.108  23.875  61.229  1.00  0.00    -0.000 C 
BRANCH  17  18
ATOM     18  C   UNL     1      23.744  24.035  61.932  1.00  0.00    -0.000 C 
BRANCH  18  19
ATOM     19  C   UNL     1      23.763  25.049  63.088  1.00  0.00    -0.003 C 
ATOM     20  C   UNL     1      22.844  24.656  64.243  1.00  0.00     0.004 C 
ENDBRANCH  18  19
ENDBRANCH  17  18
ENDBRANCH  16  17
ENDBRANCH  15  16
ENDBRANCH  14  15
ENDBRANCH  13  14
ENDBRANCH  12  13
ENDBRANCH   1  12
TORSDOF 16
ENDMDL
MODEL 8
REMARK VINA RESULT:    -3.944      3.436      6.556
REMARK INTER + INTRA:          -8.765
REMARK INTER:                  -8.241
REMARK INTRA:                  -0.524
REMARK UNBOUND:                -1.131
REMARK SMILES CCCCCCCCCCCCCCCCCC(=O)[O-]
REMARK SMILES IDX 10 1 11 2 12 3 13 4 14 5 15 6 16 7 17 8 18 9 19 10 20 11
REMARK SMILES IDX 9 12 8 13 7 14 6 15 5 16 4 17 3 18 2 19 1 20
REMARK H PARENT
REMARK Flexibility Score: inf
ROOT
ATOM      1  C   UNL     1      32.027  25.473  63.253  1.00  0.00     0.000 C 
ENDROOT
BRANCH   1   2
ATOM      2  C   UNL     1      31.596  26.945  63.338  1.00  0.00     0.000 C 
BRANCH   2   3
ATOM      3  C   UNL     1      30.270  27.171  62.596  1.00  0.00     0.000 C 
BRANCH   3   4
ATOM      4  C   UNL     1      29.179  26.169  63.010  1.00  0.00     0.000 C 
BRANCH   4   5
ATOM      5  C   UNL     1      29.371  24.787  62.360  1.00  0.00     0.000 C 
BRANCH   5   6
ATOM      6  C   UNL     1      28.038  24.083  62.045  1.00  0.00     0.000 C 
BRANCH   6   7
ATOM      7  C   UNL     1      26.801  24.998  62.034  1.00  0.00     0.006 C 
BRANCH   7   8
ATOM      8  C   UNL     1      25.525  24.276  61.582  1.00  0.00     0.053 C 
BRANCH   8   9
ATOM      9  C   UNL     1      24.346  25.191  61.671  1.00  0.00     0.041 C 
ATOM     10  O   UNL     1      23.504  25.052  62.597  1.00  0.00    -0.550 OA
ATOM     11  O   UNL     1      24.150  26.170  60.705  1.00  0.00    -0.550 OA
ENDBRANCH   8   9
ENDBRANCH   7   8
ENDBRANCH   6   7
ENDBRANCH   5   6
ENDBRANCH   4   5
ENDBRANCH   3   4
ENDBRANCH   2   3
ENDBRANCH   1   2
BRANCH   1  12
ATOM     12  C   UNL     1      32.937  25.052  64.419  1.00  0.00     0.000 C 
BRANCH  12  13
ATOM     13  C   UNL     1      32.298  23.969  65.307  1.00  0.00    -0.000 C 
BRANCH  13  14
ATOM     14  C   UNL     1      30.882  24.347  65.771  1.00  0.00    -0.000 C 
BRANCH  14  15
ATOM     15  C   UNL     1      30.724  24.286  67.301  1.00  0.00    -0.000 C 
BRANCH  15  16
ATOM     16  C   UNL     1      32.077  24.281  68.030  1.00  0.00    -0.000 C 
BRANCH  16  17
ATOM     17  C   UNL     1      31.959  24.732  69.497  1.00  0.00    -0.000 C 
BRANCH  17  18
ATOM     18  C   UNL     1      33.232  24.412  70.308  1.00  0.00    -0.000 C 
BRANCH  18  19
ATOM     19  C   UNL     1      34.414  25.342  69.987  1.00  0.00    -0.003 C 
ATOM     20  C   UNL     1      34.470  26.570  70.893  1.00  0.00     0.004 C 
ENDBRANCH  18  19
ENDBRANCH  17  18
ENDBRANCH  16  17
ENDBRANCH  15  16
ENDBRANCH  14  15
ENDBRANCH  13  14
ENDBRANCH  12  13
ENDBRANCH   1  12
TORSDOF 16
ENDMDL
MODEL 9
REMARK VINA RESULT:    -3.897      3.097      5.892
REMARK INTER + INTRA:          -8.673
REMARK INTER:                  -7.681
REMARK INTRA:                  -0.993
REMARK UNBOUND:                -1.131
REMARK SMILES CCCCCCCCCCCCCCCCCC(=O)[O-]
REMARK SMILES IDX 10 1 11 2 12 3 13 4 14 5 15 6 16 7 17 8 18 9 19 10 20 11
REMARK SMILES IDX 9 12 8 13 7 14 6 15 5 16 4 17 3 18 2 19 1 20
REMARK H PARENT
REMARK Flexibility Score: inf
ROOT
ATOM      1  C   UNL     1      31.939  24.138  64.822  1.00  0.00     0.000 C 
ENDROOT
BRANCH   1   2
ATOM      2  C   UNL     1      32.699  25.325  64.211  1.00  0.00     0.000 C 
BRANCH   2   3
ATOM      3  C   UNL     1      31.803  26.105  63.236  1.00  0.00     0.000 C 
BRANCH   3   4
ATOM      4  C   UNL     1      30.352  25.596  63.225  1.00  0.00     0.000 C 
BRANCH   4   5
ATOM      5  C   UNL     1      29.343  26.701  62.867  1.00  0.00     0.000 C 
BRANCH   5   6
ATOM      6  C   UNL     1      27.879  26.268  63.079  1.00  0.00     0.000 C 
BRANCH   6   7
ATOM      7  C   UNL     1      27.263  25.459  61.923  1.00  0.00     0.006 C 
BRANCH   7   8
ATOM      8  C   UNL     1      26.094  24.573  62.370  1.00  0.00     0.053 C 
BRANCH   8   9
ATOM      9  C   UNL     1      24.789  25.186  61.970  1.00  0.00     0.041 C 
ATOM     10  O   UNL     1      24.679  25.775  60.862  1.00  0.00    -0.550 OA
ATOM     11  O   UNL     1      23.707  25.148  62.839  1.00  0.00    -0.550 OA
ENDBRANCH   8   9
ENDBRANCH   7   8
ENDBRANCH   6   7
ENDBRANCH   5   6
ENDBRANCH   4   5
ENDBRANCH   3   4
ENDBRANCH   2   3
ENDBRANCH   1   2
BRANCH   1  12
ATOM     12  C   UNL     1      31.943  24.157  66.359  1.00  0.00     0.000 C 
BRANCH  12  13
ATOM     13  C   UNL     1      30.528  24.056  66.957  1.00  0.00    -0.000 C 
BRANCH  13  14
ATOM     14  C   UNL     1      30.538  24.050  68.494  1.00  0.00    -0.000 C 
BRANCH  14  15
ATOM     15  C   UNL     1      31.949  24.249  69.079  1.00  0.00    -0.000 C 
BRANCH  15  16
ATOM     16  C   UNL     1      31.918  24.631  70.567  1.00  0.00    -0.000 C 
BRANCH  16  17
ATOM     17  C   UNL     1      32.369  26.081  70.814  1.00  0.00    -0.000 C 
BRANCH  17  18
ATOM     18  C   UNL     1      33.788  26.153  71.417  1.00  0.00    -0.000 C 
BRANCH  18  19
ATOM     19  C   UNL     1      34.907  25.997  70.374  1.00  0.00    -0.003 C 
ATOM     20  C   UNL     1      35.639  24.661  70.479  1.00  0.00     0.004 C 
ENDBRANCH  18  19
ENDBRANCH  17  18
ENDBRANCH  16  17
ENDBRANCH  15  16
ENDBRANCH  14  15
ENDBRANCH  13  14
ENDBRANCH  12  13
ENDBRANCH   1  12
TORSDOF 16
ENDMDL
