MODEL 1
REMARK VINA RESULT:    -3.925      0.000      0.000
REMARK INTER + INTRA:         -12.989
REMARK INTER:                  -8.973
REMARK INTRA:                  -4.016
REMARK UNBOUND:                -4.016
REMARK SMILES CCCCCCCCCCCCCCCCCCCCCCCC(=O)[O-]
REMARK SMILES IDX 13 1 14 2 15 3 16 4 17 5 18 6 19 7 20 8 21 9 22 10 23 11
REMARK SMILES IDX 24 12 25 13 26 14 12 15 11 16 10 17 9 18 8 19 7 20 6 21 5 22
REMARK SMILES IDX 4 23 3 24 2 25 1 26
REMARK H PARENT
REMARK Flexibility Score: inf
ROOT
ATOM      1  C   UNL     1      26.081 -16.625  26.666  1.00  0.00     0.000 C 
ENDROOT
BRANCH   1   2
ATOM      2  C   UNL     1      26.778 -17.139  27.942  1.00  0.00     0.000 C 
BRANCH   2   3
ATOM      3  C   UNL     1      26.004 -18.225  28.711  1.00  0.00     0.000 C 
BRANCH   3   4
ATOM      4  C   UNL     1      26.254 -19.638  28.166  1.00  0.00     0.000 C 
BRANCH   4   5
ATOM      5  C   UNL     1      25.179 -20.033  27.144  1.00  0.00     0.000 C 
BRANCH   5   6
ATOM      6  C   UNL     1      23.773 -19.545  27.558  1.00  0.00     0.000 C 
BRANCH   6   7
ATOM      7  C   UNL     1      23.050 -18.746  26.461  1.00  0.00     0.000 C 
BRANCH   7   8
ATOM      8  C   UNL     1      22.762 -17.293  26.873  1.00  0.00     0.000 C 
BRANCH   8   9
ATOM      9  C   UNL     1      22.485 -16.373  25.671  1.00  0.00     0.000 C 
BRANCH   9  10
ATOM     10  C   UNL     1      22.511 -14.861  25.978  1.00  0.00     0.006 C 
BRANCH  10  11
ATOM     11  C   UNL     1      23.293 -14.479  27.244  1.00  0.00     0.053 C 
BRANCH  11  12
ATOM     12  C   UNL     1      24.291 -13.394  26.983  1.00  0.00     0.041 C 
ATOM     13  O   UNL     1      25.070 -13.473  25.997  1.00  0.00    -0.550 OA
ATOM     14  O   UNL     1      24.339 -12.277  27.807  1.00  0.00    -0.550 OA
ENDBRANCH  11  12
ENDBRANCH  10  11
ENDBRANCH   9  10
ENDBRANCH   8   9
ENDBRANCH   7   8
ENDBRANCH   6   7
ENDBRANCH   5   6
ENDBRANCH   4   5
ENDBRANCH   3   4
ENDBRANCH   2   3
ENDBRANCH   1   2
BRANCH   1  15
ATOM     15  C   UNL     1      26.913 -16.747  25.375  1.00  0.00     0.000 C 
BRANCH  15  16
ATOM     16  C   UNL     1      26.763 -18.084  24.624  1.00  0.00     0.000 C 
BRANCH  16  17
ATOM     17  C   UNL     1      28.082 -18.829  24.349  1.00  0.00     0.000 C 
BRANCH  17  18
ATOM     18  C   UNL     1      29.083 -18.721  25.508  1.00  0.00    -0.000 C 
BRANCH  18  19
ATOM     19  C   UNL     1      29.302 -20.088  26.172  1.00  0.00    -0.000 C 
BRANCH  19  20
ATOM     20  C   UNL     1      29.914 -19.978  27.580  1.00  0.00    -0.000 C 
BRANCH  20  21
ATOM     21  C   UNL     1      30.086 -18.539  28.106  1.00  0.00    -0.000 C 
BRANCH  21  22
ATOM     22  C   UNL     1      29.851 -18.365  29.617  1.00  0.00    -0.000 C 
BRANCH  22  23
ATOM     23  C   UNL     1      30.074 -16.923  30.095  1.00  0.00    -0.000 C 
BRANCH  23  24
ATOM     24  C   UNL     1      29.471 -16.705  31.487  1.00  0.00    -0.000 C 
BRANCH  24  25
ATOM     25  C   UNL     1      27.950 -16.526  31.405  1.00  0.00    -0.003 C 
ATOM     26  C   UNL     1      27.256 -17.145  32.615  1.00  0.00     0.004 C 
ENDBRANCH  24  25
ENDBRANCH  23  24
ENDBRANCH  22  23
ENDBRANCH  21  22
ENDBRANCH  20  21
ENDBRANCH  19  20
ENDBRANCH  18  19
ENDBRANCH  17  18
ENDBRANCH  16  17
ENDBRANCH  15  16
ENDBRANCH   1  15
TORSDOF 22
ENDMDL
MODEL 2
REMARK VINA RESULT:    -3.823      4.315      5.440
REMARK INTER + INTRA:         -12.755
REMARK INTER:                  -9.893
REMARK INTRA:                  -2.862
REMARK UNBOUND:                -4.016
REMARK SMILES CCCCCCCCCCCCCCCCCCCCCCCC(=O)[O-]
REMARK SMILES IDX 13 1 14 2 15 3 16 4 17 5 18 6 19 7 20 8 21 9 22 10 23 11
REMARK SMILES IDX 24 12 25 13 26 14 12 15 11 16 10 17 9 18 8 19 7 20 6 21 5 22
REMARK SMILES IDX 4 23 3 24 2 25 1 26
REMARK H PARENT
REMARK Flexibility Score: inf
ROOT
ATOM      1  C   UNL     1      24.246 -17.462  25.825  1.00  0.00     0.000 C 
ENDROOT
BRANCH   1   2
ATOM      2  C   UNL     1      22.823 -16.884  25.961  1.00  0.00     0.000 C 
BRANCH   2   3
ATOM      3  C   UNL     1      22.760 -15.413  26.408  1.00  0.00     0.000 C 
BRANCH   3   4
ATOM      4  C   UNL     1      22.133 -15.235  27.798  1.00  0.00     0.000 C 
BRANCH   4   5
ATOM      5  C   UNL     1      21.737 -16.591  28.401  1.00  0.00     0.000 C 
BRANCH   5   6
ATOM      6  C   UNL     1      20.813 -16.434  29.629  1.00  0.00     0.000 C 
BRANCH   6   7
ATOM      7  C   UNL     1      20.148 -15.051  29.728  1.00  0.00     0.000 C 
BRANCH   7   8
ATOM      8  C   UNL     1      19.058 -14.990  30.811  1.00  0.00     0.000 C 
BRANCH   8   9
ATOM      9  C   UNL     1      19.344 -15.922  32.002  1.00  0.00     0.000 C 
BRANCH   9  10
ATOM     10  C   UNL     1      18.216 -16.915  32.347  1.00  0.00     0.006 C 
BRANCH  10  11
ATOM     11  C   UNL     1      16.879 -16.634  31.644  1.00  0.00     0.053 C 
BRANCH  11  12
ATOM     12  C   UNL     1      16.582 -17.640  30.575  1.00  0.00     0.041 C 
ATOM     13  O   UNL     1      16.763 -17.349  29.364  1.00  0.00    -0.550 OA
ATOM     14  O   UNL     1      16.139 -18.912  30.918  1.00  0.00    -0.550 OA
ENDBRANCH  11  12
ENDBRANCH  10  11
ENDBRANCH   9  10
ENDBRANCH   8   9
ENDBRANCH   7   8
ENDBRANCH   6   7
ENDBRANCH   5   6
ENDBRANCH   4   5
ENDBRANCH   3   4
ENDBRANCH   2   3
ENDBRANCH   1   2
BRANCH   1  15
ATOM     15  C   UNL     1      25.370 -16.562  26.374  1.00  0.00     0.000 C 
BRANCH  15  16
ATOM     16  C   UNL     1      26.676 -16.573  25.556  1.00  0.00     0.000 C 
BRANCH  16  17
ATOM     17  C   UNL     1      26.679 -17.529  24.348  1.00  0.00     0.000 C 
BRANCH  17  18
ATOM     18  C   UNL     1      27.697 -18.670  24.492  1.00  0.00    -0.000 C 
BRANCH  18  19
ATOM     19  C   UNL     1      28.846 -18.264  25.426  1.00  0.00    -0.000 C 
BRANCH  19  20
ATOM     20  C   UNL     1      29.836 -19.412  25.690  1.00  0.00    -0.000 C 
BRANCH  20  21
ATOM     21  C   UNL     1      30.194 -19.636  27.173  1.00  0.00    -0.000 C 
BRANCH  21  22
ATOM     22  C   UNL     1      30.131 -18.377  28.056  1.00  0.00    -0.000 C 
BRANCH  22  23
ATOM     23  C   UNL     1      29.146 -18.517  29.225  1.00  0.00    -0.000 C 
BRANCH  23  24
ATOM     24  C   UNL     1      27.783 -17.908  28.873  1.00  0.00    -0.000 C 
BRANCH  24  25
ATOM     25  C   UNL     1      26.656 -18.927  29.079  1.00  0.00    -0.003 C 
ATOM     26  C   UNL     1      26.488 -19.818  27.852  1.00  0.00     0.004 C 
ENDBRANCH  24  25
ENDBRANCH  23  24
ENDBRANCH  22  23
ENDBRANCH  21  22
ENDBRANCH  20  21
ENDBRANCH  19  20
ENDBRANCH  18  19
ENDBRANCH  17  18
ENDBRANCH  16  17
ENDBRANCH  15  16
ENDBRANCH   1  15
TORSDOF 22
ENDMDL
MODEL 3
REMARK VINA RESULT:    -3.777      3.750      4.574
REMARK INTER + INTRA:         -12.650
REMARK INTER:                 -10.150
REMARK INTRA:                  -2.500
REMARK UNBOUND:                -4.016
REMARK SMILES CCCCCCCCCCCCCCCCCCCCCCCC(=O)[O-]
REMARK SMILES IDX 13 1 14 2 15 3 16 4 17 5 18 6 19 7 20 8 21 9 22 10 23 11
REMARK SMILES IDX 24 12 25 13 26 14 12 15 11 16 10 17 9 18 8 19 7 20 6 21 5 22
REMARK SMILES IDX 4 23 3 24 2 25 1 26
REMARK H PARENT
REMARK Flexibility Score: inf
ROOT
ATOM      1  C   UNL     1      26.625 -16.220  25.342  1.00  0.00     0.000 C 
ENDROOT
BRANCH   1   2
ATOM      2  C   UNL     1      25.719 -16.187  26.589  1.00  0.00     0.000 C 
BRANCH   2   3
ATOM      3  C   UNL     1      25.265 -14.782  27.024  1.00  0.00     0.000 C 
BRANCH   3   4
ATOM      4  C   UNL     1      23.956 -14.341  26.353  1.00  0.00     0.000 C 
BRANCH   4   5
ATOM      5  C   UNL     1      22.883 -15.432  26.467  1.00  0.00     0.000 C 
BRANCH   5   6
ATOM      6  C   UNL     1      22.148 -15.388  27.825  1.00  0.00     0.000 C 
BRANCH   6   7
ATOM      7  C   UNL     1      21.726 -16.773  28.344  1.00  0.00     0.000 C 
BRANCH   7   8
ATOM      8  C   UNL     1      20.815 -16.694  29.580  1.00  0.00     0.000 C 
BRANCH   8   9
ATOM      9  C   UNL     1      20.266 -15.278  29.830  1.00  0.00     0.000 C 
BRANCH   9  10
ATOM     10  C   UNL     1      19.018 -15.205  30.733  1.00  0.00     0.006 C 
BRANCH  10  11
ATOM     11  C   UNL     1      19.106 -16.046  32.016  1.00  0.00     0.053 C 
BRANCH  11  12
ATOM     12  C   UNL     1      18.007 -17.060  32.100  1.00  0.00     0.041 C 
ATOM     13  O   UNL     1      18.007 -18.059  31.333  1.00  0.00    -0.550 OA
ATOM     14  O   UNL     1      17.001 -16.922  33.047  1.00  0.00    -0.550 OA
ENDBRANCH  11  12
ENDBRANCH  10  11
ENDBRANCH   9  10
ENDBRANCH   8   9
ENDBRANCH   7   8
ENDBRANCH   6   7
ENDBRANCH   5   6
ENDBRANCH   4   5
ENDBRANCH   3   4
ENDBRANCH   2   3
ENDBRANCH   1   2
BRANCH   1  15
ATOM     15  C   UNL     1      26.500 -17.491  24.479  1.00  0.00     0.000 C 
BRANCH  15  16
ATOM     16  C   UNL     1      26.499 -18.817  25.265  1.00  0.00     0.000 C 
BRANCH  16  17
ATOM     17  C   UNL     1      27.686 -19.751  24.966  1.00  0.00     0.000 C 
BRANCH  17  18
ATOM     18  C   UNL     1      28.900 -19.010  24.386  1.00  0.00    -0.000 C 
BRANCH  18  19
ATOM     19  C   UNL     1      29.870 -18.592  25.500  1.00  0.00    -0.000 C 
BRANCH  19  20
ATOM     20  C   UNL     1      30.279 -19.765  26.408  1.00  0.00    -0.000 C 
BRANCH  20  21
ATOM     21  C   UNL     1      30.112 -19.509  27.919  1.00  0.00    -0.000 C 
BRANCH  21  22
ATOM     22  C   UNL     1      29.289 -18.260  28.281  1.00  0.00    -0.000 C 
BRANCH  22  23
ATOM     23  C   UNL     1      27.819 -18.581  28.589  1.00  0.00    -0.000 C 
BRANCH  23  24
ATOM     24  C   UNL     1      27.357 -17.874  29.869  1.00  0.00    -0.000 C 
BRANCH  24  25
ATOM     25  C   UNL     1      28.150 -16.582  30.099  1.00  0.00    -0.003 C 
ATOM     26  C   UNL     1      28.128 -16.178  31.571  1.00  0.00     0.004 C 
ENDBRANCH  24  25
ENDBRANCH  23  24
ENDBRANCH  22  23
ENDBRANCH  21  22
ENDBRANCH  20  21
ENDBRANCH  19  20
ENDBRANCH  18  19
ENDBRANCH  17  18
ENDBRANCH  16  17
ENDBRANCH  15  16
ENDBRANCH   1  15
TORSDOF 22
ENDMDL
MODEL 4
REMARK VINA RESULT:    -3.749      3.608      4.738
REMARK INTER + INTRA:         -12.586
REMARK INTER:                  -9.615
REMARK INTRA:                  -2.971
REMARK UNBOUND:                -4.016
REMARK SMILES CCCCCCCCCCCCCCCCCCCCCCCC(=O)[O-]
REMARK SMILES IDX 13 1 14 2 15 3 16 4 17 5 18 6 19 7 20 8 21 9 22 10 23 11
REMARK SMILES IDX 24 12 25 13 26 14 12 15 11 16 10 17 9 18 8 19 7 20 6 21 5 22
REMARK SMILES IDX 4 23 3 24 2 25 1 26
REMARK H PARENT
REMARK Flexibility Score: inf
ROOT
ATOM      1  C   UNL     1      26.130 -17.326  24.996  1.00  0.00     0.000 C 
ENDROOT
BRANCH   1   2
ATOM      2  C   UNL     1      26.271 -15.910  25.589  1.00  0.00     0.000 C 
BRANCH   2   3
ATOM      3  C   UNL     1      25.210 -15.538  26.641  1.00  0.00     0.000 C 
BRANCH   3   4
ATOM      4  C   UNL     1      23.796 -15.988  26.250  1.00  0.00     0.000 C 
BRANCH   4   5
ATOM      5  C   UNL     1      22.787 -14.842  26.412  1.00  0.00     0.000 C 
BRANCH   5   6
ATOM      6  C   UNL     1      21.996 -14.945  27.734  1.00  0.00     0.000 C 
BRANCH   6   7
ATOM      7  C   UNL     1      21.803 -16.389  28.227  1.00  0.00     0.000 C 
BRANCH   7   8
ATOM      8  C   UNL     1      20.817 -16.490  29.403  1.00  0.00     0.000 C 
BRANCH   8   9
ATOM      9  C   UNL     1      20.236 -15.127  29.817  1.00  0.00     0.000 C 
BRANCH   9  10
ATOM     10  C   UNL     1      18.697 -15.032  29.792  1.00  0.00     0.006 C 
BRANCH  10  11
ATOM     11  C   UNL     1      17.969 -16.360  30.052  1.00  0.00     0.053 C 
BRANCH  11  12
ATOM     12  C   UNL     1      17.592 -16.522  31.492  1.00  0.00     0.041 C 
ATOM     13  O   UNL     1      16.398 -16.354  31.857  1.00  0.00    -0.550 OA
ATOM     14  O   UNL     1      18.550 -16.893  32.427  1.00  0.00    -0.550 OA
ENDBRANCH  11  12
ENDBRANCH  10  11
ENDBRANCH   9  10
ENDBRANCH   8   9
ENDBRANCH   7   8
ENDBRANCH   6   7
ENDBRANCH   5   6
ENDBRANCH   4   5
ENDBRANCH   3   4
ENDBRANCH   2   3
ENDBRANCH   1   2
BRANCH   1  15
ATOM     15  C   UNL     1      27.334 -18.256  25.236  1.00  0.00     0.000 C 
BRANCH  15  16
ATOM     16  C   UNL     1      26.983 -19.649  25.794  1.00  0.00     0.000 C 
BRANCH  16  17
ATOM     17  C   UNL     1      25.482 -19.893  26.040  1.00  0.00     0.000 C 
BRANCH  17  18
ATOM     18  C   UNL     1      25.145 -20.096  27.524  1.00  0.00    -0.000 C 
BRANCH  18  19
ATOM     19  C   UNL     1      25.094 -18.750  28.262  1.00  0.00    -0.000 C 
BRANCH  19  20
ATOM     20  C   UNL     1      26.246 -18.574  29.267  1.00  0.00    -0.000 C 
BRANCH  20  21
ATOM     21  C   UNL     1      27.240 -17.445  28.928  1.00  0.00    -0.000 C 
BRANCH  21  22
ATOM     22  C   UNL     1      28.725 -17.817  29.081  1.00  0.00    -0.000 C 
BRANCH  22  23
ATOM     23  C   UNL     1      29.329 -17.329  30.406  1.00  0.00    -0.000 C 
BRANCH  23  24
ATOM     24  C   UNL     1      29.277 -15.800  30.506  1.00  0.00    -0.000 C 
BRANCH  24  25
ATOM     25  C   UNL     1      28.429 -15.356  31.703  1.00  0.00    -0.003 C 
ATOM     26  C   UNL     1      27.936 -16.558  32.504  1.00  0.00     0.004 C 
ENDBRANCH  24  25
ENDBRANCH  23  24
ENDBRANCH  22  23
ENDBRANCH  21  22
ENDBRANCH  20  21
ENDBRANCH  19  20
ENDBRANCH  18  19
ENDBRANCH  17  18
ENDBRANCH  16  17
ENDBRANCH  15  16
ENDBRANCH   1  15
TORSDOF 22
ENDMDL
MODEL 5
REMARK VINA RESULT:    -3.745      5.192      6.507
REMARK INTER + INTRA:         -12.577
REMARK INTER:                 -10.058
REMARK INTRA:                  -2.519
REMARK UNBOUND:                -4.016
REMARK SMILES CCCCCCCCCCCCCCCCCCCCCCCC(=O)[O-]
REMARK SMILES IDX 13 1 14 2 15 3 16 4 17 5 18 6 19 7 20 8 21 9 22 10 23 11
REMARK SMILES IDX 24 12 25 13 26 14 12 15 11 16 10 17 9 18 8 19 7 20 6 21 5 22
REMARK SMILES IDX 4 23 3 24 2 25 1 26
REMARK H PARENT
REMARK Flexibility Score: inf
ROOT
ATOM      1  C   UNL     1      22.994 -15.421  26.411  1.00  0.00     0.000 C 
ENDROOT
BRANCH   1   2
ATOM      2  C   UNL     1      22.173 -15.292  27.710  1.00  0.00     0.000 C 
BRANCH   2   3
ATOM      3  C   UNL     1      21.691 -16.625  28.308  1.00  0.00     0.000 C 
BRANCH   3   4
ATOM      4  C   UNL     1      20.908 -16.446  29.616  1.00  0.00     0.000 C 
BRANCH   4   5
ATOM      5  C   UNL     1      20.249 -15.061  29.680  1.00  0.00     0.000 C 
BRANCH   5   6
ATOM      6  C   UNL     1      19.144 -14.989  30.757  1.00  0.00     0.000 C 
BRANCH   6   7
ATOM      7  C   UNL     1      19.267 -16.075  31.839  1.00  0.00     0.000 C 
BRANCH   7   8
ATOM      8  C   UNL     1      17.954 -16.845  32.062  1.00  0.00     0.000 C 
BRANCH   8   9
ATOM      9  C   UNL     1      17.593 -17.767  30.885  1.00  0.00     0.000 C 
BRANCH   9  10
ATOM     10  C   UNL     1      16.503 -17.228  29.936  1.00  0.00     0.006 C 
BRANCH  10  11
ATOM     11  C   UNL     1      15.109 -17.837  30.151  1.00  0.00     0.053 C 
BRANCH  11  12
ATOM     12  C   UNL     1      14.197 -16.906  30.888  1.00  0.00     0.041 C 
ATOM     13  O   UNL     1      14.495 -16.512  32.046  1.00  0.00    -0.550 OA
ATOM     14  O   UNL     1      13.033 -16.446  30.284  1.00  0.00    -0.550 OA
ENDBRANCH  11  12
ENDBRANCH  10  11
ENDBRANCH   9  10
ENDBRANCH   8   9
ENDBRANCH   7   8
ENDBRANCH   6   7
ENDBRANCH   5   6
ENDBRANCH   4   5
ENDBRANCH   3   4
ENDBRANCH   2   3
ENDBRANCH   1   2
BRANCH   1  15
ATOM     15  C   UNL     1      23.081 -16.848  25.835  1.00  0.00     0.000 C 
BRANCH  15  16
ATOM     16  C   UNL     1      24.483 -17.487  25.882  1.00  0.00     0.000 C 
BRANCH  16  17
ATOM     17  C   UNL     1      25.639 -16.504  26.142  1.00  0.00     0.000 C 
BRANCH  17  18
ATOM     18  C   UNL     1      26.876 -16.795  25.280  1.00  0.00    -0.000 C 
BRANCH  18  19
ATOM     19  C   UNL     1      26.801 -18.203  24.673  1.00  0.00    -0.000 C 
BRANCH  19  20
ATOM     20  C   UNL     1      28.187 -18.837  24.460  1.00  0.00    -0.000 C 
BRANCH  20  21
ATOM     21  C   UNL     1      29.289 -18.330  25.413  1.00  0.00    -0.000 C 
BRANCH  21  22
ATOM     22  C   UNL     1      29.944 -19.414  26.287  1.00  0.00    -0.000 C 
BRANCH  22  23
ATOM     23  C   UNL     1      29.462 -19.378  27.744  1.00  0.00    -0.000 C 
BRANCH  23  24
ATOM     24  C   UNL     1      28.060 -19.984  27.876  1.00  0.00    -0.000 C 
BRANCH  24  25
ATOM     25  C   UNL     1      27.089 -18.988  28.521  1.00  0.00    -0.003 C 
ATOM     26  C   UNL     1      27.797 -17.685  28.883  1.00  0.00     0.004 C 
ENDBRANCH  24  25
ENDBRANCH  23  24
ENDBRANCH  22  23
ENDBRANCH  21  22
ENDBRANCH  20  21
ENDBRANCH  19  20
ENDBRANCH  18  19
ENDBRANCH  17  18
ENDBRANCH  16  17
ENDBRANCH  15  16
ENDBRANCH   1  15
TORSDOF 22
ENDMDL
MODEL 6
REMARK VINA RESULT:    -3.657      4.943      8.981
REMARK INTER + INTRA:         -12.377
REMARK INTER:                 -10.172
REMARK INTRA:                  -2.205
REMARK UNBOUND:                -4.016
REMARK SMILES CCCCCCCCCCCCCCCCCCCCCCCC(=O)[O-]
REMARK SMILES IDX 13 1 14 2 15 3 16 4 17 5 18 6 19 7 20 8 21 9 22 10 23 11
REMARK SMILES IDX 24 12 25 13 26 14 12 15 11 16 10 17 9 18 8 19 7 20 6 21 5 22
REMARK SMILES IDX 4 23 3 24 2 25 1 26
REMARK H PARENT
REMARK Flexibility Score: inf
ROOT
ATOM      1  C   UNL     1      24.447 -14.767  26.694  1.00  0.00     0.000 C 
ENDROOT
BRANCH   1   2
ATOM      2  C   UNL     1      25.393 -15.854  26.146  1.00  0.00     0.000 C 
BRANCH   2   3
ATOM      3  C   UNL     1      24.764 -17.251  26.003  1.00  0.00     0.000 C 
BRANCH   3   4
ATOM      4  C   UNL     1      25.684 -18.252  25.291  1.00  0.00     0.000 C 
BRANCH   4   5
ATOM      5  C   UNL     1      27.005 -17.589  24.876  1.00  0.00     0.000 C 
BRANCH   5   6
ATOM      6  C   UNL     1      28.057 -18.623  24.416  1.00  0.00     0.000 C 
BRANCH   6   7
ATOM      7  C   UNL     1      29.295 -18.690  25.325  1.00  0.00     0.000 C 
BRANCH   7   8
ATOM      8  C   UNL     1      29.287 -19.919  26.251  1.00  0.00     0.000 C 
BRANCH   8   9
ATOM      9  C   UNL     1      28.504 -19.681  27.554  1.00  0.00     0.000 C 
BRANCH   9  10
ATOM     10  C   UNL     1      28.758 -18.323  28.238  1.00  0.00     0.006 C 
BRANCH  10  11
ATOM     11  C   UNL     1      27.485 -17.553  28.624  1.00  0.00     0.053 C 
BRANCH  11  12
ATOM     12  C   UNL     1      26.577 -18.367  29.493  1.00  0.00     0.041 C 
ATOM     13  O   UNL     1      25.424 -18.675  29.091  1.00  0.00    -0.550 OA
ATOM     14  O   UNL     1      27.014 -18.815  30.733  1.00  0.00    -0.550 OA
ENDBRANCH  11  12
ENDBRANCH  10  11
ENDBRANCH   9  10
ENDBRANCH   8   9
ENDBRANCH   7   8
ENDBRANCH   6   7
ENDBRANCH   5   6
ENDBRANCH   4   5
ENDBRANCH   3   4
ENDBRANCH   2   3
ENDBRANCH   1   2
BRANCH   1  15
ATOM     15  C   UNL     1      22.945 -15.067  26.527  1.00  0.00     0.000 C 
BRANCH  15  16
ATOM     16  C   UNL     1      22.142 -15.139  27.841  1.00  0.00     0.000 C 
BRANCH  16  17
ATOM     17  C   UNL     1      21.765 -16.560  28.297  1.00  0.00     0.000 C 
BRANCH  17  18
ATOM     18  C   UNL     1      20.727 -16.569  29.429  1.00  0.00    -0.000 C 
BRANCH  18  19
ATOM     19  C   UNL     1      20.255 -15.144  29.749  1.00  0.00    -0.000 C 
BRANCH  19  20
ATOM     20  C   UNL     1      18.923 -15.114  30.520  1.00  0.00    -0.000 C 
BRANCH  20  21
ATOM     21  C   UNL     1      17.826 -16.043  29.962  1.00  0.00    -0.000 C 
BRANCH  21  22
ATOM     22  C   UNL     1      17.088 -16.887  31.017  1.00  0.00    -0.000 C 
BRANCH  22  23
ATOM     23  C   UNL     1      15.580 -16.992  30.751  1.00  0.00    -0.000 C 
BRANCH  23  24
ATOM     24  C   UNL     1      14.775 -16.718  32.027  1.00  0.00    -0.000 C 
BRANCH  24  25
ATOM     25  C   UNL     1      13.338 -16.303  31.692  1.00  0.00    -0.003 C 
ATOM     26  C   UNL     1      12.847 -16.993  30.422  1.00  0.00     0.004 C 
ENDBRANCH  24  25
ENDBRANCH  23  24
ENDBRANCH  22  23
ENDBRANCH  21  22
ENDBRANCH  20  21
ENDBRANCH  19  20
ENDBRANCH  18  19
ENDBRANCH  17  18
ENDBRANCH  16  17
ENDBRANCH  15  16
ENDBRANCH   1  15
TORSDOF 22
ENDMDL
MODEL 7
REMARK VINA RESULT:    -3.606      3.370      7.052
REMARK INTER + INTRA:         -12.259
REMARK INTER:                  -9.157
REMARK INTRA:                  -3.102
REMARK UNBOUND:                -4.016
REMARK SMILES CCCCCCCCCCCCCCCCCCCCCCCC(=O)[O-]
REMARK SMILES IDX 13 1 14 2 15 3 16 4 17 5 18 6 19 7 20 8 21 9 22 10 23 11
REMARK SMILES IDX 24 12 25 13 26 14 12 15 11 16 10 17 9 18 8 19 7 20 6 21 5 22
REMARK SMILES IDX 4 23 3 24 2 25 1 26
REMARK H PARENT
REMARK Flexibility Score: inf
ROOT
ATOM      1  C   UNL     1      25.029 -18.804  28.622  1.00  0.00     0.000 C 
ENDROOT
BRANCH   1   2
ATOM      2  C   UNL     1      26.512 -19.199  28.773  1.00  0.00     0.000 C 
BRANCH   2   3
ATOM      3  C   UNL     1      27.516 -18.061  28.513  1.00  0.00     0.000 C 
BRANCH   3   4
ATOM      4  C   UNL     1      28.821 -18.549  27.868  1.00  0.00     0.000 C 
BRANCH   4   5
ATOM      5  C   UNL     1      28.656 -19.962  27.291  1.00  0.00     0.000 C 
BRANCH   5   6
ATOM      6  C   UNL     1      28.713 -19.971  25.747  1.00  0.00     0.000 C 
BRANCH   6   7
ATOM      7  C   UNL     1      27.363 -19.665  25.078  1.00  0.00     0.000 C 
BRANCH   7   8
ATOM      8  C   UNL     1      27.273 -18.222  24.551  1.00  0.00     0.000 C 
BRANCH   8   9
ATOM      9  C   UNL     1      25.987 -17.503  24.993  1.00  0.00     0.000 C 
BRANCH   9  10
ATOM     10  C   UNL     1      26.195 -16.117  25.638  1.00  0.00     0.006 C 
BRANCH  10  11
ATOM     11  C   UNL     1      25.174 -15.760  26.729  1.00  0.00     0.053 C 
BRANCH  11  12
ATOM     12  C   UNL     1      24.436 -14.495  26.417  1.00  0.00     0.041 C 
ATOM     13  O   UNL     1      25.033 -13.387  26.455  1.00  0.00    -0.550 OA
ATOM     14  O   UNL     1      23.097 -14.541  26.051  1.00  0.00    -0.550 OA
ENDBRANCH  11  12
ENDBRANCH  10  11
ENDBRANCH   9  10
ENDBRANCH   8   9
ENDBRANCH   7   8
ENDBRANCH   6   7
ENDBRANCH   5   6
ENDBRANCH   4   5
ENDBRANCH   3   4
ENDBRANCH   2   3
ENDBRANCH   1   2
BRANCH   1  15
ATOM     15  C   UNL     1      24.290 -19.483  27.453  1.00  0.00     0.000 C 
BRANCH  15  16
ATOM     16  C   UNL     1      22.758 -19.316  27.463  1.00  0.00     0.000 C 
BRANCH  16  17
ATOM     17  C   UNL     1      22.260 -17.863  27.346  1.00  0.00     0.000 C 
BRANCH  17  18
ATOM     18  C   UNL     1      21.616 -17.346  28.641  1.00  0.00    -0.000 C 
BRANCH  18  19
ATOM     19  C   UNL     1      21.565 -15.811  28.650  1.00  0.00    -0.000 C 
BRANCH  19  20
ATOM     20  C   UNL     1      20.494 -15.255  29.605  1.00  0.00    -0.000 C 
BRANCH  20  21
ATOM     21  C   UNL     1      20.311 -16.049  30.914  1.00  0.00    -0.000 C 
BRANCH  21  22
ATOM     22  C   UNL     1      19.097 -15.634  31.764  1.00  0.00    -0.000 C 
BRANCH  22  23
ATOM     23  C   UNL     1      18.001 -16.708  31.804  1.00  0.00    -0.000 C 
BRANCH  23  24
ATOM     24  C   UNL     1      18.150 -17.692  30.638  1.00  0.00    -0.000 C 
BRANCH  24  25
ATOM     25  C   UNL     1      17.048 -17.477  29.594  1.00  0.00    -0.003 C 
ATOM     26  C   UNL     1      15.668 -17.457  30.246  1.00  0.00     0.004 C 
ENDBRANCH  24  25
ENDBRANCH  23  24
ENDBRANCH  22  23
ENDBRANCH  21  22
ENDBRANCH  20  21
ENDBRANCH  19  20
ENDBRANCH  18  19
ENDBRANCH  17  18
ENDBRANCH  16  17
ENDBRANCH  15  16
ENDBRANCH   1  15
TORSDOF 22
ENDMDL
MODEL 8
REMARK VINA RESULT:    -3.586      3.870      5.396
REMARK INTER + INTRA:         -12.214
REMARK INTER:                  -9.506
REMARK INTRA:                  -2.709
REMARK UNBOUND:                -4.016
REMARK SMILES CCCCCCCCCCCCCCCCCCCCCCCC(=O)[O-]
REMARK SMILES IDX 13 1 14 2 15 3 16 4 17 5 18 6 19 7 20 8 21 9 22 10 23 11
REMARK SMILES IDX 24 12 25 13 26 14 12 15 11 16 10 17 9 18 8 19 7 20 6 21 5 22
REMARK SMILES IDX 4 23 3 24 2 25 1 26
REMARK H PARENT
REMARK Flexibility Score: inf
ROOT
ATOM      1  C   UNL     1      26.571 -16.102  25.404  1.00  0.00     0.000 C 
ENDROOT
BRANCH   1   2
ATOM      2  C   UNL     1      25.496 -15.963  26.501  1.00  0.00     0.000 C 
BRANCH   2   3
ATOM      3  C   UNL     1      24.622 -14.700  26.397  1.00  0.00     0.000 C 
BRANCH   3   4
ATOM      4  C   UNL     1      23.120 -15.002  26.487  1.00  0.00     0.000 C 
BRANCH   4   5
ATOM      5  C   UNL     1      22.856 -16.514  26.420  1.00  0.00     0.000 C 
BRANCH   5   6
ATOM      6  C   UNL     1      22.271 -17.062  27.740  1.00  0.00     0.000 C 
BRANCH   6   7
ATOM      7  C   UNL     1      21.538 -16.001  28.578  1.00  0.00     0.000 C 
BRANCH   7   8
ATOM      8  C   UNL     1      20.492 -16.609  29.527  1.00  0.00     0.000 C 
BRANCH   8   9
ATOM      9  C   UNL     1      20.583 -16.048  30.957  1.00  0.00     0.000 C 
BRANCH   9  10
ATOM     10  C   UNL     1      19.230 -15.734  31.629  1.00  0.00     0.006 C 
BRANCH  10  11
ATOM     11  C   UNL     1      18.037 -15.664  30.664  1.00  0.00     0.053 C 
BRANCH  11  12
ATOM     12  C   UNL     1      16.964 -16.645  31.023  1.00  0.00     0.041 C 
ATOM     13  O   UNL     1      16.785 -16.975  32.225  1.00  0.00    -0.550 OA
ATOM     14  O   UNL     1      16.139 -17.169  30.037  1.00  0.00    -0.550 OA
ENDBRANCH  11  12
ENDBRANCH  10  11
ENDBRANCH   9  10
ENDBRANCH   8   9
ENDBRANCH   7   8
ENDBRANCH   6   7
ENDBRANCH   5   6
ENDBRANCH   4   5
ENDBRANCH   3   4
ENDBRANCH   2   3
ENDBRANCH   1   2
BRANCH   1  15
ATOM     15  C   UNL     1      26.991 -17.550  25.084  1.00  0.00     0.000 C 
BRANCH  15  16
ATOM     16  C   UNL     1      25.862 -18.595  25.178  1.00  0.00     0.000 C 
BRANCH  16  17
ATOM     17  C   UNL     1      26.163 -19.799  26.090  1.00  0.00     0.000 C 
BRANCH  17  18
ATOM     18  C   UNL     1      25.161 -19.940  27.244  1.00  0.00    -0.000 C 
BRANCH  18  19
ATOM     19  C   UNL     1      25.857 -19.755  28.600  1.00  0.00    -0.000 C 
BRANCH  19  20
ATOM     20  C   UNL     1      26.209 -18.287  28.896  1.00  0.00    -0.000 C 
BRANCH  20  21
ATOM     21  C   UNL     1      27.704 -18.016  29.163  1.00  0.00    -0.000 C 
BRANCH  21  22
ATOM     22  C   UNL     1      28.677 -18.966  28.443  1.00  0.00    -0.000 C 
BRANCH  22  23
ATOM     23  C   UNL     1      30.069 -18.353  28.237  1.00  0.00    -0.000 C 
BRANCH  23  24
ATOM     24  C   UNL     1      30.769 -18.971  27.021  1.00  0.00    -0.000 C 
BRANCH  24  25
ATOM     25  C   UNL     1      30.772 -17.999  25.835  1.00  0.00    -0.003 C 
ATOM     26  C   UNL     1      30.768 -18.750  24.507  1.00  0.00     0.004 C 
ENDBRANCH  24  25
ENDBRANCH  23  24
ENDBRANCH  22  23
ENDBRANCH  21  22
ENDBRANCH  20  21
ENDBRANCH  19  20
ENDBRANCH  18  19
ENDBRANCH  17  18
ENDBRANCH  16  17
ENDBRANCH  15  16
ENDBRANCH   1  15
TORSDOF 22
ENDMDL
MODEL 9
REMARK VINA RESULT:    -3.571      3.611      7.536
REMARK INTER + INTRA:         -12.180
REMARK INTER:                 -10.175
REMARK INTRA:                  -2.005
REMARK UNBOUND:                -4.016
REMARK SMILES CCCCCCCCCCCCCCCCCCCCCCCC(=O)[O-]
REMARK SMILES IDX 13 1 14 2 15 3 16 4 17 5 18 6 19 7 20 8 21 9 22 10 23 11
REMARK SMILES IDX 24 12 25 13 26 14 12 15 11 16 10 17 9 18 8 19 7 20 6 21 5 22
REMARK SMILES IDX 4 23 3 24 2 25 1 26
REMARK H PARENT
REMARK Flexibility Score: inf
ROOT
ATOM      1  C   UNL     1      26.631 -16.372  25.264  1.00  0.00     0.000 C 
ENDROOT
BRANCH   1   2
ATOM      2  C   UNL     1      26.616 -17.786  24.650  1.00  0.00     0.000 C 
BRANCH   2   3
ATOM      3  C   UNL     1      27.991 -18.474  24.573  1.00  0.00     0.000 C 
BRANCH   3   4
ATOM      4  C   UNL     1      27.984 -19.893  25.161  1.00  0.00     0.000 C 
BRANCH   4   5
ATOM      5  C   UNL     1      29.114 -20.071  26.185  1.00  0.00     0.000 C 
BRANCH   5   6
ATOM      6  C   UNL     1      29.531 -18.732  26.831  1.00  0.00     0.000 C 
BRANCH   6   7
ATOM      7  C   UNL     1      29.190 -18.637  28.328  1.00  0.00     0.000 C 
BRANCH   7   8
ATOM      8  C   UNL     1      27.860 -17.911  28.591  1.00  0.00     0.000 C 
BRANCH   8   9
ATOM      9  C   UNL     1      27.982 -16.805  29.654  1.00  0.00     0.000 C 
BRANCH   9  10
ATOM     10  C   UNL     1      29.173 -16.951  30.624  1.00  0.00     0.006 C 
BRANCH  10  11
ATOM     11  C   UNL     1      30.244 -15.857  30.489  1.00  0.00     0.053 C 
BRANCH  11  12
ATOM     12  C   UNL     1      29.931 -14.656  31.327  1.00  0.00     0.041 C 
ATOM     13  O   UNL     1      29.229 -13.722  30.857  1.00  0.00    -0.550 OA
ATOM     14  O   UNL     1      30.383 -14.583  32.638  1.00  0.00    -0.550 OA
ENDBRANCH  11  12
ENDBRANCH  10  11
ENDBRANCH   9  10
ENDBRANCH   8   9
ENDBRANCH   7   8
ENDBRANCH   6   7
ENDBRANCH   5   6
ENDBRANCH   4   5
ENDBRANCH   3   4
ENDBRANCH   2   3
ENDBRANCH   1   2
BRANCH   1  15
ATOM     15  C   UNL     1      25.582 -16.128  26.366  1.00  0.00     0.000 C 
BRANCH  15  16
ATOM     16  C   UNL     1      25.008 -14.699  26.418  1.00  0.00     0.000 C 
BRANCH  16  17
ATOM     17  C   UNL     1      23.507 -14.611  26.746  1.00  0.00     0.000 C 
BRANCH  17  18
ATOM     18  C   UNL     1      22.765 -15.935  26.513  1.00  0.00    -0.000 C 
BRANCH  18  19
ATOM     19  C   UNL     1      22.127 -16.441  27.814  1.00  0.00    -0.000 C 
BRANCH  19  20
ATOM     20  C   UNL     1      21.433 -15.325  28.614  1.00  0.00    -0.000 C 
BRANCH  20  21
ATOM     21  C   UNL     1      20.631 -15.803  29.842  1.00  0.00    -0.000 C 
BRANCH  21  22
ATOM     22  C   UNL     1      19.371 -14.979  30.158  1.00  0.00    -0.000 C 
BRANCH  22  23
ATOM     23  C   UNL     1      18.077 -15.797  30.040  1.00  0.00    -0.000 C 
BRANCH  23  24
ATOM     24  C   UNL     1      18.367 -17.301  30.114  1.00  0.00    -0.000 C 
BRANCH  24  25
ATOM     25  C   UNL     1      17.504 -17.975  31.187  1.00  0.00    -0.003 C 
ATOM     26  C   UNL     1      17.620 -17.248  32.524  1.00  0.00     0.004 C 
ENDBRANCH  24  25
ENDBRANCH  23  24
ENDBRANCH  22  23
ENDBRANCH  21  22
ENDBRANCH  20  21
ENDBRANCH  19  20
ENDBRANCH  18  19
ENDBRANCH  17  18
ENDBRANCH  16  17
ENDBRANCH  15  16
ENDBRANCH   1  15
TORSDOF 22
ENDMDL
