MODEL 1
REMARK VINA RESULT:    69.377      0.000      0.000
REMARK INTER + INTRA:          91.806
REMARK INTER:                  91.684
REMARK INTRA:                   0.122
REMARK UNBOUND:                 0.122
REMARK SMILES CC[C@@H](C=C[C@H](C)[C@@H]1CC[C@@H]2[C@@H]3CC=C4C[C@H](O)CC[C@@]4(C)[C@@H]3CC[C@]21C)C(C)C
REMARK SMILES IDX 6 1 7 2 5 3 4 4 3 5 2 6 1 7 28 8 29 9 30 10 8 11 9 12 26 13
REMARK SMILES IDX 10 14 11 15 25 16 27 17 12 18 24 19 23 20 13 21 21 22 14 23
REMARK SMILES IDX 15 24 20 25 22 26 16 27 19 28 17 29 18 30
REMARK H PARENT 18 31
REMARK Flexibility Score: inf
ROOT
ATOM      1  C   UNL     1     -38.556  25.162   7.951  1.00  0.00     0.012 C 
ATOM      2  C   UNL     1     -39.047  26.543   8.453  1.00  0.00     0.012 C 
ENDROOT
BRANCH   1   3
ATOM      3  C   UNL     1     -39.695  24.301   7.437  1.00  0.00    -0.028 C 
ATOM      4  C   UNL     1     -40.985  24.538   7.738  1.00  0.00    -0.027 C 
BRANCH   4   5
ATOM      5  C   UNL     1     -42.119  23.704   7.168  1.00  0.00     0.014 C 
BRANCH   5   6
ATOM      6  C   UNL     1     -42.123  22.289   7.802  1.00  0.00     0.004 C 
ATOM      7  C   UNL     1     -40.992  22.093   8.815  1.00  0.00     0.004 C 
ENDBRANCH   5   6
BRANCH   5   8
ATOM      8  C   UNL     1     -42.071  23.660   5.605  1.00  0.00    -0.011 C 
ATOM      9  C   UNL     1     -40.805  22.943   5.097  1.00  0.00     0.008 C 
ATOM     10  C   UNL     1     -42.125  25.065   4.984  1.00  0.00     0.008 C 
ENDBRANCH   5   8
ENDBRANCH   4   5
ENDBRANCH   1   3
BRANCH   1  11
ATOM     11  C   UNL     1     -37.356  25.170   6.938  1.00  0.00     0.002 C 
ATOM     12  C   UNL     1     -37.165  23.826   6.181  1.00  0.00     0.005 C 
ATOM     13  C   UNL     1     -35.914  25.603   7.371  1.00  0.00    -0.026 C 
ATOM     14  C   UNL     1     -35.670  23.721   5.834  1.00  0.00     0.005 C 
ATOM     15  C   UNL     1     -35.127  25.107   6.143  1.00  0.00    -0.001 C 
ATOM     16  C   UNL     1     -35.675  27.127   7.469  1.00  0.00     0.007 C 
ATOM     17  C   UNL     1     -35.499  24.936   8.709  1.00  0.00     0.012 C 
ATOM     18  C   UNL     1     -33.600  25.348   6.141  1.00  0.00     0.000 C 
ATOM     19  C   UNL     1     -34.166  27.465   7.540  1.00  0.00     0.005 C 
ATOM     20  C   UNL     1     -33.306  26.864   6.378  1.00  0.00     0.003 C 
ATOM     21  C   UNL     1     -32.773  24.369   7.014  1.00  0.00     0.031 C 
ATOM     22  C   UNL     1     -31.761  27.151   6.525  1.00  0.00    -0.008 C 
ATOM     23  C   UNL     1     -31.647  24.989   7.798  1.00  0.00    -0.027 C 
ATOM     24  C   UNL     1     -31.125  26.207   7.534  1.00  0.00    -0.065 C 
ATOM     25  C   UNL     1     -31.004  26.918   5.179  1.00  0.00     0.014 C 
ATOM     26  C   UNL     1     -31.556  28.634   6.959  1.00  0.00     0.016 C 
ATOM     27  C   UNL     1     -29.649  26.404   7.794  1.00  0.00     0.063 C 
ATOM     28  C   UNL     1     -29.462  27.019   5.314  1.00  0.00     0.033 C 
ATOM     29  C   UNL     1     -28.898  26.159   6.469  1.00  0.00     0.118 C 
BRANCH  29  30
ATOM     30  O   UNL     1     -27.534  26.447   6.634  1.00  0.00    -0.393 OA
ATOM     31  H   UNL     1     -27.477  27.379   6.973  1.00  0.00     0.210 HD
ENDBRANCH  29  30
ENDBRANCH   1  11
TORSDOF 6
ENDMDL
MODEL 2
REMARK VINA RESULT:    69.553      3.129      9.315
REMARK INTER + INTRA:          92.038
REMARK INTER:                  92.665
REMARK INTRA:                  -0.627
REMARK UNBOUND:                 0.122
REMARK SMILES CC[C@@H](C=C[C@H](C)[C@@H]1CC[C@@H]2[C@@H]3CC=C4C[C@H](O)CC[C@@]4(C)[C@@H]3CC[C@]21C)C(C)C
REMARK SMILES IDX 6 1 7 2 5 3 4 4 3 5 2 6 1 7 28 8 29 9 30 10 8 11 9 12 26 13
REMARK SMILES IDX 10 14 11 15 25 16 27 17 12 18 24 19 23 20 13 21 21 22 14 23
REMARK SMILES IDX 15 24 20 25 22 26 16 27 19 28 17 29 18 30
REMARK H PARENT 18 31
REMARK Flexibility Score: inf
ROOT
ATOM      1  C   UNL     1     -32.008  26.752   7.739  1.00  0.00     0.012 C 
ATOM      2  C   UNL     1     -31.183  27.058   9.014  1.00  0.00     0.012 C 
ENDROOT
BRANCH   1   3
ATOM      3  C   UNL     1     -31.142  26.694   6.496  1.00  0.00    -0.028 C 
ATOM      4  C   UNL     1     -29.868  27.126   6.470  1.00  0.00    -0.027 C 
BRANCH   4   5
ATOM      5  C   UNL     1     -28.993  27.006   5.234  1.00  0.00     0.014 C 
BRANCH   5   6
ATOM      6  C   UNL     1     -27.759  27.937   5.352  1.00  0.00     0.004 C 
ATOM      7  C   UNL     1     -26.434  27.171   5.293  1.00  0.00     0.004 C 
ENDBRANCH   5   6
BRANCH   5   8
ATOM      8  C   UNL     1     -29.811  27.259   3.924  1.00  0.00    -0.011 C 
ATOM      9  C   UNL     1     -28.904  27.256   2.679  1.00  0.00     0.008 C 
ATOM     10  C   UNL     1     -30.581  28.589   3.971  1.00  0.00     0.008 C 
ENDBRANCH   5   8
ENDBRANCH   4   5
ENDBRANCH   1   3
BRANCH   1  11
ATOM     11  C   UNL     1     -32.975  25.517   7.809  1.00  0.00     0.002 C 
ATOM     12  C   UNL     1     -32.430  24.251   7.091  1.00  0.00     0.005 C 
ATOM     13  C   UNL     1     -34.476  25.618   7.373  1.00  0.00    -0.026 C 
ATOM     14  C   UNL     1     -33.652  23.445   6.621  1.00  0.00     0.005 C 
ATOM     15  C   UNL     1     -34.821  24.117   7.322  1.00  0.00    -0.001 C 
ATOM     16  C   UNL     1     -35.431  26.261   8.404  1.00  0.00     0.007 C 
ATOM     17  C   UNL     1     -34.624  26.354   6.015  1.00  0.00     0.012 C 
ATOM     18  C   UNL     1     -36.268  23.741   6.929  1.00  0.00     0.000 C 
ATOM     19  C   UNL     1     -36.915  25.994   8.055  1.00  0.00     0.005 C 
ATOM     20  C   UNL     1     -37.278  24.482   7.863  1.00  0.00     0.003 C 
ATOM     21  C   UNL     1     -36.586  23.821   5.413  1.00  0.00     0.031 C 
ATOM     22  C   UNL     1     -38.775  24.247   7.420  1.00  0.00    -0.008 C 
ATOM     23  C   UNL     1     -37.931  24.399   5.060  1.00  0.00    -0.027 C 
ATOM     24  C   UNL     1     -38.954  24.517   5.934  1.00  0.00    -0.065 C 
ATOM     25  C   UNL     1     -39.212  22.764   7.644  1.00  0.00     0.014 C 
ATOM     26  C   UNL     1     -39.707  25.171   8.260  1.00  0.00     0.016 C 
ATOM     27  C   UNL     1     -40.356  24.362   5.391  1.00  0.00     0.063 C 
ATOM     28  C   UNL     1     -40.615  22.442   7.067  1.00  0.00     0.033 C 
ATOM     29  C   UNL     1     -40.784  22.894   5.598  1.00  0.00     0.118 C 
BRANCH  29  30
ATOM     30  O   UNL     1     -42.124  22.730   5.217  1.00  0.00    -0.393 OA
ATOM     31  H   UNL     1     -42.396  21.821   5.508  1.00  0.00     0.210 HD
ENDBRANCH  29  30
ENDBRANCH   1  11
TORSDOF 6
ENDMDL
MODEL 3
REMARK VINA RESULT:    70.088      3.195      9.634
REMARK INTER + INTRA:          92.746
REMARK INTER:                  92.639
REMARK INTRA:                   0.107
REMARK UNBOUND:                 0.122
REMARK SMILES CC[C@@H](C=C[C@H](C)[C@@H]1CC[C@@H]2[C@@H]3CC=C4C[C@H](O)CC[C@@]4(C)[C@@H]3CC[C@]21C)C(C)C
REMARK SMILES IDX 6 1 7 2 5 3 4 4 3 5 2 6 1 7 28 8 29 9 30 10 8 11 9 12 26 13
REMARK SMILES IDX 10 14 11 15 25 16 27 17 12 18 24 19 23 20 13 21 21 22 14 23
REMARK SMILES IDX 15 24 20 25 22 26 16 27 19 28 17 29 18 30
REMARK H PARENT 18 31
REMARK Flexibility Score: inf
ROOT
ATOM      1  C   UNL     1     -31.459  25.821   7.368  1.00  0.00     0.012 C 
ATOM      2  C   UNL     1     -31.208  24.414   6.767  1.00  0.00     0.012 C 
ENDROOT
BRANCH   1   3
ATOM      3  C   UNL     1     -30.623  26.891   6.692  1.00  0.00    -0.028 C 
ATOM      4  C   UNL     1     -29.449  26.630   6.088  1.00  0.00    -0.027 C 
BRANCH   4   5
ATOM      5  C   UNL     1     -28.653  27.701   5.363  1.00  0.00     0.014 C 
BRANCH   5   6
ATOM      6  C   UNL     1     -29.241  27.951   3.950  1.00  0.00     0.004 C 
ATOM      7  C   UNL     1     -30.713  28.370   3.990  1.00  0.00     0.004 C 
ENDBRANCH   5   6
BRANCH   5   8
ATOM      8  C   UNL     1     -27.127  27.354   5.324  1.00  0.00    -0.011 C 
ATOM      9  C   UNL     1     -26.272  28.491   5.916  1.00  0.00     0.008 C 
ATOM     10  C   UNL     1     -26.637  27.059   3.897  1.00  0.00     0.008 C 
ENDBRANCH   5   8
ENDBRANCH   4   5
ENDBRANCH   1   3
BRANCH   1  11
ATOM     11  C   UNL     1     -32.957  26.272   7.493  1.00  0.00     0.002 C 
ATOM     12  C   UNL     1     -33.266  27.074   8.787  1.00  0.00     0.005 C 
ATOM     13  C   UNL     1     -34.140  25.255   7.351  1.00  0.00    -0.026 C 
ATOM     14  C   UNL     1     -34.745  26.821   9.125  1.00  0.00     0.005 C 
ATOM     15  C   UNL     1     -35.288  26.134   7.883  1.00  0.00    -0.001 C 
ATOM     16  C   UNL     1     -34.514  24.859   5.904  1.00  0.00     0.007 C 
ATOM     17  C   UNL     1     -33.884  23.968   8.180  1.00  0.00     0.012 C 
ATOM     18  C   UNL     1     -36.701  25.506   7.911  1.00  0.00     0.000 C 
ATOM     19  C   UNL     1     -35.892  24.158   5.840  1.00  0.00     0.005 C 
ATOM     20  C   UNL     1     -37.066  24.965   6.492  1.00  0.00     0.003 C 
ATOM     21  C   UNL     1     -36.967  24.526   9.083  1.00  0.00     0.031 C 
ATOM     22  C   UNL     1     -38.439  24.187   6.491  1.00  0.00    -0.008 C 
ATOM     23  C   UNL     1     -37.744  23.286   8.730  1.00  0.00    -0.027 C 
ATOM     24  C   UNL     1     -38.481  23.152   7.606  1.00  0.00    -0.065 C 
ATOM     25  C   UNL     1     -39.643  25.148   6.750  1.00  0.00     0.014 C 
ATOM     26  C   UNL     1     -38.639  23.505   5.104  1.00  0.00     0.016 C 
ATOM     27  C   UNL     1     -39.734  22.312   7.689  1.00  0.00     0.063 C 
ATOM     28  C   UNL     1     -40.994  24.410   6.930  1.00  0.00     0.033 C 
ATOM     29  C   UNL     1     -40.923  23.258   7.960  1.00  0.00     0.118 C 
BRANCH  29  30
ATOM     30  O   UNL     1     -42.125  22.536   7.927  1.00  0.00    -0.393 OA
ATOM     31  H   UNL     1     -41.884  21.575   8.001  1.00  0.00     0.210 HD
ENDBRANCH  29  30
ENDBRANCH   1  11
TORSDOF 6
ENDMDL
MODEL 4
REMARK VINA RESULT:    70.368      1.699      3.911
REMARK INTER + INTRA:          93.116
REMARK INTER:                  92.865
REMARK INTRA:                   0.251
REMARK UNBOUND:                 0.122
REMARK SMILES CC[C@@H](C=C[C@H](C)[C@@H]1CC[C@@H]2[C@@H]3CC=C4C[C@H](O)CC[C@@]4(C)[C@@H]3CC[C@]21C)C(C)C
REMARK SMILES IDX 6 1 7 2 5 3 4 4 3 5 2 6 1 7 28 8 29 9 30 10 8 11 9 12 26 13
REMARK SMILES IDX 10 14 11 15 25 16 27 17 12 18 24 19 23 20 13 21 21 22 14 23
REMARK SMILES IDX 15 24 20 25 22 26 16 27 19 28 17 29 18 30
REMARK H PARENT 18 31
REMARK Flexibility Score: inf
ROOT
ATOM      1  C   UNL     1     -40.197  23.500   5.752  1.00  0.00     0.012 C 
ATOM      2  C   UNL     1     -41.140  22.288   5.540  1.00  0.00     0.012 C 
ENDROOT
BRANCH   1   3
ATOM      3  C   UNL     1     -40.955  24.755   6.139  1.00  0.00    -0.028 C 
ATOM      4  C   UNL     1     -41.312  25.699   5.250  1.00  0.00    -0.027 C 
BRANCH   4   5
ATOM      5  C   UNL     1     -42.123  26.922   5.642  1.00  0.00     0.014 C 
BRANCH   5   6
ATOM      6  C   UNL     1     -41.712  28.144   4.782  1.00  0.00     0.004 C 
ATOM      7  C   UNL     1     -41.802  27.866   3.279  1.00  0.00     0.004 C 
ENDBRANCH   5   6
BRANCH   5   8
ATOM      8  C   UNL     1     -42.024  27.209   7.178  1.00  0.00    -0.011 C 
ATOM      9  C   UNL     1     -40.713  27.936   7.535  1.00  0.00     0.008 C 
ATOM     10  C   UNL     1     -42.119  25.923   8.014  1.00  0.00     0.008 C 
ENDBRANCH   5   8
ENDBRANCH   4   5
ENDBRANCH   1   3
BRANCH   1  11
ATOM     11  C   UNL     1     -38.965  23.272   6.698  1.00  0.00     0.002 C 
ATOM     12  C   UNL     1     -39.292  23.441   8.207  1.00  0.00     0.005 C 
ATOM     13  C   UNL     1     -37.611  24.032   6.487  1.00  0.00    -0.026 C 
ATOM     14  C   UNL     1     -37.996  23.899   8.895  1.00  0.00     0.005 C 
ATOM     15  C   UNL     1     -36.930  23.703   7.829  1.00  0.00    -0.001 C 
ATOM     16  C   UNL     1     -36.697  23.474   5.373  1.00  0.00     0.007 C 
ATOM     17  C   UNL     1     -37.843  25.547   6.242  1.00  0.00     0.012 C 
ATOM     18  C   UNL     1     -35.509  24.267   8.054  1.00  0.00     0.000 C 
ATOM     19  C   UNL     1     -35.259  24.038   5.476  1.00  0.00     0.005 C 
ATOM     20  C   UNL     1     -34.579  23.841   6.873  1.00  0.00     0.003 C 
ATOM     21  C   UNL     1     -35.445  25.768   8.439  1.00  0.00     0.031 C 
ATOM     22  C   UNL     1     -33.150  24.504   6.976  1.00  0.00    -0.008 C 
ATOM     23  C   UNL     1     -34.343  26.560   7.788  1.00  0.00    -0.027 C 
ATOM     24  C   UNL     1     -33.261  26.005   7.200  1.00  0.00    -0.065 C 
ATOM     25  C   UNL     1     -32.345  23.945   8.192  1.00  0.00     0.014 C 
ATOM     26  C   UNL     1     -32.352  24.203   5.672  1.00  0.00     0.016 C 
ATOM     27  C   UNL     1     -31.957  26.765   7.280  1.00  0.00     0.063 C 
ATOM     28  C   UNL     1     -31.006  24.687   8.438  1.00  0.00     0.033 C 
ATOM     29  C   UNL     1     -31.166  26.224   8.489  1.00  0.00     0.118 C 
BRANCH  29  30
ATOM     30  O   UNL     1     -29.896  26.819   8.533  1.00  0.00    -0.393 OA
ATOM     31  H   UNL     1     -29.559  26.708   9.460  1.00  0.00     0.210 HD
ENDBRANCH  29  30
ENDBRANCH   1  11
TORSDOF 6
ENDMDL
