MODEL 1
REMARK VINA RESULT:    -4.043      0.000      0.000
REMARK INTER + INTRA:         -11.843
REMARK INTER:                  -8.771
REMARK INTRA:                  -3.072
REMARK UNBOUND:                -3.072
REMARK SMILES CCCCCCCCCCCCCCCCCCCCCC(=O)[O-]
REMARK SMILES IDX 12 1 11 2 10 3 9 4 8 5 7 6 6 7 5 8 4 9 3 10 2 11 1 12 13 13
REMARK SMILES IDX 14 14 15 15 16 16 17 17 18 18 19 19 20 20 21 21 22 22 23 23
REMARK SMILES IDX 24 24
REMARK H PARENT
REMARK Flexibility Score: inf
ROOT
ATOM      1  C   UNL     1     185.163 185.160 199.991  1.00  0.00     0.000 C 
ENDROOT
BRANCH   1   2
ATOM      2  C   UNL     1     185.340 183.633 200.029  1.00  0.00     0.000 C 
BRANCH   2   3
ATOM      3  C   UNL     1     184.427 182.958 201.064  1.00  0.00     0.000 C 
BRANCH   3   4
ATOM      4  C   UNL     1     183.118 182.434 200.449  1.00  0.00    -0.000 C 
BRANCH   4   5
ATOM      5  C   UNL     1     181.896 183.334 200.735  1.00  0.00    -0.000 C 
BRANCH   5   6
ATOM      6  C   UNL     1     182.001 184.037 202.102  1.00  0.00    -0.000 C 
BRANCH   6   7
ATOM      7  C   UNL     1     181.907 185.574 201.981  1.00  0.00    -0.000 C 
BRANCH   7   8
ATOM      8  C   UNL     1     181.180 186.058 200.711  1.00  0.00    -0.000 C 
BRANCH   8   9
ATOM      9  C   UNL     1     181.456 187.519 200.318  1.00  0.00    -0.000 C 
BRANCH   9  10
ATOM     10  C   UNL     1     181.979 188.364 201.493  1.00  0.00    -0.000 C 
BRANCH  10  11
ATOM     11  C   UNL     1     182.820 189.562 201.028  1.00  0.00    -0.003 C 
ATOM     12  C   UNL     1     182.057 190.498 200.090  1.00  0.00     0.004 C 
ENDBRANCH  10  11
ENDBRANCH   9  10
ENDBRANCH   8   9
ENDBRANCH   7   8
ENDBRANCH   6   7
ENDBRANCH   5   6
ENDBRANCH   4   5
ENDBRANCH   3   4
ENDBRANCH   2   3
ENDBRANCH   1   2
BRANCH   1  13
ATOM     13  C   UNL     1     184.422 185.643 198.732  1.00  0.00     0.000 C 
BRANCH  13  14
ATOM     14  C   UNL     1     184.590 187.153 198.485  1.00  0.00     0.000 C 
BRANCH  14  15
ATOM     15  C   UNL     1     185.867 187.511 197.694  1.00  0.00     0.000 C 
BRANCH  15  16
ATOM     16  C   UNL     1     186.704 188.590 198.402  1.00  0.00     0.000 C 
BRANCH  16  17
ATOM     17  C   UNL     1     186.084 189.040 199.734  1.00  0.00     0.000 C 
BRANCH  17  18
ATOM     18  C   UNL     1     186.979 188.723 200.943  1.00  0.00     0.000 C 
BRANCH  18  19
ATOM     19  C   UNL     1     188.152 187.790 200.569  1.00  0.00     0.000 C 
BRANCH  19  20
ATOM     20  C   UNL     1     189.526 188.315 201.027  1.00  0.00     0.006 C 
BRANCH  20  21
ATOM     21  C   UNL     1     190.434 188.785 199.879  1.00  0.00     0.053 C 
BRANCH  21  22
ATOM     22  C   UNL     1     190.800 190.234 200.004  1.00  0.00     0.041 C 
ATOM     23  O   UNL     1     191.880 190.660 199.514  1.00  0.00    -0.550 OA
ATOM     24  O   UNL     1     189.926 191.124 200.616  1.00  0.00    -0.550 OA
ENDBRANCH  21  22
ENDBRANCH  20  21
ENDBRANCH  19  20
ENDBRANCH  18  19
ENDBRANCH  17  18
ENDBRANCH  16  17
ENDBRANCH  15  16
ENDBRANCH  14  15
ENDBRANCH  13  14
ENDBRANCH   1  13
TORSDOF 20
ENDMDL
MODEL 2
REMARK VINA RESULT:    -3.921      3.346      6.556
REMARK INTER + INTRA:         -11.578
REMARK INTER:                  -8.241
REMARK INTRA:                  -3.337
REMARK UNBOUND:                -3.072
REMARK SMILES CCCCCCCCCCCCCCCCCCCCCC(=O)[O-]
REMARK SMILES IDX 12 1 11 2 10 3 9 4 8 5 7 6 6 7 5 8 4 9 3 10 2 11 1 12 13 13
REMARK SMILES IDX 14 14 15 15 16 16 17 17 18 18 19 19 20 20 21 21 22 22 23 23
REMARK SMILES IDX 24 24
REMARK H PARENT
REMARK Flexibility Score: inf
ROOT
ATOM      1  C   UNL     1     186.058 188.433 198.247  1.00  0.00     0.000 C 
ENDROOT
BRANCH   1   2
ATOM      2  C   UNL     1     186.597 187.736 199.506  1.00  0.00     0.000 C 
BRANCH   2   3
ATOM      3  C   UNL     1     185.755 186.515 199.911  1.00  0.00     0.000 C 
BRANCH   3   4
ATOM      4  C   UNL     1     184.914 185.962 198.748  1.00  0.00    -0.000 C 
BRANCH   4   5
ATOM      5  C   UNL     1     183.409 185.850 199.071  1.00  0.00    -0.000 C 
BRANCH   5   6
ATOM      6  C   UNL     1     183.109 186.159 200.550  1.00  0.00    -0.000 C 
BRANCH   6   7
ATOM      7  C   UNL     1     182.112 185.156 201.171  1.00  0.00    -0.000 C 
BRANCH   7   8
ATOM      8  C   UNL     1     182.224 183.729 200.599  1.00  0.00    -0.000 C 
BRANCH   8   9
ATOM      9  C   UNL     1     183.096 182.764 201.420  1.00  0.00    -0.000 C 
BRANCH   9  10
ATOM     10  C   UNL     1     184.559 182.731 200.944  1.00  0.00    -0.000 C 
BRANCH  10  11
ATOM     11  C   UNL     1     185.523 183.360 201.962  1.00  0.00    -0.003 C 
ATOM     12  C   UNL     1     186.954 183.470 201.437  1.00  0.00     0.004 C 
ENDBRANCH  10  11
ENDBRANCH   9  10
ENDBRANCH   8   9
ENDBRANCH   7   8
ENDBRANCH   6   7
ENDBRANCH   5   6
ENDBRANCH   4   5
ENDBRANCH   3   4
ENDBRANCH   2   3
ENDBRANCH   1   2
BRANCH   1  13
ATOM     13  C   UNL     1     185.968 189.961 198.403  1.00  0.00     0.000 C 
BRANCH  13  14
ATOM     14  C   UNL     1     184.554 190.506 198.136  1.00  0.00     0.000 C 
BRANCH  14  15
ATOM     15  C   UNL     1     183.452 189.785 198.942  1.00  0.00     0.000 C 
BRANCH  15  16
ATOM     16  C   UNL     1     182.367 189.183 198.032  1.00  0.00     0.000 C 
BRANCH  16  17
ATOM     17  C   UNL     1     181.116 188.750 198.810  1.00  0.00     0.000 C 
BRANCH  17  18
ATOM     18  C   UNL     1     180.823 189.657 200.016  1.00  0.00     0.000 C 
BRANCH  18  19
ATOM     19  C   UNL     1     179.448 190.350 199.903  1.00  0.00     0.000 C 
BRANCH  19  20
ATOM     20  C   UNL     1     179.508 191.730 199.221  1.00  0.00     0.006 C 
BRANCH  20  21
ATOM     21  C   UNL     1     180.887 192.406 199.287  1.00  0.00     0.053 C 
BRANCH  21  22
ATOM     22  C   UNL     1     181.202 193.174 198.039  1.00  0.00     0.041 C 
ATOM     23  O   UNL     1     182.162 192.822 197.303  1.00  0.00    -0.550 OA
ATOM     24  O   UNL     1     180.406 194.249 197.661  1.00  0.00    -0.550 OA
ENDBRANCH  21  22
ENDBRANCH  20  21
ENDBRANCH  19  20
ENDBRANCH  18  19
ENDBRANCH  17  18
ENDBRANCH  16  17
ENDBRANCH  15  16
ENDBRANCH  14  15
ENDBRANCH  13  14
ENDBRANCH   1  13
TORSDOF 20
ENDMDL
MODEL 3
REMARK VINA RESULT:    -3.871      3.725      5.910
REMARK INTER + INTRA:         -11.470
REMARK INTER:                  -8.597
REMARK INTRA:                  -2.873
REMARK UNBOUND:                -3.072
REMARK SMILES CCCCCCCCCCCCCCCCCCCCCC(=O)[O-]
REMARK SMILES IDX 12 1 11 2 10 3 9 4 8 5 7 6 6 7 5 8 4 9 3 10 2 11 1 12 13 13
REMARK SMILES IDX 14 14 15 15 16 16 17 17 18 18 19 19 20 20 21 21 22 22 23 23
REMARK SMILES IDX 24 24
REMARK H PARENT
REMARK Flexibility Score: inf
ROOT
ATOM      1  C   UNL     1     184.760 185.772 198.865  1.00  0.00     0.000 C 
ENDROOT
BRANCH   1   2
ATOM      2  C   UNL     1     183.370 186.343 199.188  1.00  0.00     0.000 C 
BRANCH   2   3
ATOM      3  C   UNL     1     183.380 187.262 200.420  1.00  0.00     0.000 C 
BRANCH   3   4
ATOM      4  C   UNL     1     181.994 187.394 201.074  1.00  0.00    -0.000 C 
BRANCH   4   5
ATOM      5  C   UNL     1     180.844 186.843 200.203  1.00  0.00    -0.000 C 
BRANCH   5   6
ATOM      6  C   UNL     1     180.097 185.686 200.892  1.00  0.00    -0.000 C 
BRANCH   6   7
ATOM      7  C   UNL     1     180.856 185.147 202.125  1.00  0.00    -0.000 C 
BRANCH   7   8
ATOM      8  C   UNL     1     181.091 183.624 202.097  1.00  0.00    -0.000 C 
BRANCH   8   9
ATOM      9  C   UNL     1     181.306 183.022 200.698  1.00  0.00    -0.000 C 
BRANCH   9  10
ATOM     10  C   UNL     1     182.789 182.970 200.292  1.00  0.00    -0.000 C 
BRANCH  10  11
ATOM     11  C   UNL     1     183.683 182.392 201.400  1.00  0.00    -0.003 C 
ATOM     12  C   UNL     1     184.831 183.324 201.786  1.00  0.00     0.004 C 
ENDBRANCH  10  11
ENDBRANCH   9  10
ENDBRANCH   8   9
ENDBRANCH   7   8
ENDBRANCH   6   7
ENDBRANCH   5   6
ENDBRANCH   4   5
ENDBRANCH   3   4
ENDBRANCH   2   3
ENDBRANCH   1   2
BRANCH   1  13
ATOM     13  C   UNL     1     185.252 186.158 197.459  1.00  0.00     0.000 C 
BRANCH  13  14
ATOM     14  C   UNL     1     185.910 187.548 197.419  1.00  0.00     0.000 C 
BRANCH  14  15
ATOM     15  C   UNL     1     186.594 187.947 198.746  1.00  0.00     0.000 C 
BRANCH  15  16
ATOM     16  C   UNL     1     185.991 189.229 199.346  1.00  0.00     0.000 C 
BRANCH  16  17
ATOM     17  C   UNL     1     185.493 190.208 198.271  1.00  0.00     0.000 C 
BRANCH  17  18
ATOM     18  C   UNL     1     183.999 190.030 197.953  1.00  0.00     0.000 C 
BRANCH  18  19
ATOM     19  C   UNL     1     183.282 191.383 197.756  1.00  0.00     0.000 C 
BRANCH  19  20
ATOM     20  C   UNL     1     182.749 191.995 199.065  1.00  0.00     0.006 C 
BRANCH  20  21
ATOM     21  C   UNL     1     181.874 191.043 199.895  1.00  0.00     0.053 C 
BRANCH  21  22
ATOM     22  C   UNL     1     180.447 191.040 199.435  1.00  0.00     0.041 C 
ATOM     23  O   UNL     1     179.713 192.043 199.639  1.00  0.00    -0.550 OA
ATOM     24  O   UNL     1     179.940 189.950 198.737  1.00  0.00    -0.550 OA
ENDBRANCH  21  22
ENDBRANCH  20  21
ENDBRANCH  19  20
ENDBRANCH  18  19
ENDBRANCH  17  18
ENDBRANCH  16  17
ENDBRANCH  15  16
ENDBRANCH  14  15
ENDBRANCH  13  14
ENDBRANCH   1  13
TORSDOF 20
ENDMDL
MODEL 4
REMARK VINA RESULT:    -3.862      3.290      6.319
REMARK INTER + INTRA:         -11.449
REMARK INTER:                  -8.337
REMARK INTRA:                  -3.112
REMARK UNBOUND:                -3.072
REMARK SMILES CCCCCCCCCCCCCCCCCCCCCC(=O)[O-]
REMARK SMILES IDX 12 1 11 2 10 3 9 4 8 5 7 6 6 7 5 8 4 9 3 10 2 11 1 12 13 13
REMARK SMILES IDX 14 14 15 15 16 16 17 17 18 18 19 19 20 20 21 21 22 22 23 23
REMARK SMILES IDX 24 24
REMARK H PARENT
REMARK Flexibility Score: inf
ROOT
ATOM      1  C   UNL     1     185.039 189.374 200.278  1.00  0.00     0.000 C 
ENDROOT
BRANCH   1   2
ATOM      2  C   UNL     1     186.402 188.720 200.555  1.00  0.00     0.000 C 
BRANCH   2   3
ATOM      3  C   UNL     1     186.780 187.672 199.496  1.00  0.00     0.000 C 
BRANCH   3   4
ATOM      4  C   UNL     1     185.829 187.679 198.287  1.00  0.00    -0.000 C 
BRANCH   4   5
ATOM      5  C   UNL     1     184.863 186.476 198.252  1.00  0.00    -0.000 C 
BRANCH   5   6
ATOM      6  C   UNL     1     185.111 185.499 199.418  1.00  0.00    -0.000 C 
BRANCH   6   7
ATOM      7  C   UNL     1     183.862 185.316 200.307  1.00  0.00    -0.000 C 
BRANCH   7   8
ATOM      8  C   UNL     1     183.375 183.857 200.408  1.00  0.00    -0.000 C 
BRANCH   8   9
ATOM      9  C   UNL     1     182.219 183.622 201.395  1.00  0.00    -0.000 C 
BRANCH   9  10
ATOM     10  C   UNL     1     180.887 183.310 200.691  1.00  0.00    -0.000 C 
BRANCH  10  11
ATOM     11  C   UNL     1     179.787 184.325 201.036  1.00  0.00    -0.003 C 
ATOM     12  C   UNL     1     180.245 185.381 202.042  1.00  0.00     0.004 C 
ENDBRANCH  10  11
ENDBRANCH   9  10
ENDBRANCH   8   9
ENDBRANCH   7   8
ENDBRANCH   6   7
ENDBRANCH   5   6
ENDBRANCH   4   5
ENDBRANCH   3   4
ENDBRANCH   2   3
ENDBRANCH   1   2
BRANCH   1  13
ATOM     13  C   UNL     1     183.951 188.930 201.270  1.00  0.00     0.000 C 
BRANCH  13  14
ATOM     14  C   UNL     1     182.588 189.586 200.993  1.00  0.00     0.000 C 
BRANCH  14  15
ATOM     15  C   UNL     1     181.458 188.570 200.714  1.00  0.00     0.000 C 
BRANCH  15  16
ATOM     16  C   UNL     1     181.533 187.997 199.288  1.00  0.00     0.000 C 
BRANCH  16  17
ATOM     17  C   UNL     1     181.384 189.080 198.208  1.00  0.00     0.000 C 
BRANCH  17  18
ATOM     18  C   UNL     1     182.722 189.449 197.549  1.00  0.00     0.000 C 
BRANCH  18  19
ATOM     19  C   UNL     1     182.728 190.898 197.015  1.00  0.00     0.000 C 
BRANCH  19  20
ATOM     20  C   UNL     1     181.805 191.848 197.801  1.00  0.00     0.006 C 
BRANCH  20  21
ATOM     21  C   UNL     1     182.507 192.617 198.932  1.00  0.00     0.053 C 
BRANCH  21  22
ATOM     22  C   UNL     1     181.599 193.613 199.588  1.00  0.00     0.041 C 
ATOM     23  O   UNL     1     180.349 193.497 199.483  1.00  0.00    -0.550 OA
ATOM     24  O   UNL     1     182.131 194.642 200.356  1.00  0.00    -0.550 OA
ENDBRANCH  21  22
ENDBRANCH  20  21
ENDBRANCH  19  20
ENDBRANCH  18  19
ENDBRANCH  17  18
ENDBRANCH  16  17
ENDBRANCH  15  16
ENDBRANCH  14  15
ENDBRANCH  13  14
ENDBRANCH   1  13
TORSDOF 20
ENDMDL
MODEL 5
REMARK VINA RESULT:    -3.855      1.677      3.981
REMARK INTER + INTRA:         -11.434
REMARK INTER:                  -9.106
REMARK INTRA:                  -2.327
REMARK UNBOUND:                -3.072
REMARK SMILES CCCCCCCCCCCCCCCCCCCCCC(=O)[O-]
REMARK SMILES IDX 12 1 11 2 10 3 9 4 8 5 7 6 6 7 5 8 4 9 3 10 2 11 1 12 13 13
REMARK SMILES IDX 14 14 15 15 16 16 17 17 18 18 19 19 20 20 21 21 22 22 23 23
REMARK SMILES IDX 24 24
REMARK H PARENT
REMARK Flexibility Score: inf
ROOT
ATOM      1  C   UNL     1     184.063 188.674 198.316  1.00  0.00     0.000 C 
ENDROOT
BRANCH   1   2
ATOM      2  C   UNL     1     183.231 187.451 198.733  1.00  0.00     0.000 C 
BRANCH   2   3
ATOM      3  C   UNL     1     183.553 186.976 200.159  1.00  0.00     0.000 C 
BRANCH   3   4
ATOM      4  C   UNL     1     184.236 185.597 200.185  1.00  0.00    -0.000 C 
BRANCH   4   5
ATOM      5  C   UNL     1     184.464 184.993 198.783  1.00  0.00    -0.000 C 
BRANCH   5   6
ATOM      6  C   UNL     1     184.928 183.526 198.852  1.00  0.00    -0.000 C 
BRANCH   6   7
ATOM      7  C   UNL     1     183.753 182.547 199.067  1.00  0.00    -0.000 C 
BRANCH   7   8
ATOM      8  C   UNL     1     183.781 181.827 200.430  1.00  0.00    -0.000 C 
BRANCH   8   9
ATOM      9  C   UNL     1     182.626 182.185 201.381  1.00  0.00    -0.000 C 
BRANCH   9  10
ATOM     10  C   UNL     1     181.271 182.291 200.659  1.00  0.00    -0.000 C 
BRANCH  10  11
ATOM     11  C   UNL     1     180.515 183.581 201.011  1.00  0.00    -0.003 C 
ATOM     12  C   UNL     1     181.327 184.522 201.901  1.00  0.00     0.004 C 
ENDBRANCH  10  11
ENDBRANCH   9  10
ENDBRANCH   8   9
ENDBRANCH   7   8
ENDBRANCH   6   7
ENDBRANCH   5   6
ENDBRANCH   4   5
ENDBRANCH   3   4
ENDBRANCH   2   3
ENDBRANCH   1   2
BRANCH   1  13
ATOM     13  C   UNL     1     185.328 188.295 197.526  1.00  0.00     0.000 C 
BRANCH  13  14
ATOM     14  C   UNL     1     186.621 188.522 198.328  1.00  0.00     0.000 C 
BRANCH  14  15
ATOM     15  C   UNL     1     186.416 189.361 199.608  1.00  0.00     0.000 C 
BRANCH  15  16
ATOM     16  C   UNL     1     186.712 188.554 200.884  1.00  0.00     0.000 C 
BRANCH  16  17
ATOM     17  C   UNL     1     188.170 188.074 200.954  1.00  0.00     0.000 C 
BRANCH  17  18
ATOM     18  C   UNL     1     189.083 189.057 201.704  1.00  0.00     0.000 C 
BRANCH  18  19
ATOM     19  C   UNL     1     190.562 188.912 201.285  1.00  0.00     0.000 C 
BRANCH  19  20
ATOM     20  C   UNL     1     191.170 190.206 200.711  1.00  0.00     0.006 C 
BRANCH  20  21
ATOM     21  C   UNL     1     192.435 189.987 199.866  1.00  0.00     0.053 C 
BRANCH  21  22
ATOM     22  C   UNL     1     192.167 190.132 198.398  1.00  0.00     0.041 C 
ATOM     23  O   UNL     1     191.343 189.369 197.826  1.00  0.00    -0.550 OA
ATOM     24  O   UNL     1     192.789 191.139 197.671  1.00  0.00    -0.550 OA
ENDBRANCH  21  22
ENDBRANCH  20  21
ENDBRANCH  19  20
ENDBRANCH  18  19
ENDBRANCH  17  18
ENDBRANCH  16  17
ENDBRANCH  15  16
ENDBRANCH  14  15
ENDBRANCH  13  14
ENDBRANCH   1  13
TORSDOF 20
ENDMDL
MODEL 6
REMARK VINA RESULT:    -3.828      2.002      4.963
REMARK INTER + INTRA:         -11.375
REMARK INTER:                  -8.952
REMARK INTRA:                  -2.423
REMARK UNBOUND:                -3.072
REMARK SMILES CCCCCCCCCCCCCCCCCCCCCC(=O)[O-]
REMARK SMILES IDX 12 1 11 2 10 3 9 4 8 5 7 6 6 7 5 8 4 9 3 10 2 11 1 12 13 13
REMARK SMILES IDX 14 14 15 15 16 16 17 17 18 18 19 19 20 20 21 21 22 22 23 23
REMARK SMILES IDX 24 24
REMARK H PARENT
REMARK Flexibility Score: inf
ROOT
ATOM      1  C   UNL     1     186.353 188.229 198.668  1.00  0.00     0.000 C 
ENDROOT
BRANCH   1   2
ATOM      2  C   UNL     1     186.165 189.741 198.467  1.00  0.00     0.000 C 
BRANCH   2   3
ATOM      3  C   UNL     1     184.729 190.110 198.064  1.00  0.00     0.000 C 
BRANCH   3   4
ATOM      4  C   UNL     1     183.927 188.901 197.552  1.00  0.00    -0.000 C 
BRANCH   4   5
ATOM      5  C   UNL     1     182.632 188.635 198.349  1.00  0.00    -0.000 C 
BRANCH   5   6
ATOM      6  C   UNL     1     182.880 188.617 199.870  1.00  0.00    -0.000 C 
BRANCH   6   7
ATOM      7  C   UNL     1     182.689 187.211 200.480  1.00  0.00    -0.000 C 
BRANCH   7   8
ATOM      8  C   UNL     1     183.415 186.091 199.708  1.00  0.00    -0.000 C 
BRANCH   8   9
ATOM      9  C   UNL     1     183.139 184.665 200.215  1.00  0.00    -0.000 C 
BRANCH   9  10
ATOM     10  C   UNL     1     184.391 183.987 200.798  1.00  0.00    -0.000 C 
BRANCH  10  11
ATOM     11  C   UNL     1     185.255 183.319 199.717  1.00  0.00    -0.003 C 
ATOM     12  C   UNL     1     184.432 182.769 198.552  1.00  0.00     0.004 C 
ENDBRANCH  10  11
ENDBRANCH   9  10
ENDBRANCH   8   9
ENDBRANCH   7   8
ENDBRANCH   6   7
ENDBRANCH   5   6
ENDBRANCH   4   5
ENDBRANCH   3   4
ENDBRANCH   2   3
ENDBRANCH   1   2
BRANCH   1  13
ATOM     13  C   UNL     1     186.600 187.848 200.137  1.00  0.00     0.000 C 
BRANCH  13  14
ATOM     14  C   UNL     1     186.773 189.074 201.050  1.00  0.00     0.000 C 
BRANCH  14  15
ATOM     15  C   UNL     1     187.988 188.972 201.998  1.00  0.00     0.000 C 
BRANCH  15  16
ATOM     16  C   UNL     1     189.031 190.069 201.724  1.00  0.00     0.000 C 
BRANCH  16  17
ATOM     17  C   UNL     1     189.297 190.272 200.225  1.00  0.00     0.000 C 
BRANCH  17  18
ATOM     18  C   UNL     1     190.257 189.221 199.645  1.00  0.00     0.000 C 
BRANCH  18  19
ATOM     19  C   UNL     1     191.727 189.503 200.026  1.00  0.00     0.000 C 
BRANCH  19  20
ATOM     20  C   UNL     1     192.245 190.862 199.519  1.00  0.00     0.006 C 
BRANCH  20  21
ATOM     21  C   UNL     1     192.755 190.841 198.070  1.00  0.00     0.053 C 
BRANCH  21  22
ATOM     22  C   UNL     1     194.191 190.419 197.980  1.00  0.00     0.041 C 
ATOM     23  O   UNL     1     195.044 190.905 198.770  1.00  0.00    -0.550 OA
ATOM     24  O   UNL     1     194.579 189.453 197.060  1.00  0.00    -0.550 OA
ENDBRANCH  21  22
ENDBRANCH  20  21
ENDBRANCH  19  20
ENDBRANCH  18  19
ENDBRANCH  17  18
ENDBRANCH  16  17
ENDBRANCH  15  16
ENDBRANCH  14  15
ENDBRANCH  13  14
ENDBRANCH   1  13
TORSDOF 20
ENDMDL
MODEL 7
REMARK VINA RESULT:    -3.789      3.966      8.355
REMARK INTER + INTRA:         -11.292
REMARK INTER:                  -8.854
REMARK INTRA:                  -2.438
REMARK UNBOUND:                -3.072
REMARK SMILES CCCCCCCCCCCCCCCCCCCCCC(=O)[O-]
REMARK SMILES IDX 12 1 11 2 10 3 9 4 8 5 7 6 6 7 5 8 4 9 3 10 2 11 1 12 13 13
REMARK SMILES IDX 14 14 15 15 16 16 17 17 18 18 19 19 20 20 21 21 22 22 23 23
REMARK SMILES IDX 24 24
REMARK H PARENT
REMARK Flexibility Score: inf
ROOT
ATOM      1  C   UNL     1     184.863 190.005 197.984  1.00  0.00     0.000 C 
ENDROOT
BRANCH   1   2
ATOM      2  C   UNL     1     186.221 189.941 198.701  1.00  0.00     0.000 C 
BRANCH   2   3
ATOM      3  C   UNL     1     186.869 188.550 198.616  1.00  0.00     0.000 C 
BRANCH   3   4
ATOM      4  C   UNL     1     187.240 187.982 199.997  1.00  0.00    -0.000 C 
BRANCH   4   5
ATOM      5  C   UNL     1     186.938 188.946 201.164  1.00  0.00    -0.000 C 
BRANCH   5   6
ATOM      6  C   UNL     1     188.209 189.325 201.948  1.00  0.00    -0.000 C 
BRANCH   6   7
ATOM      7  C   UNL     1     189.267 190.011 201.057  1.00  0.00    -0.000 C 
BRANCH   7   8
ATOM      8  C   UNL     1     190.550 189.180 200.857  1.00  0.00    -0.000 C 
BRANCH   8   9
ATOM      9  C   UNL     1     190.929 188.909 199.391  1.00  0.00    -0.000 C 
BRANCH   9  10
ATOM     10  C   UNL     1     192.396 189.254 199.081  1.00  0.00    -0.000 C 
BRANCH  10  11
ATOM     11  C   UNL     1     192.530 190.395 198.062  1.00  0.00    -0.003 C 
ATOM     12  C   UNL     1     193.380 191.557 198.576  1.00  0.00     0.004 C 
ENDBRANCH  10  11
ENDBRANCH   9  10
ENDBRANCH   8   9
ENDBRANCH   7   8
ENDBRANCH   6   7
ENDBRANCH   5   6
ENDBRANCH   4   5
ENDBRANCH   3   4
ENDBRANCH   2   3
ENDBRANCH   1   2
BRANCH   1  13
ATOM     13  C   UNL     1     183.734 190.530 198.888  1.00  0.00     0.000 C 
BRANCH  13  14
ATOM     14  C   UNL     1     183.537 189.676 200.152  1.00  0.00     0.000 C 
BRANCH  14  15
ATOM     15  C   UNL     1     182.805 188.342 199.889  1.00  0.00     0.000 C 
BRANCH  15  16
ATOM     16  C   UNL     1     183.706 187.124 200.155  1.00  0.00     0.000 C 
BRANCH  16  17
ATOM     17  C   UNL     1     183.493 185.996 199.134  1.00  0.00     0.000 C 
BRANCH  17  18
ATOM     18  C   UNL     1     184.814 185.372 198.655  1.00  0.00     0.000 C 
BRANCH  18  19
ATOM     19  C   UNL     1     184.783 183.829 198.712  1.00  0.00     0.000 C 
BRANCH  19  20
ATOM     20  C   UNL     1     184.112 183.273 199.981  1.00  0.00     0.006 C 
BRANCH  20  21
ATOM     21  C   UNL     1     183.001 182.247 199.708  1.00  0.00     0.053 C 
BRANCH  21  22
ATOM     22  C   UNL     1     182.386 181.727 200.973  1.00  0.00     0.041 C 
ATOM     23  O   UNL     1     181.631 182.465 201.661  1.00  0.00    -0.550 OA
ATOM     24  O   UNL     1     182.605 180.413 201.367  1.00  0.00    -0.550 OA
ENDBRANCH  21  22
ENDBRANCH  20  21
ENDBRANCH  19  20
ENDBRANCH  18  19
ENDBRANCH  17  18
ENDBRANCH  16  17
ENDBRANCH  15  16
ENDBRANCH  14  15
ENDBRANCH  13  14
ENDBRANCH   1  13
TORSDOF 20
ENDMDL
MODEL 8
REMARK VINA RESULT:    -3.777      3.372      8.538
REMARK INTER + INTRA:         -11.265
REMARK INTER:                  -8.718
REMARK INTRA:                  -2.547
REMARK UNBOUND:                -3.072
REMARK SMILES CCCCCCCCCCCCCCCCCCCCCC(=O)[O-]
REMARK SMILES IDX 12 1 11 2 10 3 9 4 8 5 7 6 6 7 5 8 4 9 3 10 2 11 1 12 13 13
REMARK SMILES IDX 14 14 15 15 16 16 17 17 18 18 19 19 20 20 21 21 22 22 23 23
REMARK SMILES IDX 24 24
REMARK H PARENT
REMARK Flexibility Score: inf
ROOT
ATOM      1  C   UNL     1     186.594 188.044 198.942  1.00  0.00     0.000 C 
ENDROOT
BRANCH   1   2
ATOM      2  C   UNL     1     187.110 187.903 200.383  1.00  0.00     0.000 C 
BRANCH   2   3
ATOM      3  C   UNL     1     188.642 187.810 200.455  1.00  0.00     0.000 C 
BRANCH   3   4
ATOM      4  C   UNL     1     189.263 188.906 201.339  1.00  0.00    -0.000 C 
BRANCH   4   5
ATOM      5  C   UNL     1     189.687 190.166 200.555  1.00  0.00    -0.000 C 
BRANCH   5   6
ATOM      6  C   UNL     1     191.186 190.150 200.196  1.00  0.00    -0.000 C 
BRANCH   6   7
ATOM      7  C   UNL     1     191.444 189.615 198.771  1.00  0.00    -0.000 C 
BRANCH   7   8
ATOM      8  C   UNL     1     192.417 190.480 197.946  1.00  0.00    -0.000 C 
BRANCH   8   9
ATOM      9  C   UNL     1     193.881 190.010 197.961  1.00  0.00    -0.000 C 
BRANCH   9  10
ATOM     10  C   UNL     1     194.803 190.955 198.753  1.00  0.00    -0.000 C 
BRANCH  10  11
ATOM     11  C   UNL     1     194.144 192.310 199.047  1.00  0.00    -0.003 C 
ATOM     12  C   UNL     1     194.477 192.846 200.439  1.00  0.00     0.004 C 
ENDBRANCH  10  11
ENDBRANCH   9  10
ENDBRANCH   8   9
ENDBRANCH   7   8
ENDBRANCH   6   7
ENDBRANCH   5   6
ENDBRANCH   4   5
ENDBRANCH   3   4
ENDBRANCH   2   3
ENDBRANCH   1   2
BRANCH   1  13
ATOM     13  C   UNL     1     186.690 189.486 198.413  1.00  0.00     0.000 C 
BRANCH  13  14
ATOM     14  C   UNL     1     185.327 190.054 197.982  1.00  0.00     0.000 C 
BRANCH  14  15
ATOM     15  C   UNL     1     184.352 188.983 197.446  1.00  0.00     0.000 C 
BRANCH  15  16
ATOM     16  C   UNL     1     183.004 189.003 198.188  1.00  0.00     0.000 C 
BRANCH  16  17
ATOM     17  C   UNL     1     183.126 189.540 199.622  1.00  0.00     0.000 C 
BRANCH  17  18
ATOM     18  C   UNL     1     183.255 188.419 200.666  1.00  0.00     0.000 C 
BRANCH  18  19
ATOM     19  C   UNL     1     182.684 187.079 200.154  1.00  0.00     0.000 C 
BRANCH  19  20
ATOM     20  C   UNL     1     183.703 185.924 200.182  1.00  0.00     0.006 C 
BRANCH  20  21
ATOM     21  C   UNL     1     184.024 185.334 198.800  1.00  0.00     0.053 C 
BRANCH  21  22
ATOM     22  C   UNL     1     184.870 184.099 198.894  1.00  0.00     0.041 C 
ATOM     23  O   UNL     1     184.967 183.321 197.908  1.00  0.00    -0.550 OA
ATOM     24  O   UNL     1     185.591 183.833 200.052  1.00  0.00    -0.550 OA
ENDBRANCH  21  22
ENDBRANCH  20  21
ENDBRANCH  19  20
ENDBRANCH  18  19
ENDBRANCH  17  18
ENDBRANCH  16  17
ENDBRANCH  15  16
ENDBRANCH  14  15
ENDBRANCH  13  14
ENDBRANCH   1  13
TORSDOF 20
ENDMDL
MODEL 9
REMARK VINA RESULT:    -3.721      3.919      6.733
REMARK INTER + INTRA:         -11.144
REMARK INTER:                  -8.516
REMARK INTRA:                  -2.628
REMARK UNBOUND:                -3.072
REMARK SMILES CCCCCCCCCCCCCCCCCCCCCC(=O)[O-]
REMARK SMILES IDX 12 1 11 2 10 3 9 4 8 5 7 6 6 7 5 8 4 9 3 10 2 11 1 12 13 13
REMARK SMILES IDX 14 14 15 15 16 16 17 17 18 18 19 19 20 20 21 21 22 22 23 23
REMARK SMILES IDX 24 24
REMARK H PARENT
REMARK Flexibility Score: inf
ROOT
ATOM      1  C   UNL     1     183.839 186.601 198.743  1.00  0.00     0.000 C 
ENDROOT
BRANCH   1   2
ATOM      2  C   UNL     1     183.530 186.717 200.244  1.00  0.00     0.000 C 
BRANCH   2   3
ATOM      3  C   UNL     1     182.944 188.086 200.622  1.00  0.00     0.000 C 
BRANCH   3   4
ATOM      4  C   UNL     1     181.529 187.983 201.217  1.00  0.00    -0.000 C 
BRANCH   4   5
ATOM      5  C   UNL     1     180.673 186.862 200.589  1.00  0.00    -0.000 C 
BRANCH   5   6
ATOM      6  C   UNL     1     179.884 186.071 201.649  1.00  0.00    -0.000 C 
BRANCH   6   7
ATOM      7  C   UNL     1     179.949 184.546 201.413  1.00  0.00    -0.000 C 
BRANCH   7   8
ATOM      8  C   UNL     1     181.376 184.008 201.191  1.00  0.00    -0.000 C 
BRANCH   8   9
ATOM      9  C   UNL     1     181.455 182.635 200.500  1.00  0.00    -0.000 C 
BRANCH   9  10
ATOM     10  C   UNL     1     182.849 181.993 200.608  1.00  0.00    -0.000 C 
BRANCH  10  11
ATOM     11  C   UNL     1     183.973 182.952 200.190  1.00  0.00    -0.003 C 
ATOM     12  C   UNL     1     184.384 182.787 198.726  1.00  0.00     0.004 C 
ENDBRANCH  10  11
ENDBRANCH   9  10
ENDBRANCH   8   9
ENDBRANCH   7   8
ENDBRANCH   6   7
ENDBRANCH   5   6
ENDBRANCH   4   5
ENDBRANCH   3   4
ENDBRANCH   2   3
ENDBRANCH   1   2
BRANCH   1  13
ATOM     13  C   UNL     1     184.852 187.654 198.260  1.00  0.00     0.000 C 
BRANCH  13  14
ATOM     14  C   UNL     1     184.245 188.647 197.254  1.00  0.00     0.000 C 
BRANCH  14  15
ATOM     15  C   UNL     1     184.335 190.120 197.709  1.00  0.00     0.000 C 
BRANCH  15  16
ATOM     16  C   UNL     1     182.958 190.806 197.727  1.00  0.00     0.000 C 
BRANCH  16  17
ATOM     17  C   UNL     1     181.799 189.809 197.579  1.00  0.00     0.000 C 
BRANCH  17  18
ATOM     18  C   UNL     1     180.469 190.493 197.223  1.00  0.00     0.000 C 
BRANCH  18  19
ATOM     19  C   UNL     1     180.678 191.758 196.362  1.00  0.00     0.000 C 
BRANCH  19  20
ATOM     20  C   UNL     1     180.009 193.017 196.945  1.00  0.00     0.006 C 
BRANCH  20  21
ATOM     21  C   UNL     1     180.973 193.956 197.688  1.00  0.00     0.053 C 
BRANCH  21  22
ATOM     22  C   UNL     1     180.877 193.804 199.176  1.00  0.00     0.041 C 
ATOM     23  O   UNL     1     179.946 193.124 199.685  1.00  0.00    -0.550 OA
ATOM     24  O   UNL     1     181.841 194.372 200.000  1.00  0.00    -0.550 OA
ENDBRANCH  21  22
ENDBRANCH  20  21
ENDBRANCH  19  20
ENDBRANCH  18  19
ENDBRANCH  17  18
ENDBRANCH  16  17
ENDBRANCH  15  16
ENDBRANCH  14  15
ENDBRANCH  13  14
ENDBRANCH   1  13
TORSDOF 20
ENDMDL
