MODEL 1
REMARK VINA RESULT:    43.825      0.000      0.000
REMARK INTER + INTRA:          52.463
REMARK INTER:                  52.791
REMARK INTRA:                  -0.329
REMARK UNBOUND:                -0.329
REMARK SMILES O=c1c(O)c(-c2ccc(O)c(O)c2)oc2cc(O)cc(O)c12
REMARK SMILES IDX 5 1 3 2 2 3 1 4 22 5 20 6 19 7 17 8 16 9 15 10 14 11 6 12
REMARK SMILES IDX 7 13 8 14 9 15 13 16 11 17 10 18 12 20 4 22 21 24 18 26
REMARK H PARENT 10 19 12 21 4 23 21 25 18 27
REMARK Flexibility Score: inf
ROOT
ATOM      1  C   UNL     1      21.506   7.620  11.722  1.00  0.00     0.180 A 
ATOM      2  C   UNL     1      22.284   8.672  11.209  1.00  0.00     0.208 A 
ATOM      3  C   UNL     1      22.175   9.000   9.848  1.00  0.00     0.238 A 
ATOM      4  O   UNL     1      22.832   9.978   9.407  1.00  0.00    -0.285 OA
ATOM      5  C   UNL     1      21.301   8.262   9.014  1.00  0.00     0.111 A 
ATOM      6  C   UNL     1      21.140   8.481   7.612  1.00  0.00     0.134 A 
ATOM      7  C   UNL     1      20.151   7.779   6.913  1.00  0.00     0.093 A 
ATOM      8  C   UNL     1      19.364   6.819   7.548  1.00  0.00     0.123 A 
ATOM      9  C   UNL     1      19.553   6.554   8.905  1.00  0.00     0.094 A 
ATOM     10  C   UNL     1      20.506   7.264   9.638  1.00  0.00     0.146 A 
ATOM     11  O   UNL     1      20.648   6.989  10.928  1.00  0.00    -0.452 OA
ENDROOT
BRANCH   1  12
ATOM     12  C   UNL     1      21.586   7.199  13.140  1.00  0.00     0.025 A 
ATOM     13  C   UNL     1      22.565   6.290  13.579  1.00  0.00     0.016 A 
ATOM     14  C   UNL     1      22.606   5.889  14.916  1.00  0.00     0.051 A 
ATOM     15  C   UNL     1      21.667   6.375  15.831  1.00  0.00     0.157 A 
ATOM     16  C   UNL     1      20.631   7.669  14.055  1.00  0.00     0.062 A 
ATOM     17  C   UNL     1      20.671   7.268  15.399  1.00  0.00     0.158 A 
BRANCH  15  18
ATOM     18  O   UNL     1      21.734   5.958  17.159  1.00  0.00    -0.504 OA
ATOM     19  H   UNL     1      22.548   5.488  17.536  1.00  0.00     0.293 HD
ENDBRANCH  15  18
BRANCH  17  20
ATOM     20  O   UNL     1      19.727   7.752  16.303  1.00  0.00    -0.504 OA
ATOM     21  H   UNL     1      19.101   7.130  16.801  1.00  0.00     0.293 HD
ENDBRANCH  17  20
ENDBRANCH   1  12
BRANCH   2  22
ATOM     22  O   UNL     1      23.125   9.402  12.054  1.00  0.00    -0.502 OA
ATOM     23  H   UNL     1      24.128   9.441  11.923  1.00  0.00     0.293 HD
ENDBRANCH   2  22
BRANCH   6  24
ATOM     24  O   UNL     1      21.936   9.351   6.862  1.00  0.00    -0.507 OA
ATOM     25  H   UNL     1      22.549  10.051   7.254  1.00  0.00     0.293 HD
ENDBRANCH   6  24
BRANCH   8  26
ATOM     26  O   UNL     1      18.400   6.127   6.816  1.00  0.00    -0.508 OA
ATOM     27  H   UNL     1      17.487   6.525   6.633  1.00  0.00     0.293 HD
ENDBRANCH   8  26
TORSDOF 6
ENDMDL
MODEL 2
REMARK VINA RESULT:    45.137     10.992     12.881
REMARK INTER + INTRA:          54.044
REMARK INTER:                  53.899
REMARK INTRA:                   0.144
REMARK UNBOUND:                -0.329
REMARK SMILES O=c1c(O)c(-c2ccc(O)c(O)c2)oc2cc(O)cc(O)c12
REMARK SMILES IDX 5 1 3 2 2 3 1 4 22 5 20 6 19 7 17 8 16 9 15 10 14 11 6 12
REMARK SMILES IDX 7 13 8 14 9 15 13 16 11 17 10 18 12 20 4 22 21 24 18 26
REMARK H PARENT 10 19 12 21 4 23 21 25 18 27
REMARK Flexibility Score: inf
ROOT
ATOM      1  C   UNL     1      10.536   9.089  16.162  1.00  0.00     0.180 A 
ATOM      2  C   UNL     1      10.409   7.690  16.115  1.00  0.00     0.208 A 
ATOM      3  C   UNL     1       9.217   7.129  15.630  1.00  0.00     0.238 A 
ATOM      4  O   UNL     1       9.132   5.877  15.539  1.00  0.00    -0.285 OA
ATOM      5  C   UNL     1       8.160   7.973  15.212  1.00  0.00     0.111 A 
ATOM      6  C   UNL     1       6.894   7.514  14.741  1.00  0.00     0.134 A 
ATOM      7  C   UNL     1       5.971   8.435  14.231  1.00  0.00     0.093 A 
ATOM      8  C   UNL     1       6.241   9.803  14.237  1.00  0.00     0.123 A 
ATOM      9  C   UNL     1       7.453  10.268  14.751  1.00  0.00     0.094 A 
ATOM     10  C   UNL     1       8.408   9.371  15.233  1.00  0.00     0.146 A 
ATOM     11  O   UNL     1       9.551   9.853  15.703  1.00  0.00    -0.452 OA
ENDROOT
BRANCH   1  12
ATOM     12  C   UNL     1      11.751   9.754  16.685  1.00  0.00     0.025 A 
ATOM     13  C   UNL     1      11.666  10.893  17.505  1.00  0.00     0.016 A 
ATOM     14  C   UNL     1      12.828  11.517  17.967  1.00  0.00     0.051 A 
ATOM     15  C   UNL     1      14.086  11.026  17.609  1.00  0.00     0.157 A 
ATOM     16  C   UNL     1      13.017   9.275  16.309  1.00  0.00     0.062 A 
ATOM     17  C   UNL     1      14.184   9.901  16.773  1.00  0.00     0.158 A 
BRANCH  15  18
ATOM     18  O   UNL     1      15.227  11.670  18.086  1.00  0.00    -0.504 OA
ATOM     19  H   UNL     1      15.518  11.603  19.054  1.00  0.00     0.293 HD
ENDBRANCH  15  18
BRANCH  17  20
ATOM     20  O   UNL     1      15.435   9.409  16.406  1.00  0.00    -0.504 OA
ATOM     21  H   UNL     1      15.743   8.483  16.679  1.00  0.00     0.293 HD
ENDBRANCH  17  20
ENDBRANCH   1  12
BRANCH   2  22
ATOM     22  O   UNL     1      11.473   6.874  16.512  1.00  0.00    -0.502 OA
ATOM     23  H   UNL     1      11.860   6.155  15.914  1.00  0.00     0.293 HD
ENDBRANCH   2  22
BRANCH   6  24
ATOM     24  O   UNL     1       6.486   6.177  14.775  1.00  0.00    -0.507 OA
ATOM     25  H   UNL     1       7.061   5.394  14.500  1.00  0.00     0.293 HD
ENDBRANCH   6  24
BRANCH   8  26
ATOM     26  O   UNL     1       5.292  10.693  13.737  1.00  0.00    -0.508 OA
ATOM     27  H   UNL     1       4.334  10.686  14.065  1.00  0.00     0.293 HD
ENDBRANCH   8  26
TORSDOF 6
ENDMDL
MODEL 3
REMARK VINA RESULT:    46.315     11.468     13.232
REMARK INTER + INTRA:          55.462
REMARK INTER:                  55.009
REMARK INTRA:                   0.454
REMARK UNBOUND:                -0.329
REMARK SMILES O=c1c(O)c(-c2ccc(O)c(O)c2)oc2cc(O)cc(O)c12
REMARK SMILES IDX 5 1 3 2 2 3 1 4 22 5 20 6 19 7 17 8 16 9 15 10 14 11 6 12
REMARK SMILES IDX 7 13 8 14 9 15 13 16 11 17 10 18 12 20 4 22 21 24 18 26
REMARK H PARENT 10 19 12 21 4 23 21 25 18 27
REMARK Flexibility Score: inf
ROOT
ATOM      1  C   UNL     1      10.154   9.066  16.028  1.00  0.00     0.180 A 
ATOM      2  C   UNL     1      10.037   7.670  15.920  1.00  0.00     0.208 A 
ATOM      3  C   UNL     1       8.848   7.122  15.413  1.00  0.00     0.238 A 
ATOM      4  O   UNL     1       8.771   5.875  15.267  1.00  0.00    -0.285 OA
ATOM      5  C   UNL     1       7.784   7.977  15.035  1.00  0.00     0.111 A 
ATOM      6  C   UNL     1       6.519   7.530  14.547  1.00  0.00     0.134 A 
ATOM      7  C   UNL     1       5.589   8.466  14.080  1.00  0.00     0.093 A 
ATOM      8  C   UNL     1       5.850   9.834  14.146  1.00  0.00     0.123 A 
ATOM      9  C   UNL     1       7.059  10.285  14.676  1.00  0.00     0.094 A 
ATOM     10  C   UNL     1       8.022   9.374  15.116  1.00  0.00     0.146 A 
ATOM     11  O   UNL     1       9.163   9.844  15.605  1.00  0.00    -0.452 OA
ENDROOT
BRANCH   1  12
ATOM     12  C   UNL     1      11.366   9.716  16.577  1.00  0.00     0.025 A 
ATOM     13  C   UNL     1      12.542   8.985  16.820  1.00  0.00     0.016 A 
ATOM     14  C   UNL     1      13.666   9.615  17.360  1.00  0.00     0.051 A 
ATOM     15  C   UNL     1      13.630  10.975  17.679  1.00  0.00     0.157 A 
ATOM     16  C   UNL     1      11.326  11.078  16.918  1.00  0.00     0.062 A 
ATOM     17  C   UNL     1      12.454  11.712  17.460  1.00  0.00     0.158 A 
BRANCH  15  18
ATOM     18  O   UNL     1      14.768  11.576  18.216  1.00  0.00    -0.504 OA
ATOM     19  H   UNL     1      15.699  11.220  18.040  1.00  0.00     0.293 HD
ENDBRANCH  15  18
BRANCH  17  20
ATOM     20  O   UNL     1      12.409  13.068  17.781  1.00  0.00    -0.504 OA
ATOM     21  H   UNL     1      12.068  13.390  18.679  1.00  0.00     0.293 HD
ENDBRANCH  17  20
ENDBRANCH   1  12
BRANCH   2  22
ATOM     22  O   UNL     1      11.108   6.845  16.278  1.00  0.00    -0.502 OA
ATOM     23  H   UNL     1      12.073   7.118  16.143  1.00  0.00     0.293 HD
ENDBRANCH   2  22
BRANCH   6  24
ATOM     24  O   UNL     1       6.121   6.190  14.523  1.00  0.00    -0.507 OA
ATOM     25  H   UNL     1       6.390   5.523  13.814  1.00  0.00     0.293 HD
ENDBRANCH   6  24
BRANCH   8  26
ATOM     26  O   UNL     1       4.893  10.739  13.687  1.00  0.00    -0.508 OA
ATOM     27  H   UNL     1       4.208  10.476  12.990  1.00  0.00     0.293 HD
ENDBRANCH   8  26
TORSDOF 6
ENDMDL
