MODEL 1
REMARK VINA RESULT:    -6.284      0.000      0.000
REMARK INTER + INTRA:          -7.677
REMARK INTER:                  -7.570
REMARK INTRA:                  -0.107
REMARK UNBOUND:                -0.107
REMARK SMILES Oc1cc(O)c2cc(O)c(-c3ccc(O)c(O)c3)[o+]c2c1.[Cl-]
REMARK SMILES IDX 10 1 19 2 20 3 21 4 2 5 3 6 4 7 6 8 7 9 8 10 11 11 12 12
REMARK SMILES IDX 13 13 14 14 18 15 16 16 15 17 17 19 9 21 1 23 5 25
REMARK H PARENT 15 18 17 20 9 22 1 24 5 26
REMARK Flexibility Score: inf
ROOT
ATOM      1  C   UNL     1      -3.248 -32.243 -33.213  1.00  0.00     0.402 A 
ATOM      2  O   UNL     1      -2.296 -31.555 -32.590  1.00  0.00    -0.202 OA
ATOM      3  C   UNL     1      -2.177 -30.234 -32.672  1.00  0.00     0.368 A 
ATOM      4  C   UNL     1      -1.144 -29.599 -31.978  1.00  0.00     0.162 A 
ATOM      5  C   UNL     1      -0.998 -28.210 -32.045  1.00  0.00     0.128 A 
ATOM      6  C   UNL     1      -1.890 -27.454 -32.808  1.00  0.00     0.093 A 
ATOM      7  C   UNL     1      -2.934 -28.065 -33.513  1.00  0.00     0.136 A 
ATOM      8  C   UNL     1      -3.084 -29.476 -33.451  1.00  0.00     0.125 A 
ATOM      9  C   UNL     1      -4.092 -30.175 -34.134  1.00  0.00     0.078 A 
ATOM     10  C   UNL     1      -4.175 -31.567 -34.028  1.00  0.00     0.223 A 
ENDROOT
BRANCH   1  11
ATOM     11  C   UNL     1      -3.281 -33.713 -33.034  1.00  0.00     0.087 A 
ATOM     12  C   UNL     1      -3.388 -34.293 -31.758  1.00  0.00     0.022 A 
ATOM     13  C   UNL     1      -3.394 -35.684 -31.613  1.00  0.00     0.051 A 
ATOM     14  C   UNL     1      -3.280 -36.511 -32.736  1.00  0.00     0.157 A 
ATOM     15  C   UNL     1      -3.147 -34.549 -34.155  1.00  0.00     0.068 A 
ATOM     16  C   UNL     1      -3.152 -35.943 -34.009  1.00  0.00     0.158 A 
BRANCH  14  17
ATOM     17  O   UNL     1      -3.286 -37.898 -32.595  1.00  0.00    -0.504 OA
ATOM     18  H   UNL     1      -4.152 -38.419 -32.517  1.00  0.00     0.293 HD
ENDBRANCH  14  17
BRANCH  16  19
ATOM     19  O   UNL     1      -3.032 -36.770 -35.125  1.00  0.00    -0.504 OA
ATOM     20  H   UNL     1      -3.580 -37.618 -35.218  1.00  0.00     0.293 HD
ENDBRANCH  16  19
ENDBRANCH   1  11
BRANCH  10  21
ATOM     21  O   UNL     1      -5.145 -32.267 -34.746  1.00  0.00    -0.500 OA
ATOM     22  H   UNL     1      -6.107 -31.950 -34.789  1.00  0.00     0.294 HD
ENDBRANCH  10  21
BRANCH   5  23
ATOM     23  O   UNL     1       0.030 -27.571 -31.357  1.00  0.00    -0.507 OA
ATOM     24  H   UNL     1      -0.120 -26.693 -30.872  1.00  0.00     0.293 HD
ENDBRANCH   5  23
BRANCH   7  25
ATOM     25  O   UNL     1      -3.785 -27.237 -34.251  1.00  0.00    -0.507 OA
ATOM     26  H   UNL     1      -3.471 -26.529 -34.898  1.00  0.00     0.293 HD
ENDBRANCH   7  25
TORSDOF 6
ENDMDL
MODEL 2
REMARK VINA RESULT:    -6.153     10.598     14.546
REMARK INTER + INTRA:          -7.519
REMARK INTER:                  -7.196
REMARK INTRA:                  -0.323
REMARK UNBOUND:                -0.107
REMARK SMILES Oc1cc(O)c2cc(O)c(-c3ccc(O)c(O)c3)[o+]c2c1.[Cl-]
REMARK SMILES IDX 10 1 19 2 20 3 21 4 2 5 3 6 4 7 6 8 7 9 8 10 11 11 12 12
REMARK SMILES IDX 13 13 14 14 18 15 16 16 15 17 17 19 9 21 1 23 5 25
REMARK H PARENT 15 18 17 20 9 22 1 24 5 26
REMARK Flexibility Score: inf
ROOT
ATOM      1  C   UNL     1       4.572 -42.217 -32.533  1.00  0.00     0.402 A 
ATOM      2  O   UNL     1       4.995 -43.316 -31.915  1.00  0.00    -0.202 OA
ATOM      3  C   UNL     1       6.007 -44.056 -32.354  1.00  0.00     0.368 A 
ATOM      4  C   UNL     1       6.380 -45.194 -31.634  1.00  0.00     0.162 A 
ATOM      5  C   UNL     1       7.444 -45.989 -32.073  1.00  0.00     0.128 A 
ATOM      6  C   UNL     1       8.137 -45.644 -33.235  1.00  0.00     0.093 A 
ATOM      7  C   UNL     1       7.783 -44.508 -33.975  1.00  0.00     0.136 A 
ATOM      8  C   UNL     1       6.702 -43.700 -33.535  1.00  0.00     0.125 A 
ATOM      9  C   UNL     1       6.269 -42.552 -34.219  1.00  0.00     0.078 A 
ATOM     10  C   UNL     1       5.193 -41.808 -33.727  1.00  0.00     0.223 A 
ENDROOT
BRANCH   1  11
ATOM     11  C   UNL     1       3.439 -41.471 -31.937  1.00  0.00     0.087 A 
ATOM     12  C   UNL     1       2.127 -41.625 -32.419  1.00  0.00     0.022 A 
ATOM     13  C   UNL     1       1.077 -40.893 -31.856  1.00  0.00     0.051 A 
ATOM     14  C   UNL     1       1.326 -39.989 -30.816  1.00  0.00     0.157 A 
ATOM     15  C   UNL     1       3.684 -40.548 -30.908  1.00  0.00     0.068 A 
ATOM     16  C   UNL     1       2.632 -39.813 -30.344  1.00  0.00     0.158 A 
BRANCH  14  17
ATOM     17  O   UNL     1       0.281 -39.258 -30.252  1.00  0.00    -0.504 OA
ATOM     18  H   UNL     1      -0.069 -39.464 -29.324  1.00  0.00     0.293 HD
ENDBRANCH  14  17
BRANCH  16  19
ATOM     19  O   UNL     1       2.876 -38.907 -29.313  1.00  0.00    -0.504 OA
ATOM     20  H   UNL     1       2.149 -38.292 -28.964  1.00  0.00     0.293 HD
ENDBRANCH  16  19
ENDBRANCH   1  11
BRANCH  10  21
ATOM     21  O   UNL     1       4.730 -40.696 -34.433  1.00  0.00    -0.500 OA
ATOM     22  H   UNL     1       5.200 -39.800 -34.382  1.00  0.00     0.294 HD
ENDBRANCH  10  21
BRANCH   5  23
ATOM     23  O   UNL     1       7.821 -47.125 -31.360  1.00  0.00    -0.507 OA
ATOM     24  H   UNL     1       7.294 -47.989 -31.421  1.00  0.00     0.293 HD
ENDBRANCH   5  23
BRANCH   7  25
ATOM     25  O   UNL     1       8.528 -44.231 -35.124  1.00  0.00    -0.507 OA
ATOM     26  H   UNL     1       8.665 -43.307 -35.505  1.00  0.00     0.293 HD
ENDBRANCH   7  25
TORSDOF 6
ENDMDL
MODEL 3
REMARK VINA RESULT:    -6.106      6.198      7.574
REMARK INTER + INTRA:          -7.463
REMARK INTER:                  -7.128
REMARK INTRA:                  -0.335
REMARK UNBOUND:                -0.107
REMARK SMILES Oc1cc(O)c2cc(O)c(-c3ccc(O)c(O)c3)[o+]c2c1.[Cl-]
REMARK SMILES IDX 10 1 19 2 20 3 21 4 2 5 3 6 4 7 6 8 7 9 8 10 11 11 12 12
REMARK SMILES IDX 13 13 14 14 18 15 16 16 15 17 17 19 9 21 1 23 5 25
REMARK H PARENT 15 18 17 20 9 22 1 24 5 26
REMARK Flexibility Score: inf
ROOT
ATOM      1  C   UNL     1       3.017 -32.919 -31.550  1.00  0.00     0.402 A 
ATOM      2  O   UNL     1       2.534 -32.104 -32.483  1.00  0.00    -0.202 OA
ATOM      3  C   UNL     1       1.336 -31.534 -32.405  1.00  0.00     0.368 A 
ATOM      4  C   UNL     1       0.916 -30.689 -33.436  1.00  0.00     0.162 A 
ATOM      5  C   UNL     1      -0.338 -30.074 -33.377  1.00  0.00     0.128 A 
ATOM      6  C   UNL     1      -1.174 -30.304 -32.283  1.00  0.00     0.093 A 
ATOM      7  C   UNL     1      -0.777 -31.146 -31.236  1.00  0.00     0.136 A 
ATOM      8  C   UNL     1       0.494 -31.775 -31.293  1.00  0.00     0.125 A 
ATOM      9  C   UNL     1       0.970 -32.643 -30.298  1.00  0.00     0.078 A 
ATOM     10  C   UNL     1       2.232 -33.231 -30.424  1.00  0.00     0.223 A 
ENDROOT
BRANCH   1  11
ATOM     11  C   UNL     1       4.371 -33.485 -31.747  1.00  0.00     0.087 A 
ATOM     12  C   UNL     1       4.577 -34.640 -32.523  1.00  0.00     0.022 A 
ATOM     13  C   UNL     1       5.862 -35.168 -32.676  1.00  0.00     0.051 A 
ATOM     14  C   UNL     1       6.955 -34.560 -32.047  1.00  0.00     0.157 A 
ATOM     15  C   UNL     1       5.469 -32.892 -31.102  1.00  0.00     0.068 A 
ATOM     16  C   UNL     1       6.758 -33.422 -31.255  1.00  0.00     0.158 A 
BRANCH  14  17
ATOM     17  O   UNL     1       8.238 -35.084 -32.198  1.00  0.00    -0.504 OA
ATOM     18  H   UNL     1       8.617 -35.303 -33.112  1.00  0.00     0.293 HD
ENDBRANCH  14  17
BRANCH  16  19
ATOM     19  O   UNL     1       7.847 -32.824 -30.624  1.00  0.00    -0.504 OA
ATOM     20  H   UNL     1       8.798 -33.126 -30.807  1.00  0.00     0.293 HD
ENDBRANCH  16  19
ENDBRANCH   1  11
BRANCH  10  21
ATOM     21  O   UNL     1       2.685 -34.133 -29.460  1.00  0.00    -0.500 OA
ATOM     22  H   UNL     1       3.602 -34.044 -29.037  1.00  0.00     0.294 HD
ENDBRANCH  10  21
BRANCH   5  23
ATOM     23  O   UNL     1      -0.763 -29.232 -34.402  1.00  0.00    -0.507 OA
ATOM     24  H   UNL     1      -1.024 -28.269 -34.223  1.00  0.00     0.293 HD
ENDBRANCH   5  23
BRANCH   7  25
ATOM     25  O   UNL     1      -1.671 -31.320 -30.176  1.00  0.00    -0.507 OA
ATOM     26  H   UNL     1      -1.446 -31.790 -29.312  1.00  0.00     0.293 HD
ENDBRANCH   7  25
TORSDOF 6
ENDMDL
MODEL 4
REMARK VINA RESULT:    -6.103     10.926     13.795
REMARK INTER + INTRA:          -7.460
REMARK INTER:                  -7.173
REMARK INTRA:                  -0.287
REMARK UNBOUND:                -0.107
REMARK SMILES Oc1cc(O)c2cc(O)c(-c3ccc(O)c(O)c3)[o+]c2c1.[Cl-]
REMARK SMILES IDX 10 1 19 2 20 3 21 4 2 5 3 6 4 7 6 8 7 9 8 10 11 11 12 12
REMARK SMILES IDX 13 13 14 14 18 15 16 16 15 17 17 19 9 21 1 23 5 25
REMARK H PARENT 15 18 17 20 9 22 1 24 5 26
REMARK Flexibility Score: inf
ROOT
ATOM      1  C   UNL     1       5.230 -43.029 -33.009  1.00  0.00     0.402 A 
ATOM      2  O   UNL     1       5.268 -42.206 -31.965  1.00  0.00    -0.202 OA
ATOM      3  C   UNL     1       4.355 -41.267 -31.742  1.00  0.00     0.368 A 
ATOM      4  C   UNL     1       4.480 -40.451 -30.614  1.00  0.00     0.162 A 
ATOM      5  C   UNL     1       3.531 -39.457 -30.355  1.00  0.00     0.128 A 
ATOM      6  C   UNL     1       2.453 -39.280 -31.225  1.00  0.00     0.093 A 
ATOM      7  C   UNL     1       2.305 -40.085 -32.361  1.00  0.00     0.136 A 
ATOM      8  C   UNL     1       3.268 -41.093 -32.632  1.00  0.00     0.125 A 
ATOM      9  C   UNL     1       3.207 -41.937 -33.752  1.00  0.00     0.078 A 
ATOM     10  C   UNL     1       4.195 -42.905 -33.955  1.00  0.00     0.223 A 
ENDROOT
BRANCH   1  11
ATOM     11  C   UNL     1       6.302 -44.042 -33.143  1.00  0.00     0.087 A 
ATOM     12  C   UNL     1       6.337 -45.184 -32.323  1.00  0.00     0.022 A 
ATOM     13  C   UNL     1       7.372 -46.114 -32.452  1.00  0.00     0.051 A 
ATOM     14  C   UNL     1       8.391 -45.911 -33.390  1.00  0.00     0.157 A 
ATOM     15  C   UNL     1       7.338 -43.833 -34.067  1.00  0.00     0.068 A 
ATOM     16  C   UNL     1       8.377 -44.766 -34.197  1.00  0.00     0.158 A 
BRANCH  14  17
ATOM     17  O   UNL     1       9.425 -46.837 -33.522  1.00  0.00    -0.504 OA
ATOM     18  H   UNL     1       9.500 -47.638 -32.906  1.00  0.00     0.293 HD
ENDBRANCH  14  17
BRANCH  16  19
ATOM     19  O   UNL     1       9.397 -44.563 -35.124  1.00  0.00    -0.504 OA
ATOM     20  H   UNL     1      10.329 -44.935 -34.977  1.00  0.00     0.293 HD
ENDBRANCH  16  19
ENDBRANCH   1  11
BRANCH  10  21
ATOM     21  O   UNL     1       4.163 -43.710 -35.094  1.00  0.00    -0.500 OA
ATOM     22  H   UNL     1       3.291 -43.943 -35.557  1.00  0.00     0.294 HD
ENDBRANCH  10  21
BRANCH   5  23
ATOM     23  O   UNL     1       3.650 -38.640 -29.233  1.00  0.00    -0.507 OA
ATOM     24  H   UNL     1       3.728 -39.027 -28.300  1.00  0.00     0.293 HD
ENDBRANCH   5  23
BRANCH   7  25
ATOM     25  O   UNL     1       1.197 -39.845 -33.180  1.00  0.00    -0.507 OA
ATOM     26  H   UNL     1       0.786 -38.936 -33.331  1.00  0.00     0.293 HD
ENDBRANCH   7  25
TORSDOF 6
ENDMDL
MODEL 5
REMARK VINA RESULT:    -6.085     10.599     13.169
REMARK INTER + INTRA:          -7.438
REMARK INTER:                  -7.155
REMARK INTRA:                  -0.283
REMARK UNBOUND:                -0.107
REMARK SMILES Oc1cc(O)c2cc(O)c(-c3ccc(O)c(O)c3)[o+]c2c1.[Cl-]
REMARK SMILES IDX 10 1 19 2 20 3 21 4 2 5 3 6 4 7 6 8 7 9 8 10 11 11 12 12
REMARK SMILES IDX 13 13 14 14 18 15 16 16 15 17 17 19 9 21 1 23 5 25
REMARK H PARENT 15 18 17 20 9 22 1 24 5 26
REMARK Flexibility Score: inf
ROOT
ATOM      1  C   UNL     1       5.217 -39.737 -29.669  1.00  0.00     0.402 A 
ATOM      2  O   UNL     1       5.064 -40.335 -30.848  1.00  0.00    -0.202 OA
ATOM      3  C   UNL     1       3.884 -40.717 -31.324  1.00  0.00     0.368 A 
ATOM      4  C   UNL     1       3.825 -41.337 -32.575  1.00  0.00     0.162 A 
ATOM      5  C   UNL     1       2.595 -41.747 -33.101  1.00  0.00     0.128 A 
ATOM      6  C   UNL     1       1.422 -41.535 -32.374  1.00  0.00     0.093 A 
ATOM      7  C   UNL     1       1.455 -40.916 -31.118  1.00  0.00     0.136 A 
ATOM      8  C   UNL     1       2.701 -40.502 -30.578  1.00  0.00     0.125 A 
ATOM      9  C   UNL     1       2.832 -39.886 -29.323  1.00  0.00     0.078 A 
ATOM     10  C   UNL     1       4.093 -39.508 -28.854  1.00  0.00     0.223 A 
ENDROOT
BRANCH   1  11
ATOM     11  C   UNL     1       6.585 -39.349 -29.253  1.00  0.00     0.087 A 
ATOM     12  C   UNL     1       7.513 -40.305 -28.803  1.00  0.00     0.022 A 
ATOM     13  C   UNL     1       8.790 -39.912 -28.394  1.00  0.00     0.051 A 
ATOM     14  C   UNL     1       9.153 -38.560 -28.416  1.00  0.00     0.157 A 
ATOM     15  C   UNL     1       6.948 -37.993 -29.253  1.00  0.00     0.068 A 
ATOM     16  C   UNL     1       8.229 -37.598 -28.842  1.00  0.00     0.158 A 
BRANCH  14  17
ATOM     17  O   UNL     1      10.426 -38.164 -28.009  1.00  0.00    -0.504 OA
ATOM     18  H   UNL     1      11.249 -38.376 -28.562  1.00  0.00     0.293 HD
ENDBRANCH  14  17
BRANCH  16  19
ATOM     19  O   UNL     1       8.591 -36.252 -28.855  1.00  0.00    -0.504 OA
ATOM     20  H   UNL     1       7.905 -35.517 -28.720  1.00  0.00     0.293 HD
ENDBRANCH  16  19
ENDBRANCH   1  11
BRANCH  10  21
ATOM     21  O   UNL     1       4.229 -38.942 -27.586  1.00  0.00    -0.500 OA
ATOM     22  H   UNL     1       3.620 -39.203 -26.819  1.00  0.00     0.294 HD
ENDBRANCH  10  21
BRANCH   5  23
ATOM     23  O   UNL     1       2.528 -42.365 -34.348  1.00  0.00    -0.507 OA
ATOM     24  H   UNL     1       3.283 -42.947 -34.692  1.00  0.00     0.293 HD
ENDBRANCH   5  23
BRANCH   7  25
ATOM     25  O   UNL     1       0.237 -40.739 -30.455  1.00  0.00    -0.507 OA
ATOM     26  H   UNL     1      -0.029 -41.225 -29.612  1.00  0.00     0.293 HD
ENDBRANCH   7  25
TORSDOF 6
ENDMDL
MODEL 6
REMARK VINA RESULT:    -5.998     13.800     15.804
REMARK INTER + INTRA:          -7.333
REMARK INTER:                  -7.136
REMARK INTRA:                  -0.197
REMARK UNBOUND:                -0.107
REMARK SMILES Oc1cc(O)c2cc(O)c(-c3ccc(O)c(O)c3)[o+]c2c1.[Cl-]
REMARK SMILES IDX 10 1 19 2 20 3 21 4 2 5 3 6 4 7 6 8 7 9 8 10 11 11 12 12
REMARK SMILES IDX 13 13 14 14 18 15 16 16 15 17 17 19 9 21 1 23 5 25
REMARK H PARENT 15 18 17 20 9 22 1 24 5 26
REMARK Flexibility Score: inf
ROOT
ATOM      1  C   UNL     1       8.866 -41.749 -28.562  1.00  0.00     0.402 A 
ATOM      2  O   UNL     1       8.054 -40.785 -28.986  1.00  0.00    -0.202 OA
ATOM      3  C   UNL     1       8.264 -39.495 -28.746  1.00  0.00     0.368 A 
ATOM      4  C   UNL     1       7.353 -38.556 -29.236  1.00  0.00     0.162 A 
ATOM      5  C   UNL     1       7.552 -37.191 -28.999  1.00  0.00     0.128 A 
ATOM      6  C   UNL     1       8.666 -36.767 -28.272  1.00  0.00     0.093 A 
ATOM      7  C   UNL     1       9.594 -37.689 -27.771  1.00  0.00     0.136 A 
ATOM      8  C   UNL     1       9.394 -39.075 -28.005  1.00  0.00     0.125 A 
ATOM      9  C   UNL     1      10.263 -40.071 -27.531  1.00  0.00     0.078 A 
ATOM     10  C   UNL     1      10.000 -41.417 -27.797  1.00  0.00     0.223 A 
ENDROOT
BRANCH   1  11
ATOM     11  C   UNL     1       8.529 -43.150 -28.904  1.00  0.00     0.087 A 
ATOM     12  C   UNL     1       8.524 -43.599 -30.236  1.00  0.00     0.022 A 
ATOM     13  C   UNL     1       8.180 -44.921 -30.536  1.00  0.00     0.051 A 
ATOM     14  C   UNL     1       7.823 -45.806 -29.512  1.00  0.00     0.157 A 
ATOM     15  C   UNL     1       8.149 -44.038 -27.884  1.00  0.00     0.068 A 
ATOM     16  C   UNL     1       7.803 -45.363 -28.183  1.00  0.00     0.158 A 
BRANCH  14  17
ATOM     17  O   UNL     1       7.479 -47.125 -29.806  1.00  0.00    -0.504 OA
ATOM     18  H   UNL     1       7.003 -47.712 -29.131  1.00  0.00     0.293 HD
ENDBRANCH  14  17
BRANCH  16  19
ATOM     19  O   UNL     1       7.440 -46.245 -27.167  1.00  0.00    -0.504 OA
ATOM     20  H   UNL     1       7.329 -47.238 -27.342  1.00  0.00     0.293 HD
ENDBRANCH  16  19
ENDBRANCH   1  11
BRANCH  10  21
ATOM     21  O   UNL     1      10.836 -42.409 -27.284  1.00  0.00    -0.500 OA
ATOM     22  H   UNL     1      10.560 -42.980 -26.493  1.00  0.00     0.294 HD
ENDBRANCH  10  21
BRANCH   5  23
ATOM     23  O   UNL     1       6.648 -36.249 -29.484  1.00  0.00    -0.507 OA
ATOM     24  H   UNL     1       6.895 -35.614 -30.234  1.00  0.00     0.293 HD
ENDBRANCH   5  23
BRANCH   7  25
ATOM     25  O   UNL     1      10.683 -37.183 -27.056  1.00  0.00    -0.507 OA
ATOM     26  H   UNL     1      11.613 -37.573 -27.083  1.00  0.00     0.293 HD
ENDBRANCH   7  25
TORSDOF 6
ENDMDL
MODEL 7
REMARK VINA RESULT:    -5.973      1.109      2.696
REMARK INTER + INTRA:          -7.302
REMARK INTER:                  -7.216
REMARK INTRA:                  -0.086
REMARK UNBOUND:                -0.107
REMARK SMILES Oc1cc(O)c2cc(O)c(-c3ccc(O)c(O)c3)[o+]c2c1.[Cl-]
REMARK SMILES IDX 10 1 19 2 20 3 21 4 2 5 3 6 4 7 6 8 7 9 8 10 11 11 12 12
REMARK SMILES IDX 13 13 14 14 18 15 16 16 15 17 17 19 9 21 1 23 5 25
REMARK H PARENT 15 18 17 20 9 22 1 24 5 26
REMARK Flexibility Score: inf
ROOT
ATOM      1  C   UNL     1      -2.214 -32.242 -32.147  1.00  0.00     0.402 A 
ATOM      2  O   UNL     1      -2.992 -31.333 -32.727  1.00  0.00    -0.202 OA
ATOM      3  C   UNL     1      -2.719 -30.032 -32.728  1.00  0.00     0.368 A 
ATOM      4  C   UNL     1      -3.598 -29.154 -33.368  1.00  0.00     0.162 A 
ATOM      5  C   UNL     1      -3.334 -27.781 -33.387  1.00  0.00     0.128 A 
ATOM      6  C   UNL     1      -2.186 -27.286 -32.765  1.00  0.00     0.093 A 
ATOM      7  C   UNL     1      -1.289 -28.145 -32.118  1.00  0.00     0.136 A 
ATOM      8  C   UNL     1      -1.555 -29.539 -32.093  1.00  0.00     0.125 A 
ATOM      9  C   UNL     1      -0.720 -30.473 -31.458  1.00  0.00     0.078 A 
ATOM     10  C   UNL     1      -1.050 -31.831 -31.471  1.00  0.00     0.223 A 
ENDROOT
BRANCH   1  11
ATOM     11  C   UNL     1      -2.621 -33.664 -32.222  1.00  0.00     0.087 A 
ATOM     12  C   UNL     1      -2.778 -34.444 -31.063  1.00  0.00     0.022 A 
ATOM     13  C   UNL     1      -3.141 -35.790 -31.161  1.00  0.00     0.051 A 
ATOM     14  C   UNL     1      -3.338 -36.378 -32.416  1.00  0.00     0.157 A 
ATOM     15  C   UNL     1      -2.800 -34.265 -33.478  1.00  0.00     0.068 A 
ATOM     16  C   UNL     1      -3.164 -35.616 -33.577  1.00  0.00     0.158 A 
BRANCH  14  17
ATOM     17  O   UNL     1      -3.700 -37.721 -32.518  1.00  0.00    -0.504 OA
ATOM     18  H   UNL     1      -3.041 -38.425 -32.828  1.00  0.00     0.293 HD
ENDBRANCH  14  17
BRANCH  16  19
ATOM     19  O   UNL     1      -3.354 -36.206 -34.825  1.00  0.00    -0.504 OA
ATOM     20  H   UNL     1      -4.177 -36.763 -35.029  1.00  0.00     0.293 HD
ENDBRANCH  16  19
ENDBRANCH   1  11
BRANCH  10  21
ATOM     21  O   UNL     1      -0.247 -32.753 -30.797  1.00  0.00    -0.500 OA
ATOM     22  H   UNL     1       0.664 -33.022 -31.149  1.00  0.00     0.294 HD
ENDBRANCH  10  21
BRANCH   5  23
ATOM     23  O   UNL     1      -4.206 -26.900 -34.022  1.00  0.00    -0.507 OA
ATOM     24  H   UNL     1      -5.190 -26.862 -33.782  1.00  0.00     0.293 HD
ENDBRANCH   5  23
BRANCH   7  25
ATOM     25  O   UNL     1      -0.163 -27.570 -31.522  1.00  0.00    -0.507 OA
ATOM     26  H   UNL     1       0.726 -28.036 -31.416  1.00  0.00     0.293 HD
ENDBRANCH   7  25
TORSDOF 6
ENDMDL
MODEL 8
REMARK VINA RESULT:    -5.922      5.066      6.544
REMARK INTER + INTRA:          -7.241
REMARK INTER:                  -6.891
REMARK INTRA:                  -0.350
REMARK UNBOUND:                -0.107
REMARK SMILES Oc1cc(O)c2cc(O)c(-c3ccc(O)c(O)c3)[o+]c2c1.[Cl-]
REMARK SMILES IDX 10 1 19 2 20 3 21 4 2 5 3 6 4 7 6 8 7 9 8 10 11 11 12 12
REMARK SMILES IDX 13 13 14 14 18 15 16 16 15 17 17 19 9 21 1 23 5 25
REMARK H PARENT 15 18 17 20 9 22 1 24 5 26
REMARK Flexibility Score: inf
ROOT
ATOM      1  C   UNL     1       0.428 -33.227 -29.844  1.00  0.00     0.402 A 
ATOM      2  O   UNL     1       0.357 -32.745 -31.081  1.00  0.00    -0.202 OA
ATOM      3  C   UNL     1       1.421 -32.346 -31.771  1.00  0.00     0.368 A 
ATOM      4  C   UNL     1       1.246 -31.856 -33.068  1.00  0.00     0.162 A 
ATOM      5  C   UNL     1       2.349 -31.432 -33.816  1.00  0.00     0.128 A 
ATOM      6  C   UNL     1       3.630 -31.501 -33.266  1.00  0.00     0.093 A 
ATOM      7  C   UNL     1       3.832 -31.989 -31.969  1.00  0.00     0.136 A 
ATOM      8  C   UNL     1       2.716 -32.417 -31.204  1.00  0.00     0.125 A 
ATOM      9  C   UNL     1       2.821 -32.908 -29.892  1.00  0.00     0.078 A 
ATOM     10  C   UNL     1       1.675 -33.307 -29.198  1.00  0.00     0.223 A 
ENDROOT
BRANCH   1  11
ATOM     11  C   UNL     1      -0.830 -33.648 -29.184  1.00  0.00     0.087 A 
ATOM     12  C   UNL     1      -1.334 -34.952 -29.332  1.00  0.00     0.022 A 
ATOM     13  C   UNL     1      -2.535 -35.320 -28.718  1.00  0.00     0.051 A 
ATOM     14  C   UNL     1      -3.253 -34.388 -27.960  1.00  0.00     0.157 A 
ATOM     15  C   UNL     1      -1.566 -32.713 -28.439  1.00  0.00     0.068 A 
ATOM     16  C   UNL     1      -2.770 -33.081 -27.823  1.00  0.00     0.158 A 
BRANCH  14  17
ATOM     17  O   UNL     1      -4.451 -34.751 -27.345  1.00  0.00    -0.504 OA
ATOM     18  H   UNL     1      -4.466 -35.335 -26.517  1.00  0.00     0.293 HD
ENDBRANCH  14  17
BRANCH  16  19
ATOM     19  O   UNL     1      -3.492 -32.154 -27.073  1.00  0.00    -0.504 OA
ATOM     20  H   UNL     1      -3.506 -31.169 -27.317  1.00  0.00     0.293 HD
ENDBRANCH  16  19
ENDBRANCH   1  11
BRANCH  10  21
ATOM     21  O   UNL     1       1.774 -33.747 -27.878  1.00  0.00    -0.500 OA
ATOM     22  H   UNL     1       1.895 -34.727 -27.651  1.00  0.00     0.294 HD
ENDBRANCH  10  21
BRANCH   5  23
ATOM     23  O   UNL     1       2.181 -30.942 -35.109  1.00  0.00    -0.507 OA
ATOM     24  H   UNL     1       2.593 -31.406 -35.910  1.00  0.00     0.293 HD
ENDBRANCH   5  23
BRANCH   7  25
ATOM     25  O   UNL     1       5.146 -32.028 -31.493  1.00  0.00    -0.507 OA
ATOM     26  H   UNL     1       5.942 -31.649 -31.985  1.00  0.00     0.293 HD
ENDBRANCH   7  25
TORSDOF 6
ENDMDL
MODEL 9
REMARK VINA RESULT:    -3.423     12.815     16.153
REMARK INTER + INTRA:          -4.231
REMARK INTER:                  -3.898
REMARK INTRA:                  -0.333
REMARK UNBOUND:                -0.107
REMARK SMILES Oc1cc(O)c2cc(O)c(-c3ccc(O)c(O)c3)[o+]c2c1.[Cl-]
REMARK SMILES IDX 10 1 19 2 20 3 21 4 2 5 3 6 4 7 6 8 7 9 8 10 11 11 12 12
REMARK SMILES IDX 13 13 14 14 18 15 16 16 15 17 17 19 9 21 1 23 5 25
REMARK H PARENT 15 18 17 20 9 22 1 24 5 26
REMARK Flexibility Score: inf
ROOT
ATOM      1  C   UNL     1       6.720 -43.510 -33.394  1.00  0.00     0.402 A 
ATOM      2  O   UNL     1       7.791 -42.844 -33.815  1.00  0.00    -0.202 OA
ATOM      3  C   UNL     1       8.974 -43.415 -34.014  1.00  0.00     0.368 A 
ATOM      4  C   UNL     1      10.041 -42.630 -34.460  1.00  0.00     0.162 A 
ATOM      5  C   UNL     1      11.296 -43.206 -34.681  1.00  0.00     0.128 A 
ATOM      6  C   UNL     1      11.483 -44.572 -34.457  1.00  0.00     0.093 A 
ATOM      7  C   UNL     1      10.430 -45.379 -34.010  1.00  0.00     0.136 A 
ATOM      8  C   UNL     1       9.155 -44.799 -33.781  1.00  0.00     0.125 A 
ATOM      9  C   UNL     1       8.046 -45.528 -33.322  1.00  0.00     0.078 A 
ATOM     10  C   UNL     1       6.822 -44.886 -33.114  1.00  0.00     0.223 A 
ENDROOT
BRANCH   1  11
ATOM     11  C   UNL     1       5.453 -42.763 -33.218  1.00  0.00     0.087 A 
ATOM     12  C   UNL     1       5.185 -42.043 -32.040  1.00  0.00     0.022 A 
ATOM     13  C   UNL     1       3.972 -41.363 -31.889  1.00  0.00     0.051 A 
ATOM     14  C   UNL     1       3.008 -41.405 -32.903  1.00  0.00     0.157 A 
ATOM     15  C   UNL     1       4.474 -42.817 -34.223  1.00  0.00     0.068 A 
ATOM     16  C   UNL     1       3.258 -42.136 -34.071  1.00  0.00     0.158 A 
BRANCH  14  17
ATOM     17  O   UNL     1       1.798 -40.728 -32.756  1.00  0.00    -0.504 OA
ATOM     18  H   UNL     1       1.768 -39.737 -32.546  1.00  0.00     0.293 HD
ENDBRANCH  14  17
BRANCH  16  19
ATOM     19  O   UNL     1       2.293 -42.182 -35.076  1.00  0.00    -0.504 OA
ATOM     20  H   UNL     1       2.166 -41.412 -35.724  1.00  0.00     0.293 HD
ENDBRANCH  16  19
ENDBRANCH   1  11
BRANCH  10  21
ATOM     21  O   UNL     1       5.734 -45.599 -32.610  1.00  0.00    -0.500 OA
ATOM     22  H   UNL     1       5.634 -45.788 -31.619  1.00  0.00     0.294 HD
ENDBRANCH  10  21
BRANCH   5  23
ATOM     23  O   UNL     1      12.364 -42.430 -35.125  1.00  0.00    -0.507 OA
ATOM     24  H   UNL     1      13.250 -42.846 -35.385  1.00  0.00     0.293 HD
ENDBRANCH   5  23
BRANCH   7  25
ATOM     25  O   UNL     1      10.699 -46.737 -33.812  1.00  0.00    -0.507 OA
ATOM     26  H   UNL     1      11.584 -47.178 -34.015  1.00  0.00     0.293 HD
ENDBRANCH   7  25
TORSDOF 6
ENDMDL
