MODEL 1
REMARK VINA RESULT:    -7.274      0.000      0.000
REMARK INTER + INTRA:         -20.175
REMARK INTER:                 -18.330
REMARK INTRA:                  -1.845
REMARK UNBOUND:                -1.845
REMARK SMILES CCCCCCCCCCCCCCCCCCCCCCCCCCCC(=O)[O-]
REMARK SMILES IDX 15 1 16 2 17 3 18 4 19 5 20 6 21 7 22 8 23 9 24 10 25 11
REMARK SMILES IDX 26 12 27 13 28 14 29 15 30 16 14 17 13 18 12 19 11 20 10 21
REMARK SMILES IDX 9 22 8 23 7 24 6 25 5 26 4 27 3 28 2 29 1 30
REMARK H PARENT
REMARK Flexibility Score: inf
ROOT
ATOM      1  C   UNL     1      26.649  -7.783  19.743  1.00  0.00     0.000 C 
ENDROOT
BRANCH   1   2
ATOM      2  C   UNL     1      25.834  -6.582  19.231  1.00  0.00     0.000 C 
BRANCH   2   3
ATOM      3  C   UNL     1      26.385  -5.231  19.720  1.00  0.00     0.000 C 
BRANCH   3   4
ATOM      4  C   UNL     1      27.048  -4.406  18.596  1.00  0.00     0.000 C 
BRANCH   4   5
ATOM      5  C   UNL     1      28.452  -4.900  18.197  1.00  0.00     0.000 C 
BRANCH   5   6
ATOM      6  C   UNL     1      29.623  -4.091  18.786  1.00  0.00     0.000 C 
BRANCH   6   7
ATOM      7  C   UNL     1      29.455  -2.560  18.726  1.00  0.00     0.000 C 
BRANCH   7   8
ATOM      8  C   UNL     1      29.277  -1.869  20.094  1.00  0.00     0.000 C 
BRANCH   8   9
ATOM      9  C   UNL     1      28.574  -0.498  20.046  1.00  0.00     0.000 C 
BRANCH   9  10
ATOM     10  C   UNL     1      27.238  -0.479  19.284  1.00  0.00     0.000 C 
BRANCH  10  11
ATOM     11  C   UNL     1      26.123  -1.237  20.019  1.00  0.00     0.000 C 
BRANCH  11  12
ATOM     12  C   UNL     1      24.746  -0.641  19.694  1.00  0.00     0.006 C 
BRANCH  12  13
ATOM     13  C   UNL     1      24.789   0.888  19.572  1.00  0.00     0.053 C 
BRANCH  13  14
ATOM     14  C   UNL     1      23.607   1.418  18.818  1.00  0.00     0.041 C 
ATOM     15  O   UNL     1      22.448   1.303  19.297  1.00  0.00    -0.550 OA
ATOM     16  O   UNL     1      23.785   2.015  17.577  1.00  0.00    -0.550 OA
ENDBRANCH  13  14
ENDBRANCH  12  13
ENDBRANCH  11  12
ENDBRANCH  10  11
ENDBRANCH   9  10
ENDBRANCH   8   9
ENDBRANCH   7   8
ENDBRANCH   6   7
ENDBRANCH   5   6
ENDBRANCH   4   5
ENDBRANCH   3   4
ENDBRANCH   2   3
ENDBRANCH   1   2
BRANCH   1  17
ATOM     17  C   UNL     1      25.846  -8.745  20.645  1.00  0.00     0.000 C 
BRANCH  17  18
ATOM     18  C   UNL     1      24.498  -8.148  21.079  1.00  0.00     0.000 C 
BRANCH  18  19
ATOM     19  C   UNL     1      23.616  -9.201  21.766  1.00  0.00     0.000 C 
BRANCH  19  20
ATOM     20  C   UNL     1      23.047  -8.718  23.115  1.00  0.00     0.000 C 
BRANCH  20  21
ATOM     21  C   UNL     1      22.557  -9.837  24.053  1.00  0.00     0.000 C 
BRANCH  21  22
ATOM     22  C   UNL     1      21.475  -9.404  25.060  1.00  0.00    -0.000 C 
BRANCH  22  23
ATOM     23  C   UNL     1      20.457  -8.400  24.474  1.00  0.00    -0.000 C 
BRANCH  23  24
ATOM     24  C   UNL     1      19.111  -8.383  25.218  1.00  0.00    -0.000 C 
BRANCH  24  25
ATOM     25  C   UNL     1      18.243  -7.175  24.825  1.00  0.00    -0.000 C 
BRANCH  25  26
ATOM     26  C   UNL     1      17.036  -7.581  23.963  1.00  0.00    -0.000 C 
BRANCH  26  27
ATOM     27  C   UNL     1      15.729  -6.916  24.427  1.00  0.00    -0.000 C 
BRANCH  27  28
ATOM     28  C   UNL     1      15.839  -6.361  25.862  1.00  0.00    -0.000 C 
BRANCH  28  29
ATOM     29  C   UNL     1      15.460  -4.875  25.975  1.00  0.00    -0.003 C 
ATOM     30  C   UNL     1      16.149  -4.001  24.927  1.00  0.00     0.004 C 
ENDBRANCH  28  29
ENDBRANCH  27  28
ENDBRANCH  26  27
ENDBRANCH  25  26
ENDBRANCH  24  25
ENDBRANCH  23  24
ENDBRANCH  22  23
ENDBRANCH  21  22
ENDBRANCH  20  21
ENDBRANCH  19  20
ENDBRANCH  18  19
ENDBRANCH  17  18
ENDBRANCH   1  17
TORSDOF 26
ENDMDL
MODEL 2
REMARK VINA RESULT:    -6.996      2.832     10.567
REMARK INTER + INTRA:         -19.475
REMARK INTER:                 -17.545
REMARK INTRA:                  -1.930
REMARK UNBOUND:                -1.845
REMARK SMILES CCCCCCCCCCCCCCCCCCCCCCCCCCCC(=O)[O-]
REMARK SMILES IDX 15 1 16 2 17 3 18 4 19 5 20 6 21 7 22 8 23 9 24 10 25 11
REMARK SMILES IDX 26 12 27 13 28 14 29 15 30 16 14 17 13 18 12 19 11 20 10 21
REMARK SMILES IDX 9 22 8 23 7 24 6 25 5 26 4 27 3 28 2 29 1 30
REMARK H PARENT
REMARK Flexibility Score: inf
ROOT
ATOM      1  C   UNL     1      25.805  -7.903  20.314  1.00  0.00     0.000 C 
ENDROOT
BRANCH   1   2
ATOM      2  C   UNL     1      24.317  -7.658  20.621  1.00  0.00     0.000 C 
BRANCH   2   3
ATOM      3  C   UNL     1      23.618  -8.890  21.222  1.00  0.00     0.000 C 
BRANCH   3   4
ATOM      4  C   UNL     1      23.524  -8.841  22.762  1.00  0.00     0.000 C 
BRANCH   4   5
ATOM      5  C   UNL     1      22.090  -8.669  23.300  1.00  0.00     0.000 C 
BRANCH   5   6
ATOM      6  C   UNL     1      21.809  -9.364  24.646  1.00  0.00     0.000 C 
BRANCH   6   7
ATOM      7  C   UNL     1      20.440  -9.036  25.277  1.00  0.00     0.000 C 
BRANCH   7   8
ATOM      8  C   UNL     1      19.734  -7.796  24.693  1.00  0.00     0.000 C 
BRANCH   8   9
ATOM      9  C   UNL     1      18.276  -7.598  25.153  1.00  0.00     0.000 C 
BRANCH   9  10
ATOM     10  C   UNL     1      17.243  -7.499  24.017  1.00  0.00     0.000 C 
BRANCH  10  11
ATOM     11  C   UNL     1      15.841  -7.122  24.517  1.00  0.00     0.000 C 
BRANCH  11  12
ATOM     12  C   UNL     1      15.904  -6.526  25.931  1.00  0.00     0.006 C 
BRANCH  12  13
ATOM     13  C   UNL     1      15.382  -5.084  25.977  1.00  0.00     0.053 C 
BRANCH  13  14
ATOM     14  C   UNL     1      16.262  -4.152  25.202  1.00  0.00     0.041 C 
ATOM     15  O   UNL     1      15.762  -3.368  24.352  1.00  0.00    -0.550 OA
ATOM     16  O   UNL     1      17.637  -4.166  25.400  1.00  0.00    -0.550 OA
ENDBRANCH  13  14
ENDBRANCH  12  13
ENDBRANCH  11  12
ENDBRANCH  10  11
ENDBRANCH   9  10
ENDBRANCH   8   9
ENDBRANCH   7   8
ENDBRANCH   6   7
ENDBRANCH   5   6
ENDBRANCH   4   5
ENDBRANCH   3   4
ENDBRANCH   2   3
ENDBRANCH   1   2
BRANCH   1  17
ATOM     17  C   UNL     1      26.635  -6.610  20.171  1.00  0.00     0.000 C 
BRANCH  17  18
ATOM     18  C   UNL     1      25.789  -5.425  19.678  1.00  0.00     0.000 C 
BRANCH  18  19
ATOM     19  C   UNL     1      26.573  -4.552  18.687  1.00  0.00     0.000 C 
BRANCH  19  20
ATOM     20  C   UNL     1      27.929  -5.167  18.289  1.00  0.00     0.000 C 
BRANCH  20  21
ATOM     21  C   UNL     1      29.144  -4.238  18.469  1.00  0.00     0.000 C 
BRANCH  21  22
ATOM     22  C   UNL     1      29.113  -3.381  19.747  1.00  0.00    -0.000 C 
BRANCH  22  23
ATOM     23  C   UNL     1      29.215  -1.863  19.474  1.00  0.00    -0.000 C 
BRANCH  23  24
ATOM     24  C   UNL     1      28.559  -0.996  20.561  1.00  0.00    -0.000 C 
BRANCH  24  25
ATOM     25  C   UNL     1      27.249  -0.347  20.078  1.00  0.00    -0.000 C 
BRANCH  25  26
ATOM     26  C   UNL     1      26.020  -1.218  20.390  1.00  0.00    -0.000 C 
BRANCH  26  27
ATOM     27  C   UNL     1      24.750  -0.721  19.678  1.00  0.00    -0.000 C 
BRANCH  27  28
ATOM     28  C   UNL     1      24.938   0.686  19.073  1.00  0.00    -0.000 C 
BRANCH  28  29
ATOM     29  C   UNL     1      23.623   1.470  18.927  1.00  0.00    -0.003 C 
ATOM     30  C   UNL     1      23.698   2.572  17.872  1.00  0.00     0.004 C 
ENDBRANCH  28  29
ENDBRANCH  27  28
ENDBRANCH  26  27
ENDBRANCH  25  26
ENDBRANCH  24  25
ENDBRANCH  23  24
ENDBRANCH  22  23
ENDBRANCH  21  22
ENDBRANCH  20  21
ENDBRANCH  19  20
ENDBRANCH  18  19
ENDBRANCH  17  18
ENDBRANCH   1  17
TORSDOF 26
ENDMDL
MODEL 3
REMARK VINA RESULT:    -6.881      3.129     10.347
REMARK INTER + INTRA:         -19.185
REMARK INTER:                 -17.716
REMARK INTRA:                  -1.470
REMARK UNBOUND:                -1.845
REMARK SMILES CCCCCCCCCCCCCCCCCCCCCCCCCCCC(=O)[O-]
REMARK SMILES IDX 15 1 16 2 17 3 18 4 19 5 20 6 21 7 22 8 23 9 24 10 25 11
REMARK SMILES IDX 26 12 27 13 28 14 29 15 30 16 14 17 13 18 12 19 11 20 10 21
REMARK SMILES IDX 9 22 8 23 7 24 6 25 5 26 4 27 3 28 2 29 1 30
REMARK H PARENT
REMARK Flexibility Score: inf
ROOT
ATOM      1  C   UNL     1      26.594  -6.964  18.855  1.00  0.00     0.000 C 
ENDROOT
BRANCH   1   2
ATOM      2  C   UNL     1      26.953  -7.745  20.131  1.00  0.00     0.000 C 
BRANCH   2   3
ATOM      3  C   UNL     1      25.861  -8.744  20.550  1.00  0.00     0.000 C 
BRANCH   3   4
ATOM      4  C   UNL     1      24.442  -8.136  20.524  1.00  0.00     0.000 C 
BRANCH   4   5
ATOM      5  C   UNL     1      23.410  -8.909  21.367  1.00  0.00     0.000 C 
BRANCH   5   6
ATOM      6  C   UNL     1      23.471  -8.642  22.883  1.00  0.00     0.000 C 
BRANCH   6   7
ATOM      7  C   UNL     1      22.465  -9.447  23.730  1.00  0.00     0.000 C 
BRANCH   7   8
ATOM      8  C   UNL     1      21.228  -8.655  24.201  1.00  0.00     0.000 C 
BRANCH   8   9
ATOM      9  C   UNL     1      20.637  -9.110  25.550  1.00  0.00     0.000 C 
BRANCH   9  10
ATOM     10  C   UNL     1      19.343  -8.389  25.969  1.00  0.00     0.000 C 
BRANCH  10  11
ATOM     11  C   UNL     1      18.354  -8.218  24.807  1.00  0.00     0.000 C 
BRANCH  11  12
ATOM     12  C   UNL     1      17.972  -6.742  24.623  1.00  0.00     0.006 C 
BRANCH  12  13
ATOM     13  C   UNL     1      17.027  -6.245  25.724  1.00  0.00     0.053 C 
BRANCH  13  14
ATOM     14  C   UNL     1      15.982  -5.319  25.182  1.00  0.00     0.041 C 
ATOM     15  O   UNL     1      15.966  -4.108  25.530  1.00  0.00    -0.550 OA
ATOM     16  O   UNL     1      15.011  -5.798  24.311  1.00  0.00    -0.550 OA
ENDBRANCH  13  14
ENDBRANCH  12  13
ENDBRANCH  11  12
ENDBRANCH  10  11
ENDBRANCH   9  10
ENDBRANCH   8   9
ENDBRANCH   7   8
ENDBRANCH   6   7
ENDBRANCH   5   6
ENDBRANCH   4   5
ENDBRANCH   3   4
ENDBRANCH   2   3
ENDBRANCH   1   2
BRANCH   1  17
ATOM     17  C   UNL     1      26.257  -5.478  19.105  1.00  0.00     0.000 C 
BRANCH  17  18
ATOM     18  C   UNL     1      27.073  -4.536  18.206  1.00  0.00     0.000 C 
BRANCH  18  19
ATOM     19  C   UNL     1      28.573  -4.615  18.528  1.00  0.00     0.000 C 
BRANCH  19  20
ATOM     20  C   UNL     1      29.002  -3.626  19.630  1.00  0.00     0.000 C 
BRANCH  20  21
ATOM     21  C   UNL     1      29.555  -2.282  19.120  1.00  0.00     0.000 C 
BRANCH  21  22
ATOM     22  C   UNL     1      28.638  -1.072  19.374  1.00  0.00    -0.000 C 
BRANCH  22  23
ATOM     23  C   UNL     1      28.022  -1.054  20.791  1.00  0.00    -0.000 C 
BRANCH  23  24
ATOM     24  C   UNL     1      26.713  -1.854  20.903  1.00  0.00    -0.000 C 
BRANCH  24  25
ATOM     25  C   UNL     1      25.812  -1.675  19.668  1.00  0.00    -0.000 C 
BRANCH  25  26
ATOM     26  C   UNL     1      24.658  -0.692  19.928  1.00  0.00    -0.000 C 
BRANCH  26  27
ATOM     27  C   UNL     1      24.957   0.722  19.399  1.00  0.00    -0.000 C 
BRANCH  27  28
ATOM     28  C   UNL     1      23.695   1.407  18.834  1.00  0.00    -0.000 C 
BRANCH  28  29
ATOM     29  C   UNL     1      24.007   2.581  17.892  1.00  0.00    -0.003 C 
ATOM     30  C   UNL     1      23.233   2.513  16.576  1.00  0.00     0.004 C 
ENDBRANCH  28  29
ENDBRANCH  27  28
ENDBRANCH  26  27
ENDBRANCH  25  26
ENDBRANCH  24  25
ENDBRANCH  23  24
ENDBRANCH  22  23
ENDBRANCH  21  22
ENDBRANCH  20  21
ENDBRANCH  19  20
ENDBRANCH  18  19
ENDBRANCH  17  18
ENDBRANCH   1  17
TORSDOF 26
ENDMDL
MODEL 4
REMARK VINA RESULT:    -6.806      2.650      4.330
REMARK INTER + INTRA:         -18.996
REMARK INTER:                 -16.950
REMARK INTRA:                  -2.046
REMARK UNBOUND:                -1.845
REMARK SMILES CCCCCCCCCCCCCCCCCCCCCCCCCCCC(=O)[O-]
REMARK SMILES IDX 15 1 16 2 17 3 18 4 19 5 20 6 21 7 22 8 23 9 24 10 25 11
REMARK SMILES IDX 26 12 27 13 28 14 29 15 30 16 14 17 13 18 12 19 11 20 10 21
REMARK SMILES IDX 9 22 8 23 7 24 6 25 5 26 4 27 3 28 2 29 1 30
REMARK H PARENT
REMARK Flexibility Score: inf
ROOT
ATOM      1  C   UNL     1      23.504  -8.747  23.047  1.00  0.00     0.000 C 
ENDROOT
BRANCH   1   2
ATOM      2  C   UNL     1      23.240  -8.756  21.531  1.00  0.00     0.000 C 
BRANCH   2   3
ATOM      3  C   UNL     1      24.327  -8.019  20.729  1.00  0.00     0.000 C 
BRANCH   3   4
ATOM      4  C   UNL     1      25.713  -8.691  20.828  1.00  0.00     0.000 C 
BRANCH   4   5
ATOM      5  C   UNL     1      26.791  -8.047  19.936  1.00  0.00     0.000 C 
BRANCH   5   6
ATOM      6  C   UNL     1      26.306  -6.866  19.072  1.00  0.00     0.000 C 
BRANCH   6   7
ATOM      7  C   UNL     1      27.107  -5.560  19.242  1.00  0.00     0.000 C 
BRANCH   7   8
ATOM      8  C   UNL     1      26.400  -4.289  18.730  1.00  0.00     0.000 C 
BRANCH   8   9
ATOM      9  C   UNL     1      25.323  -3.716  19.672  1.00  0.00     0.000 C 
BRANCH   9  10
ATOM     10  C   UNL     1      25.606  -2.298  20.197  1.00  0.00     0.000 C 
BRANCH  10  11
ATOM     11  C   UNL     1      26.769  -1.613  19.464  1.00  0.00     0.000 C 
BRANCH  11  12
ATOM     12  C   UNL     1      27.886  -1.227  20.444  1.00  0.00     0.006 C 
BRANCH  12  13
ATOM     13  C   UNL     1      29.265  -1.206  19.774  1.00  0.00     0.053 C 
BRANCH  13  14
ATOM     14  C   UNL     1      29.704  -2.580  19.366  1.00  0.00     0.041 C 
ATOM     15  O   UNL     1      29.894  -2.849  18.150  1.00  0.00    -0.550 OA
ATOM     16  O   UNL     1      29.878  -3.569  20.326  1.00  0.00    -0.550 OA
ENDBRANCH  13  14
ENDBRANCH  12  13
ENDBRANCH  11  12
ENDBRANCH  10  11
ENDBRANCH   9  10
ENDBRANCH   8   9
ENDBRANCH   7   8
ENDBRANCH   6   7
ENDBRANCH   5   6
ENDBRANCH   4   5
ENDBRANCH   3   4
ENDBRANCH   2   3
ENDBRANCH   1   2
BRANCH   1  17
ATOM     17  C   UNL     1      22.422  -9.474  23.875  1.00  0.00     0.000 C 
BRANCH  17  18
ATOM     18  C   UNL     1      22.866 -10.880  24.309  1.00  0.00     0.000 C 
BRANCH  18  19
ATOM     19  C   UNL     1      23.260 -10.908  25.793  1.00  0.00     0.000 C 
BRANCH  19  20
ATOM     20  C   UNL     1      22.916 -12.245  26.479  1.00  0.00     0.000 C 
BRANCH  20  21
ATOM     21  C   UNL     1      22.154 -12.117  27.811  1.00  0.00     0.000 C 
BRANCH  21  22
ATOM     22  C   UNL     1      21.675 -10.691  28.142  1.00  0.00    -0.000 C 
BRANCH  22  23
ATOM     23  C   UNL     1      20.315 -10.335  27.500  1.00  0.00    -0.000 C 
BRANCH  23  24
ATOM     24  C   UNL     1      20.332  -9.012  26.716  1.00  0.00    -0.000 C 
BRANCH  24  25
ATOM     25  C   UNL     1      18.982  -8.721  26.035  1.00  0.00    -0.000 C 
BRANCH  25  26
ATOM     26  C   UNL     1      19.143  -7.863  24.769  1.00  0.00    -0.000 C 
BRANCH  26  27
ATOM     27  C   UNL     1      17.822  -7.210  24.328  1.00  0.00    -0.000 C 
BRANCH  27  28
ATOM     28  C   UNL     1      17.101  -6.512  25.500  1.00  0.00    -0.000 C 
BRANCH  28  29
ATOM     29  C   UNL     1      16.815  -5.023  25.243  1.00  0.00    -0.003 C 
ATOM     30  C   UNL     1      15.363  -4.751  24.855  1.00  0.00     0.004 C 
ENDBRANCH  28  29
ENDBRANCH  27  28
ENDBRANCH  26  27
ENDBRANCH  25  26
ENDBRANCH  24  25
ENDBRANCH  23  24
ENDBRANCH  22  23
ENDBRANCH  21  22
ENDBRANCH  20  21
ENDBRANCH  19  20
ENDBRANCH  18  19
ENDBRANCH  17  18
ENDBRANCH   1  17
TORSDOF 26
ENDMDL
MODEL 5
REMARK VINA RESULT:    -6.793      2.523      3.613
REMARK INTER + INTRA:         -18.962
REMARK INTER:                 -16.976
REMARK INTRA:                  -1.986
REMARK UNBOUND:                -1.845
REMARK SMILES CCCCCCCCCCCCCCCCCCCCCCCCCCCC(=O)[O-]
REMARK SMILES IDX 15 1 16 2 17 3 18 4 19 5 20 6 21 7 22 8 23 9 24 10 25 11
REMARK SMILES IDX 26 12 27 13 28 14 29 15 30 16 14 17 13 18 12 19 11 20 10 21
REMARK SMILES IDX 9 22 8 23 7 24 6 25 5 26 4 27 3 28 2 29 1 30
REMARK H PARENT
REMARK Flexibility Score: inf
ROOT
ATOM      1  C   UNL     1      26.901  -8.299  20.269  1.00  0.00     0.000 C 
ENDROOT
BRANCH   1   2
ATOM      2  C   UNL     1      26.925  -7.667  18.866  1.00  0.00     0.000 C 
BRANCH   2   3
ATOM      3  C   UNL     1      27.119  -6.140  18.899  1.00  0.00     0.000 C 
BRANCH   3   4
ATOM      4  C   UNL     1      25.794  -5.366  19.062  1.00  0.00     0.000 C 
BRANCH   4   5
ATOM      5  C   UNL     1      25.904  -4.109  19.947  1.00  0.00     0.000 C 
BRANCH   5   6
ATOM      6  C   UNL     1      25.162  -2.867  19.417  1.00  0.00     0.000 C 
BRANCH   6   7
ATOM      7  C   UNL     1      25.178  -1.645  20.356  1.00  0.00     0.000 C 
BRANCH   7   8
ATOM      8  C   UNL     1      24.549  -0.364  19.771  1.00  0.00     0.000 C 
BRANCH   8   9
ATOM      9  C   UNL     1      25.544   0.776  19.477  1.00  0.00     0.000 C 
BRANCH   9  10
ATOM     10  C   UNL     1      26.878   0.688  20.238  1.00  0.00     0.000 C 
BRANCH  10  11
ATOM     11  C   UNL     1      28.053   0.285  19.335  1.00  0.00     0.000 C 
BRANCH  11  12
ATOM     12  C   UNL     1      28.742  -0.982  19.862  1.00  0.00     0.006 C 
BRANCH  12  13
ATOM     13  C   UNL     1      28.575  -2.172  18.908  1.00  0.00     0.053 C 
BRANCH  13  14
ATOM     14  C   UNL     1      29.574  -3.253  19.191  1.00  0.00     0.041 C 
ATOM     15  O   UNL     1      30.062  -3.379  20.345  1.00  0.00    -0.550 OA
ATOM     16  O   UNL     1      29.984  -4.105  18.173  1.00  0.00    -0.550 OA
ENDBRANCH  13  14
ENDBRANCH  12  13
ENDBRANCH  11  12
ENDBRANCH  10  11
ENDBRANCH   9  10
ENDBRANCH   8   9
ENDBRANCH   7   8
ENDBRANCH   6   7
ENDBRANCH   5   6
ENDBRANCH   4   5
ENDBRANCH   3   4
ENDBRANCH   2   3
ENDBRANCH   1   2
BRANCH   1  17
ATOM     17  C   UNL     1      25.635  -9.134  20.557  1.00  0.00     0.000 C 
BRANCH  17  18
ATOM     18  C   UNL     1      24.430  -8.256  20.928  1.00  0.00     0.000 C 
BRANCH  18  19
ATOM     19  C   UNL     1      23.360  -9.064  21.680  1.00  0.00     0.000 C 
BRANCH  19  20
ATOM     20  C   UNL     1      23.234  -8.657  23.161  1.00  0.00     0.000 C 
BRANCH  20  21
ATOM     21  C   UNL     1      22.059  -9.306  23.916  1.00  0.00     0.000 C 
BRANCH  21  22
ATOM     22  C   UNL     1      20.896  -8.350  24.237  1.00  0.00    -0.000 C 
BRANCH  22  23
ATOM     23  C   UNL     1      20.093  -8.758  25.493  1.00  0.00    -0.000 C 
BRANCH  23  24
ATOM     24  C   UNL     1      18.688  -8.133  25.557  1.00  0.00    -0.000 C 
BRANCH  24  25
ATOM     25  C   UNL     1      18.271  -7.501  24.217  1.00  0.00    -0.000 C 
BRANCH  25  26
ATOM     26  C   UNL     1      16.744  -7.465  24.041  1.00  0.00    -0.000 C 
BRANCH  26  27
ATOM     27  C   UNL     1      16.128  -6.132  24.501  1.00  0.00    -0.000 C 
BRANCH  27  28
ATOM     28  C   UNL     1      14.740  -6.328  25.144  1.00  0.00    -0.000 C 
BRANCH  28  29
ATOM     29  C   UNL     1      14.746  -6.170  26.674  1.00  0.00    -0.003 C 
ATOM     30  C   UNL     1      14.949  -7.494  27.409  1.00  0.00     0.004 C 
ENDBRANCH  28  29
ENDBRANCH  27  28
ENDBRANCH  26  27
ENDBRANCH  25  26
ENDBRANCH  24  25
ENDBRANCH  23  24
ENDBRANCH  22  23
ENDBRANCH  21  22
ENDBRANCH  20  21
ENDBRANCH  19  20
ENDBRANCH  18  19
ENDBRANCH  17  18
ENDBRANCH   1  17
TORSDOF 26
ENDMDL
MODEL 6
REMARK VINA RESULT:    -6.656      1.374      2.970
REMARK INTER + INTRA:         -18.617
REMARK INTER:                 -16.622
REMARK INTRA:                  -1.995
REMARK UNBOUND:                -1.845
REMARK SMILES CCCCCCCCCCCCCCCCCCCCCCCCCCCC(=O)[O-]
REMARK SMILES IDX 15 1 16 2 17 3 18 4 19 5 20 6 21 7 22 8 23 9 24 10 25 11
REMARK SMILES IDX 26 12 27 13 28 14 29 15 30 16 14 17 13 18 12 19 11 20 10 21
REMARK SMILES IDX 9 22 8 23 7 24 6 25 5 26 4 27 3 28 2 29 1 30
REMARK H PARENT
REMARK Flexibility Score: inf
ROOT
ATOM      1  C   UNL     1      23.546  -8.438  22.622  1.00  0.00     0.000 C 
ENDROOT
BRANCH   1   2
ATOM      2  C   UNL     1      23.847  -8.294  21.120  1.00  0.00     0.000 C 
BRANCH   2   3
ATOM      3  C   UNL     1      25.322  -8.564  20.776  1.00  0.00     0.000 C 
BRANCH   3   4
ATOM      4  C   UNL     1      26.095  -7.288  20.380  1.00  0.00     0.000 C 
BRANCH   4   5
ATOM      5  C   UNL     1      25.200  -6.146  19.862  1.00  0.00     0.000 C 
BRANCH   5   6
ATOM      6  C   UNL     1      25.920  -4.804  19.629  1.00  0.00     0.000 C 
BRANCH   6   7
ATOM      7  C   UNL     1      26.785  -4.739  18.355  1.00  0.00     0.000 C 
BRANCH   7   8
ATOM      8  C   UNL     1      28.275  -4.418  18.593  1.00  0.00     0.000 C 
BRANCH   8   9
ATOM      9  C   UNL     1      28.566  -3.553  19.835  1.00  0.00     0.000 C 
BRANCH   9  10
ATOM     10  C   UNL     1      29.443  -2.316  19.575  1.00  0.00     0.000 C 
BRANCH  10  11
ATOM     11  C   UNL     1      28.631  -1.095  19.120  1.00  0.00     0.000 C 
BRANCH  11  12
ATOM     12  C   UNL     1      27.172  -1.199  19.587  1.00  0.00     0.006 C 
BRANCH  12  13
ATOM     13  C   UNL     1      26.550   0.176  19.858  1.00  0.00     0.053 C 
BRANCH  13  14
ATOM     14  C   UNL     1      25.062   0.156  19.681  1.00  0.00     0.041 C 
ATOM     15  O   UNL     1      24.396  -0.854  20.032  1.00  0.00    -0.550 OA
ATOM     16  O   UNL     1      24.415   1.242  19.104  1.00  0.00    -0.550 OA
ENDBRANCH  13  14
ENDBRANCH  12  13
ENDBRANCH  11  12
ENDBRANCH  10  11
ENDBRANCH   9  10
ENDBRANCH   8   9
ENDBRANCH   7   8
ENDBRANCH   6   7
ENDBRANCH   5   6
ENDBRANCH   4   5
ENDBRANCH   3   4
ENDBRANCH   2   3
ENDBRANCH   1   2
BRANCH   1  17
ATOM     17  C   UNL     1      23.027  -9.834  23.025  1.00  0.00     0.000 C 
BRANCH  17  18
ATOM     18  C   UNL     1      22.500  -9.867  24.469  1.00  0.00     0.000 C 
BRANCH  18  19
ATOM     19  C   UNL     1      22.982 -11.122  25.212  1.00  0.00     0.000 C 
BRANCH  19  20
ATOM     20  C   UNL     1      22.616 -11.110  26.709  1.00  0.00     0.000 C 
BRANCH  20  21
ATOM     21  C   UNL     1      21.744  -9.922  27.156  1.00  0.00     0.000 C 
BRANCH  21  22
ATOM     22  C   UNL     1      20.309 -10.298  27.567  1.00  0.00    -0.000 C 
BRANCH  22  23
ATOM     23  C   UNL     1      19.230  -9.758  26.600  1.00  0.00    -0.000 C 
BRANCH  23  24
ATOM     24  C   UNL     1      19.499  -8.321  26.119  1.00  0.00    -0.000 C 
BRANCH  24  25
ATOM     25  C   UNL     1      19.430  -8.198  24.587  1.00  0.00    -0.000 C 
BRANCH  25  26
ATOM     26  C   UNL     1      18.428  -7.122  24.135  1.00  0.00    -0.000 C 
BRANCH  26  27
ATOM     27  C   UNL     1      17.376  -6.806  25.212  1.00  0.00    -0.000 C 
BRANCH  27  28
ATOM     28  C   UNL     1      15.949  -6.749  24.629  1.00  0.00    -0.000 C 
BRANCH  28  29
ATOM     29  C   UNL     1      15.228  -5.419  24.905  1.00  0.00    -0.003 C 
ATOM     30  C   UNL     1      16.189  -4.254  25.132  1.00  0.00     0.004 C 
ENDBRANCH  28  29
ENDBRANCH  27  28
ENDBRANCH  26  27
ENDBRANCH  25  26
ENDBRANCH  24  25
ENDBRANCH  23  24
ENDBRANCH  22  23
ENDBRANCH  21  22
ENDBRANCH  20  21
ENDBRANCH  19  20
ENDBRANCH  18  19
ENDBRANCH  17  18
ENDBRANCH   1  17
TORSDOF 26
ENDMDL
MODEL 7
REMARK VINA RESULT:    -6.611      3.207     11.133
REMARK INTER + INTRA:         -18.505
REMARK INTER:                 -16.245
REMARK INTRA:                  -2.260
REMARK UNBOUND:                -1.845
REMARK SMILES CCCCCCCCCCCCCCCCCCCCCCCCCCCC(=O)[O-]
REMARK SMILES IDX 15 1 16 2 17 3 18 4 19 5 20 6 21 7 22 8 23 9 24 10 25 11
REMARK SMILES IDX 26 12 27 13 28 14 29 15 30 16 14 17 13 18 12 19 11 20 10 21
REMARK SMILES IDX 9 22 8 23 7 24 6 25 5 26 4 27 3 28 2 29 1 30
REMARK H PARENT
REMARK Flexibility Score: inf
ROOT
ATOM      1  C   UNL     1      22.846 -10.213  25.109  1.00  0.00     0.000 C 
ENDROOT
BRANCH   1   2
ATOM      2  C   UNL     1      23.065 -11.620  25.693  1.00  0.00     0.000 C 
BRANCH   2   3
ATOM      3  C   UNL     1      22.546 -11.758  27.135  1.00  0.00     0.000 C 
BRANCH   3   4
ATOM      4  C   UNL     1      22.776 -10.490  27.985  1.00  0.00     0.000 C 
BRANCH   4   5
ATOM      5  C   UNL     1      21.487  -9.712  28.317  1.00  0.00     0.000 C 
BRANCH   5   6
ATOM      6  C   UNL     1      20.175 -10.471  28.041  1.00  0.00     0.000 C 
BRANCH   6   7
ATOM      7  C   UNL     1      19.449 -10.069  26.742  1.00  0.00     0.000 C 
BRANCH   7   8
ATOM      8  C   UNL     1      19.671  -8.610  26.295  1.00  0.00     0.000 C 
BRANCH   8   9
ATOM      9  C   UNL     1      19.771  -8.401  24.771  1.00  0.00     0.000 C 
BRANCH   9  10
ATOM     10  C   UNL     1      18.915  -7.250  24.214  1.00  0.00     0.000 C 
BRANCH  10  11
ATOM     11  C   UNL     1      17.428  -7.616  24.100  1.00  0.00     0.000 C 
BRANCH  11  12
ATOM     12  C   UNL     1      16.614  -6.970  25.230  1.00  0.00     0.006 C 
BRANCH  12  13
ATOM     13  C   UNL     1      17.135  -5.574  25.595  1.00  0.00     0.053 C 
BRANCH  13  14
ATOM     14  C   UNL     1      16.025  -4.569  25.666  1.00  0.00     0.041 C 
ATOM     15  O   UNL     1      15.087  -4.719  26.493  1.00  0.00    -0.550 OA
ATOM     16  O   UNL     1      16.014  -3.482  24.801  1.00  0.00    -0.550 OA
ENDBRANCH  13  14
ENDBRANCH  12  13
ENDBRANCH  11  12
ENDBRANCH  10  11
ENDBRANCH   9  10
ENDBRANCH   8   9
ENDBRANCH   7   8
ENDBRANCH   6   7
ENDBRANCH   5   6
ENDBRANCH   4   5
ENDBRANCH   3   4
ENDBRANCH   2   3
ENDBRANCH   1   2
BRANCH   1  17
ATOM     17  C   UNL     1      22.774 -10.181  23.567  1.00  0.00     0.000 C 
BRANCH  17  18
ATOM     18  C   UNL     1      23.222  -8.829  22.991  1.00  0.00     0.000 C 
BRANCH  18  19
ATOM     19  C   UNL     1      23.608  -8.953  21.509  1.00  0.00     0.000 C 
BRANCH  19  20
ATOM     20  C   UNL     1      24.494  -7.789  21.021  1.00  0.00     0.000 C 
BRANCH  20  21
ATOM     21  C   UNL     1      25.871  -8.205  20.472  1.00  0.00     0.000 C 
BRANCH  21  22
ATOM     22  C   UNL     1      26.612  -7.102  19.694  1.00  0.00    -0.000 C 
BRANCH  22  23
ATOM     23  C   UNL     1      25.761  -5.832  19.466  1.00  0.00    -0.000 C 
BRANCH  23  24
ATOM     24  C   UNL     1      26.524  -4.698  18.761  1.00  0.00    -0.000 C 
BRANCH  24  25
ATOM     25  C   UNL     1      27.904  -5.152  18.255  1.00  0.00    -0.000 C 
BRANCH  25  26
ATOM     26  C   UNL     1      29.025  -4.187  18.677  1.00  0.00    -0.000 C 
BRANCH  26  27
ATOM     27  C   UNL     1      28.597  -3.251  19.821  1.00  0.00    -0.000 C 
BRANCH  27  28
ATOM     28  C   UNL     1      29.056  -1.798  19.582  1.00  0.00    -0.000 C 
BRANCH  28  29
ATOM     29  C   UNL     1      28.365  -0.779  20.504  1.00  0.00    -0.003 C 
ATOM     30  C   UNL     1      27.009  -0.316  19.973  1.00  0.00     0.004 C 
ENDBRANCH  28  29
ENDBRANCH  27  28
ENDBRANCH  26  27
ENDBRANCH  25  26
ENDBRANCH  24  25
ENDBRANCH  23  24
ENDBRANCH  22  23
ENDBRANCH  21  22
ENDBRANCH  20  21
ENDBRANCH  19  20
ENDBRANCH  18  19
ENDBRANCH  17  18
ENDBRANCH   1  17
TORSDOF 26
ENDMDL
MODEL 8
REMARK VINA RESULT:    -6.600      1.971      3.158
REMARK INTER + INTRA:         -18.477
REMARK INTER:                 -16.235
REMARK INTRA:                  -2.242
REMARK UNBOUND:                -1.845
REMARK SMILES CCCCCCCCCCCCCCCCCCCCCCCCCCCC(=O)[O-]
REMARK SMILES IDX 15 1 16 2 17 3 18 4 19 5 20 6 21 7 22 8 23 9 24 10 25 11
REMARK SMILES IDX 26 12 27 13 28 14 29 15 30 16 14 17 13 18 12 19 11 20 10 21
REMARK SMILES IDX 9 22 8 23 7 24 6 25 5 26 4 27 3 28 2 29 1 30
REMARK H PARENT
REMARK Flexibility Score: inf
ROOT
ATOM      1  C   UNL     1      24.359  -7.044  20.516  1.00  0.00     0.000 C 
ENDROOT
BRANCH   1   2
ATOM      2  C   UNL     1      25.745  -7.601  20.147  1.00  0.00     0.000 C 
BRANCH   2   3
ATOM      3  C   UNL     1      26.791  -6.498  19.909  1.00  0.00     0.000 C 
BRANCH   3   4
ATOM      4  C   UNL     1      26.180  -5.194  19.353  1.00  0.00     0.000 C 
BRANCH   4   5
ATOM      5  C   UNL     1      27.145  -4.368  18.482  1.00  0.00     0.000 C 
BRANCH   5   6
ATOM      6  C   UNL     1      28.558  -4.181  19.067  1.00  0.00     0.000 C 
BRANCH   6   7
ATOM      7  C   UNL     1      29.224  -2.828  18.746  1.00  0.00     0.000 C 
BRANCH   7   8
ATOM      8  C   UNL     1      29.161  -1.784  19.879  1.00  0.00     0.000 C 
BRANCH   8   9
ATOM      9  C   UNL     1      27.916  -0.876  19.862  1.00  0.00     0.000 C 
BRANCH   9  10
ATOM     10  C   UNL     1      26.673  -1.463  20.555  1.00  0.00     0.000 C 
BRANCH  10  11
ATOM     11  C   UNL     1      25.367  -1.122  19.822  1.00  0.00     0.000 C 
BRANCH  11  12
ATOM     12  C   UNL     1      25.204   0.397  19.666  1.00  0.00     0.006 C 
BRANCH  12  13
ATOM     13  C   UNL     1      23.828   0.779  19.106  1.00  0.00     0.053 C 
BRANCH  13  14
ATOM     14  C   UNL     1      23.919   1.925  18.146  1.00  0.00     0.041 C 
ATOM     15  O   UNL     1      23.142   1.985  17.156  1.00  0.00    -0.550 OA
ATOM     16  O   UNL     1      24.878   2.913  18.330  1.00  0.00    -0.550 OA
ENDBRANCH  13  14
ENDBRANCH  12  13
ENDBRANCH  11  12
ENDBRANCH  10  11
ENDBRANCH   9  10
ENDBRANCH   8   9
ENDBRANCH   7   8
ENDBRANCH   6   7
ENDBRANCH   5   6
ENDBRANCH   4   5
ENDBRANCH   3   4
ENDBRANCH   2   3
ENDBRANCH   1   2
BRANCH   1  17
ATOM     17  C   UNL     1      23.298  -8.132  20.783  1.00  0.00     0.000 C 
BRANCH  17  18
ATOM     18  C   UNL     1      23.795  -9.202  21.769  1.00  0.00     0.000 C 
BRANCH  18  19
ATOM     19  C   UNL     1      23.118  -9.056  23.140  1.00  0.00     0.000 C 
BRANCH  19  20
ATOM     20  C   UNL     1      22.783 -10.413  23.791  1.00  0.00     0.000 C 
BRANCH  20  21
ATOM     21  C   UNL     1      22.777 -10.413  25.331  1.00  0.00     0.000 C 
BRANCH  21  22
ATOM     22  C   UNL     1      23.140 -11.764  25.974  1.00  0.00    -0.000 C 
BRANCH  22  23
ATOM     23  C   UNL     1      22.894 -11.805  27.500  1.00  0.00    -0.000 C 
BRANCH  23  24
ATOM     24  C   UNL     1      22.821 -10.412  28.149  1.00  0.00    -0.000 C 
BRANCH  24  25
ATOM     25  C   UNL     1      21.459 -10.152  28.817  1.00  0.00    -0.000 C 
BRANCH  25  26
ATOM     26  C   UNL     1      20.363 -11.091  28.288  1.00  0.00    -0.000 C 
BRANCH  26  27
ATOM     27  C   UNL     1      19.268 -10.341  27.509  1.00  0.00    -0.000 C 
BRANCH  27  28
ATOM     28  C   UNL     1      19.812  -9.068  26.828  1.00  0.00    -0.000 C 
BRANCH  28  29
ATOM     29  C   UNL     1      18.935  -8.574  25.665  1.00  0.00    -0.003 C 
ATOM     30  C   UNL     1      19.742  -7.928  24.541  1.00  0.00     0.004 C 
ENDBRANCH  28  29
ENDBRANCH  27  28
ENDBRANCH  26  27
ENDBRANCH  25  26
ENDBRANCH  24  25
ENDBRANCH  23  24
ENDBRANCH  22  23
ENDBRANCH  21  22
ENDBRANCH  20  21
ENDBRANCH  19  20
ENDBRANCH  18  19
ENDBRANCH  17  18
ENDBRANCH   1  17
TORSDOF 26
ENDMDL
MODEL 9
REMARK VINA RESULT:    -6.546      5.486     11.302
REMARK INTER + INTRA:         -18.341
REMARK INTER:                 -16.930
REMARK INTRA:                  -1.411
REMARK UNBOUND:                -1.845
REMARK SMILES CCCCCCCCCCCCCCCCCCCCCCCCCCCC(=O)[O-]
REMARK SMILES IDX 15 1 16 2 17 3 18 4 19 5 20 6 21 7 22 8 23 9 24 10 25 11
REMARK SMILES IDX 26 12 27 13 28 14 29 15 30 16 14 17 13 18 12 19 11 20 10 21
REMARK SMILES IDX 9 22 8 23 7 24 6 25 5 26 4 27 3 28 2 29 1 30
REMARK H PARENT
REMARK Flexibility Score: inf
ROOT
ATOM      1  C   UNL     1      23.252   2.175  16.518  1.00  0.00     0.000 C 
ENDROOT
BRANCH   1   2
ATOM      2  C   UNL     1      22.910   3.543  15.902  1.00  0.00     0.000 C 
BRANCH   2   3
ATOM      3  C   UNL     1      22.044   3.430  14.634  1.00  0.00     0.000 C 
BRANCH   3   4
ATOM      4  C   UNL     1      22.296   4.571  13.626  1.00  0.00     0.000 C 
BRANCH   4   5
ATOM      5  C   UNL     1      22.337   4.113  12.155  1.00  0.00     0.000 C 
BRANCH   5   6
ATOM      6  C   UNL     1      20.979   4.132  11.426  1.00  0.00     0.000 C 
BRANCH   6   7
ATOM      7  C   UNL     1      20.025   2.978  11.791  1.00  0.00     0.000 C 
BRANCH   7   8
ATOM      8  C   UNL     1      18.881   3.357  12.753  1.00  0.00     0.000 C 
BRANCH   8   9
ATOM      9  C   UNL     1      18.139   2.164  13.388  1.00  0.00     0.000 C 
BRANCH   9  10
ATOM     10  C   UNL     1      18.676   1.719  14.759  1.00  0.00     0.000 C 
BRANCH  10  11
ATOM     11  C   UNL     1      17.600   1.059  15.634  1.00  0.00     0.000 C 
BRANCH  11  12
ATOM     12  C   UNL     1      16.567   0.320  14.772  1.00  0.00     0.006 C 
BRANCH  12  13
ATOM     13  C   UNL     1      16.414  -1.150  15.182  1.00  0.00     0.053 C 
BRANCH  13  14
ATOM     14  C   UNL     1      14.990  -1.494  15.495  1.00  0.00     0.041 C 
ATOM     15  O   UNL     1      14.700  -2.064  16.580  1.00  0.00    -0.550 OA
ATOM     16  O   UNL     1      13.987  -1.208  14.578  1.00  0.00    -0.550 OA
ENDBRANCH  13  14
ENDBRANCH  12  13
ENDBRANCH  11  12
ENDBRANCH  10  11
ENDBRANCH   9  10
ENDBRANCH   8   9
ENDBRANCH   7   8
ENDBRANCH   6   7
ENDBRANCH   5   6
ENDBRANCH   4   5
ENDBRANCH   3   4
ENDBRANCH   2   3
ENDBRANCH   1   2
BRANCH   1  17
ATOM     17  C   UNL     1      24.016   2.266  17.856  1.00  0.00     0.000 C 
BRANCH  17  18
ATOM     18  C   UNL     1      23.304   1.508  18.988  1.00  0.00     0.000 C 
BRANCH  18  19
ATOM     19  C   UNL     1      24.048   0.214  19.349  1.00  0.00     0.000 C 
BRANCH  19  20
ATOM     20  C   UNL     1      25.409   0.473  20.026  1.00  0.00     0.000 C 
BRANCH  20  21
ATOM     21  C   UNL     1      26.487  -0.590  19.748  1.00  0.00     0.000 C 
BRANCH  21  22
ATOM     22  C   UNL     1      27.909  -0.193  20.187  1.00  0.00    -0.000 C 
BRANCH  22  23
ATOM     23  C   UNL     1      28.985  -1.232  19.799  1.00  0.00    -0.000 C 
BRANCH  23  24
ATOM     24  C   UNL     1      28.433  -2.419  18.991  1.00  0.00    -0.000 C 
BRANCH  24  25
ATOM     25  C   UNL     1      28.652  -3.764  19.707  1.00  0.00    -0.000 C 
BRANCH  25  26
ATOM     26  C   UNL     1      27.834  -4.900  19.073  1.00  0.00    -0.000 C 
BRANCH  26  27
ATOM     27  C   UNL     1      26.466  -5.092  19.750  1.00  0.00    -0.000 C 
BRANCH  27  28
ATOM     28  C   UNL     1      25.766  -6.386  19.286  1.00  0.00    -0.000 C 
BRANCH  28  29
ATOM     29  C   UNL     1      24.514  -6.734  20.108  1.00  0.00    -0.003 C 
ATOM     30  C   UNL     1      24.672  -8.015  20.926  1.00  0.00     0.004 C 
ENDBRANCH  28  29
ENDBRANCH  27  28
ENDBRANCH  26  27
ENDBRANCH  25  26
ENDBRANCH  24  25
ENDBRANCH  23  24
ENDBRANCH  22  23
ENDBRANCH  21  22
ENDBRANCH  20  21
ENDBRANCH  19  20
ENDBRANCH  18  19
ENDBRANCH  17  18
ENDBRANCH   1  17
TORSDOF 26
ENDMDL
