MODEL 1
REMARK VINA RESULT:    -6.271      0.000      0.000
REMARK INTER + INTRA:          -7.683
REMARK INTER:                  -7.371
REMARK INTRA:                  -0.312
REMARK UNBOUND:                -0.312
REMARK SMILES O=c1cc(-c2ccc(O)c(O)c2)oc2cc(O)cc(O)c12
REMARK SMILES IDX 4 1 3 2 2 3 1 4 21 5 19 6 18 7 16 8 15 9 14 10 13 11 5 12
REMARK SMILES IDX 6 13 7 14 8 15 12 16 10 17 9 18 11 20 20 22 17 24
REMARK H PARENT 9 19 11 21 20 23 17 25
REMARK Flexibility Score: inf
ROOT
ATOM      1  C   UNL     1      -9.826   8.613   6.374  1.00  0.00     0.138 A 
ATOM      2  C   UNL     1     -11.133   9.117   6.422  1.00  0.00     0.100 A 
ATOM      3  C   UNL     1     -12.211   8.234   6.503  1.00  0.00     0.197 A 
ATOM      4  O   UNL     1     -13.368   8.718   6.601  1.00  0.00    -0.289 OA
ATOM      5  C   UNL     1     -11.979   6.837   6.501  1.00  0.00     0.107 A 
ATOM      6  C   UNL     1     -13.001   5.841   6.546  1.00  0.00     0.134 A 
ATOM      7  C   UNL     1     -12.644   4.490   6.638  1.00  0.00     0.093 A 
ATOM      8  C   UNL     1     -11.307   4.095   6.628  1.00  0.00     0.123 A 
ATOM      9  C   UNL     1     -10.301   5.057   6.534  1.00  0.00     0.094 A 
ATOM     10  C   UNL     1     -10.623   6.415   6.475  1.00  0.00     0.146 A 
ATOM     11  O   UNL     1      -9.632   7.299   6.405  1.00  0.00    -0.456 OA
ENDROOT
BRANCH   1  12
ATOM     12  C   UNL     1      -8.644   9.507   6.284  1.00  0.00     0.021 A 
ATOM     13  C   UNL     1      -8.803  10.813   5.789  1.00  0.00     0.016 A 
ATOM     14  C   UNL     1      -7.707  11.673   5.686  1.00  0.00     0.051 A 
ATOM     15  C   UNL     1      -6.433  11.243   6.066  1.00  0.00     0.157 A 
ATOM     16  C   UNL     1      -7.356   9.074   6.653  1.00  0.00     0.062 A 
ATOM     17  C   UNL     1      -6.254   9.936   6.549  1.00  0.00     0.158 A 
BRANCH  15  18
ATOM     18  O   UNL     1      -5.358  12.125   5.954  1.00  0.00    -0.504 OA
ATOM     19  H   UNL     1      -4.764  12.147   5.134  1.00  0.00     0.293 HD
ENDBRANCH  15  18
BRANCH  17  20
ATOM     20  O   UNL     1      -4.983   9.497   6.919  1.00  0.00    -0.504 OA
ATOM     21  H   UNL     1      -4.329   9.130   6.239  1.00  0.00     0.293 HD
ENDBRANCH  17  20
ENDBRANCH   1  12
BRANCH   6  22
ATOM     22  O   UNL     1     -14.369   6.120   6.480  1.00  0.00    -0.507 OA
ATOM     23  H   UNL     1     -14.769   7.027   6.296  1.00  0.00     0.293 HD
ENDBRANCH   6  22
BRANCH   8  24
ATOM     24  O   UNL     1     -10.991   2.740   6.706  1.00  0.00    -0.508 OA
ATOM     25  H   UNL     1     -10.496   2.357   7.503  1.00  0.00     0.293 HD
ENDBRANCH   8  24
TORSDOF 5
ENDMDL
MODEL 2
REMARK VINA RESULT:    -6.227      1.239      2.575
REMARK INTER + INTRA:          -7.631
REMARK INTER:                  -7.358
REMARK INTRA:                  -0.274
REMARK UNBOUND:                -0.312
REMARK SMILES O=c1cc(-c2ccc(O)c(O)c2)oc2cc(O)cc(O)c12
REMARK SMILES IDX 4 1 3 2 2 3 1 4 21 5 19 6 18 7 16 8 15 9 14 10 13 11 5 12
REMARK SMILES IDX 6 13 7 14 8 15 12 16 10 17 9 18 11 20 20 22 17 24
REMARK H PARENT 9 19 11 21 20 23 17 25
REMARK Flexibility Score: inf
ROOT
ATOM      1  C   UNL     1      -9.631   7.650   6.032  1.00  0.00     0.138 A 
ATOM      2  C   UNL     1      -9.316   6.446   5.386  1.00  0.00     0.100 A 
ATOM      3  C   UNL     1     -10.234   5.396   5.397  1.00  0.00     0.197 A 
ATOM      4  O   UNL     1      -9.946   4.349   4.762  1.00  0.00    -0.289 OA
ATOM      5  C   UNL     1     -11.461   5.540   6.090  1.00  0.00     0.107 A 
ATOM      6  C   UNL     1     -12.460   4.526   6.200  1.00  0.00     0.134 A 
ATOM      7  C   UNL     1     -13.676   4.819   6.829  1.00  0.00     0.093 A 
ATOM      8  C   UNL     1     -13.907   6.070   7.402  1.00  0.00     0.123 A 
ATOM      9  C   UNL     1     -12.919   7.052   7.346  1.00  0.00     0.094 A 
ATOM     10  C   UNL     1     -11.709   6.802   6.696  1.00  0.00     0.146 A 
ATOM     11  O   UNL     1     -10.801   7.772   6.649  1.00  0.00    -0.456 OA
ENDROOT
BRANCH   1  12
ATOM     12  C   UNL     1      -8.689   8.798   6.053  1.00  0.00     0.021 A 
ATOM     13  C   UNL     1      -9.143  10.070   5.658  1.00  0.00     0.016 A 
ATOM     14  C   UNL     1      -8.276  11.165   5.661  1.00  0.00     0.051 A 
ATOM     15  C   UNL     1      -6.942  11.011   6.048  1.00  0.00     0.157 A 
ATOM     16  C   UNL     1      -7.341   8.646   6.430  1.00  0.00     0.062 A 
ATOM     17  C   UNL     1      -6.471   9.746   6.432  1.00  0.00     0.158 A 
BRANCH  15  18
ATOM     18  O   UNL     1      -6.102  12.125   6.043  1.00  0.00    -0.504 OA
ATOM     19  H   UNL     1      -5.704  12.503   6.894  1.00  0.00     0.293 HD
ENDBRANCH  15  18
BRANCH  17  20
ATOM     20  O   UNL     1      -5.137   9.583   6.809  1.00  0.00    -0.504 OA
ATOM     21  H   UNL     1      -4.457  10.324   6.687  1.00  0.00     0.293 HD
ENDBRANCH  17  20
ENDBRANCH   1  12
BRANCH   6  22
ATOM     22  O   UNL     1     -12.302   3.218   5.732  1.00  0.00    -0.507 OA
ATOM     23  H   UNL     1     -12.561   2.385   6.238  1.00  0.00     0.293 HD
ENDBRANCH   6  22
BRANCH   8  24
ATOM     24  O   UNL     1     -15.124   6.320   8.033  1.00  0.00    -0.508 OA
ATOM     25  H   UNL     1     -15.813   6.941   7.626  1.00  0.00     0.293 HD
ENDBRANCH   8  24
TORSDOF 5
ENDMDL
MODEL 3
REMARK VINA RESULT:    -6.010      1.684      6.856
REMARK INTER + INTRA:          -7.376
REMARK INTER:                  -7.085
REMARK INTRA:                  -0.291
REMARK UNBOUND:                -0.312
REMARK SMILES O=c1cc(-c2ccc(O)c(O)c2)oc2cc(O)cc(O)c12
REMARK SMILES IDX 4 1 3 2 2 3 1 4 21 5 19 6 18 7 16 8 15 9 14 10 13 11 5 12
REMARK SMILES IDX 6 13 7 14 8 15 12 16 10 17 9 18 11 20 20 22 17 24
REMARK H PARENT 9 19 11 21 20 23 17 25
REMARK Flexibility Score: inf
ROOT
ATOM      1  C   UNL     1     -10.213   7.442   6.792  1.00  0.00     0.138 A 
ATOM      2  C   UNL     1     -11.051   8.423   6.242  1.00  0.00     0.100 A 
ATOM      3  C   UNL     1     -10.496   9.598   5.734  1.00  0.00     0.197 A 
ATOM      4  O   UNL     1     -11.266  10.435   5.197  1.00  0.00    -0.289 OA
ATOM      5  C   UNL     1      -9.097   9.807   5.811  1.00  0.00     0.107 A 
ATOM      6  C   UNL     1      -8.422  10.981   5.359  1.00  0.00     0.134 A 
ATOM      7  C   UNL     1      -7.023  11.032   5.398  1.00  0.00     0.093 A 
ATOM      8  C   UNL     1      -6.279   9.978   5.926  1.00  0.00     0.123 A 
ATOM      9  C   UNL     1      -6.930   8.847   6.418  1.00  0.00     0.094 A 
ATOM     10  C   UNL     1      -8.322   8.751   6.361  1.00  0.00     0.146 A 
ATOM     11  O   UNL     1      -8.901   7.648   6.824  1.00  0.00    -0.456 OA
ENDROOT
BRANCH   1  12
ATOM     12  C   UNL     1     -10.751   6.174   7.348  1.00  0.00     0.021 A 
ATOM     13  C   UNL     1      -9.990   5.456   8.287  1.00  0.00     0.016 A 
ATOM     14  C   UNL     1     -10.469   4.257   8.820  1.00  0.00     0.051 A 
ATOM     15  C   UNL     1     -11.708   3.749   8.421  1.00  0.00     0.157 A 
ATOM     16  C   UNL     1     -11.993   5.652   6.938  1.00  0.00     0.062 A 
ATOM     17  C   UNL     1     -12.473   4.447   7.473  1.00  0.00     0.158 A 
BRANCH  15  18
ATOM     18  O   UNL     1     -12.160   2.550   8.973  1.00  0.00    -0.504 OA
ATOM     19  H   UNL     1     -13.142   2.308   9.001  1.00  0.00     0.293 HD
ENDBRANCH  15  18
BRANCH  17  20
ATOM     20  O   UNL     1     -13.706   3.940   7.062  1.00  0.00    -0.504 OA
ATOM     21  H   UNL     1     -14.028   3.025   7.355  1.00  0.00     0.293 HD
ENDBRANCH  17  20
ENDBRANCH   1  12
BRANCH   6  22
ATOM     22  O   UNL     1      -9.072  12.125   4.886  1.00  0.00    -0.507 OA
ATOM     23  H   UNL     1     -10.017  12.152   4.532  1.00  0.00     0.293 HD
ENDBRANCH   6  22
BRANCH   8  24
ATOM     24  O   UNL     1      -4.888  10.071   5.963  1.00  0.00    -0.508 OA
ATOM     25  H   UNL     1      -4.400  10.864   5.564  1.00  0.00     0.293 HD
ENDBRANCH   8  24
TORSDOF 5
ENDMDL
MODEL 4
REMARK VINA RESULT:    -5.730      1.517      2.923
REMARK INTER + INTRA:          -7.046
REMARK INTER:                  -6.781
REMARK INTRA:                  -0.265
REMARK UNBOUND:                -0.312
REMARK SMILES O=c1cc(-c2ccc(O)c(O)c2)oc2cc(O)cc(O)c12
REMARK SMILES IDX 4 1 3 2 2 3 1 4 21 5 19 6 18 7 16 8 15 9 14 10 13 11 5 12
REMARK SMILES IDX 6 13 7 14 8 15 12 16 10 17 9 18 11 20 20 22 17 24
REMARK H PARENT 9 19 11 21 20 23 17 25
REMARK Flexibility Score: inf
ROOT
ATOM      1  C   UNL     1      -9.132   8.547   6.406  1.00  0.00     0.138 A 
ATOM      2  C   UNL     1      -8.951   7.157   6.386  1.00  0.00     0.100 A 
ATOM      3  C   UNL     1     -10.063   6.315   6.413  1.00  0.00     0.197 A 
ATOM      4  O   UNL     1      -9.871   5.074   6.338  1.00  0.00    -0.289 OA
ATOM      5  C   UNL     1     -11.364   6.870   6.496  1.00  0.00     0.107 A 
ATOM      6  C   UNL     1     -12.571   6.110   6.565  1.00  0.00     0.134 A 
ATOM      7  C   UNL     1     -13.805   6.771   6.546  1.00  0.00     0.093 A 
ATOM      8  C   UNL     1     -13.876   8.164   6.519  1.00  0.00     0.123 A 
ATOM      9  C   UNL     1     -12.703   8.918   6.503  1.00  0.00     0.094 A 
ATOM     10  C   UNL     1     -11.457   8.287   6.487  1.00  0.00     0.146 A 
ATOM     11  O   UNL     1     -10.363   9.043   6.453  1.00  0.00    -0.456 OA
ENDROOT
BRANCH   1  12
ATOM     12  C   UNL     1      -7.983   9.488   6.382  1.00  0.00     0.021 A 
ATOM     13  C   UNL     1      -7.412   9.847   5.148  1.00  0.00     0.016 A 
ATOM     14  C   UNL     1      -6.326  10.724   5.097  1.00  0.00     0.051 A 
ATOM     15  C   UNL     1      -5.785  11.250   6.274  1.00  0.00     0.157 A 
ATOM     16  C   UNL     1      -7.427  10.010   7.565  1.00  0.00     0.062 A 
ATOM     17  C   UNL     1      -6.335  10.889   7.514  1.00  0.00     0.158 A 
BRANCH  15  18
ATOM     18  O   UNL     1      -4.702  12.125   6.190  1.00  0.00    -0.504 OA
ATOM     19  H   UNL     1      -4.824  13.129   6.142  1.00  0.00     0.293 HD
ENDBRANCH  15  18
BRANCH  17  20
ATOM     20  O   UNL     1      -5.793  11.402   8.693  1.00  0.00    -0.504 OA
ATOM     21  H   UNL     1      -4.802  11.340   8.892  1.00  0.00     0.293 HD
ENDBRANCH  17  20
ENDBRANCH   1  12
BRANCH   6  22
ATOM     22  O   UNL     1     -12.614   4.717   6.675  1.00  0.00    -0.507 OA
ATOM     23  H   UNL     1     -12.666   4.204   7.542  1.00  0.00     0.293 HD
ENDBRANCH   6  22
BRANCH   8  24
ATOM     24  O   UNL     1     -15.122   8.788   6.516  1.00  0.00    -0.508 OA
ATOM     25  H   UNL     1     -15.210   9.794   6.443  1.00  0.00     0.293 HD
ENDBRANCH   8  24
TORSDOF 5
ENDMDL
MODEL 5
REMARK VINA RESULT:    -5.580      2.240      6.665
REMARK INTER + INTRA:          -6.871
REMARK INTER:                  -6.602
REMARK INTRA:                  -0.268
REMARK UNBOUND:                -0.312
REMARK SMILES O=c1cc(-c2ccc(O)c(O)c2)oc2cc(O)cc(O)c12
REMARK SMILES IDX 4 1 3 2 2 3 1 4 21 5 19 6 18 7 16 8 15 9 14 10 13 11 5 12
REMARK SMILES IDX 6 13 7 14 8 15 12 16 10 17 9 18 11 20 20 22 17 24
REMARK H PARENT 9 19 11 21 20 23 17 25
REMARK Flexibility Score: inf
ROOT
ATOM      1  C   UNL     1     -12.143   7.517   6.569  1.00  0.00     0.138 A 
ATOM      2  C   UNL     1     -13.337   8.007   6.022  1.00  0.00     0.100 A 
ATOM      3  C   UNL     1     -13.359   9.274   5.438  1.00  0.00     0.197 A 
ATOM      4  O   UNL     1     -14.430   9.664   4.906  1.00  0.00    -0.289 OA
ATOM      5  C   UNL     1     -12.187  10.069   5.434  1.00  0.00     0.107 A 
ATOM      6  C   UNL     1     -12.099  11.389   4.898  1.00  0.00     0.134 A 
ATOM      7  C   UNL     1     -10.859  12.039   4.863  1.00  0.00     0.093 A 
ATOM      8  C   UNL     1      -9.717  11.441   5.396  1.00  0.00     0.123 A 
ATOM      9  C   UNL     1      -9.801  10.172   5.968  1.00  0.00     0.094 A 
ATOM     10  C   UNL     1     -11.016   9.484   5.987  1.00  0.00     0.146 A 
ATOM     11  O   UNL     1     -11.049   8.268   6.525  1.00  0.00    -0.456 OA
ENDROOT
BRANCH   1  12
ATOM     12  C   UNL     1     -12.064   6.177   7.205  1.00  0.00     0.021 A 
ATOM     13  C   UNL     1     -12.582   5.997   8.500  1.00  0.00     0.016 A 
ATOM     14  C   UNL     1     -12.514   4.750   9.125  1.00  0.00     0.051 A 
ATOM     15  C   UNL     1     -11.922   3.664   8.475  1.00  0.00     0.157 A 
ATOM     16  C   UNL     1     -11.456   5.084   6.559  1.00  0.00     0.062 A 
ATOM     17  C   UNL     1     -11.387   3.831   7.187  1.00  0.00     0.158 A 
BRANCH  15  18
ATOM     18  O   UNL     1     -11.871   2.430   9.124  1.00  0.00    -0.504 OA
ATOM     19  H   UNL     1     -12.699   1.866   9.272  1.00  0.00     0.293 HD
ENDBRANCH  15  18
BRANCH  17  20
ATOM     20  O   UNL     1     -10.785   2.754   6.537  1.00  0.00    -0.504 OA
ATOM     21  H   UNL     1      -9.920   2.861   6.022  1.00  0.00     0.293 HD
ENDBRANCH  17  20
ENDBRANCH   1  12
BRANCH   6  22
ATOM     22  O   UNL     1     -13.192  12.111   4.411  1.00  0.00    -0.507 OA
ATOM     23  H   UNL     1     -14.143  12.014   4.734  1.00  0.00     0.293 HD
ENDBRANCH   6  22
BRANCH   8  24
ATOM     24  O   UNL     1      -8.503  12.125   5.357  1.00  0.00    -0.508 OA
ATOM     25  H   UNL     1      -7.690  11.735   4.894  1.00  0.00     0.293 HD
ENDBRANCH   8  24
TORSDOF 5
ENDMDL
MODEL 6
REMARK VINA RESULT:    -5.415      1.473      2.528
REMARK INTER + INTRA:          -6.677
REMARK INTER:                  -6.388
REMARK INTRA:                  -0.288
REMARK UNBOUND:                -0.312
REMARK SMILES O=c1cc(-c2ccc(O)c(O)c2)oc2cc(O)cc(O)c12
REMARK SMILES IDX 4 1 3 2 2 3 1 4 21 5 19 6 18 7 16 8 15 9 14 10 13 11 5 12
REMARK SMILES IDX 6 13 7 14 8 15 12 16 10 17 9 18 11 20 20 22 17 24
REMARK H PARENT 9 19 11 21 20 23 17 25
REMARK Flexibility Score: inf
ROOT
ATOM      1  C   UNL     1      -9.666   7.381   6.465  1.00  0.00     0.138 A 
ATOM      2  C   UNL     1      -9.427   6.421   7.459  1.00  0.00     0.100 A 
ATOM      3  C   UNL     1     -10.289   5.332   7.588  1.00  0.00     0.197 A 
ATOM      4  O   UNL     1     -10.017   4.459   8.452  1.00  0.00    -0.289 OA
ATOM      5  C   UNL     1     -11.419   5.224   6.741  1.00  0.00     0.107 A 
ATOM      6  C   UNL     1     -12.387   4.176   6.804  1.00  0.00     0.134 A 
ATOM      7  C   UNL     1     -13.409   4.123   5.848  1.00  0.00     0.093 A 
ATOM      8  C   UNL     1     -13.533   5.108   4.869  1.00  0.00     0.123 A 
ATOM      9  C   UNL     1     -12.622   6.164   4.829  1.00  0.00     0.094 A 
ATOM     10  C   UNL     1     -11.572   6.228   5.747  1.00  0.00     0.146 A 
ATOM     11  O   UNL     1     -10.715   7.241   5.662  1.00  0.00    -0.456 OA
ENDROOT
BRANCH   1  12
ATOM     12  C   UNL     1      -8.782   8.561   6.286  1.00  0.00     0.021 A 
ATOM     13  C   UNL     1      -9.316   9.748   5.754  1.00  0.00     0.016 A 
ATOM     14  C   UNL     1      -8.505  10.870   5.567  1.00  0.00     0.051 A 
ATOM     15  C   UNL     1      -7.148  10.825   5.897  1.00  0.00     0.157 A 
ATOM     16  C   UNL     1      -7.411   8.516   6.604  1.00  0.00     0.062 A 
ATOM     17  C   UNL     1      -6.597   9.643   6.416  1.00  0.00     0.158 A 
BRANCH  15  18
ATOM     18  O   UNL     1      -6.364  11.962   5.701  1.00  0.00    -0.504 OA
ATOM     19  H   UNL     1      -6.423  12.517   4.856  1.00  0.00     0.293 HD
ENDBRANCH  15  18
BRANCH  17  20
ATOM     20  O   UNL     1      -5.240   9.588   6.737  1.00  0.00    -0.504 OA
ATOM     21  H   UNL     1      -4.625  10.377   6.579  1.00  0.00     0.293 HD
ENDBRANCH  17  20
ENDBRANCH   1  12
BRANCH   6  22
ATOM     22  O   UNL     1     -12.405   3.185   7.788  1.00  0.00    -0.507 OA
ATOM     23  H   UNL     1     -13.216   2.910   8.322  1.00  0.00     0.293 HD
ENDBRANCH   6  22
BRANCH   8  24
ATOM     24  O   UNL     1     -14.572   5.030   3.943  1.00  0.00    -0.508 OA
ATOM     25  H   UNL     1     -14.504   5.471   3.033  1.00  0.00     0.293 HD
ENDBRANCH   8  24
TORSDOF 5
ENDMDL
MODEL 7
REMARK VINA RESULT:    -5.268      2.323      6.931
REMARK INTER + INTRA:          -6.504
REMARK INTER:                  -6.193
REMARK INTRA:                  -0.311
REMARK UNBOUND:                -0.312
REMARK SMILES O=c1cc(-c2ccc(O)c(O)c2)oc2cc(O)cc(O)c12
REMARK SMILES IDX 4 1 3 2 2 3 1 4 21 5 19 6 18 7 16 8 15 9 14 10 13 11 5 12
REMARK SMILES IDX 6 13 7 14 8 15 12 16 10 17 9 18 11 20 20 22 17 24
REMARK H PARENT 9 19 11 21 20 23 17 25
REMARK Flexibility Score: inf
ROOT
ATOM      1  C   UNL     1     -10.919   7.608   6.727  1.00  0.00     0.138 A 
ATOM      2  C   UNL     1      -9.633   8.144   6.576  1.00  0.00     0.100 A 
ATOM      3  C   UNL     1      -9.475   9.408   6.006  1.00  0.00     0.197 A 
ATOM      4  O   UNL     1      -8.314   9.886   5.934  1.00  0.00    -0.289 OA
ATOM      5  C   UNL     1     -10.611  10.123   5.553  1.00  0.00     0.107 A 
ATOM      6  C   UNL     1     -10.570  11.405   4.925  1.00  0.00     0.134 A 
ATOM      7  C   UNL     1     -11.768  12.057   4.608  1.00  0.00     0.093 A 
ATOM      8  C   UNL     1     -13.002  11.451   4.843  1.00  0.00     0.123 A 
ATOM      9  C   UNL     1     -13.053  10.178   5.409  1.00  0.00     0.094 A 
ATOM     10  C   UNL     1     -11.877   9.516   5.768  1.00  0.00     0.146 A 
ATOM     11  O   UNL     1     -11.971   8.311   6.323  1.00  0.00    -0.456 OA
ENDROOT
BRANCH   1  12
ATOM     12  C   UNL     1     -11.144   6.266   7.324  1.00  0.00     0.021 A 
ATOM     13  C   UNL     1     -10.155   5.706   8.152  1.00  0.00     0.016 A 
ATOM     14  C   UNL     1     -10.337   4.443   8.720  1.00  0.00     0.051 A 
ATOM     15  C   UNL     1     -11.501   3.713   8.466  1.00  0.00     0.157 A 
ATOM     16  C   UNL     1     -12.309   5.522   7.059  1.00  0.00     0.062 A 
ATOM     17  C   UNL     1     -12.491   4.253   7.629  1.00  0.00     0.158 A 
BRANCH  15  18
ATOM     18  O   UNL     1     -11.655   2.456   9.049  1.00  0.00    -0.504 OA
ATOM     19  H   UNL     1     -11.936   1.644   8.512  1.00  0.00     0.293 HD
ENDBRANCH  15  18
BRANCH  17  20
ATOM     20  O   UNL     1     -13.651   3.525   7.362  1.00  0.00    -0.504 OA
ATOM     21  H   UNL     1     -14.566   3.865   7.634  1.00  0.00     0.293 HD
ENDBRANCH  17  20
ENDBRANCH   1  12
BRANCH   6  22
ATOM     22  O   UNL     1      -9.390  12.067   4.572  1.00  0.00    -0.507 OA
ATOM     23  H   UNL     1      -8.505  11.619   4.392  1.00  0.00     0.293 HD
ENDBRANCH   6  22
BRANCH   8  24
ATOM     24  O   UNL     1     -14.173  12.125   4.500  1.00  0.00    -0.508 OA
ATOM     25  H   UNL     1     -14.360  13.064   4.832  1.00  0.00     0.293 HD
ENDBRANCH   8  24
TORSDOF 5
ENDMDL
MODEL 8
REMARK VINA RESULT:    -4.931      4.967      5.608
REMARK INTER + INTRA:          -6.108
REMARK INTER:                  -5.792
REMARK INTRA:                  -0.316
REMARK UNBOUND:                -0.312
REMARK SMILES O=c1cc(-c2ccc(O)c(O)c2)oc2cc(O)cc(O)c12
REMARK SMILES IDX 4 1 3 2 2 3 1 4 21 5 19 6 18 7 16 8 15 9 14 10 13 11 5 12
REMARK SMILES IDX 6 13 7 14 8 15 12 16 10 17 9 18 11 20 20 22 17 24
REMARK H PARENT 9 19 11 21 20 23 17 25
REMARK Flexibility Score: inf
ROOT
ATOM      1  C   UNL     1     -13.667   7.768   5.431  1.00  0.00     0.138 A 
ATOM      2  C   UNL     1     -13.944   7.820   6.805  1.00  0.00     0.100 A 
ATOM      3  C   UNL     1     -13.599   6.741   7.619  1.00  0.00     0.197 A 
ATOM      4  O   UNL     1     -13.809   6.839   8.856  1.00  0.00    -0.289 OA
ATOM      5  C   UNL     1     -13.006   5.588   7.048  1.00  0.00     0.107 A 
ATOM      6  C   UNL     1     -12.643   4.413   7.774  1.00  0.00     0.134 A 
ATOM      7  C   UNL     1     -11.973   3.375   7.115  1.00  0.00     0.093 A 
ATOM      8  C   UNL     1     -11.704   3.443   5.749  1.00  0.00     0.123 A 
ATOM      9  C   UNL     1     -12.099   4.564   5.019  1.00  0.00     0.094 A 
ATOM     10  C   UNL     1     -12.739   5.631   5.653  1.00  0.00     0.146 A 
ATOM     11  O   UNL     1     -13.082   6.689   4.924  1.00  0.00    -0.456 OA
ENDROOT
BRANCH   1  12
ATOM     12  C   UNL     1     -14.016   8.887   4.519  1.00  0.00     0.021 A 
ATOM     13  C   UNL     1     -14.404  10.125   5.062  1.00  0.00     0.016 A 
ATOM     14  C   UNL     1     -14.744  11.191   4.228  1.00  0.00     0.051 A 
ATOM     15  C   UNL     1     -14.713  11.041   2.839  1.00  0.00     0.157 A 
ATOM     16  C   UNL     1     -13.999   8.736   3.119  1.00  0.00     0.062 A 
ATOM     17  C   UNL     1     -14.342   9.807   2.281  1.00  0.00     0.158 A 
BRANCH  15  18
ATOM     18  O   UNL     1     -15.057  12.125   2.031  1.00  0.00    -0.504 OA
ATOM     19  H   UNL     1     -14.411  12.522   1.360  1.00  0.00     0.293 HD
ENDBRANCH  15  18
BRANCH  17  20
ATOM     20  O   UNL     1     -14.320   9.647   0.895  1.00  0.00    -0.504 OA
ATOM     21  H   UNL     1     -15.000  10.100   0.297  1.00  0.00     0.293 HD
ENDBRANCH  17  20
ENDBRANCH   1  12
BRANCH   6  22
ATOM     22  O   UNL     1     -12.934   4.207   9.125  1.00  0.00    -0.507 OA
ATOM     23  H   UNL     1     -12.249   4.056   9.850  1.00  0.00     0.293 HD
ENDBRANCH   6  22
BRANCH   8  24
ATOM     24  O   UNL     1     -11.048   2.383   5.125  1.00  0.00    -0.508 OA
ATOM     25  H   UNL     1     -10.251   1.928   5.553  1.00  0.00     0.293 HD
ENDBRANCH   8  24
TORSDOF 5
ENDMDL
MODEL 9
REMARK VINA RESULT:    -4.648      4.728      6.814
REMARK INTER + INTRA:          -5.775
REMARK INTER:                  -5.457
REMARK INTRA:                  -0.318
REMARK UNBOUND:                -0.312
REMARK SMILES O=c1cc(-c2ccc(O)c(O)c2)oc2cc(O)cc(O)c12
REMARK SMILES IDX 4 1 3 2 2 3 1 4 21 5 19 6 18 7 16 8 15 9 14 10 13 11 5 12
REMARK SMILES IDX 6 13 7 14 8 15 12 16 10 17 9 18 11 20 20 22 17 24
REMARK H PARENT 9 19 11 21 20 23 17 25
REMARK Flexibility Score: inf
ROOT
ATOM      1  C   UNL     1     -13.161   7.259   6.643  1.00  0.00     0.138 A 
ATOM      2  C   UNL     1     -13.522   7.984   7.788  1.00  0.00     0.100 A 
ATOM      3  C   UNL     1     -14.093   9.250   7.651  1.00  0.00     0.197 A 
ATOM      4  O   UNL     1     -14.457   9.852   8.694  1.00  0.00    -0.289 OA
ATOM      5  C   UNL     1     -14.270   9.807   6.361  1.00  0.00     0.107 A 
ATOM      6  C   UNL     1     -14.810  11.103   6.101  1.00  0.00     0.134 A 
ATOM      7  C   UNL     1     -15.028  11.506   4.778  1.00  0.00     0.093 A 
ATOM      8  C   UNL     1     -14.674  10.687   3.706  1.00  0.00     0.123 A 
ATOM      9  C   UNL     1     -14.100   9.439   3.948  1.00  0.00     0.094 A 
ATOM     10  C   UNL     1     -13.900   8.994   5.257  1.00  0.00     0.146 A 
ATOM     11  O   UNL     1     -13.366   7.790   5.443  1.00  0.00    -0.456 OA
ENDROOT
BRANCH   1  12
ATOM     12  C   UNL     1     -12.547   5.909   6.731  1.00  0.00     0.021 A 
ATOM     13  C   UNL     1     -12.397   5.301   7.990  1.00  0.00     0.016 A 
ATOM     14  C   UNL     1     -11.816   4.036   8.103  1.00  0.00     0.051 A 
ATOM     15  C   UNL     1     -11.367   3.360   6.965  1.00  0.00     0.157 A 
ATOM     16  C   UNL     1     -12.081   5.230   5.589  1.00  0.00     0.062 A 
ATOM     17  C   UNL     1     -11.497   3.960   5.702  1.00  0.00     0.158 A 
BRANCH  15  18
ATOM     18  O   UNL     1     -10.793   2.096   7.109  1.00  0.00    -0.504 OA
ATOM     19  H   UNL     1     -11.019   1.329   6.488  1.00  0.00     0.293 HD
ENDBRANCH  15  18
BRANCH  17  20
ATOM     20  O   UNL     1     -11.041   3.295   4.564  1.00  0.00    -0.504 OA
ATOM     21  H   UNL     1     -10.127   3.484   4.169  1.00  0.00     0.293 HD
ENDBRANCH  17  20
ENDBRANCH   1  12
BRANCH   6  22
ATOM     22  O   UNL     1     -15.125  12.034   7.094  1.00  0.00    -0.507 OA
ATOM     23  H   UNL     1     -14.751  12.033   8.031  1.00  0.00     0.293 HD
ENDBRANCH   6  22
BRANCH   8  24
ATOM     24  O   UNL     1     -14.892  11.128   2.403  1.00  0.00    -0.508 OA
ATOM     25  H   UNL     1     -15.701  11.690   2.163  1.00  0.00     0.293 HD
ENDBRANCH   8  24
TORSDOF 5
ENDMDL
