MODEL 1
REMARK VINA RESULT:    -5.253      0.000      0.000
REMARK INTER + INTRA:         -15.846
REMARK INTER:                 -13.238
REMARK INTRA:                  -2.608
REMARK UNBOUND:                -2.608
REMARK SMILES CCCCCCCCCCCCCCCCCCCCCCCCCCCC(=O)[O-]
REMARK SMILES IDX 15 1 16 2 17 3 18 4 19 5 20 6 21 7 22 8 23 9 24 10 25 11
REMARK SMILES IDX 26 12 27 13 28 14 29 15 30 16 14 17 13 18 12 19 11 20 10 21
REMARK SMILES IDX 9 22 8 23 7 24 6 25 5 26 4 27 3 28 2 29 1 30
REMARK H PARENT
REMARK Flexibility Score: inf
ROOT
ATOM      1  C   UNL     1      52.030  60.769  93.217  1.00  0.00     0.000 C 
ENDROOT
BRANCH   1   2
ATOM      2  C   UNL     1      51.112  61.893  93.734  1.00  0.00     0.000 C 
BRANCH   2   3
ATOM      3  C   UNL     1      49.637  61.496  93.947  1.00  0.00     0.000 C 
BRANCH   3   4
ATOM      4  C   UNL     1      48.772  61.588  92.671  1.00  0.00     0.000 C 
BRANCH   4   5
ATOM      5  C   UNL     1      47.900  62.856  92.634  1.00  0.00     0.000 C 
BRANCH   5   6
ATOM      6  C   UNL     1      48.687  64.136  92.970  1.00  0.00     0.000 C 
BRANCH   6   7
ATOM      7  C   UNL     1      48.236  65.398  92.209  1.00  0.00     0.000 C 
BRANCH   7   8
ATOM      8  C   UNL     1      47.166  66.245  92.924  1.00  0.00     0.000 C 
BRANCH   8   9
ATOM      9  C   UNL     1      47.604  67.700  93.198  1.00  0.00     0.000 C 
BRANCH   9  10
ATOM     10  C   UNL     1      47.804  67.982  94.697  1.00  0.00     0.000 C 
BRANCH  10  11
ATOM     11  C   UNL     1      49.128  67.412  95.234  1.00  0.00     0.000 C 
BRANCH  11  12
ATOM     12  C   UNL     1      50.358  67.981  94.507  1.00  0.00     0.006 C 
BRANCH  12  13
ATOM     13  C   UNL     1      51.602  68.006  95.404  1.00  0.00     0.053 C 
BRANCH  13  14
ATOM     14  C   UNL     1      52.849  67.690  94.634  1.00  0.00     0.041 C 
ATOM     15  O   UNL     1      52.781  67.059  93.547  1.00  0.00    -0.550 OA
ATOM     16  O   UNL     1      54.088  68.066  95.134  1.00  0.00    -0.550 OA
ENDBRANCH  13  14
ENDBRANCH  12  13
ENDBRANCH  11  12
ENDBRANCH  10  11
ENDBRANCH   9  10
ENDBRANCH   8   9
ENDBRANCH   7   8
ENDBRANCH   6   7
ENDBRANCH   5   6
ENDBRANCH   4   5
ENDBRANCH   3   4
ENDBRANCH   2   3
ENDBRANCH   1   2
BRANCH   1  17
ATOM     17  C   UNL     1      52.850  61.122  91.962  1.00  0.00     0.000 C 
BRANCH  17  18
ATOM     18  C   UNL     1      53.280  59.884  91.164  1.00  0.00     0.000 C 
BRANCH  18  19
ATOM     19  C   UNL     1      53.036  58.601  91.968  1.00  0.00     0.000 C 
BRANCH  19  20
ATOM     20  C   UNL     1      52.023  57.689  91.261  1.00  0.00     0.000 C 
BRANCH  20  21
ATOM     21  C   UNL     1      51.090  56.973  92.260  1.00  0.00     0.000 C 
BRANCH  21  22
ATOM     22  C   UNL     1      50.217  57.936  93.082  1.00  0.00    -0.000 C 
BRANCH  22  23
ATOM     23  C   UNL     1      50.465  57.821  94.595  1.00  0.00    -0.000 C 
BRANCH  23  24
ATOM     24  C   UNL     1      51.947  57.589  94.943  1.00  0.00    -0.000 C 
BRANCH  24  25
ATOM     25  C   UNL     1      52.165  56.564  96.077  1.00  0.00    -0.000 C 
BRANCH  25  26
ATOM     26  C   UNL     1      52.526  55.171  95.531  1.00  0.00    -0.000 C 
BRANCH  26  27
ATOM     27  C   UNL     1      53.267  55.231  94.182  1.00  0.00    -0.000 C 
BRANCH  27  28
ATOM     28  C   UNL     1      53.175  53.945  93.339  1.00  0.00    -0.000 C 
BRANCH  28  29
ATOM     29  C   UNL     1      51.910  53.889  92.471  1.00  0.00    -0.003 C 
ATOM     30  C   UNL     1      52.265  53.812  90.989  1.00  0.00     0.004 C 
ENDBRANCH  28  29
ENDBRANCH  27  28
ENDBRANCH  26  27
ENDBRANCH  25  26
ENDBRANCH  24  25
ENDBRANCH  23  24
ENDBRANCH  22  23
ENDBRANCH  21  22
ENDBRANCH  20  21
ENDBRANCH  19  20
ENDBRANCH  18  19
ENDBRANCH  17  18
ENDBRANCH   1  17
TORSDOF 26
ENDMDL
MODEL 2
REMARK VINA RESULT:    -4.929      1.239      2.340
REMARK INTER + INTRA:         -15.030
REMARK INTER:                 -12.462
REMARK INTRA:                  -2.569
REMARK UNBOUND:                -2.608
REMARK SMILES CCCCCCCCCCCCCCCCCCCCCCCCCCCC(=O)[O-]
REMARK SMILES IDX 15 1 16 2 17 3 18 4 19 5 20 6 21 7 22 8 23 9 24 10 25 11
REMARK SMILES IDX 26 12 27 13 28 14 29 15 30 16 14 17 13 18 12 19 11 20 10 21
REMARK SMILES IDX 9 22 8 23 7 24 6 25 5 26 4 27 3 28 2 29 1 30
REMARK H PARENT
REMARK Flexibility Score: inf
ROOT
ATOM      1  C   UNL     1      49.008  60.958  94.581  1.00  0.00     0.000 C 
ENDROOT
BRANCH   1   2
ATOM      2  C   UNL     1      49.646  62.094  93.759  1.00  0.00     0.000 C 
BRANCH   2   3
ATOM      3  C   UNL     1      48.656  62.995  92.994  1.00  0.00     0.000 C 
BRANCH   3   4
ATOM      4  C   UNL     1      48.796  64.498  93.316  1.00  0.00     0.000 C 
BRANCH   4   5
ATOM      5  C   UNL     1      48.200  65.400  92.222  1.00  0.00     0.000 C 
BRANCH   5   6
ATOM      6  C   UNL     1      46.774  65.879  92.548  1.00  0.00     0.000 C 
BRANCH   6   7
ATOM      7  C   UNL     1      46.678  66.909  93.691  1.00  0.00     0.000 C 
BRANCH   7   8
ATOM      8  C   UNL     1      47.863  67.887  93.791  1.00  0.00     0.000 C 
BRANCH   8   9
ATOM      9  C   UNL     1      48.564  67.878  95.167  1.00  0.00     0.000 C 
BRANCH   9  10
ATOM     10  C   UNL     1      50.097  67.848  95.047  1.00  0.00     0.000 C 
BRANCH  10  11
ATOM     11  C   UNL     1      50.574  67.723  93.590  1.00  0.00     0.000 C 
BRANCH  11  12
ATOM     12  C   UNL     1      52.055  67.325  93.483  1.00  0.00     0.006 C 
BRANCH  12  13
ATOM     13  C   UNL     1      52.879  67.823  94.677  1.00  0.00     0.053 C 
BRANCH  13  14
ATOM     14  C   UNL     1      54.348  67.810  94.382  1.00  0.00     0.041 C 
ATOM     15  O   UNL     1      55.185  67.837  95.322  1.00  0.00    -0.550 OA
ATOM     16  O   UNL     1      54.793  67.803  93.067  1.00  0.00    -0.550 OA
ENDBRANCH  13  14
ENDBRANCH  12  13
ENDBRANCH  11  12
ENDBRANCH  10  11
ENDBRANCH   9  10
ENDBRANCH   8   9
ENDBRANCH   7   8
ENDBRANCH   6   7
ENDBRANCH   5   6
ENDBRANCH   4   5
ENDBRANCH   3   4
ENDBRANCH   2   3
ENDBRANCH   1   2
BRANCH   1  17
ATOM     17  C   UNL     1      49.750  59.610  94.518  1.00  0.00     0.000 C 
BRANCH  17  18
ATOM     18  C   UNL     1      50.117  59.200  93.085  1.00  0.00     0.000 C 
BRANCH  18  19
ATOM     19  C   UNL     1      49.899  57.697  92.872  1.00  0.00     0.000 C 
BRANCH  19  20
ATOM     20  C   UNL     1      50.879  57.138  91.830  1.00  0.00     0.000 C 
BRANCH  20  21
ATOM     21  C   UNL     1      52.025  58.125  91.523  1.00  0.00     0.000 C 
BRANCH  21  22
ATOM     22  C   UNL     1      53.317  57.827  92.303  1.00  0.00    -0.000 C 
BRANCH  22  23
ATOM     23  C   UNL     1      53.363  58.528  93.671  1.00  0.00    -0.000 C 
BRANCH  23  24
ATOM     24  C   UNL     1      53.600  57.551  94.836  1.00  0.00    -0.000 C 
BRANCH  24  25
ATOM     25  C   UNL     1      52.334  56.777  95.265  1.00  0.00    -0.000 C 
BRANCH  25  26
ATOM     26  C   UNL     1      52.609  55.272  95.432  1.00  0.00    -0.000 C 
BRANCH  26  27
ATOM     27  C   UNL     1      53.049  54.595  94.120  1.00  0.00    -0.000 C 
BRANCH  27  28
ATOM     28  C   UNL     1      51.972  54.561  93.020  1.00  0.00    -0.000 C 
BRANCH  28  29
ATOM     29  C   UNL     1      52.145  53.383  92.050  1.00  0.00    -0.003 C 
ATOM     30  C   UNL     1      52.332  53.875  90.618  1.00  0.00     0.004 C 
ENDBRANCH  28  29
ENDBRANCH  27  28
ENDBRANCH  26  27
ENDBRANCH  25  26
ENDBRANCH  24  25
ENDBRANCH  23  24
ENDBRANCH  22  23
ENDBRANCH  21  22
ENDBRANCH  20  21
ENDBRANCH  19  20
ENDBRANCH  18  19
ENDBRANCH  17  18
ENDBRANCH   1  17
TORSDOF 26
ENDMDL
MODEL 3
REMARK VINA RESULT:    -4.879      1.957      9.777
REMARK INTER + INTRA:         -14.902
REMARK INTER:                 -12.483
REMARK INTRA:                  -2.419
REMARK UNBOUND:                -2.608
REMARK SMILES CCCCCCCCCCCCCCCCCCCCCCCCCCCC(=O)[O-]
REMARK SMILES IDX 15 1 16 2 17 3 18 4 19 5 20 6 21 7 22 8 23 9 24 10 25 11
REMARK SMILES IDX 26 12 27 13 28 14 29 15 30 16 14 17 13 18 12 19 11 20 10 21
REMARK SMILES IDX 9 22 8 23 7 24 6 25 5 26 4 27 3 28 2 29 1 30
REMARK H PARENT
REMARK Flexibility Score: inf
ROOT
ATOM      1  C   UNL     1      49.587  59.956  94.147  1.00  0.00     0.000 C 
ENDROOT
BRANCH   1   2
ATOM      2  C   UNL     1      49.721  58.893  95.254  1.00  0.00     0.000 C 
BRANCH   2   3
ATOM      3  C   UNL     1      50.381  57.567  94.823  1.00  0.00     0.000 C 
BRANCH   3   4
ATOM      4  C   UNL     1      51.850  57.422  95.274  1.00  0.00     0.000 C 
BRANCH   4   5
ATOM      5  C   UNL     1      52.285  55.954  95.419  1.00  0.00     0.000 C 
BRANCH   5   6
ATOM      6  C   UNL     1      53.235  55.495  94.298  1.00  0.00     0.000 C 
BRANCH   6   7
ATOM      7  C   UNL     1      52.661  54.419  93.356  1.00  0.00     0.000 C 
BRANCH   7   8
ATOM      8  C   UNL     1      51.582  54.916  92.376  1.00  0.00     0.000 C 
BRANCH   8   9
ATOM      9  C   UNL     1      52.123  55.859  91.280  1.00  0.00     0.000 C 
BRANCH   9  10
ATOM     10  C   UNL     1      51.730  57.327  91.519  1.00  0.00     0.000 C 
BRANCH  10  11
ATOM     11  C   UNL     1      52.947  58.266  91.560  1.00  0.00     0.000 C 
BRANCH  11  12
ATOM     12  C   UNL     1      52.918  59.225  92.762  1.00  0.00     0.006 C 
BRANCH  12  13
ATOM     13  C   UNL     1      52.184  60.533  92.442  1.00  0.00     0.053 C 
BRANCH  13  14
ATOM     14  C   UNL     1      53.118  61.705  92.430  1.00  0.00     0.041 C 
ATOM     15  O   UNL     1      53.312  62.374  93.479  1.00  0.00    -0.550 OA
ATOM     16  O   UNL     1      53.750  62.079  91.252  1.00  0.00    -0.550 OA
ENDBRANCH  13  14
ENDBRANCH  12  13
ENDBRANCH  11  12
ENDBRANCH  10  11
ENDBRANCH   9  10
ENDBRANCH   8   9
ENDBRANCH   7   8
ENDBRANCH   6   7
ENDBRANCH   5   6
ENDBRANCH   4   5
ENDBRANCH   3   4
ENDBRANCH   2   3
ENDBRANCH   1   2
BRANCH   1  17
ATOM     17  C   UNL     1      49.170  61.356  94.634  1.00  0.00     0.000 C 
BRANCH  17  18
ATOM     18  C   UNL     1      49.738  62.484  93.761  1.00  0.00     0.000 C 
BRANCH  18  19
ATOM     19  C   UNL     1      48.618  63.216  93.013  1.00  0.00     0.000 C 
BRANCH  19  20
ATOM     20  C   UNL     1      48.793  64.739  93.109  1.00  0.00     0.000 C 
BRANCH  20  21
ATOM     21  C   UNL     1      47.741  65.498  92.272  1.00  0.00     0.000 C 
BRANCH  21  22
ATOM     22  C   UNL     1      47.569  66.967  92.690  1.00  0.00    -0.000 C 
BRANCH  22  23
ATOM     23  C   UNL     1      47.987  67.954  91.588  1.00  0.00    -0.000 C 
BRANCH  23  24
ATOM     24  C   UNL     1      49.043  67.371  90.632  1.00  0.00    -0.000 C 
BRANCH  24  25
ATOM     25  C   UNL     1      50.457  67.956  90.837  1.00  0.00    -0.000 C 
BRANCH  25  26
ATOM     26  C   UNL     1      51.222  67.231  91.958  1.00  0.00    -0.000 C 
BRANCH  26  27
ATOM     27  C   UNL     1      52.391  68.061  92.519  1.00  0.00    -0.000 C 
BRANCH  27  28
ATOM     28  C   UNL     1      52.868  67.637  93.921  1.00  0.00    -0.000 C 
BRANCH  28  29
ATOM     29  C   UNL     1      54.368  67.313  93.970  1.00  0.00    -0.003 C 
ATOM     30  C   UNL     1      55.023  67.929  95.203  1.00  0.00     0.004 C 
ENDBRANCH  28  29
ENDBRANCH  27  28
ENDBRANCH  26  27
ENDBRANCH  25  26
ENDBRANCH  24  25
ENDBRANCH  23  24
ENDBRANCH  22  23
ENDBRANCH  21  22
ENDBRANCH  20  21
ENDBRANCH  19  20
ENDBRANCH  18  19
ENDBRANCH  17  18
ENDBRANCH   1  17
TORSDOF 26
ENDMDL
MODEL 4
REMARK VINA RESULT:    -4.874      2.024      9.806
REMARK INTER + INTRA:         -14.891
REMARK INTER:                 -11.968
REMARK INTRA:                  -2.924
REMARK UNBOUND:                -2.608
REMARK SMILES CCCCCCCCCCCCCCCCCCCCCCCCCCCC(=O)[O-]
REMARK SMILES IDX 15 1 16 2 17 3 18 4 19 5 20 6 21 7 22 8 23 9 24 10 25 11
REMARK SMILES IDX 26 12 27 13 28 14 29 15 30 16 14 17 13 18 12 19 11 20 10 21
REMARK SMILES IDX 9 22 8 23 7 24 6 25 5 26 4 27 3 28 2 29 1 30
REMARK H PARENT
REMARK Flexibility Score: inf
ROOT
ATOM      1  C   UNL     1      49.558  60.735  93.613  1.00  0.00     0.000 C 
ENDROOT
BRANCH   1   2
ATOM      2  C   UNL     1      49.742  59.806  94.827  1.00  0.00     0.000 C 
BRANCH   2   3
ATOM      3  C   UNL     1      49.744  58.296  94.511  1.00  0.00     0.000 C 
BRANCH   3   4
ATOM      4  C   UNL     1      49.898  57.969  93.010  1.00  0.00     0.000 C 
BRANCH   4   5
ATOM      5  C   UNL     1      50.020  56.459  92.740  1.00  0.00     0.000 C 
BRANCH   5   6
ATOM      6  C   UNL     1      51.337  56.079  92.038  1.00  0.00     0.000 C 
BRANCH   6   7
ATOM      7  C   UNL     1      51.917  54.709  92.437  1.00  0.00     0.000 C 
BRANCH   7   8
ATOM      8  C   UNL     1      52.818  54.718  93.687  1.00  0.00     0.000 C 
BRANCH   8   9
ATOM      9  C   UNL     1      52.713  56.012  94.521  1.00  0.00     0.000 C 
BRANCH   9  10
ATOM     10  C   UNL     1      53.844  57.006  94.211  1.00  0.00     0.000 C 
BRANCH  10  11
ATOM     11  C   UNL     1      53.320  58.409  93.862  1.00  0.00     0.000 C 
BRANCH  11  12
ATOM     12  C   UNL     1      53.521  58.766  92.379  1.00  0.00     0.006 C 
BRANCH  12  13
ATOM     13  C   UNL     1      52.512  59.814  91.893  1.00  0.00     0.053 C 
BRANCH  13  14
ATOM     14  C   UNL     1      52.983  61.210  92.169  1.00  0.00     0.041 C 
ATOM     15  O   UNL     1      52.777  61.739  93.292  1.00  0.00    -0.550 OA
ATOM     16  O   UNL     1      53.621  61.937  91.173  1.00  0.00    -0.550 OA
ENDBRANCH  13  14
ENDBRANCH  12  13
ENDBRANCH  11  12
ENDBRANCH  10  11
ENDBRANCH   9  10
ENDBRANCH   8   9
ENDBRANCH   7   8
ENDBRANCH   6   7
ENDBRANCH   5   6
ENDBRANCH   4   5
ENDBRANCH   3   4
ENDBRANCH   2   3
ENDBRANCH   1   2
BRANCH   1  17
ATOM     17  C   UNL     1      49.337  62.220  93.955  1.00  0.00     0.000 C 
BRANCH  17  18
ATOM     18  C   UNL     1      48.609  62.986  92.842  1.00  0.00     0.000 C 
BRANCH  18  19
ATOM     19  C   UNL     1      48.816  64.498  92.990  1.00  0.00     0.000 C 
BRANCH  19  20
ATOM     20  C   UNL     1      47.723  65.281  92.247  1.00  0.00     0.000 C 
BRANCH  20  21
ATOM     21  C   UNL     1      47.952  66.806  92.317  1.00  0.00     0.000 C 
BRANCH  21  22
ATOM     22  C   UNL     1      47.883  67.500  90.947  1.00  0.00    -0.000 C 
BRANCH  22  23
ATOM     23  C   UNL     1      49.238  68.077  90.503  1.00  0.00    -0.000 C 
BRANCH  23  24
ATOM     24  C   UNL     1      50.421  67.153  90.838  1.00  0.00    -0.000 C 
BRANCH  24  25
ATOM     25  C   UNL     1      51.498  67.818  91.722  1.00  0.00    -0.000 C 
BRANCH  25  26
ATOM     26  C   UNL     1      51.771  67.009  93.003  1.00  0.00    -0.000 C 
BRANCH  26  27
ATOM     27  C   UNL     1      52.248  67.886  94.175  1.00  0.00    -0.000 C 
BRANCH  27  28
ATOM     28  C   UNL     1      51.259  67.980  95.353  1.00  0.00    -0.000 C 
BRANCH  28  29
ATOM     29  C   UNL     1      49.791  67.975  94.902  1.00  0.00    -0.003 C 
ATOM     30  C   UNL     1      48.945  67.079  95.802  1.00  0.00     0.004 C 
ENDBRANCH  28  29
ENDBRANCH  27  28
ENDBRANCH  26  27
ENDBRANCH  25  26
ENDBRANCH  24  25
ENDBRANCH  23  24
ENDBRANCH  22  23
ENDBRANCH  21  22
ENDBRANCH  20  21
ENDBRANCH  19  20
ENDBRANCH  18  19
ENDBRANCH  17  18
ENDBRANCH   1  17
TORSDOF 26
ENDMDL
MODEL 5
REMARK VINA RESULT:    -4.837      2.701      4.471
REMARK INTER + INTRA:         -14.796
REMARK INTER:                 -11.398
REMARK INTRA:                  -3.398
REMARK UNBOUND:                -2.608
REMARK SMILES CCCCCCCCCCCCCCCCCCCCCCCCCCCC(=O)[O-]
REMARK SMILES IDX 15 1 16 2 17 3 18 4 19 5 20 6 21 7 22 8 23 9 24 10 25 11
REMARK SMILES IDX 26 12 27 13 28 14 29 15 30 16 14 17 13 18 12 19 11 20 10 21
REMARK SMILES IDX 9 22 8 23 7 24 6 25 5 26 4 27 3 28 2 29 1 30
REMARK H PARENT
REMARK Flexibility Score: inf
ROOT
ATOM      1  C   UNL     1      50.097  59.293  95.084  1.00  0.00     0.000 C 
ENDROOT
BRANCH   1   2
ATOM      2  C   UNL     1      49.281  60.594  95.196  1.00  0.00     0.000 C 
BRANCH   2   3
ATOM      3  C   UNL     1      49.647  61.695  94.179  1.00  0.00     0.000 C 
BRANCH   3   4
ATOM      4  C   UNL     1      48.752  61.710  92.921  1.00  0.00     0.000 C 
BRANCH   4   5
ATOM      5  C   UNL     1      48.179  63.105  92.616  1.00  0.00     0.000 C 
BRANCH   5   6
ATOM      6  C   UNL     1      48.995  64.244  93.255  1.00  0.00     0.000 C 
BRANCH   6   7
ATOM      7  C   UNL     1      49.410  65.371  92.290  1.00  0.00     0.000 C 
BRANCH   7   8
ATOM      8  C   UNL     1      50.168  66.544  92.940  1.00  0.00     0.000 C 
BRANCH   8   9
ATOM      9  C   UNL     1      49.444  67.153  94.160  1.00  0.00     0.000 C 
BRANCH   9  10
ATOM     10  C   UNL     1      48.193  67.954  93.763  1.00  0.00     0.000 C 
BRANCH  10  11
ATOM     11  C   UNL     1      46.994  67.675  94.685  1.00  0.00     0.000 C 
BRANCH  11  12
ATOM     12  C   UNL     1      45.841  66.961  93.960  1.00  0.00     0.006 C 
BRANCH  12  13
ATOM     13  C   UNL     1      46.276  66.377  92.611  1.00  0.00     0.053 C 
BRANCH  13  14
ATOM     14  C   UNL     1      45.160  65.633  91.941  1.00  0.00     0.041 C 
ATOM     15  O   UNL     1      44.483  66.184  91.035  1.00  0.00    -0.550 OA
ATOM     16  O   UNL     1      44.847  64.342  92.343  1.00  0.00    -0.550 OA
ENDBRANCH  13  14
ENDBRANCH  12  13
ENDBRANCH  11  12
ENDBRANCH  10  11
ENDBRANCH   9  10
ENDBRANCH   8   9
ENDBRANCH   7   8
ENDBRANCH   6   7
ENDBRANCH   5   6
ENDBRANCH   4   5
ENDBRANCH   3   4
ENDBRANCH   2   3
ENDBRANCH   1   2
BRANCH   1  17
ATOM     17  C   UNL     1      49.457  58.194  94.216  1.00  0.00     0.000 C 
BRANCH  17  18
ATOM     18  C   UNL     1      50.077  58.106  92.814  1.00  0.00     0.000 C 
BRANCH  18  19
ATOM     19  C   UNL     1      50.275  56.645  92.392  1.00  0.00     0.000 C 
BRANCH  19  20
ATOM     20  C   UNL     1      51.396  56.518  91.350  1.00  0.00     0.000 C 
BRANCH  20  21
ATOM     21  C   UNL     1      52.062  55.126  91.381  1.00  0.00     0.000 C 
BRANCH  21  22
ATOM     22  C   UNL     1      51.902  54.400  92.727  1.00  0.00    -0.000 C 
BRANCH  22  23
ATOM     23  C   UNL     1      53.069  54.668  93.692  1.00  0.00    -0.000 C 
BRANCH  23  24
ATOM     24  C   UNL     1      52.615  55.301  95.019  1.00  0.00    -0.000 C 
BRANCH  24  25
ATOM     25  C   UNL     1      52.668  56.844  95.021  1.00  0.00    -0.000 C 
BRANCH  25  26
ATOM     26  C   UNL     1      53.736  57.384  94.053  1.00  0.00    -0.000 C 
BRANCH  26  27
ATOM     27  C   UNL     1      53.371  58.760  93.466  1.00  0.00    -0.000 C 
BRANCH  27  28
ATOM     28  C   UNL     1      53.492  58.858  91.933  1.00  0.00    -0.000 C 
BRANCH  28  29
ATOM     29  C   UNL     1      53.281  60.286  91.408  1.00  0.00    -0.003 C 
ATOM     30  C   UNL     1      52.516  61.134  92.420  1.00  0.00     0.004 C 
ENDBRANCH  28  29
ENDBRANCH  27  28
ENDBRANCH  26  27
ENDBRANCH  25  26
ENDBRANCH  24  25
ENDBRANCH  23  24
ENDBRANCH  22  23
ENDBRANCH  21  22
ENDBRANCH  20  21
ENDBRANCH  19  20
ENDBRANCH  18  19
ENDBRANCH  17  18
ENDBRANCH   1  17
TORSDOF 26
ENDMDL
MODEL 6
REMARK VINA RESULT:    -4.784      3.838     10.579
REMARK INTER + INTRA:         -14.663
REMARK INTER:                 -12.137
REMARK INTRA:                  -2.526
REMARK UNBOUND:                -2.608
REMARK SMILES CCCCCCCCCCCCCCCCCCCCCCCCCCCC(=O)[O-]
REMARK SMILES IDX 15 1 16 2 17 3 18 4 19 5 20 6 21 7 22 8 23 9 24 10 25 11
REMARK SMILES IDX 26 12 27 13 28 14 29 15 30 16 14 17 13 18 12 19 11 20 10 21
REMARK SMILES IDX 9 22 8 23 7 24 6 25 5 26 4 27 3 28 2 29 1 30
REMARK H PARENT
REMARK Flexibility Score: inf
ROOT
ATOM      1  C   UNL     1      48.821  60.830  94.779  1.00  0.00     0.000 C 
ENDROOT
BRANCH   1   2
ATOM      2  C   UNL     1      49.860  59.779  95.214  1.00  0.00     0.000 C 
BRANCH   2   3
ATOM      3  C   UNL     1      49.782  58.426  94.477  1.00  0.00     0.000 C 
BRANCH   3   4
ATOM      4  C   UNL     1      49.937  58.537  92.945  1.00  0.00     0.000 C 
BRANCH   4   5
ATOM      5  C   UNL     1      50.497  57.252  92.309  1.00  0.00     0.000 C 
BRANCH   5   6
ATOM      6  C   UNL     1      51.892  57.449  91.686  1.00  0.00     0.000 C 
BRANCH   6   7
ATOM      7  C   UNL     1      52.565  58.797  92.007  1.00  0.00     0.000 C 
BRANCH   7   8
ATOM      8  C   UNL     1      53.180  58.902  93.416  1.00  0.00     0.000 C 
BRANCH   8   9
ATOM      9  C   UNL     1      53.665  57.551  93.985  1.00  0.00     0.000 C 
BRANCH   9  10
ATOM     10  C   UNL     1      52.821  57.081  95.182  1.00  0.00     0.000 C 
BRANCH  10  11
ATOM     11  C   UNL     1      52.849  55.554  95.362  1.00  0.00     0.000 C 
BRANCH  11  12
ATOM     12  C   UNL     1      52.018  54.815  94.299  1.00  0.00     0.006 C 
BRANCH  12  13
ATOM     13  C   UNL     1      52.886  54.275  93.156  1.00  0.00     0.053 C 
BRANCH  13  14
ATOM     14  C   UNL     1      52.053  53.745  92.028  1.00  0.00     0.041 C 
ATOM     15  O   UNL     1      51.047  53.027  92.265  1.00  0.00    -0.550 OA
ATOM     16  O   UNL     1      52.408  54.018  90.714  1.00  0.00    -0.550 OA
ENDBRANCH  13  14
ENDBRANCH  12  13
ENDBRANCH  11  12
ENDBRANCH  10  11
ENDBRANCH   9  10
ENDBRANCH   8   9
ENDBRANCH   7   8
ENDBRANCH   6   7
ENDBRANCH   5   6
ENDBRANCH   4   5
ENDBRANCH   3   4
ENDBRANCH   2   3
ENDBRANCH   1   2
BRANCH   1  17
ATOM     17  C   UNL     1      49.351  61.912  93.820  1.00  0.00     0.000 C 
BRANCH  17  18
ATOM     18  C   UNL     1      48.513  62.034  92.539  1.00  0.00     0.000 C 
BRANCH  18  19
ATOM     19  C   UNL     1      47.597  63.263  92.598  1.00  0.00     0.000 C 
BRANCH  19  20
ATOM     20  C   UNL     1      48.416  64.563  92.605  1.00  0.00     0.000 C 
BRANCH  20  21
ATOM     21  C   UNL     1      47.563  65.783  93.009  1.00  0.00     0.000 C 
BRANCH  21  22
ATOM     22  C   UNL     1      47.947  67.074  92.267  1.00  0.00    -0.000 C 
BRANCH  22  23
ATOM     23  C   UNL     1      48.084  66.869  90.749  1.00  0.00    -0.000 C 
BRANCH  23  24
ATOM     24  C   UNL     1      49.275  67.636  90.147  1.00  0.00    -0.000 C 
BRANCH  24  25
ATOM     25  C   UNL     1      50.650  67.140  90.645  1.00  0.00    -0.000 C 
BRANCH  25  26
ATOM     26  C   UNL     1      51.146  67.948  91.858  1.00  0.00    -0.000 C 
BRANCH  26  27
ATOM     27  C   UNL     1      51.458  67.063  93.079  1.00  0.00    -0.000 C 
BRANCH  27  28
ATOM     28  C   UNL     1      51.515  67.816  94.422  1.00  0.00    -0.000 C 
BRANCH  28  29
ATOM     29  C   UNL     1      52.947  67.988  94.950  1.00  0.00    -0.003 C 
ATOM     30  C   UNL     1      53.948  67.243  94.072  1.00  0.00     0.004 C 
ENDBRANCH  28  29
ENDBRANCH  27  28
ENDBRANCH  26  27
ENDBRANCH  25  26
ENDBRANCH  24  25
ENDBRANCH  23  24
ENDBRANCH  22  23
ENDBRANCH  21  22
ENDBRANCH  20  21
ENDBRANCH  19  20
ENDBRANCH  18  19
ENDBRANCH  17  18
ENDBRANCH   1  17
TORSDOF 26
ENDMDL
MODEL 7
REMARK VINA RESULT:    -4.697      1.450      3.377
REMARK INTER + INTRA:         -14.444
REMARK INTER:                 -10.977
REMARK INTRA:                  -3.467
REMARK UNBOUND:                -2.608
REMARK SMILES CCCCCCCCCCCCCCCCCCCCCCCCCCCC(=O)[O-]
REMARK SMILES IDX 15 1 16 2 17 3 18 4 19 5 20 6 21 7 22 8 23 9 24 10 25 11
REMARK SMILES IDX 26 12 27 13 28 14 29 15 30 16 14 17 13 18 12 19 11 20 10 21
REMARK SMILES IDX 9 22 8 23 7 24 6 25 5 26 4 27 3 28 2 29 1 30
REMARK H PARENT
REMARK Flexibility Score: inf
ROOT
ATOM      1  C   UNL     1      50.274  59.203  94.817  1.00  0.00     0.000 C 
ENDROOT
BRANCH   1   2
ATOM      2  C   UNL     1      49.214  60.273  95.138  1.00  0.00     0.000 C 
BRANCH   2   3
ATOM      3  C   UNL     1      49.308  61.570  94.309  1.00  0.00     0.000 C 
BRANCH   3   4
ATOM      4  C   UNL     1      49.113  61.359  92.791  1.00  0.00     0.000 C 
BRANCH   4   5
ATOM      5  C   UNL     1      47.915  62.147  92.232  1.00  0.00     0.000 C 
BRANCH   5   6
ATOM      6  C   UNL     1      47.729  63.519  92.906  1.00  0.00     0.000 C 
BRANCH   6   7
ATOM      7  C   UNL     1      48.477  64.684  92.230  1.00  0.00     0.000 C 
BRANCH   7   8
ATOM      8  C   UNL     1      47.798  66.060  92.361  1.00  0.00     0.000 C 
BRANCH   8   9
ATOM      9  C   UNL     1      47.778  66.872  91.048  1.00  0.00     0.000 C 
BRANCH   9  10
ATOM     10  C   UNL     1      48.886  67.937  90.997  1.00  0.00     0.000 C 
BRANCH  10  11
ATOM     11  C   UNL     1      50.262  67.344  90.650  1.00  0.00     0.000 C 
BRANCH  11  12
ATOM     12  C   UNL     1      51.385  67.879  91.555  1.00  0.00     0.006 C 
BRANCH  12  13
ATOM     13  C   UNL     1      51.010  67.821  93.041  1.00  0.00     0.053 C 
BRANCH  13  14
ATOM     14  C   UNL     1      52.224  67.747  93.918  1.00  0.00     0.041 C 
ATOM     15  O   UNL     1      53.369  67.627  93.409  1.00  0.00    -0.550 OA
ATOM     16  O   UNL     1      52.086  67.780  95.299  1.00  0.00    -0.550 OA
ENDBRANCH  13  14
ENDBRANCH  12  13
ENDBRANCH  11  12
ENDBRANCH  10  11
ENDBRANCH   9  10
ENDBRANCH   8   9
ENDBRANCH   7   8
ENDBRANCH   6   7
ENDBRANCH   5   6
ENDBRANCH   4   5
ENDBRANCH   3   4
ENDBRANCH   2   3
ENDBRANCH   1   2
BRANCH   1  17
ATOM     17  C   UNL     1      49.731  57.927  94.146  1.00  0.00     0.000 C 
BRANCH  17  18
ATOM     18  C   UNL     1      50.114  57.825  92.663  1.00  0.00     0.000 C 
BRANCH  18  19
ATOM     19  C   UNL     1      50.427  56.374  92.276  1.00  0.00     0.000 C 
BRANCH  19  20
ATOM     20  C   UNL     1      51.581  56.309  91.264  1.00  0.00     0.000 C 
BRANCH  20  21
ATOM     21  C   UNL     1      52.310  54.949  91.303  1.00  0.00     0.000 C 
BRANCH  21  22
ATOM     22  C   UNL     1      52.086  54.171  92.610  1.00  0.00    -0.000 C 
BRANCH  22  23
ATOM     23  C   UNL     1      53.199  54.410  93.644  1.00  0.00    -0.000 C 
BRANCH  23  24
ATOM     24  C   UNL     1      52.663  54.935  94.988  1.00  0.00    -0.000 C 
BRANCH  24  25
ATOM     25  C   UNL     1      52.741  56.471  95.130  1.00  0.00    -0.000 C 
BRANCH  25  26
ATOM     26  C   UNL     1      53.633  57.104  94.047  1.00  0.00    -0.000 C 
BRANCH  26  27
ATOM     27  C   UNL     1      53.461  58.631  93.946  1.00  0.00    -0.000 C 
BRANCH  27  28
ATOM     28  C   UNL     1      53.273  59.164  92.513  1.00  0.00    -0.000 C 
BRANCH  28  29
ATOM     29  C   UNL     1      52.668  60.576  92.476  1.00  0.00    -0.003 C 
ATOM     30  C   UNL     1      53.172  61.356  91.266  1.00  0.00     0.004 C 
ENDBRANCH  28  29
ENDBRANCH  27  28
ENDBRANCH  26  27
ENDBRANCH  25  26
ENDBRANCH  24  25
ENDBRANCH  23  24
ENDBRANCH  22  23
ENDBRANCH  21  22
ENDBRANCH  20  21
ENDBRANCH  19  20
ENDBRANCH  18  19
ENDBRANCH  17  18
ENDBRANCH   1  17
TORSDOF 26
ENDMDL
MODEL 8
REMARK VINA RESULT:    -4.647      2.508      5.049
REMARK INTER + INTRA:         -14.320
REMARK INTER:                 -10.931
REMARK INTRA:                  -3.389
REMARK UNBOUND:                -2.608
REMARK SMILES CCCCCCCCCCCCCCCCCCCCCCCCCCCC(=O)[O-]
REMARK SMILES IDX 15 1 16 2 17 3 18 4 19 5 20 6 21 7 22 8 23 9 24 10 25 11
REMARK SMILES IDX 26 12 27 13 28 14 29 15 30 16 14 17 13 18 12 19 11 20 10 21
REMARK SMILES IDX 9 22 8 23 7 24 6 25 5 26 4 27 3 28 2 29 1 30
REMARK H PARENT
REMARK Flexibility Score: inf
ROOT
ATOM      1  C   UNL     1      50.508  57.863  94.765  1.00  0.00     0.000 C 
ENDROOT
BRANCH   1   2
ATOM      2  C   UNL     1      49.508  58.938  95.231  1.00  0.00     0.000 C 
BRANCH   2   3
ATOM      3  C   UNL     1      49.757  60.357  94.680  1.00  0.00     0.000 C 
BRANCH   3   4
ATOM      4  C   UNL     1      49.513  60.492  93.161  1.00  0.00     0.000 C 
BRANCH   4   5
ATOM      5  C   UNL     1      48.734  61.767  92.795  1.00  0.00     0.000 C 
BRANCH   5   6
ATOM      6  C   UNL     1      49.283  63.027  93.488  1.00  0.00     0.000 C 
BRANCH   6   7
ATOM      7  C   UNL     1      48.631  64.351  93.046  1.00  0.00     0.000 C 
BRANCH   7   8
ATOM      8  C   UNL     1      49.519  65.601  93.200  1.00  0.00     0.000 C 
BRANCH   8   9
ATOM      9  C   UNL     1      48.962  66.641  94.195  1.00  0.00     0.000 C 
BRANCH   9  10
ATOM     10  C   UNL     1      48.627  67.982  93.519  1.00  0.00     0.000 C 
BRANCH  10  11
ATOM     11  C   UNL     1      48.830  67.943  91.995  1.00  0.00     0.000 C 
BRANCH  11  12
ATOM     12  C   UNL     1      47.504  67.972  91.218  1.00  0.00     0.006 C 
BRANCH  12  13
ATOM     13  C   UNL     1      46.973  66.563  90.923  1.00  0.00     0.053 C 
BRANCH  13  14
ATOM     14  C   UNL     1      45.717  66.272  91.687  1.00  0.00     0.041 C 
ATOM     15  O   UNL     1      45.739  66.203  92.943  1.00  0.00    -0.550 OA
ATOM     16  O   UNL     1      44.528  66.043  91.007  1.00  0.00    -0.550 OA
ENDBRANCH  13  14
ENDBRANCH  12  13
ENDBRANCH  11  12
ENDBRANCH  10  11
ENDBRANCH   9  10
ENDBRANCH   8   9
ENDBRANCH   7   8
ENDBRANCH   6   7
ENDBRANCH   5   6
ENDBRANCH   4   5
ENDBRANCH   3   4
ENDBRANCH   2   3
ENDBRANCH   1   2
BRANCH   1  17
ATOM     17  C   UNL     1      51.374  57.249  95.881  1.00  0.00     0.000 C 
BRANCH  17  18
ATOM     18  C   UNL     1      52.726  56.733  95.369  1.00  0.00     0.000 C 
BRANCH  18  19
ATOM     19  C   UNL     1      52.739  55.201  95.302  1.00  0.00     0.000 C 
BRANCH  19  20
ATOM     20  C   UNL     1      53.578  54.707  94.115  1.00  0.00     0.000 C 
BRANCH  20  21
ATOM     21  C   UNL     1      52.765  53.800  93.167  1.00  0.00     0.000 C 
BRANCH  21  22
ATOM     22  C   UNL     1      51.714  54.561  92.341  1.00  0.00    -0.000 C 
BRANCH  22  23
ATOM     23  C   UNL     1      52.159  54.802  90.889  1.00  0.00    -0.000 C 
BRANCH  23  24
ATOM     24  C   UNL     1      51.735  56.182  90.355  1.00  0.00    -0.000 C 
BRANCH  24  25
ATOM     25  C   UNL     1      51.588  57.255  91.456  1.00  0.00    -0.000 C 
BRANCH  25  26
ATOM     26  C   UNL     1      52.954  57.770  91.943  1.00  0.00    -0.000 C 
BRANCH  26  27
ATOM     27  C   UNL     1      52.902  59.226  92.442  1.00  0.00    -0.000 C 
BRANCH  27  28
ATOM     28  C   UNL     1      53.315  60.280  91.398  1.00  0.00    -0.000 C 
BRANCH  28  29
ATOM     29  C   UNL     1      52.787  61.684  91.727  1.00  0.00    -0.003 C 
ATOM     30  C   UNL     1      52.852  61.957  93.226  1.00  0.00     0.004 C 
ENDBRANCH  28  29
ENDBRANCH  27  28
ENDBRANCH  26  27
ENDBRANCH  25  26
ENDBRANCH  24  25
ENDBRANCH  23  24
ENDBRANCH  22  23
ENDBRANCH  21  22
ENDBRANCH  20  21
ENDBRANCH  19  20
ENDBRANCH  18  19
ENDBRANCH  17  18
ENDBRANCH   1  17
TORSDOF 26
ENDMDL
MODEL 9
REMARK VINA RESULT:    -4.414      5.840     13.336
REMARK INTER + INTRA:         -13.730
REMARK INTER:                 -12.242
REMARK INTRA:                  -1.489
REMARK UNBOUND:                -2.608
REMARK SMILES CCCCCCCCCCCCCCCCCCCCCCCCCCCC(=O)[O-]
REMARK SMILES IDX 15 1 16 2 17 3 18 4 19 5 20 6 21 7 22 8 23 9 24 10 25 11
REMARK SMILES IDX 26 12 27 13 28 14 29 15 30 16 14 17 13 18 12 19 11 20 10 21
REMARK SMILES IDX 9 22 8 23 7 24 6 25 5 26 4 27 3 28 2 29 1 30
REMARK H PARENT
REMARK Flexibility Score: inf
ROOT
ATOM      1  C   UNL     1      51.651  56.423  92.430  1.00  0.00     0.000 C 
ENDROOT
BRANCH   1   2
ATOM      2  C   UNL     1      51.987  55.797  91.063  1.00  0.00     0.000 C 
BRANCH   2   3
ATOM      3  C   UNL     1      52.333  54.294  91.090  1.00  0.00     0.000 C 
BRANCH   3   4
ATOM      4  C   UNL     1      51.997  53.596  92.425  1.00  0.00     0.000 C 
BRANCH   4   5
ATOM      5  C   UNL     1      51.146  52.329  92.236  1.00  0.00     0.000 C 
BRANCH   5   6
ATOM      6  C   UNL     1      51.975  51.033  92.296  1.00  0.00     0.000 C 
BRANCH   6   7
ATOM      7  C   UNL     1      51.177  49.763  92.646  1.00  0.00     0.000 C 
BRANCH   7   8
ATOM      8  C   UNL     1      51.875  48.434  92.297  1.00  0.00     0.000 C 
BRANCH   8   9
ATOM      9  C   UNL     1      53.150  48.165  93.124  1.00  0.00     0.000 C 
BRANCH   9  10
ATOM     10  C   UNL     1      52.886  48.196  94.639  1.00  0.00     0.000 C 
BRANCH  10  11
ATOM     11  C   UNL     1      54.183  48.243  95.465  1.00  0.00     0.000 C 
BRANCH  11  12
ATOM     12  C   UNL     1      55.444  48.315  94.587  1.00  0.00     0.006 C 
BRANCH  12  13
ATOM     13  C   UNL     1      56.228  49.615  94.803  1.00  0.00     0.053 C 
BRANCH  13  14
ATOM     14  C   UNL     1      57.449  49.394  95.643  1.00  0.00     0.041 C 
ATOM     15  O   UNL     1      57.337  49.064  96.853  1.00  0.00    -0.550 OA
ATOM     16  O   UNL     1      58.712  49.585  95.098  1.00  0.00    -0.550 OA
ENDBRANCH  13  14
ENDBRANCH  12  13
ENDBRANCH  11  12
ENDBRANCH  10  11
ENDBRANCH   9  10
ENDBRANCH   8   9
ENDBRANCH   7   8
ENDBRANCH   6   7
ENDBRANCH   5   6
ENDBRANCH   4   5
ENDBRANCH   3   4
ENDBRANCH   2   3
ENDBRANCH   1   2
BRANCH   1  17
ATOM     17  C   UNL     1      52.590  57.558  92.877  1.00  0.00     0.000 C 
BRANCH  17  18
ATOM     18  C   UNL     1      51.833  58.783  93.408  1.00  0.00     0.000 C 
BRANCH  18  19
ATOM     19  C   UNL     1      50.322  58.523  93.438  1.00  0.00     0.000 C 
BRANCH  19  20
ATOM     20  C   UNL     1      49.721  58.905  94.799  1.00  0.00     0.000 C 
BRANCH  20  21
ATOM     21  C   UNL     1      49.513  60.428  94.935  1.00  0.00     0.000 C 
BRANCH  21  22
ATOM     22  C   UNL     1      49.106  61.111  93.619  1.00  0.00    -0.000 C 
BRANCH  22  23
ATOM     23  C   UNL     1      49.581  62.571  93.534  1.00  0.00    -0.000 C 
BRANCH  23  24
ATOM     24  C   UNL     1      48.513  63.514  92.951  1.00  0.00    -0.000 C 
BRANCH  24  25
ATOM     25  C   UNL     1      48.929  65.002  92.956  1.00  0.00    -0.000 C 
BRANCH  25  26
ATOM     26  C   UNL     1      47.811  65.912  92.418  1.00  0.00    -0.000 C 
BRANCH  26  27
ATOM     27  C   UNL     1      48.073  66.395  90.979  1.00  0.00    -0.000 C 
BRANCH  27  28
ATOM     28  C   UNL     1      48.852  67.720  90.876  1.00  0.00    -0.000 C 
BRANCH  28  29
ATOM     29  C   UNL     1      50.345  67.513  90.581  1.00  0.00    -0.003 C 
ATOM     30  C   UNL     1      51.183  67.696  91.842  1.00  0.00     0.004 C 
ENDBRANCH  28  29
ENDBRANCH  27  28
ENDBRANCH  26  27
ENDBRANCH  25  26
ENDBRANCH  24  25
ENDBRANCH  23  24
ENDBRANCH  22  23
ENDBRANCH  21  22
ENDBRANCH  20  21
ENDBRANCH  19  20
ENDBRANCH  18  19
ENDBRANCH  17  18
ENDBRANCH   1  17
TORSDOF 26
ENDMDL
