MODEL 1
REMARK VINA RESULT:     9.566      0.000      0.000
REMARK INTER + INTRA:          17.408
REMARK INTER:                  18.514
REMARK INTRA:                  -1.106
REMARK UNBOUND:                -1.106
REMARK SMILES CCCCCCCCCCCCCCCCCC(=O)[O-]
REMARK SMILES IDX 10 1 11 2 12 3 13 4 14 5 15 6 16 7 17 8 18 9 19 10 20 11
REMARK SMILES IDX 9 12 8 13 7 14 6 15 5 16 4 17 3 18 2 19 1 20
REMARK H PARENT
REMARK Flexibility Score: inf
ROOT
ATOM      1  C   UNL     1      -8.975  30.219 -15.291  1.00  0.00     0.000 C 
ENDROOT
BRANCH   1   2
ATOM      2  C   UNL     1      -9.211  31.011 -16.591  1.00  0.00     0.000 C 
BRANCH   2   3
ATOM      3  C   UNL     1      -9.281  32.542 -16.420  1.00  0.00     0.000 C 
BRANCH   3   4
ATOM      4  C   UNL     1      -8.888  33.065 -15.025  1.00  0.00     0.000 C 
BRANCH   4   5
ATOM      5  C   UNL     1      -7.454  33.619 -14.975  1.00  0.00     0.000 C 
BRANCH   5   6
ATOM      6  C   UNL     1      -7.049  34.350 -16.268  1.00  0.00     0.000 C 
BRANCH   6   7
ATOM      7  C   UNL     1      -5.768  35.202 -16.169  1.00  0.00     0.006 C 
BRANCH   7   8
ATOM      8  C   UNL     1      -5.804  36.507 -16.977  1.00  0.00     0.053 C 
BRANCH   8   9
ATOM      9  C   UNL     1      -5.553  36.270 -18.434  1.00  0.00     0.041 C 
ATOM     10  O   UNL     1      -4.875  35.276 -18.807  1.00  0.00    -0.550 OA
ATOM     11  O   UNL     1      -6.099  37.124 -19.382  1.00  0.00    -0.550 OA
ENDBRANCH   8   9
ENDBRANCH   7   8
ENDBRANCH   6   7
ENDBRANCH   5   6
ENDBRANCH   4   5
ENDBRANCH   3   4
ENDBRANCH   2   3
ENDBRANCH   1   2
BRANCH   1  12
ATOM     12  C   UNL     1      -7.912  29.106 -15.388  1.00  0.00     0.000 C 
BRANCH  12  13
ATOM     13  C   UNL     1      -7.699  28.531 -16.801  1.00  0.00    -0.000 C 
BRANCH  13  14
ATOM     14  C   UNL     1      -6.214  28.460 -17.196  1.00  0.00    -0.000 C 
BRANCH  14  15
ATOM     15  C   UNL     1      -6.003  27.849 -18.592  1.00  0.00    -0.000 C 
BRANCH  15  16
ATOM     16  C   UNL     1      -5.942  28.912 -19.700  1.00  0.00    -0.000 C 
BRANCH  16  17
ATOM     17  C   UNL     1      -7.145  28.849 -20.655  1.00  0.00    -0.000 C 
BRANCH  17  18
ATOM     18  C   UNL     1      -6.784  28.366 -22.075  1.00  0.00    -0.000 C 
BRANCH  18  19
ATOM     19  C   UNL     1      -5.266  28.256 -22.283  1.00  0.00    -0.003 C 
ATOM     20  C   UNL     1      -4.879  26.870 -22.791  1.00  0.00     0.004 C 
ENDBRANCH  18  19
ENDBRANCH  17  18
ENDBRANCH  16  17
ENDBRANCH  15  16
ENDBRANCH  14  15
ENDBRANCH  13  14
ENDBRANCH  12  13
ENDBRANCH   1  12
TORSDOF 16
ENDMDL
MODEL 2
REMARK VINA RESULT:    10.245      3.166      7.416
REMARK INTER + INTRA:          18.722
REMARK INTER:                  18.979
REMARK INTRA:                  -0.257
REMARK UNBOUND:                -1.106
REMARK SMILES CCCCCCCCCCCCCCCCCC(=O)[O-]
REMARK SMILES IDX 10 1 11 2 12 3 13 4 14 5 15 6 16 7 17 8 18 9 19 10 20 11
REMARK SMILES IDX 9 12 8 13 7 14 6 15 5 16 4 17 3 18 2 19 1 20
REMARK H PARENT
REMARK Flexibility Score: inf
ROOT
ATOM      1  C   UNL     1      -9.156  30.392 -15.380  1.00  0.00     0.000 C 
ENDROOT
BRANCH   1   2
ATOM      2  C   UNL     1      -8.067  29.353 -15.708  1.00  0.00     0.000 C 
BRANCH   2   3
ATOM      3  C   UNL     1      -7.847  29.089 -17.212  1.00  0.00     0.000 C 
BRANCH   3   4
ATOM      4  C   UNL     1      -6.616  28.229 -17.553  1.00  0.00     0.000 C 
BRANCH   4   5
ATOM      5  C   UNL     1      -6.016  28.560 -18.930  1.00  0.00     0.000 C 
BRANCH   5   6
ATOM      6  C   UNL     1      -7.088  28.786 -20.011  1.00  0.00     0.000 C 
BRANCH   6   7
ATOM      7  C   UNL     1      -6.638  29.634 -21.218  1.00  0.00     0.006 C 
BRANCH   7   8
ATOM      8  C   UNL     1      -5.534  28.994 -22.072  1.00  0.00     0.053 C 
BRANCH   8   9
ATOM      9  C   UNL     1      -5.876  27.592 -22.470  1.00  0.00     0.041 C 
ATOM     10  O   UNL     1      -7.039  27.147 -22.286  1.00  0.00    -0.550 OA
ATOM     11  O   UNL     1      -4.921  26.790 -23.080  1.00  0.00    -0.550 OA
ENDBRANCH   8   9
ENDBRANCH   7   8
ENDBRANCH   6   7
ENDBRANCH   5   6
ENDBRANCH   4   5
ENDBRANCH   3   4
ENDBRANCH   2   3
ENDBRANCH   1   2
BRANCH   1  12
ATOM     12  C   UNL     1      -9.026  31.733 -16.132  1.00  0.00     0.000 C 
BRANCH  12  13
ATOM     13  C   UNL     1      -9.112  32.988 -15.244  1.00  0.00    -0.000 C 
BRANCH  13  14
ATOM     14  C   UNL     1      -7.741  33.646 -15.009  1.00  0.00    -0.000 C 
BRANCH  14  15
ATOM     15  C   UNL     1      -7.236  34.414 -16.242  1.00  0.00    -0.000 C 
BRANCH  15  16
ATOM     16  C   UNL     1      -5.859  35.059 -16.014  1.00  0.00    -0.000 C 
BRANCH  16  17
ATOM     17  C   UNL     1      -5.656  36.341 -16.838  1.00  0.00    -0.000 C 
BRANCH  17  18
ATOM     18  C   UNL     1      -5.232  36.078 -18.298  1.00  0.00    -0.000 C 
BRANCH  18  19
ATOM     19  C   UNL     1      -6.339  36.439 -19.299  1.00  0.00    -0.003 C 
ATOM     20  C   UNL     1      -5.998  37.718 -20.059  1.00  0.00     0.004 C 
ENDBRANCH  18  19
ENDBRANCH  17  18
ENDBRANCH  16  17
ENDBRANCH  15  16
ENDBRANCH  14  15
ENDBRANCH  13  14
ENDBRANCH  12  13
ENDBRANCH   1  12
TORSDOF 16
ENDMDL
MODEL 3
REMARK VINA RESULT:    10.310      3.332      7.543
REMARK INTER + INTRA:          18.847
REMARK INTER:                  19.824
REMARK INTRA:                  -0.977
REMARK UNBOUND:                -1.106
REMARK SMILES CCCCCCCCCCCCCCCCCC(=O)[O-]
REMARK SMILES IDX 10 1 11 2 12 3 13 4 14 5 15 6 16 7 17 8 18 9 19 10 20 11
REMARK SMILES IDX 9 12 8 13 7 14 6 15 5 16 4 17 3 18 2 19 1 20
REMARK H PARENT
REMARK Flexibility Score: inf
ROOT
ATOM      1  C   UNL     1      -7.855  29.070 -16.680  1.00  0.00     0.000 C 
ENDROOT
BRANCH   1   2
ATOM      2  C   UNL     1      -6.422  28.527 -16.827  1.00  0.00     0.000 C 
BRANCH   2   3
ATOM      3  C   UNL     1      -5.834  28.606 -18.251  1.00  0.00     0.000 C 
BRANCH   3   4
ATOM      4  C   UNL     1      -6.680  27.932 -19.348  1.00  0.00     0.000 C 
BRANCH   4   5
ATOM      5  C   UNL     1      -7.403  28.944 -20.254  1.00  0.00     0.000 C 
BRANCH   5   6
ATOM      6  C   UNL     1      -6.456  29.637 -21.251  1.00  0.00     0.000 C 
BRANCH   6   7
ATOM      7  C   UNL     1      -5.141  28.885 -21.542  1.00  0.00     0.006 C 
BRANCH   7   8
ATOM      8  C   UNL     1      -5.041  28.298 -22.957  1.00  0.00     0.053 C 
BRANCH   8   9
ATOM      9  C   UNL     1      -5.747  26.983 -23.068  1.00  0.00     0.041 C 
ATOM     10  O   UNL     1      -5.087  25.912 -23.125  1.00  0.00    -0.550 OA
ATOM     11  O   UNL     1      -7.134  26.937 -23.071  1.00  0.00    -0.550 OA
ENDBRANCH   8   9
ENDBRANCH   7   8
ENDBRANCH   6   7
ENDBRANCH   5   6
ENDBRANCH   4   5
ENDBRANCH   3   4
ENDBRANCH   2   3
ENDBRANCH   1   2
BRANCH   1  12
ATOM     12  C   UNL     1      -8.314  29.320 -15.229  1.00  0.00     0.000 C 
BRANCH  12  13
ATOM     13  C   UNL     1      -8.984  30.685 -14.984  1.00  0.00    -0.000 C 
BRANCH  13  14
ATOM     14  C   UNL     1      -9.380  31.396 -16.289  1.00  0.00    -0.000 C 
BRANCH  14  15
ATOM     15  C   UNL     1      -8.934  32.869 -16.316  1.00  0.00    -0.000 C 
BRANCH  15  16
ATOM     16  C   UNL     1      -8.323  33.326 -14.982  1.00  0.00    -0.000 C 
BRANCH  16  17
ATOM     17  C   UNL     1      -6.998  34.085 -15.162  1.00  0.00    -0.000 C 
BRANCH  17  18
ATOM     18  C   UNL     1      -6.849  34.752 -16.545  1.00  0.00    -0.000 C 
BRANCH  18  19
ATOM     19  C   UNL     1      -5.515  35.500 -16.688  1.00  0.00    -0.003 C 
ATOM     20  C   UNL     1      -5.373  36.109 -18.080  1.00  0.00     0.004 C 
ENDBRANCH  18  19
ENDBRANCH  17  18
ENDBRANCH  16  17
ENDBRANCH  15  16
ENDBRANCH  14  15
ENDBRANCH  13  14
ENDBRANCH  12  13
ENDBRANCH   1  12
TORSDOF 16
ENDMDL
MODEL 4
REMARK VINA RESULT:    11.130      3.684      4.646
REMARK INTER + INTRA:          20.435
REMARK INTER:                  21.735
REMARK INTRA:                  -1.300
REMARK UNBOUND:                -1.106
REMARK SMILES CCCCCCCCCCCCCCCCCC(=O)[O-]
REMARK SMILES IDX 10 1 11 2 12 3 13 4 14 5 15 6 16 7 17 8 18 9 19 10 20 11
REMARK SMILES IDX 9 12 8 13 7 14 6 15 5 16 4 17 3 18 2 19 1 20
REMARK H PARENT
REMARK Flexibility Score: inf
ROOT
ATOM      1  C   UNL     1      -9.416  30.477 -15.874  1.00  0.00     0.000 C 
ENDROOT
BRANCH   1   2
ATOM      2  C   UNL     1      -9.267  31.997 -15.679  1.00  0.00     0.000 C 
BRANCH   2   3
ATOM      3  C   UNL     1      -9.231  32.823 -16.981  1.00  0.00     0.000 C 
BRANCH   3   4
ATOM      4  C   UNL     1      -9.241  31.998 -18.282  1.00  0.00     0.000 C 
BRANCH   4   5
ATOM      5  C   UNL     1      -9.564  32.843 -19.526  1.00  0.00     0.000 C 
BRANCH   5   6
ATOM      6  C   UNL     1      -8.929  32.283 -20.811  1.00  0.00     0.000 C 
BRANCH   6   7
ATOM      7  C   UNL     1      -9.336  33.001 -22.114  1.00  0.00     0.006 C 
BRANCH   7   8
ATOM      8  C   UNL     1     -10.079  32.116 -23.125  1.00  0.00     0.053 C 
BRANCH   8   9
ATOM      9  C   UNL     1     -11.556  32.359 -23.101  1.00  0.00     0.041 C 
ATOM     10  O   UNL     1     -12.359  31.389 -23.119  1.00  0.00    -0.550 OA
ATOM     11  O   UNL     1     -12.046  33.656 -23.021  1.00  0.00    -0.550 OA
ENDBRANCH   8   9
ENDBRANCH   7   8
ENDBRANCH   6   7
ENDBRANCH   5   6
ENDBRANCH   4   5
ENDBRANCH   3   4
ENDBRANCH   2   3
ENDBRANCH   1   2
BRANCH   1  12
ATOM     12  C   UNL     1      -8.509  29.611 -14.975  1.00  0.00     0.000 C 
BRANCH  12  13
ATOM     13  C   UNL     1      -7.409  28.831 -15.718  1.00  0.00    -0.000 C 
BRANCH  13  14
ATOM     14  C   UNL     1      -7.705  28.669 -17.219  1.00  0.00    -0.000 C 
BRANCH  14  15
ATOM     15  C   UNL     1      -6.468  28.928 -18.096  1.00  0.00    -0.000 C 
BRANCH  15  16
ATOM     16  C   UNL     1      -6.650  28.427 -19.537  1.00  0.00    -0.000 C 
BRANCH  16  17
ATOM     17  C   UNL     1      -6.145  29.431 -20.587  1.00  0.00    -0.000 C 
BRANCH  17  18
ATOM     18  C   UNL     1      -5.987  28.825 -21.997  1.00  0.00    -0.000 C 
BRANCH  18  19
ATOM     19  C   UNL     1      -6.168  27.300 -21.998  1.00  0.00    -0.003 C 
ATOM     20  C   UNL     1      -5.344  26.650 -23.106  1.00  0.00     0.004 C 
ENDBRANCH  18  19
ENDBRANCH  17  18
ENDBRANCH  16  17
ENDBRANCH  15  16
ENDBRANCH  14  15
ENDBRANCH  13  14
ENDBRANCH  12  13
ENDBRANCH   1  12
TORSDOF 16
ENDMDL
MODEL 5
REMARK VINA RESULT:    11.683      1.243      2.167
REMARK INTER + INTRA:          21.505
REMARK INTER:                  22.489
REMARK INTRA:                  -0.984
REMARK UNBOUND:                -1.106
REMARK SMILES CCCCCCCCCCCCCCCCCC(=O)[O-]
REMARK SMILES IDX 10 1 11 2 12 3 13 4 14 5 15 6 16 7 17 8 18 9 19 10 20 11
REMARK SMILES IDX 9 12 8 13 7 14 6 15 5 16 4 17 3 18 2 19 1 20
REMARK H PARENT
REMARK Flexibility Score: inf
ROOT
ATOM      1  C   UNL     1      -9.310  31.502 -15.410  1.00  0.00     0.000 C 
ENDROOT
BRANCH   1   2
ATOM      2  C   UNL     1      -8.636  32.828 -15.009  1.00  0.00     0.000 C 
BRANCH   2   3
ATOM      3  C   UNL     1      -7.953  33.590 -16.164  1.00  0.00     0.000 C 
BRANCH   3   4
ATOM      4  C   UNL     1      -6.630  34.288 -15.797  1.00  0.00     0.000 C 
BRANCH   4   5
ATOM      5  C   UNL     1      -6.464  35.657 -16.479  1.00  0.00     0.000 C 
BRANCH   5   6
ATOM      6  C   UNL     1      -5.030  35.909 -16.976  1.00  0.00     0.000 C 
BRANCH   6   7
ATOM      7  C   UNL     1      -4.876  36.041 -18.504  1.00  0.00     0.006 C 
BRANCH   7   8
ATOM      8  C   UNL     1      -6.201  36.165 -19.271  1.00  0.00     0.053 C 
BRANCH   8   9
ATOM      9  C   UNL     1      -6.381  37.530 -19.859  1.00  0.00     0.041 C 
ATOM     10  O   UNL     1      -7.282  38.294 -19.423  1.00  0.00    -0.550 OA
ATOM     11  O   UNL     1      -5.530  37.973 -20.863  1.00  0.00    -0.550 OA
ENDBRANCH   8   9
ENDBRANCH   7   8
ENDBRANCH   6   7
ENDBRANCH   5   6
ENDBRANCH   4   5
ENDBRANCH   3   4
ENDBRANCH   2   3
ENDBRANCH   1   2
BRANCH   1  12
ATOM     12  C   UNL     1      -9.322  31.209 -16.924  1.00  0.00     0.000 C 
BRANCH  12  13
ATOM     13  C   UNL     1      -8.949  29.766 -17.311  1.00  0.00    -0.000 C 
BRANCH  13  14
ATOM     14  C   UNL     1      -7.884  29.157 -16.382  1.00  0.00    -0.000 C 
BRANCH  14  15
ATOM     15  C   UNL     1      -6.761  28.447 -17.157  1.00  0.00    -0.000 C 
BRANCH  15  16
ATOM     16  C   UNL     1      -6.461  29.117 -18.507  1.00  0.00    -0.000 C 
BRANCH  16  17
ATOM     17  C   UNL     1      -6.458  28.122 -19.679  1.00  0.00    -0.000 C 
BRANCH  17  18
ATOM     18  C   UNL     1      -6.064  28.756 -21.029  1.00  0.00    -0.000 C 
BRANCH  18  19
ATOM     19  C   UNL     1      -6.231  27.777 -22.202  1.00  0.00    -0.003 C 
ATOM     20  C   UNL     1      -4.913  27.578 -22.944  1.00  0.00     0.004 C 
ENDBRANCH  18  19
ENDBRANCH  17  18
ENDBRANCH  16  17
ENDBRANCH  15  16
ENDBRANCH  14  15
ENDBRANCH  13  14
ENDBRANCH  12  13
ENDBRANCH   1  12
TORSDOF 16
ENDMDL
MODEL 6
REMARK VINA RESULT:    12.102      2.937      7.337
REMARK INTER + INTRA:          22.315
REMARK INTER:                  23.119
REMARK INTRA:                  -0.804
REMARK UNBOUND:                -1.106
REMARK SMILES CCCCCCCCCCCCCCCCCC(=O)[O-]
REMARK SMILES IDX 10 1 11 2 12 3 13 4 14 5 15 6 16 7 17 8 18 9 19 10 20 11
REMARK SMILES IDX 9 12 8 13 7 14 6 15 5 16 4 17 3 18 2 19 1 20
REMARK H PARENT
REMARK Flexibility Score: inf
ROOT
ATOM      1  C   UNL     1      -9.081  31.899 -16.364  1.00  0.00     0.000 C 
ENDROOT
BRANCH   1   2
ATOM      2  C   UNL     1      -9.457  30.587 -15.651  1.00  0.00     0.000 C 
BRANCH   2   3
ATOM      3  C   UNL     1      -8.457  29.428 -15.846  1.00  0.00     0.000 C 
BRANCH   3   4
ATOM      4  C   UNL     1      -7.760  29.386 -17.218  1.00  0.00     0.000 C 
BRANCH   4   5
ATOM      5  C   UNL     1      -6.415  28.642 -17.185  1.00  0.00     0.000 C 
BRANCH   5   6
ATOM      6  C   UNL     1      -5.966  28.155 -18.575  1.00  0.00     0.000 C 
BRANCH   6   7
ATOM      7  C   UNL     1      -6.898  28.543 -19.741  1.00  0.00     0.006 C 
BRANCH   7   8
ATOM      8  C   UNL     1      -6.189  29.207 -20.931  1.00  0.00     0.053 C 
BRANCH   8   9
ATOM      9  C   UNL     1      -5.933  28.237 -22.042  1.00  0.00     0.041 C 
ATOM     10  O   UNL     1      -5.426  28.633 -23.125  1.00  0.00    -0.550 OA
ATOM     11  O   UNL     1      -6.217  26.889 -21.868  1.00  0.00    -0.550 OA
ENDBRANCH   8   9
ENDBRANCH   7   8
ENDBRANCH   6   7
ENDBRANCH   5   6
ENDBRANCH   4   5
ENDBRANCH   3   4
ENDBRANCH   2   3
ENDBRANCH   1   2
BRANCH   1  12
ATOM     12  C   UNL     1      -8.736  33.075 -15.428  1.00  0.00     0.000 C 
BRANCH  12  13
ATOM     13  C   UNL     1      -7.812  34.145 -16.040  1.00  0.00    -0.000 C 
BRANCH  13  14
ATOM     14  C   UNL     1      -6.399  34.129 -15.434  1.00  0.00    -0.000 C 
BRANCH  14  15
ATOM     15  C   UNL     1      -5.421  35.043 -16.192  1.00  0.00    -0.000 C 
BRANCH  15  16
ATOM     16  C   UNL     1      -6.136  36.172 -16.951  1.00  0.00    -0.000 C 
BRANCH  16  17
ATOM     17  C   UNL     1      -5.331  36.682 -18.158  1.00  0.00    -0.000 C 
BRANCH  17  18
ATOM     18  C   UNL     1      -6.123  36.669 -19.481  1.00  0.00    -0.000 C 
BRANCH  18  19
ATOM     19  C   UNL     1      -6.311  38.080 -20.059  1.00  0.00    -0.003 C 
ATOM     20  C   UNL     1      -5.304  38.357 -21.172  1.00  0.00     0.004 C 
ENDBRANCH  18  19
ENDBRANCH  17  18
ENDBRANCH  16  17
ENDBRANCH  15  16
ENDBRANCH  14  15
ENDBRANCH  13  14
ENDBRANCH  12  13
ENDBRANCH   1  12
TORSDOF 16
ENDMDL
