MODEL 1
REMARK VINA RESULT:    -7.620      0.000      0.000
REMARK INTER + INTRA:          -8.498
REMARK INTER:                  -8.288
REMARK INTRA:                  -0.210
REMARK UNBOUND:                -0.210
REMARK SMILES CC1(C)CC[C@]2(C(=O)[O-])CC[C@@]3(C)C(=CC[C@@H]4[C@@]5(C)CC[C@@H](O)C(C)(C)[C@H]5CC[C@@]43C)[C@@H]2C1
REMARK SMILES IDX 6 1 5 2 10 3 32 4 4 5 11 6 14 7 33 8 2 9 12 10 15 11 1 12
REMARK SMILES IDX 3 13 13 14 30 15 16 16 17 17 29 18 31 19 18 20 28 21 27 22
REMARK SMILES IDX 20 23 19 24 24 25 21 26 22 27 25 28 26 29 7 30 8 31 9 32
REMARK SMILES IDX 23 33
REMARK H PARENT 23 34
REMARK Flexibility Score: inf
ROOT
ATOM      1  C   UNL     1     -10.671  11.626 -26.799  1.00  0.00     0.017 C 
ATOM      2  C   UNL     1     -10.738  10.681 -25.539  1.00  0.00     0.014 C 
ATOM      3  C   UNL     1      -9.774  12.849 -26.492  1.00  0.00     0.014 C 
ATOM      4  C   UNL     1     -12.118  12.075 -27.274  1.00  0.00     0.028 C 
ATOM      5  C   UNL     1     -12.111  10.641 -24.856  1.00  0.00     0.007 C 
ATOM      6  C   UNL     1     -10.454  13.836 -25.540  1.00  0.00     0.013 C 
ATOM      7  C   UNL     1     -12.691  13.340 -26.569  1.00  0.00    -0.064 C 
ATOM      8  C   UNL     1     -13.053  10.823 -27.237  1.00  0.00     0.015 C 
ATOM      9  C   UNL     1     -13.236  10.184 -25.822  1.00  0.00    -0.035 C 
ATOM     10  C   UNL     1     -11.737  14.479 -26.155  1.00  0.00    -0.006 C 
ATOM     11  C   UNL     1     -14.012  13.615 -26.695  1.00  0.00    -0.027 C 
ATOM     12  C   UNL     1     -13.217   8.640 -25.951  1.00  0.00     0.011 C 
ATOM     13  C   UNL     1     -14.599  10.581 -25.213  1.00  0.00     0.011 C 
ATOM     14  C   UNL     1     -11.291  15.218 -27.462  1.00  0.00     0.017 C 
ATOM     15  C   UNL     1     -12.423  15.498 -25.105  1.00  0.00    -0.020 C 
ATOM     16  C   UNL     1     -14.746  14.664 -25.913  1.00  0.00     0.032 C 
ATOM     17  C   UNL     1     -13.909  15.904 -25.524  1.00  0.00     0.006 C 
ATOM     18  C   UNL     1     -11.531  16.773 -24.870  1.00  0.00     0.008 C 
ATOM     19  C   UNL     1     -12.550  14.800 -23.704  1.00  0.00     0.012 C 
ATOM     20  C   UNL     1     -14.171  17.208 -26.422  1.00  0.00    -0.025 C 
ATOM     21  C   UNL     1     -12.314  18.086 -24.840  1.00  0.00     0.005 C 
ATOM     22  C   UNL     1     -13.054  18.314 -26.178  1.00  0.00     0.003 C 
ATOM     23  C   UNL     1     -15.550  17.817 -25.989  1.00  0.00     0.010 C 
ATOM     24  C   UNL     1     -14.279  16.835 -27.949  1.00  0.00     0.012 C 
ATOM     25  C   UNL     1     -13.518  19.834 -26.357  1.00  0.00    -0.006 C 
ATOM     26  C   UNL     1     -15.957  19.103 -26.738  1.00  0.00     0.033 C 
ATOM     27  C   UNL     1     -14.763  19.913 -27.292  1.00  0.00     0.120 C 
ATOM     28  C   UNL     1     -13.848  20.546 -25.009  1.00  0.00     0.014 C 
ATOM     29  C   UNL     1     -12.364  20.635 -27.019  1.00  0.00     0.014 C 
ENDROOT
BRANCH   1  30
ATOM     30  C   UNL     1      -9.944  10.862 -27.910  1.00  0.00     0.048 C 
ATOM     31  O   UNL     1      -9.492   9.700 -27.726  1.00  0.00    -0.550 OA
ATOM     32  O   UNL     1      -9.843  11.420 -29.180  1.00  0.00    -0.550 OA
ENDBRANCH   1  30
BRANCH  27  33
ATOM     33  O   UNL     1     -15.135  21.254 -27.504  1.00  0.00    -0.393 OA
ATOM     34  H   UNL     1     -14.538  21.822 -26.945  1.00  0.00     0.210 HD
ENDBRANCH  27  33
TORSDOF 2
ENDMDL
MODEL 2
REMARK VINA RESULT:    -7.569      2.051      8.321
REMARK INTER + INTRA:          -8.443
REMARK INTER:                  -8.255
REMARK INTRA:                  -0.188
REMARK UNBOUND:                -0.210
REMARK SMILES CC1(C)CC[C@]2(C(=O)[O-])CC[C@@]3(C)C(=CC[C@@H]4[C@@]5(C)CC[C@@H](O)C(C)(C)[C@H]5CC[C@@]43C)[C@@H]2C1
REMARK SMILES IDX 6 1 5 2 10 3 32 4 4 5 11 6 14 7 33 8 2 9 12 10 15 11 1 12
REMARK SMILES IDX 3 13 13 14 30 15 16 16 17 17 29 18 31 19 18 20 28 21 27 22
REMARK SMILES IDX 20 23 19 24 24 25 21 26 22 27 25 28 26 29 7 30 8 31 9 32
REMARK SMILES IDX 23 33
REMARK H PARENT 23 34
REMARK Flexibility Score: inf
ROOT
ATOM      1  C   UNL     1     -14.793  15.791 -25.972  1.00  0.00     0.017 C 
ATOM      2  C   UNL     1     -14.714  16.400 -24.520  1.00  0.00     0.014 C 
ATOM      3  C   UNL     1     -15.747  14.573 -25.982  1.00  0.00     0.014 C 
ATOM      4  C   UNL     1     -13.356  15.401 -26.525  1.00  0.00     0.028 C 
ATOM      5  C   UNL     1     -13.357  16.209 -23.831  1.00  0.00     0.007 C 
ATOM      6  C   UNL     1     -15.133  13.355 -25.288  1.00  0.00     0.013 C 
ATOM      7  C   UNL     1     -12.854  13.979 -26.139  1.00  0.00    -0.064 C 
ATOM      8  C   UNL     1     -12.369  16.563 -26.174  1.00  0.00     0.015 C 
ATOM      9  C   UNL     1     -12.191  16.832 -24.644  1.00  0.00    -0.035 C 
ATOM     10  C   UNL     1     -13.865  12.819 -26.025  1.00  0.00    -0.006 C 
ATOM     11  C   UNL     1     -11.543  13.680 -26.313  1.00  0.00    -0.027 C 
ATOM     12  C   UNL     1     -12.141  18.360 -24.396  1.00  0.00     0.011 C 
ATOM     13  C   UNL     1     -10.861  16.235 -24.133  1.00  0.00     0.011 C 
ATOM     14  C   UNL     1     -14.311  12.440 -27.478  1.00  0.00     0.017 C 
ATOM     15  C   UNL     1     -13.248  11.546 -25.245  1.00  0.00    -0.020 C 
ATOM     16  C   UNL     1     -10.873  12.439 -25.799  1.00  0.00     0.032 C 
ATOM     17  C   UNL     1     -11.772  11.183 -25.732  1.00  0.00     0.006 C 
ATOM     18  C   UNL     1     -14.199  10.295 -25.336  1.00  0.00     0.008 C 
ATOM     19  C   UNL     1     -13.123  11.879 -23.715  1.00  0.00     0.012 C 
ATOM     20  C   UNL     1     -11.545  10.124 -26.916  1.00  0.00    -0.025 C 
ATOM     21  C   UNL     1     -13.474   8.979 -25.616  1.00  0.00     0.005 C 
ATOM     22  C   UNL     1     -12.714   9.045 -26.960  1.00  0.00     0.003 C 
ATOM     23  C   UNL     1     -10.204   9.364 -26.626  1.00  0.00     0.010 C 
ATOM     24  C   UNL     1     -11.386  10.848 -28.305  1.00  0.00     0.012 C 
ATOM     25  C   UNL     1     -12.311   7.593 -27.496  1.00  0.00    -0.006 C 
ATOM     26  C   UNL     1      -9.835   8.279 -27.659  1.00  0.00     0.033 C 
ATOM     27  C   UNL     1     -11.050   7.684 -28.407  1.00  0.00     0.120 C 
ATOM     28  C   UNL     1     -12.043   6.562 -26.357  1.00  0.00     0.014 C 
ATOM     29  C   UNL     1     -13.483   7.031 -28.346  1.00  0.00     0.014 C 
ENDROOT
BRANCH   1  30
ATOM     30  C   UNL     1     -15.460  16.834 -26.874  1.00  0.00     0.048 C 
ATOM     31  O   UNL     1     -16.124  17.792 -26.396  1.00  0.00    -0.550 OA
ATOM     32  O   UNL     1     -15.270  16.779 -28.251  1.00  0.00    -0.550 OA
ENDBRANCH   1  30
BRANCH  27  33
ATOM     33  O   UNL     1     -10.731   6.418 -28.933  1.00  0.00    -0.393 OA
ATOM     34  H   UNL     1     -11.253   6.302 -29.773  1.00  0.00     0.210 HD
ENDBRANCH  27  33
TORSDOF 2
ENDMDL
MODEL 3
REMARK VINA RESULT:    -7.317     11.819     16.850
REMARK INTER + INTRA:          -8.169
REMARK INTER:                  -8.029
REMARK INTRA:                  -0.140
REMARK UNBOUND:                -0.210
REMARK SMILES CC1(C)CC[C@]2(C(=O)[O-])CC[C@@]3(C)C(=CC[C@@H]4[C@@]5(C)CC[C@@H](O)C(C)(C)[C@H]5CC[C@@]43C)[C@@H]2C1
REMARK SMILES IDX 6 1 5 2 10 3 32 4 4 5 11 6 14 7 33 8 2 9 12 10 15 11 1 12
REMARK SMILES IDX 3 13 13 14 30 15 16 16 17 17 29 18 31 19 18 20 28 21 27 22
REMARK SMILES IDX 20 23 19 24 24 25 21 26 22 27 25 28 26 29 7 30 8 31 9 32
REMARK SMILES IDX 23 33
REMARK H PARENT 23 34
REMARK Flexibility Score: inf
ROOT
ATOM      1  C   UNL     1      -8.900  10.368 -39.043  1.00  0.00     0.017 C 
ATOM      2  C   UNL     1      -9.960  10.509 -37.884  1.00  0.00     0.014 C 
ATOM      3  C   UNL     1      -8.960   8.943 -39.641  1.00  0.00     0.014 C 
ATOM      4  C   UNL     1      -7.434  10.723 -38.545  1.00  0.00     0.028 C 
ATOM      5  C   UNL     1      -9.347  10.645 -36.485  1.00  0.00     0.007 C 
ATOM      6  C   UNL     1      -8.363   7.897 -38.697  1.00  0.00     0.013 C 
ATOM      7  C   UNL     1      -6.641   9.545 -37.907  1.00  0.00    -0.064 C 
ATOM      8  C   UNL     1      -7.519  12.011 -37.662  1.00  0.00     0.015 C 
ATOM      9  C   UNL     1      -8.396  11.867 -36.375  1.00  0.00    -0.035 C 
ATOM     10  C   UNL     1      -6.837   8.113 -38.447  1.00  0.00    -0.006 C 
ATOM     11  C   UNL     1      -5.518   9.822 -37.199  1.00  0.00    -0.027 C 
ATOM     12  C   UNL     1      -9.227  13.158 -36.175  1.00  0.00     0.011 C 
ATOM     13  C   UNL     1      -7.508  11.688 -35.124  1.00  0.00     0.011 C 
ATOM     14  C   UNL     1      -6.133   8.038 -39.844  1.00  0.00     0.017 C 
ATOM     15  C   UNL     1      -6.261   6.994 -37.433  1.00  0.00    -0.020 C 
ATOM     16  C   UNL     1      -4.771   8.830 -36.357  1.00  0.00     0.032 C 
ATOM     17  C   UNL     1      -4.819   7.369 -36.861  1.00  0.00     0.006 C 
ATOM     18  C   UNL     1      -6.256   5.566 -38.092  1.00  0.00     0.008 C 
ATOM     19  C   UNL     1      -7.203   6.887 -36.181  1.00  0.00     0.012 C 
ATOM     20  C   UNL     1      -3.492   6.867 -37.611  1.00  0.00    -0.025 C 
ATOM     21  C   UNL     1      -4.985   4.759 -37.825  1.00  0.00     0.005 C 
ATOM     22  C   UNL     1      -3.742   5.494 -38.375  1.00  0.00     0.003 C 
ATOM     23  C   UNL     1      -2.393   6.614 -36.520  1.00  0.00     0.010 C 
ATOM     24  C   UNL     1      -2.940   7.971 -38.589  1.00  0.00     0.012 C 
ATOM     25  C   UNL     1      -2.478   4.523 -38.509  1.00  0.00    -0.006 C 
ATOM     26  C   UNL     1      -1.044   6.098 -37.064  1.00  0.00     0.033 C 
ATOM     27  C   UNL     1      -1.155   5.340 -38.406  1.00  0.00     0.120 C 
ATOM     28  C   UNL     1      -2.456   3.382 -37.446  1.00  0.00     0.014 C 
ATOM     29  C   UNL     1      -2.518   3.839 -39.903  1.00  0.00     0.014 C 
ENDROOT
BRANCH   1  30
ATOM     30  C   UNL     1      -9.331  11.301 -40.179  1.00  0.00     0.048 C 
ATOM     31  O   UNL     1      -9.257  10.950 -41.386  1.00  0.00    -0.550 OA
ATOM     32  O   UNL     1      -9.896  12.537 -39.880  1.00  0.00    -0.550 OA
ENDBRANCH   1  30
BRANCH  27  33
ATOM     33  O   UNL     1      -0.042   4.498 -38.588  1.00  0.00    -0.393 OA
ATOM     34  H   UNL     1       0.728   5.073 -38.853  1.00  0.00     0.210 HD
ENDBRANCH  27  33
TORSDOF 2
ENDMDL
MODEL 4
REMARK VINA RESULT:    -7.241     10.396     14.173
REMARK INTER + INTRA:          -8.087
REMARK INTER:                  -7.869
REMARK INTRA:                  -0.217
REMARK UNBOUND:                -0.210
REMARK SMILES CC1(C)CC[C@]2(C(=O)[O-])CC[C@@]3(C)C(=CC[C@@H]4[C@@]5(C)CC[C@@H](O)C(C)(C)[C@H]5CC[C@@]43C)[C@@H]2C1
REMARK SMILES IDX 6 1 5 2 10 3 32 4 4 5 11 6 14 7 33 8 2 9 12 10 15 11 1 12
REMARK SMILES IDX 3 13 13 14 30 15 16 16 17 17 29 18 31 19 18 20 28 21 27 22
REMARK SMILES IDX 20 23 19 24 24 25 21 26 22 27 25 28 26 29 7 30 8 31 9 32
REMARK SMILES IDX 23 33
REMARK H PARENT 23 34
REMARK Flexibility Score: inf
ROOT
ATOM      1  C   UNL     1     -12.503   3.896 -32.815  1.00  0.00     0.017 C 
ATOM      2  C   UNL     1     -11.688   3.495 -31.526  1.00  0.00     0.014 C 
ATOM      3  C   UNL     1     -12.094   2.988 -33.999  1.00  0.00     0.014 C 
ATOM      4  C   UNL     1     -12.318   5.431 -33.174  1.00  0.00     0.028 C 
ATOM      5  C   UNL     1     -10.666   4.548 -31.077  1.00  0.00     0.007 C 
ATOM      6  C   UNL     1     -10.700   3.329 -34.531  1.00  0.00     0.013 C 
ATOM      7  C   UNL     1     -11.081   5.767 -34.059  1.00  0.00    -0.064 C 
ATOM      8  C   UNL     1     -12.420   6.256 -31.850  1.00  0.00     0.015 C 
ATOM      9  C   UNL     1     -11.326   5.921 -30.783  1.00  0.00    -0.035 C 
ATOM     10  C   UNL     1     -10.623   4.765 -35.140  1.00  0.00    -0.006 C 
ATOM     11  C   UNL     1     -10.685   7.059 -34.165  1.00  0.00    -0.027 C 
ATOM     12  C   UNL     1     -11.974   5.899 -29.377  1.00  0.00     0.011 C 
ATOM     13  C   UNL     1     -10.224   7.003 -30.770  1.00  0.00     0.011 C 
ATOM     14  C   UNL     1     -11.670   4.820 -36.305  1.00  0.00     0.017 C 
ATOM     15  C   UNL     1      -9.130   5.080 -35.671  1.00  0.00    -0.020 C 
ATOM     16  C   UNL     1      -9.404   7.512 -34.801  1.00  0.00     0.032 C 
ATOM     17  C   UNL     1      -8.898   6.632 -35.967  1.00  0.00     0.006 C 
ATOM     18  C   UNL     1      -8.766   4.203 -36.926  1.00  0.00     0.008 C 
ATOM     19  C   UNL     1      -8.087   4.696 -34.561  1.00  0.00     0.012 C 
ATOM     20  C   UNL     1      -9.167   7.228 -37.432  1.00  0.00    -0.025 C 
ATOM     21  C   UNL     1      -8.046   4.969 -38.036  1.00  0.00     0.005 C 
ATOM     22  C   UNL     1      -8.922   6.131 -38.558  1.00  0.00     0.003 C 
ATOM     23  C   UNL     1      -8.143   8.392 -37.669  1.00  0.00     0.010 C 
ATOM     24  C   UNL     1     -10.613   7.842 -37.540  1.00  0.00     0.012 C 
ATOM     25  C   UNL     1      -8.416   6.676 -39.974  1.00  0.00    -0.006 C 
ATOM     26  C   UNL     1      -8.240   9.073 -39.051  1.00  0.00     0.033 C 
ATOM     27  C   UNL     1      -8.828   8.168 -40.157  1.00  0.00     0.120 C 
ATOM     28  C   UNL     1      -6.875   6.545 -40.176  1.00  0.00     0.014 C 
ATOM     29  C   UNL     1      -9.091   5.846 -41.100  1.00  0.00     0.014 C 
ENDROOT
BRANCH   1  30
ATOM     30  C   UNL     1     -13.976   3.571 -32.548  1.00  0.00     0.048 C 
ATOM     31  O   UNL     1     -14.777   3.319 -33.487  1.00  0.00    -0.550 OA
ATOM     32  O   UNL     1     -14.435   3.470 -31.239  1.00  0.00    -0.550 OA
ENDBRANCH   1  30
BRANCH  27  33
ATOM     33  O   UNL     1      -8.442   8.633 -41.428  1.00  0.00    -0.393 OA
ATOM     34  H   UNL     1      -8.736   7.956 -42.097  1.00  0.00     0.210 HD
ENDBRANCH  27  33
TORSDOF 2
ENDMDL
MODEL 5
REMARK VINA RESULT:    -7.089      2.603      5.268
REMARK INTER + INTRA:          -7.922
REMARK INTER:                  -8.026
REMARK INTRA:                   0.105
REMARK UNBOUND:                -0.210
REMARK SMILES CC1(C)CC[C@]2(C(=O)[O-])CC[C@@]3(C)C(=CC[C@@H]4[C@@]5(C)CC[C@@H](O)C(C)(C)[C@H]5CC[C@@]43C)[C@@H]2C1
REMARK SMILES IDX 6 1 5 2 10 3 32 4 4 5 11 6 14 7 33 8 2 9 12 10 15 11 1 12
REMARK SMILES IDX 3 13 13 14 30 15 16 16 17 17 29 18 31 19 18 20 28 21 27 22
REMARK SMILES IDX 20 23 19 24 24 25 21 26 22 27 25 28 26 29 7 30 8 31 9 32
REMARK SMILES IDX 23 33
REMARK H PARENT 23 34
REMARK Flexibility Score: inf
ROOT
ATOM      1  C   UNL     1     -12.250   7.252 -25.718  1.00  0.00     0.017 C 
ATOM      2  C   UNL     1     -11.807   6.487 -27.023  1.00  0.00     0.014 C 
ATOM      3  C   UNL     1     -13.716   7.727 -25.857  1.00  0.00     0.014 C 
ATOM      4  C   UNL     1     -11.280   8.465 -25.389  1.00  0.00     0.028 C 
ATOM      5  C   UNL     1     -10.757   7.229 -27.860  1.00  0.00     0.007 C 
ATOM      6  C   UNL     1     -13.850   8.900 -26.831  1.00  0.00     0.013 C 
ATOM      7  C   UNL     1     -11.629   9.811 -26.091  1.00  0.00    -0.064 C 
ATOM      8  C   UNL     1      -9.808   7.980 -25.596  1.00  0.00     0.015 C 
ATOM      9  C   UNL     1      -9.466   7.528 -27.054  1.00  0.00    -0.035 C 
ATOM     10  C   UNL     1     -13.107  10.181 -26.335  1.00  0.00    -0.006 C 
ATOM     11  C   UNL     1     -10.703  10.800 -26.104  1.00  0.00    -0.027 C 
ATOM     12  C   UNL     1      -8.578   6.260 -27.001  1.00  0.00     0.011 C 
ATOM     13  C   UNL     1      -8.667   8.623 -27.794  1.00  0.00     0.011 C 
ATOM     14  C   UNL     1     -13.731  10.560 -24.950  1.00  0.00     0.017 C 
ATOM     15  C   UNL     1     -13.266  11.382 -27.405  1.00  0.00    -0.020 C 
ATOM     16  C   UNL     1     -10.808  12.060 -26.911  1.00  0.00     0.032 C 
ATOM     17  C   UNL     1     -12.246  12.580 -27.138  1.00  0.00     0.006 C 
ATOM     18  C   UNL     1     -14.749  11.903 -27.471  1.00  0.00     0.008 C 
ATOM     19  C   UNL     1     -12.934  10.850 -28.844  1.00  0.00     0.012 C 
ATOM     20  C   UNL     1     -12.674  13.819 -26.212  1.00  0.00    -0.025 C 
ATOM     21  C   UNL     1     -14.874  13.426 -27.525  1.00  0.00     0.005 C 
ATOM     22  C   UNL     1     -14.243  14.073 -26.271  1.00  0.00     0.003 C 
ATOM     23  C   UNL     1     -11.961  15.101 -26.770  1.00  0.00     0.010 C 
ATOM     24  C   UNL     1     -12.185  13.616 -24.729  1.00  0.00     0.012 C 
ATOM     25  C   UNL     1     -14.719  15.587 -26.070  1.00  0.00    -0.006 C 
ATOM     26  C   UNL     1     -12.279  16.405 -26.008  1.00  0.00     0.033 C 
ATOM     27  C   UNL     1     -13.643  16.392 -25.282  1.00  0.00     0.120 C 
ATOM     28  C   UNL     1     -15.027  16.324 -27.409  1.00  0.00     0.014 C 
ATOM     29  C   UNL     1     -16.032  15.592 -25.241  1.00  0.00     0.014 C 
ENDROOT
BRANCH   1  30
ATOM     30  C   UNL     1     -12.263   6.237 -24.570  1.00  0.00     0.048 C 
ATOM     31  O   UNL     1     -11.430   6.296 -23.627  1.00  0.00    -0.550 OA
ATOM     32  O   UNL     1     -13.263   5.271 -24.514  1.00  0.00    -0.550 OA
ENDBRANCH   1  30
BRANCH  27  33
ATOM     33  O   UNL     1     -14.086  17.707 -25.046  1.00  0.00    -0.393 OA
ATOM     34  H   UNL     1     -13.740  18.277 -25.786  1.00  0.00     0.210 HD
ENDBRANCH  27  33
TORSDOF 2
ENDMDL
MODEL 6
REMARK VINA RESULT:    -7.048     14.717     17.014
REMARK INTER + INTRA:          -7.876
REMARK INTER:                  -7.657
REMARK INTRA:                  -0.219
REMARK UNBOUND:                -0.210
REMARK SMILES CC1(C)CC[C@]2(C(=O)[O-])CC[C@@]3(C)C(=CC[C@@H]4[C@@]5(C)CC[C@@H](O)C(C)(C)[C@H]5CC[C@@]43C)[C@@H]2C1
REMARK SMILES IDX 6 1 5 2 10 3 32 4 4 5 11 6 14 7 33 8 2 9 12 10 15 11 1 12
REMARK SMILES IDX 3 13 13 14 30 15 16 16 17 17 29 18 31 19 18 20 28 21 27 22
REMARK SMILES IDX 20 23 19 24 24 25 21 26 22 27 25 28 26 29 7 30 8 31 9 32
REMARK SMILES IDX 23 33
REMARK H PARENT 23 34
REMARK Flexibility Score: inf
ROOT
ATOM      1  C   UNL     1      -1.048   5.169 -36.155  1.00  0.00     0.017 C 
ATOM      2  C   UNL     1      -0.331   6.411 -35.499  1.00  0.00     0.014 C 
ATOM      3  C   UNL     1      -1.110   5.347 -37.691  1.00  0.00     0.014 C 
ATOM      4  C   UNL     1      -2.494   4.933 -35.542  1.00  0.00     0.028 C 
ATOM      5  C   UNL     1      -1.259   7.300 -34.661  1.00  0.00     0.007 C 
ATOM      6  C   UNL     1      -2.132   6.408 -38.105  1.00  0.00     0.013 C 
ATOM      7  C   UNL     1      -3.645   5.737 -36.216  1.00  0.00    -0.064 C 
ATOM      8  C   UNL     1      -2.397   5.100 -33.991  1.00  0.00     0.015 C 
ATOM      9  C   UNL     1      -1.945   6.517 -33.511  1.00  0.00    -0.035 C 
ATOM     10  C   UNL     1      -3.596   6.012 -37.733  1.00  0.00    -0.006 C 
ATOM     11  C   UNL     1      -4.839   5.824 -35.580  1.00  0.00    -0.027 C 
ATOM     12  C   UNL     1      -0.961   6.366 -32.324  1.00  0.00     0.011 C 
ATOM     13  C   UNL     1      -3.153   7.338 -33.009  1.00  0.00     0.011 C 
ATOM     14  C   UNL     1      -3.899   4.660 -38.465  1.00  0.00     0.017 C 
ATOM     15  C   UNL     1      -4.631   7.170 -38.178  1.00  0.00    -0.020 C 
ATOM     16  C   UNL     1      -5.964   6.726 -35.994  1.00  0.00     0.032 C 
ATOM     17  C   UNL     1      -6.071   6.995 -37.512  1.00  0.00     0.006 C 
ATOM     18  C   UNL     1      -4.738   7.279 -39.744  1.00  0.00     0.008 C 
ATOM     19  C   UNL     1      -4.099   8.564 -37.686  1.00  0.00     0.012 C 
ATOM     20  C   UNL     1      -7.219   6.167 -38.269  1.00  0.00    -0.025 C 
ATOM     21  C   UNL     1      -6.167   7.450 -40.261  1.00  0.00     0.005 C 
ATOM     22  C   UNL     1      -7.047   6.248 -39.848  1.00  0.00     0.003 C 
ATOM     23  C   UNL     1      -8.598   6.821 -37.903  1.00  0.00     0.010 C 
ATOM     24  C   UNL     1      -7.260   4.672 -37.776  1.00  0.00     0.012 C 
ATOM     25  C   UNL     1      -8.394   6.165 -40.707  1.00  0.00    -0.006 C 
ATOM     26  C   UNL     1      -9.825   6.162 -38.568  1.00  0.00     0.033 C 
ATOM     27  C   UNL     1      -9.509   5.439 -39.896  1.00  0.00     0.120 C 
ATOM     28  C   UNL     1      -8.924   7.558 -41.167  1.00  0.00     0.014 C 
ATOM     29  C   UNL     1      -8.116   5.341 -41.994  1.00  0.00     0.014 C 
ENDROOT
BRANCH   1  30
ATOM     30  C   UNL     1      -0.152   3.947 -35.927  1.00  0.00     0.048 C 
ATOM     31  O   UNL     1      -0.320   2.876 -36.570  1.00  0.00    -0.550 OA
ATOM     32  O   UNL     1       0.926   4.034 -35.051  1.00  0.00    -0.550 OA
ENDBRANCH   1  30
BRANCH  27  33
ATOM     33  O   UNL     1     -10.675   5.306 -40.673  1.00  0.00    -0.393 OA
ATOM     34  H   UNL     1     -10.546   5.843 -41.502  1.00  0.00     0.210 HD
ENDBRANCH  27  33
TORSDOF 2
ENDMDL
MODEL 7
REMARK VINA RESULT:    -6.968     12.042     17.102
REMARK INTER + INTRA:          -7.790
REMARK INTER:                  -7.679
REMARK INTRA:                  -0.111
REMARK UNBOUND:                -0.210
REMARK SMILES CC1(C)CC[C@]2(C(=O)[O-])CC[C@@]3(C)C(=CC[C@@H]4[C@@]5(C)CC[C@@H](O)C(C)(C)[C@H]5CC[C@@]43C)[C@@H]2C1
REMARK SMILES IDX 6 1 5 2 10 3 32 4 4 5 11 6 14 7 33 8 2 9 12 10 15 11 1 12
REMARK SMILES IDX 3 13 13 14 30 15 16 16 17 17 29 18 31 19 18 20 28 21 27 22
REMARK SMILES IDX 20 23 19 24 24 25 21 26 22 27 25 28 26 29 7 30 8 31 9 32
REMARK SMILES IDX 23 33
REMARK H PARENT 23 34
REMARK Flexibility Score: inf
ROOT
ATOM      1  C   UNL     1      -8.715   9.440 -37.008  1.00  0.00     0.017 C 
ATOM      2  C   UNL     1     -10.116   9.118 -37.657  1.00  0.00     0.014 C 
ATOM      3  C   UNL     1      -7.727   9.920 -38.097  1.00  0.00     0.014 C 
ATOM      4  C   UNL     1      -8.136   8.194 -36.211  1.00  0.00     0.028 C 
ATOM      5  C   UNL     1     -10.479   7.628 -37.661  1.00  0.00     0.007 C 
ATOM      6  C   UNL     1      -7.268   8.774 -39.001  1.00  0.00     0.013 C 
ATOM      7  C   UNL     1      -7.317   7.179 -37.062  1.00  0.00    -0.064 C 
ATOM      8  C   UNL     1      -9.301   7.564 -35.380  1.00  0.00     0.015 C 
ATOM      9  C   UNL     1     -10.496   7.022 -36.232  1.00  0.00    -0.035 C 
ATOM     10  C   UNL     1      -6.450   7.690 -38.231  1.00  0.00    -0.006 C 
ATOM     11  C   UNL     1      -7.044   5.959 -36.538  1.00  0.00    -0.027 C 
ATOM     12  C   UNL     1     -11.829   7.381 -35.530  1.00  0.00     0.011 C 
ATOM     13  C   UNL     1     -10.433   5.484 -36.349  1.00  0.00     0.011 C 
ATOM     14  C   UNL     1      -5.207   8.415 -37.612  1.00  0.00     0.017 C 
ATOM     15  C   UNL     1      -6.004   6.498 -39.227  1.00  0.00    -0.020 C 
ATOM     16  C   UNL     1      -6.455   4.811 -37.304  1.00  0.00     0.032 C 
ATOM     17  C   UNL     1      -5.489   5.205 -38.445  1.00  0.00     0.006 C 
ATOM     18  C   UNL     1      -4.938   6.989 -40.275  1.00  0.00     0.008 C 
ATOM     19  C   UNL     1      -7.245   6.024 -40.066  1.00  0.00     0.012 C 
ATOM     20  C   UNL     1      -3.931   5.029 -38.104  1.00  0.00    -0.025 C 
ATOM     21  C   UNL     1      -3.787   6.008 -40.500  1.00  0.00     0.005 C 
ATOM     22  C   UNL     1      -3.016   5.755 -39.185  1.00  0.00     0.003 C 
ATOM     23  C   UNL     1      -3.602   3.496 -38.152  1.00  0.00     0.010 C 
ATOM     24  C   UNL     1      -3.606   5.536 -36.649  1.00  0.00     0.012 C 
ATOM     25  C   UNL     1      -1.580   5.101 -39.444  1.00  0.00    -0.006 C 
ATOM     26  C   UNL     1      -2.127   3.139 -37.870  1.00  0.00     0.033 C 
ATOM     27  C   UNL     1      -1.131   4.272 -38.203  1.00  0.00     0.120 C 
ATOM     28  C   UNL     1      -1.532   4.189 -40.709  1.00  0.00     0.014 C 
ATOM     29  C   UNL     1      -0.545   6.237 -39.668  1.00  0.00     0.014 C 
ENDROOT
BRANCH   1  30
ATOM     30  C   UNL     1      -8.904  10.642 -36.077  1.00  0.00     0.048 C 
ATOM     31  O   UNL     1      -8.260  10.752 -35.000  1.00  0.00    -0.550 OA
ATOM     32  O   UNL     1      -9.745  11.684 -36.457  1.00  0.00    -0.550 OA
ENDBRANCH   1  30
BRANCH  27  33
ATOM     33  O   UNL     1       0.160   3.748 -38.402  1.00  0.00    -0.393 OA
ATOM     34  H   UNL     1       0.132   3.185 -39.223  1.00  0.00     0.210 HD
ENDBRANCH  27  33
TORSDOF 2
ENDMDL
MODEL 8
REMARK VINA RESULT:    -6.927      1.892      8.089
REMARK INTER + INTRA:          -7.745
REMARK INTER:                  -7.697
REMARK INTRA:                  -0.048
REMARK UNBOUND:                -0.210
REMARK SMILES CC1(C)CC[C@]2(C(=O)[O-])CC[C@@]3(C)C(=CC[C@@H]4[C@@]5(C)CC[C@@H](O)C(C)(C)[C@H]5CC[C@@]43C)[C@@H]2C1
REMARK SMILES IDX 6 1 5 2 10 3 32 4 4 5 11 6 14 7 33 8 2 9 12 10 15 11 1 12
REMARK SMILES IDX 3 13 13 14 30 15 16 16 17 17 29 18 31 19 18 20 28 21 27 22
REMARK SMILES IDX 20 23 19 24 24 25 21 26 22 27 25 28 26 29 7 30 8 31 9 32
REMARK SMILES IDX 23 33
REMARK H PARENT 23 34
REMARK Flexibility Score: inf
ROOT
ATOM      1  C   UNL     1     -14.315  17.333 -25.349  1.00  0.00     0.017 C 
ATOM      2  C   UNL     1     -13.249  18.294 -24.696  1.00  0.00     0.014 C 
ATOM      3  C   UNL     1     -14.810  16.306 -24.303  1.00  0.00     0.014 C 
ATOM      4  C   UNL     1     -13.741  16.610 -26.641  1.00  0.00     0.028 C 
ATOM      5  C   UNL     1     -11.823  18.105 -25.229  1.00  0.00     0.007 C 
ATOM      6  C   UNL     1     -13.751  15.246 -23.993  1.00  0.00     0.013 C 
ATOM      7  C   UNL     1     -12.962  15.288 -26.377  1.00  0.00    -0.064 C 
ATOM      8  C   UNL     1     -12.964  17.671 -27.487  1.00  0.00     0.015 C 
ATOM      9  C   UNL     1     -11.736  18.314 -26.764  1.00  0.00    -0.035 C 
ATOM     10  C   UNL     1     -13.408  14.357 -25.230  1.00  0.00    -0.006 C 
ATOM     11  C   UNL     1     -12.198  14.771 -27.370  1.00  0.00    -0.027 C 
ATOM     12  C   UNL     1     -11.691  19.829 -27.082  1.00  0.00     0.011 C 
ATOM     13  C   UNL     1     -10.415  17.695 -27.271  1.00  0.00     0.011 C 
ATOM     14  C   UNL     1     -14.743  13.668 -25.676  1.00  0.00     0.017 C 
ATOM     15  C   UNL     1     -12.277  13.267 -24.853  1.00  0.00    -0.020 C 
ATOM     16  C   UNL     1     -11.235  13.632 -27.203  1.00  0.00     0.032 C 
ATOM     17  C   UNL     1     -11.631  12.581 -26.141  1.00  0.00     0.006 C 
ATOM     18  C   UNL     1     -12.827  12.186 -23.850  1.00  0.00     0.008 C 
ATOM     19  C   UNL     1     -11.091  13.979 -24.108  1.00  0.00     0.012 C 
ATOM     20  C   UNL     1     -12.246  11.221 -26.730  1.00  0.00    -0.025 C 
ATOM     21  C   UNL     1     -12.410  10.754 -24.186  1.00  0.00     0.005 C 
ATOM     22  C   UNL     1     -12.923  10.347 -25.586  1.00  0.00     0.003 C 
ATOM     23  C   UNL     1     -11.063  10.385 -27.334  1.00  0.00     0.010 C 
ATOM     24  C   UNL     1     -13.261  11.514 -27.899  1.00  0.00     0.012 C 
ATOM     25  C   UNL     1     -12.894   8.762 -25.801  1.00  0.00    -0.006 C 
ATOM     26  C   UNL     1     -11.470   9.021 -27.930  1.00  0.00     0.033 C 
ATOM     27  C   UNL     1     -12.757   8.425 -27.316  1.00  0.00     0.120 C 
ATOM     28  C   UNL     1     -11.751   8.050 -25.015  1.00  0.00     0.014 C 
ATOM     29  C   UNL     1     -14.233   8.164 -25.291  1.00  0.00     0.014 C 
ENDROOT
BRANCH   1  30
ATOM     30  C   UNL     1     -15.544  18.178 -25.698  1.00  0.00     0.048 C 
ATOM     31  O   UNL     1     -16.125  18.072 -26.811  1.00  0.00    -0.550 OA
ATOM     32  O   UNL     1     -16.091  19.029 -24.742  1.00  0.00    -0.550 OA
ENDBRANCH   1  30
BRANCH  27  33
ATOM     33  O   UNL     1     -12.796   7.032 -27.515  1.00  0.00    -0.393 OA
ATOM     34  H   UNL     1     -12.978   6.873 -28.481  1.00  0.00     0.210 HD
ENDBRANCH  27  33
TORSDOF 2
ENDMDL
MODEL 9
REMARK VINA RESULT:    -6.825     12.487     16.769
REMARK INTER + INTRA:          -7.634
REMARK INTER:                  -7.416
REMARK INTRA:                  -0.218
REMARK UNBOUND:                -0.210
REMARK SMILES CC1(C)CC[C@]2(C(=O)[O-])CC[C@@]3(C)C(=CC[C@@H]4[C@@]5(C)CC[C@@H](O)C(C)(C)[C@H]5CC[C@@]43C)[C@@H]2C1
REMARK SMILES IDX 6 1 5 2 10 3 32 4 4 5 11 6 14 7 33 8 2 9 12 10 15 11 1 12
REMARK SMILES IDX 3 13 13 14 30 15 16 16 17 17 29 18 31 19 18 20 28 21 27 22
REMARK SMILES IDX 20 23 19 24 24 25 21 26 22 27 25 28 26 29 7 30 8 31 9 32
REMARK SMILES IDX 23 33
REMARK H PARENT 23 34
REMARK Flexibility Score: inf
ROOT
ATOM      1  C   UNL     1      -2.534   5.710 -39.304  1.00  0.00     0.017 C 
ATOM      2  C   UNL     1      -1.264   6.205 -38.511  1.00  0.00     0.014 C 
ATOM      3  C   UNL     1      -3.547   6.870 -39.454  1.00  0.00     0.014 C 
ATOM      4  C   UNL     1      -3.202   4.446 -38.613  1.00  0.00     0.028 C 
ATOM      5  C   UNL     1      -1.118   5.592 -37.113  1.00  0.00     0.007 C 
ATOM      6  C   UNL     1      -4.250   7.193 -38.134  1.00  0.00     0.013 C 
ATOM      7  C   UNL     1      -4.236   4.765 -37.494  1.00  0.00    -0.064 C 
ATOM      8  C   UNL     1      -2.062   3.463 -38.193  1.00  0.00     0.015 C 
ATOM      9  C   UNL     1      -1.046   4.042 -37.155  1.00  0.00    -0.035 C 
ATOM     10  C   UNL     1      -5.134   6.013 -37.618  1.00  0.00    -0.006 C 
ATOM     11  C   UNL     1      -4.627   3.767 -36.663  1.00  0.00    -0.027 C 
ATOM     12  C   UNL     1       0.387   3.597 -37.538  1.00  0.00     0.011 C 
ATOM     13  C   UNL     1      -1.338   3.498 -35.739  1.00  0.00     0.011 C 
ATOM     14  C   UNL     1      -6.194   5.721 -38.734  1.00  0.00     0.017 C 
ATOM     15  C   UNL     1      -5.840   6.400 -36.218  1.00  0.00    -0.020 C 
ATOM     16  C   UNL     1      -5.445   3.960 -35.420  1.00  0.00     0.032 C 
ATOM     17  C   UNL     1      -6.453   5.131 -35.468  1.00  0.00     0.006 C 
ATOM     18  C   UNL     1      -6.924   7.525 -36.408  1.00  0.00     0.008 C 
ATOM     19  C   UNL     1      -4.768   6.998 -35.238  1.00  0.00     0.012 C 
ATOM     20  C   UNL     1      -7.980   4.701 -35.716  1.00  0.00    -0.025 C 
ATOM     21  C   UNL     1      -8.219   7.281 -35.633  1.00  0.00     0.005 C 
ATOM     22  C   UNL     1      -8.884   5.959 -36.078  1.00  0.00     0.003 C 
ATOM     23  C   UNL     1      -8.525   4.088 -34.379  1.00  0.00     0.010 C 
ATOM     24  C   UNL     1      -8.084   3.587 -36.823  1.00  0.00     0.012 C 
ATOM     25  C   UNL     1     -10.417   5.875 -35.629  1.00  0.00    -0.006 C 
ATOM     26  C   UNL     1     -10.001   3.638 -34.426  1.00  0.00     0.033 C 
ATOM     27  C   UNL     1     -10.854   4.388 -35.473  1.00  0.00     0.120 C 
ATOM     28  C   UNL     1     -10.718   6.636 -34.301  1.00  0.00     0.014 C 
ATOM     29  C   UNL     1     -11.297   6.526 -36.731  1.00  0.00     0.014 C 
ENDROOT
BRANCH   1  30
ATOM     30  C   UNL     1      -2.085   5.380 -40.731  1.00  0.00     0.048 C 
ATOM     31  O   UNL     1      -2.889   5.418 -41.701  1.00  0.00    -0.550 OA
ATOM     32  O   UNL     1      -0.745   5.107 -40.989  1.00  0.00    -0.550 OA
ENDBRANCH   1  30
BRANCH  27  33
ATOM     33  O   UNL     1     -12.220   4.308 -35.142  1.00  0.00    -0.393 OA
ATOM     34  H   UNL     1     -12.544   5.237 -34.983  1.00  0.00     0.210 HD
ENDBRANCH  27  33
TORSDOF 2
ENDMDL
