MODEL 1
REMARK VINA RESULT:    -6.865      0.000      0.000
REMARK INTER + INTRA:          -8.560
REMARK INTER:                  -8.270
REMARK INTRA:                  -0.291
REMARK UNBOUND:                -0.291
REMARK SMILES O=c1c(O)c(-c2ccc(O)c(O)c2)oc2cc(O)cc(O)c12
REMARK SMILES IDX 5 1 3 2 2 3 1 4 22 5 20 6 19 7 17 8 16 9 15 10 14 11 6 12
REMARK SMILES IDX 7 13 8 14 9 15 13 16 11 17 10 18 12 20 4 22 21 24 18 26
REMARK H PARENT 10 19 12 21 4 23 21 25 18 27
REMARK Flexibility Score: inf
ROOT
ATOM      1  C   UNL     1      31.485  11.258  27.975  1.00  0.00     0.180 A 
ATOM      2  C   UNL     1      31.965  12.105  26.958  1.00  0.00     0.208 A 
ATOM      3  C   UNL     1      31.827  11.705  25.620  1.00  0.00     0.238 A 
ATOM      4  O   UNL     1      32.262  12.451  24.700  1.00  0.00    -0.285 OA
ATOM      5  C   UNL     1      31.197  10.479  25.321  1.00  0.00     0.111 A 
ATOM      6  C   UNL     1      31.015  10.005  23.999  1.00  0.00     0.134 A 
ATOM      7  C   UNL     1      30.370   8.778  23.783  1.00  0.00     0.093 A 
ATOM      8  C   UNL     1      29.904   8.019  24.862  1.00  0.00     0.123 A 
ATOM      9  C   UNL     1      30.081   8.483  26.166  1.00  0.00     0.094 A 
ATOM     10  C   UNL     1      30.724   9.702  26.402  1.00  0.00     0.146 A 
ATOM     11  O   UNL     1      30.883  10.116  27.654  1.00  0.00    -0.452 OA
ENDROOT
BRANCH   1  12
ATOM     12  C   UNL     1      31.610  11.602  29.409  1.00  0.00     0.025 A 
ATOM     13  C   UNL     1      32.833  11.471  30.090  1.00  0.00     0.016 A 
ATOM     14  C   UNL     1      32.920  11.778  31.450  1.00  0.00     0.051 A 
ATOM     15  C   UNL     1      31.787  12.206  32.154  1.00  0.00     0.157 A 
ATOM     16  C   UNL     1      30.471  12.011  30.124  1.00  0.00     0.062 A 
ATOM     17  C   UNL     1      30.556  12.320  31.486  1.00  0.00     0.158 A 
BRANCH  15  18
ATOM     18  O   UNL     1      31.878  12.514  33.510  1.00  0.00    -0.504 OA
ATOM     19  H   UNL     1      31.176  13.078  33.974  1.00  0.00     0.293 HD
ENDBRANCH  15  18
BRANCH  17  20
ATOM     20  O   UNL     1      29.408  12.737  32.158  1.00  0.00    -0.504 OA
ATOM     21  H   UNL     1      29.376  12.823  33.167  1.00  0.00     0.293 HD
ENDBRANCH  17  20
ENDBRANCH   1  12
BRANCH   2  22
ATOM     22  O   UNL     1      32.540  13.338  27.279  1.00  0.00    -0.502 OA
ATOM     23  H   UNL     1      32.328  13.826  28.141  1.00  0.00     0.293 HD
ENDBRANCH   2  22
BRANCH   6  24
ATOM     24  O   UNL     1      31.469  10.740  22.902  1.00  0.00    -0.507 OA
ATOM     25  H   UNL     1      31.980  11.608  23.017  1.00  0.00     0.293 HD
ENDBRANCH   6  24
BRANCH   8  26
ATOM     26  O   UNL     1      29.262   6.801  24.648  1.00  0.00    -0.508 OA
ATOM     27  H   UNL     1      28.301   6.757  24.331  1.00  0.00     0.293 HD
ENDBRANCH   8  26
TORSDOF 6
ENDMDL
MODEL 2
REMARK VINA RESULT:    -6.633      2.593      6.190
REMARK INTER + INTRA:          -8.281
REMARK INTER:                  -7.992
REMARK INTRA:                  -0.289
REMARK UNBOUND:                -0.291
REMARK SMILES O=c1c(O)c(-c2ccc(O)c(O)c2)oc2cc(O)cc(O)c12
REMARK SMILES IDX 5 1 3 2 2 3 1 4 22 5 20 6 19 7 17 8 16 9 15 10 14 11 6 12
REMARK SMILES IDX 7 13 8 14 9 15 13 16 11 17 10 18 12 20 4 22 21 24 18 26
REMARK H PARENT 10 19 12 21 4 23 21 25 18 27
REMARK Flexibility Score: inf
ROOT
ATOM      1  C   UNL     1      31.360  11.621  27.911  1.00  0.00     0.180 A 
ATOM      2  C   UNL     1      32.103  12.512  28.709  1.00  0.00     0.208 A 
ATOM      3  C   UNL     1      32.449  12.126  30.013  1.00  0.00     0.238 A 
ATOM      4  O   UNL     1      33.106  12.920  30.742  1.00  0.00    -0.285 OA
ATOM      5  C   UNL     1      32.066  10.856  30.490  1.00  0.00     0.111 A 
ATOM      6  C   UNL     1      32.378  10.390  31.790  1.00  0.00     0.134 A 
ATOM      7  C   UNL     1      31.968   9.108  32.187  1.00  0.00     0.093 A 
ATOM      8  C   UNL     1      31.254   8.286  31.308  1.00  0.00     0.123 A 
ATOM      9  C   UNL     1      30.944   8.741  30.026  1.00  0.00     0.094 A 
ATOM     10  C   UNL     1      31.342  10.016  29.613  1.00  0.00     0.146 A 
ATOM     11  O   UNL     1      31.029  10.425  28.389  1.00  0.00    -0.452 OA
ENDROOT
BRANCH   1  12
ATOM     12  C   UNL     1      30.942  11.962  26.532  1.00  0.00     0.025 A 
ATOM     13  C   UNL     1      31.843  11.890  25.455  1.00  0.00     0.016 A 
ATOM     14  C   UNL     1      31.432  12.240  24.167  1.00  0.00     0.051 A 
ATOM     15  C   UNL     1      30.122  12.680  23.936  1.00  0.00     0.157 A 
ATOM     16  C   UNL     1      29.635  12.423  26.300  1.00  0.00     0.062 A 
ATOM     17  C   UNL     1      29.220  12.773  25.010  1.00  0.00     0.158 A 
BRANCH  15  18
ATOM     18  O   UNL     1      29.714  13.025  22.649  1.00  0.00    -0.504 OA
ATOM     19  H   UNL     1      29.437  13.972  22.416  1.00  0.00     0.293 HD
ENDBRANCH  15  18
BRANCH  17  20
ATOM     20  O   UNL     1      27.911  13.213  24.816  1.00  0.00    -0.504 OA
ATOM     21  H   UNL     1      27.159  12.576  24.583  1.00  0.00     0.293 HD
ENDBRANCH  17  20
ENDBRANCH   1  12
BRANCH   2  22
ATOM     22  O   UNL     1      32.513  13.745  28.195  1.00  0.00    -0.502 OA
ATOM     23  H   UNL     1      32.468  13.962  27.207  1.00  0.00     0.293 HD
ENDBRANCH   2  22
BRANCH   6  24
ATOM     24  O   UNL     1      33.089  11.188  32.688  1.00  0.00    -0.507 OA
ATOM     25  H   UNL     1      33.511  12.065  32.404  1.00  0.00     0.293 HD
ENDBRANCH   6  24
BRANCH   8  26
ATOM     26  O   UNL     1      30.848   7.012  31.702  1.00  0.00    -0.508 OA
ATOM     27  H   UNL     1      30.751   6.765  32.680  1.00  0.00     0.293 HD
ENDBRANCH   8  26
TORSDOF 6
ENDMDL
MODEL 3
REMARK VINA RESULT:    -6.633      2.467      6.562
REMARK INTER + INTRA:          -8.281
REMARK INTER:                  -7.970
REMARK INTRA:                  -0.311
REMARK UNBOUND:                -0.291
REMARK SMILES O=c1c(O)c(-c2ccc(O)c(O)c2)oc2cc(O)cc(O)c12
REMARK SMILES IDX 5 1 3 2 2 3 1 4 22 5 20 6 19 7 17 8 16 9 15 10 14 11 6 12
REMARK SMILES IDX 7 13 8 14 9 15 13 16 11 17 10 18 12 20 4 22 21 24 18 26
REMARK H PARENT 10 19 12 21 4 23 21 25 18 27
REMARK Flexibility Score: inf
ROOT
ATOM      1  C   UNL     1      31.206  10.872  28.453  1.00  0.00     0.180 A 
ATOM      2  C   UNL     1      31.979  11.834  29.131  1.00  0.00     0.208 A 
ATOM      3  C   UNL     1      32.378  11.577  30.451  1.00  0.00     0.238 A 
ATOM      4  O   UNL     1      33.062  12.437  31.072  1.00  0.00    -0.285 OA
ATOM      5  C   UNL     1      32.016  10.360  31.064  1.00  0.00     0.111 A 
ATOM      6  C   UNL     1      32.380  10.022  32.390  1.00  0.00     0.134 A 
ATOM      7  C   UNL     1      31.988   8.786  32.926  1.00  0.00     0.093 A 
ATOM      8  C   UNL     1      31.242   7.884  32.161  1.00  0.00     0.123 A 
ATOM      9  C   UNL     1      30.880   8.212  30.854  1.00  0.00     0.094 A 
ATOM     10  C   UNL     1      31.259   9.440  30.303  1.00  0.00     0.146 A 
ATOM     11  O   UNL     1      30.896   9.728  29.058  1.00  0.00    -0.452 OA
ENDROOT
BRANCH   1  12
ATOM     12  C   UNL     1      30.733  11.077  27.066  1.00  0.00     0.025 A 
ATOM     13  C   UNL     1      29.608  11.872  26.786  1.00  0.00     0.016 A 
ATOM     14  C   UNL     1      29.165  12.032  25.471  1.00  0.00     0.051 A 
ATOM     15  C   UNL     1      29.828  11.389  24.417  1.00  0.00     0.157 A 
ATOM     16  C   UNL     1      31.383  10.418  26.008  1.00  0.00     0.062 A 
ATOM     17  C   UNL     1      30.942  10.577  24.690  1.00  0.00     0.158 A 
BRANCH  15  18
ATOM     18  O   UNL     1      29.386  11.553  23.106  1.00  0.00    -0.504 OA
ATOM     19  H   UNL     1      29.122  10.760  22.533  1.00  0.00     0.293 HD
ENDBRANCH  15  18
BRANCH  17  20
ATOM     20  O   UNL     1      31.621   9.918  23.665  1.00  0.00    -0.504 OA
ATOM     21  H   UNL     1      32.316   9.205  23.852  1.00  0.00     0.293 HD
ENDBRANCH  17  20
ENDBRANCH   1  12
BRANCH   2  22
ATOM     22  O   UNL     1      32.366  13.011  28.483  1.00  0.00    -0.502 OA
ATOM     23  H   UNL     1      32.259  13.140  27.484  1.00  0.00     0.293 HD
ENDBRANCH   2  22
BRANCH   6  24
ATOM     24  O   UNL     1      33.125  10.903  33.177  1.00  0.00    -0.507 OA
ATOM     25  H   UNL     1      33.888  10.581  33.761  1.00  0.00     0.293 HD
ENDBRANCH   6  24
BRANCH   8  26
ATOM     26  O   UNL     1      30.854   6.655  32.693  1.00  0.00    -0.508 OA
ATOM     27  H   UNL     1      30.189   6.057  32.216  1.00  0.00     0.293 HD
ENDBRANCH   8  26
TORSDOF 6
ENDMDL
MODEL 4
REMARK VINA RESULT:    -6.426      3.251      4.590
REMARK INTER + INTRA:          -8.031
REMARK INTER:                  -7.700
REMARK INTRA:                  -0.331
REMARK UNBOUND:                -0.291
REMARK SMILES O=c1c(O)c(-c2ccc(O)c(O)c2)oc2cc(O)cc(O)c12
REMARK SMILES IDX 5 1 3 2 2 3 1 4 22 5 20 6 19 7 17 8 16 9 15 10 14 11 6 12
REMARK SMILES IDX 7 13 8 14 9 15 13 16 11 17 10 18 12 20 4 22 21 24 18 26
REMARK H PARENT 10 19 12 21 4 23 21 25 18 27
REMARK Flexibility Score: inf
ROOT
ATOM      1  C   UNL     1      31.545   9.949  31.092  1.00  0.00     0.180 A 
ATOM      2  C   UNL     1      31.952  11.273  31.346  1.00  0.00     0.208 A 
ATOM      3  C   UNL     1      32.223  12.119  30.260  1.00  0.00     0.238 A 
ATOM      4  O   UNL     1      32.599  13.304  30.475  1.00  0.00    -0.285 OA
ATOM      5  C   UNL     1      32.065  11.637  28.944  1.00  0.00     0.111 A 
ATOM      6  C   UNL     1      32.314  12.427  27.795  1.00  0.00     0.134 A 
ATOM      7  C   UNL     1      32.126  11.876  26.519  1.00  0.00     0.093 A 
ATOM      8  C   UNL     1      31.692  10.554  26.371  1.00  0.00     0.123 A 
ATOM      9  C   UNL     1      31.445   9.773  27.500  1.00  0.00     0.094 A 
ATOM     10  C   UNL     1      31.630  10.302  28.781  1.00  0.00     0.146 A 
ATOM     11  O   UNL     1      31.392   9.534  29.838  1.00  0.00    -0.452 OA
ENDROOT
BRANCH   1  12
ATOM     12  C   UNL     1      31.257   8.991  32.184  1.00  0.00     0.025 A 
ATOM     13  C   UNL     1      32.271   8.197  32.746  1.00  0.00     0.016 A 
ATOM     14  C   UNL     1      31.972   7.282  33.759  1.00  0.00     0.051 A 
ATOM     15  C   UNL     1      30.655   7.136  34.215  1.00  0.00     0.157 A 
ATOM     16  C   UNL     1      29.935   8.827  32.629  1.00  0.00     0.062 A 
ATOM     17  C   UNL     1      29.632   7.911  33.644  1.00  0.00     0.158 A 
BRANCH  15  18
ATOM     18  O   UNL     1      30.360   6.224  35.226  1.00  0.00    -0.504 OA
ATOM     19  H   UNL     1      30.830   5.329  35.287  1.00  0.00     0.293 HD
ENDBRANCH  15  18
BRANCH  17  20
ATOM     20  O   UNL     1      28.310   7.786  34.069  1.00  0.00    -0.504 OA
ATOM     21  H   UNL     1      27.589   7.394  33.476  1.00  0.00     0.293 HD
ENDBRANCH  17  20
ENDBRANCH   1  12
BRANCH   2  22
ATOM     22  O   UNL     1      32.052  11.740  32.659  1.00  0.00    -0.502 OA
ATOM     23  H   UNL     1      32.850  11.534  33.248  1.00  0.00     0.293 HD
ENDBRANCH   2  22
BRANCH   6  24
ATOM     24  O   UNL     1      32.748  13.749  27.912  1.00  0.00    -0.507 OA
ATOM     25  H   UNL     1      32.511  14.450  27.220  1.00  0.00     0.293 HD
ENDBRANCH   6  24
BRANCH   8  26
ATOM     26  O   UNL     1      31.502  10.008  25.103  1.00  0.00    -0.508 OA
ATOM     27  H   UNL     1      30.608  10.064  24.629  1.00  0.00     0.293 HD
ENDBRANCH   8  26
TORSDOF 6
ENDMDL
MODEL 5
REMARK VINA RESULT:    -6.399      3.595      5.054
REMARK INTER + INTRA:          -7.999
REMARK INTER:                  -7.710
REMARK INTRA:                  -0.289
REMARK UNBOUND:                -0.291
REMARK SMILES O=c1c(O)c(-c2ccc(O)c(O)c2)oc2cc(O)cc(O)c12
REMARK SMILES IDX 5 1 3 2 2 3 1 4 22 5 20 6 19 7 17 8 16 9 15 10 14 11 6 12
REMARK SMILES IDX 7 13 8 14 9 15 13 16 11 17 10 18 12 20 4 22 21 24 18 26
REMARK H PARENT 10 19 12 21 4 23 21 25 18 27
REMARK Flexibility Score: inf
ROOT
ATOM      1  C   UNL     1      31.121   8.721  30.809  1.00  0.00     0.180 A 
ATOM      2  C   UNL     1      31.089   7.791  29.752  1.00  0.00     0.208 A 
ATOM      3  C   UNL     1      31.332   8.241  28.446  1.00  0.00     0.238 A 
ATOM      4  O   UNL     1      31.295   7.419  27.489  1.00  0.00    -0.285 OA
ATOM      5  C   UNL     1      31.621   9.602  28.219  1.00  0.00     0.111 A 
ATOM      6  C   UNL     1      31.882  10.135  26.933  1.00  0.00     0.134 A 
ATOM      7  C   UNL     1      32.171  11.501  26.792  1.00  0.00     0.093 A 
ATOM      8  C   UNL     1      32.205  12.340  27.910  1.00  0.00     0.123 A 
ATOM      9  C   UNL     1      31.949  11.820  29.179  1.00  0.00     0.094 A 
ATOM     10  C   UNL     1      31.657  10.462  29.341  1.00  0.00     0.146 A 
ATOM     11  O   UNL     1      31.412   9.995  30.560  1.00  0.00    -0.452 OA
ENDROOT
BRANCH   1  12
ATOM     12  C   UNL     1      30.857   8.328  32.212  1.00  0.00     0.025 A 
ATOM     13  C   UNL     1      31.838   7.688  32.989  1.00  0.00     0.016 A 
ATOM     14  C   UNL     1      31.559   7.304  34.303  1.00  0.00     0.051 A 
ATOM     15  C   UNL     1      30.293   7.539  34.856  1.00  0.00     0.157 A 
ATOM     16  C   UNL     1      29.583   8.543  32.763  1.00  0.00     0.062 A 
ATOM     17  C   UNL     1      29.300   8.160  34.079  1.00  0.00     0.158 A 
BRANCH  15  18
ATOM     18  O   UNL     1      30.018   7.157  36.167  1.00  0.00    -0.504 OA
ATOM     19  H   UNL     1      30.497   7.581  36.954  1.00  0.00     0.293 HD
ENDBRANCH  15  18
BRANCH  17  20
ATOM     20  O   UNL     1      28.028   8.403  34.596  1.00  0.00    -0.504 OA
ATOM     21  H   UNL     1      27.522   7.706  35.130  1.00  0.00     0.293 HD
ENDBRANCH  17  20
ENDBRANCH   1  12
BRANCH   2  22
ATOM     22  O   UNL     1      30.848   6.439  30.010  1.00  0.00    -0.502 OA
ATOM     23  H   UNL     1      31.338   5.699  29.521  1.00  0.00     0.293 HD
ENDBRANCH   2  22
BRANCH   6  24
ATOM     24  O   UNL     1      31.855   9.322  25.799  1.00  0.00    -0.507 OA
ATOM     25  H   UNL     1      32.380   8.456  25.751  1.00  0.00     0.293 HD
ENDBRANCH   6  24
BRANCH   8  26
ATOM     26  O   UNL     1      32.494  13.697  27.770  1.00  0.00    -0.508 OA
ATOM     27  H   UNL     1      31.813  14.347  27.395  1.00  0.00     0.293 HD
ENDBRANCH   8  26
TORSDOF 6
ENDMDL
MODEL 6
REMARK VINA RESULT:    -6.353      2.385      3.029
REMARK INTER + INTRA:          -7.944
REMARK INTER:                  -7.624
REMARK INTRA:                  -0.320
REMARK UNBOUND:                -0.291
REMARK SMILES O=c1c(O)c(-c2ccc(O)c(O)c2)oc2cc(O)cc(O)c12
REMARK SMILES IDX 5 1 3 2 2 3 1 4 22 5 20 6 19 7 17 8 16 9 15 10 14 11 6 12
REMARK SMILES IDX 7 13 8 14 9 15 13 16 11 17 10 18 12 20 4 22 21 24 18 26
REMARK H PARENT 10 19 12 21 4 23 21 25 18 27
REMARK Flexibility Score: inf
ROOT
ATOM      1  C   UNL     1      30.850  11.011  28.852  1.00  0.00     0.180 A 
ATOM      2  C   UNL     1      30.297  12.303  28.766  1.00  0.00     0.208 A 
ATOM      3  C   UNL     1      30.137  12.889  27.501  1.00  0.00     0.238 A 
ATOM      4  O   UNL     1      29.652  14.051  27.412  1.00  0.00    -0.285 OA
ATOM      5  C   UNL     1      30.511  12.171  26.347  1.00  0.00     0.111 A 
ATOM      6  C   UNL     1      30.378  12.688  25.036  1.00  0.00     0.134 A 
ATOM      7  C   UNL     1      30.766  11.907  23.937  1.00  0.00     0.093 A 
ATOM      8  C   UNL     1      31.281  10.620  24.125  1.00  0.00     0.123 A 
ATOM      9  C   UNL     1      31.414  10.106  25.416  1.00  0.00     0.094 A 
ATOM     10  C   UNL     1      31.036  10.870  26.524  1.00  0.00     0.146 A 
ATOM     11  O   UNL     1      31.178  10.357  27.740  1.00  0.00    -0.452 OA
ENDROOT
BRANCH   1  12
ATOM     12  C   UNL     1      31.068  10.332  30.150  1.00  0.00     0.025 A 
ATOM     13  C   UNL     1      32.204  10.599  30.934  1.00  0.00     0.016 A 
ATOM     14  C   UNL     1      32.401   9.928  32.143  1.00  0.00     0.051 A 
ATOM     15  C   UNL     1      31.475   8.972  32.582  1.00  0.00     0.157 A 
ATOM     16  C   UNL     1      30.153   9.358  30.583  1.00  0.00     0.062 A 
ATOM     17  C   UNL     1      30.346   8.685  31.795  1.00  0.00     0.158 A 
BRANCH  15  18
ATOM     18  O   UNL     1      31.672   8.308  33.790  1.00  0.00    -0.504 OA
ATOM     19  H   UNL     1      31.187   7.444  34.006  1.00  0.00     0.293 HD
ENDBRANCH  15  18
BRANCH  17  20
ATOM     20  O   UNL     1      29.409   7.735  32.199  1.00  0.00    -0.504 OA
ATOM     21  H   UNL     1      29.316   6.840  31.734  1.00  0.00     0.293 HD
ENDBRANCH  17  20
ENDBRANCH   1  12
BRANCH   2  22
ATOM     22  O   UNL     1      29.888  12.973  29.922  1.00  0.00    -0.502 OA
ATOM     23  H   UNL     1      28.915  13.184  30.110  1.00  0.00     0.293 HD
ENDBRANCH   2  22
BRANCH   6  24
ATOM     24  O   UNL     1      29.867  13.969  24.817  1.00  0.00    -0.507 OA
ATOM     25  H   UNL     1      29.424  14.224  23.942  1.00  0.00     0.293 HD
ENDBRANCH   6  24
BRANCH   8  26
ATOM     26  O   UNL     1      31.665   9.843  23.034  1.00  0.00    -0.508 OA
ATOM     27  H   UNL     1      32.609   9.485  22.944  1.00  0.00     0.293 HD
ENDBRANCH   8  26
TORSDOF 6
ENDMDL
MODEL 7
REMARK VINA RESULT:    -6.327      2.708      3.512
REMARK INTER + INTRA:          -7.912
REMARK INTER:                  -7.623
REMARK INTRA:                  -0.289
REMARK UNBOUND:                -0.291
REMARK SMILES O=c1c(O)c(-c2ccc(O)c(O)c2)oc2cc(O)cc(O)c12
REMARK SMILES IDX 5 1 3 2 2 3 1 4 22 5 20 6 19 7 17 8 16 9 15 10 14 11 6 12
REMARK SMILES IDX 7 13 8 14 9 15 13 16 11 17 10 18 12 20 4 22 21 24 18 26
REMARK H PARENT 10 19 12 21 4 23 21 25 18 27
REMARK Flexibility Score: inf
ROOT
ATOM      1  C   UNL     1      30.913  11.802  28.667  1.00  0.00     0.180 A 
ATOM      2  C   UNL     1      31.850  11.762  27.616  1.00  0.00     0.208 A 
ATOM      3  C   UNL     1      31.491  12.292  26.367  1.00  0.00     0.238 A 
ATOM      4  O   UNL     1      32.319  12.252  25.415  1.00  0.00    -0.285 OA
ATOM      5  C   UNL     1      30.216  12.868  26.194  1.00  0.00     0.111 A 
ATOM      6  C   UNL     1      29.779  13.426  24.969  1.00  0.00     0.134 A 
ATOM      7  C   UNL     1      28.496  13.989  24.880  1.00  0.00     0.093 A 
ATOM      8  C   UNL     1      27.647  14.004  25.991  1.00  0.00     0.123 A 
ATOM      9  C   UNL     1      28.074  13.455  27.201  1.00  0.00     0.094 A 
ATOM     10  C   UNL     1      29.347  12.887  27.309  1.00  0.00     0.146 A 
ATOM     11  O   UNL     1      29.725  12.366  28.471  1.00  0.00    -0.452 OA
ENDROOT
BRANCH   1  12
ATOM     12  C   UNL     1      31.210  11.248  30.007  1.00  0.00     0.025 A 
ATOM     13  C   UNL     1      31.191   9.863  30.248  1.00  0.00     0.016 A 
ATOM     14  C   UNL     1      31.450   9.364  31.527  1.00  0.00     0.051 A 
ATOM     15  C   UNL     1      31.718  10.240  32.587  1.00  0.00     0.157 A 
ATOM     16  C   UNL     1      31.458  12.123  31.078  1.00  0.00     0.062 A 
ATOM     17  C   UNL     1      31.719  11.627  32.360  1.00  0.00     0.158 A 
BRANCH  15  18
ATOM     18  O   UNL     1      31.979   9.740  33.861  1.00  0.00    -0.504 OA
ATOM     19  H   UNL     1      32.715  10.125  34.442  1.00  0.00     0.293 HD
ENDBRANCH  15  18
BRANCH  17  20
ATOM     20  O   UNL     1      31.975  12.526  33.395  1.00  0.00    -0.504 OA
ATOM     21  H   UNL     1      31.819  12.287  34.366  1.00  0.00     0.293 HD
ENDBRANCH  17  20
ENDBRANCH   1  12
BRANCH   2  22
ATOM     22  O   UNL     1      33.125  11.230  27.828  1.00  0.00    -0.502 OA
ATOM     23  H   UNL     1      33.878  11.345  27.160  1.00  0.00     0.293 HD
ENDBRANCH   2  22
BRANCH   6  24
ATOM     24  O   UNL     1      30.604  13.426  23.843  1.00  0.00    -0.507 OA
ATOM     25  H   UNL     1      30.312  13.008  22.968  1.00  0.00     0.293 HD
ENDBRANCH   6  24
BRANCH   8  26
ATOM     26  O   UNL     1      26.374  14.565  25.903  1.00  0.00    -0.508 OA
ATOM     27  H   UNL     1      26.032  15.217  26.599  1.00  0.00     0.293 HD
ENDBRANCH   8  26
TORSDOF 6
ENDMDL
MODEL 8
REMARK VINA RESULT:    -6.170      2.209      6.851
REMARK INTER + INTRA:          -7.724
REMARK INTER:                  -7.441
REMARK INTRA:                  -0.283
REMARK UNBOUND:                -0.291
REMARK SMILES O=c1c(O)c(-c2ccc(O)c(O)c2)oc2cc(O)cc(O)c12
REMARK SMILES IDX 5 1 3 2 2 3 1 4 22 5 20 6 19 7 17 8 16 9 15 10 14 11 6 12
REMARK SMILES IDX 7 13 8 14 9 15 13 16 11 17 10 18 12 20 4 22 21 24 18 26
REMARK H PARENT 10 19 12 21 4 23 21 25 18 27
REMARK Flexibility Score: inf
ROOT
ATOM      1  C   UNL     1      30.811  11.169  27.795  1.00  0.00     0.180 A 
ATOM      2  C   UNL     1      30.557   9.786  27.879  1.00  0.00     0.208 A 
ATOM      3  C   UNL     1      30.818   9.121  29.087  1.00  0.00     0.238 A 
ATOM      4  O   UNL     1      30.604   7.880  29.171  1.00  0.00    -0.285 OA
ATOM      5  C   UNL     1      31.309   9.848  30.191  1.00  0.00     0.111 A 
ATOM      6  C   UNL     1      31.594   9.253  31.444  1.00  0.00     0.134 A 
ATOM      7  C   UNL     1      32.072  10.047  32.498  1.00  0.00     0.093 A 
ATOM      8  C   UNL     1      32.267  11.421  32.322  1.00  0.00     0.123 A 
ATOM      9  C   UNL     1      31.987  12.011  31.089  1.00  0.00     0.094 A 
ATOM     10  C   UNL     1      31.513  11.237  30.026  1.00  0.00     0.146 A 
ATOM     11  O   UNL     1      31.260  11.824  28.862  1.00  0.00    -0.452 OA
ENDROOT
BRANCH   1  12
ATOM     12  C   UNL     1      30.578  11.937  26.551  1.00  0.00     0.025 A 
ATOM     13  C   UNL     1      29.422  12.718  26.379  1.00  0.00     0.016 A 
ATOM     14  C   UNL     1      29.211  13.416  25.187  1.00  0.00     0.051 A 
ATOM     15  C   UNL     1      30.144  13.333  24.144  1.00  0.00     0.157 A 
ATOM     16  C   UNL     1      31.500  11.841  25.495  1.00  0.00     0.062 A 
ATOM     17  C   UNL     1      31.293  12.539  24.300  1.00  0.00     0.158 A 
BRANCH  15  18
ATOM     18  O   UNL     1      29.932  14.032  22.958  1.00  0.00    -0.504 OA
ATOM     19  H   UNL     1      30.703  14.303  22.357  1.00  0.00     0.293 HD
ENDBRANCH  15  18
BRANCH  17  20
ATOM     20  O   UNL     1      32.237  12.430  23.280  1.00  0.00    -0.504 OA
ATOM     21  H   UNL     1      32.511  13.224  22.713  1.00  0.00     0.293 HD
ENDBRANCH  17  20
ENDBRANCH   1  12
BRANCH   2  22
ATOM     22  O   UNL     1      30.024   9.100  26.785  1.00  0.00    -0.502 OA
ATOM     23  H   UNL     1      30.478   9.088  25.879  1.00  0.00     0.293 HD
ENDBRANCH   2  22
BRANCH   6  24
ATOM     24  O   UNL     1      31.409   7.885  31.649  1.00  0.00    -0.507 OA
ATOM     25  H   UNL     1      30.721   7.532  32.305  1.00  0.00     0.293 HD
ENDBRANCH   6  24
BRANCH   8  26
ATOM     26  O   UNL     1      32.740  12.210  33.369  1.00  0.00    -0.508 OA
ATOM     27  H   UNL     1      33.705  12.517  33.407  1.00  0.00     0.293 HD
ENDBRANCH   8  26
TORSDOF 6
ENDMDL
MODEL 9
REMARK VINA RESULT:    -6.145      2.761      7.291
REMARK INTER + INTRA:          -7.693
REMARK INTER:                  -7.369
REMARK INTRA:                  -0.324
REMARK UNBOUND:                -0.291
REMARK SMILES O=c1c(O)c(-c2ccc(O)c(O)c2)oc2cc(O)cc(O)c12
REMARK SMILES IDX 5 1 3 2 2 3 1 4 22 5 20 6 19 7 17 8 16 9 15 10 14 11 6 12
REMARK SMILES IDX 7 13 8 14 9 15 13 16 11 17 10 18 12 20 4 22 21 24 18 26
REMARK H PARENT 10 19 12 21 4 23 21 25 18 27
REMARK Flexibility Score: inf
ROOT
ATOM      1  C   UNL     1      30.323   9.190  28.042  1.00  0.00     0.180 A 
ATOM      2  C   UNL     1      29.833   7.935  28.452  1.00  0.00     0.208 A 
ATOM      3  C   UNL     1      30.124   7.485  29.749  1.00  0.00     0.238 A 
ATOM      4  O   UNL     1      29.699   6.357  30.124  1.00  0.00    -0.285 OA
ATOM      5  C   UNL     1      30.879   8.300  30.617  1.00  0.00     0.111 A 
ATOM      6  C   UNL     1      31.212   7.921  31.940  1.00  0.00     0.134 A 
ATOM      7  C   UNL     1      31.960   8.792  32.746  1.00  0.00     0.093 A 
ATOM      8  C   UNL     1      32.379  10.033  32.254  1.00  0.00     0.123 A 
ATOM      9  C   UNL     1      32.054  10.411  30.950  1.00  0.00     0.094 A 
ATOM     10  C   UNL     1      31.311   9.555  30.131  1.00  0.00     0.146 A 
ATOM     11  O   UNL     1      31.020   9.938  28.893  1.00  0.00    -0.452 OA
ENDROOT
BRANCH   1  12
ATOM     12  C   UNL     1      30.074   9.727  26.685  1.00  0.00     0.025 A 
ATOM     13  C   UNL     1      28.916  10.467  26.391  1.00  0.00     0.016 A 
ATOM     14  C   UNL     1      28.690  10.943  25.097  1.00  0.00     0.051 A 
ATOM     15  C   UNL     1      29.609  10.675  24.074  1.00  0.00     0.157 A 
ATOM     16  C   UNL     1      30.983   9.443  25.651  1.00  0.00     0.062 A 
ATOM     17  C   UNL     1      30.760   9.918  24.354  1.00  0.00     0.158 A 
BRANCH  15  18
ATOM     18  O   UNL     1      29.383  11.153  22.785  1.00  0.00    -0.504 OA
ATOM     19  H   UNL     1      28.500  11.577  22.524  1.00  0.00     0.293 HD
ENDBRANCH  15  18
BRANCH  17  20
ATOM     20  O   UNL     1      31.691   9.628  23.357  1.00  0.00    -0.504 OA
ATOM     21  H   UNL     1      32.684   9.564  23.551  1.00  0.00     0.293 HD
ENDBRANCH  17  20
ENDBRANCH   1  12
BRANCH   2  22
ATOM     22  O   UNL     1      29.045   7.170  27.589  1.00  0.00    -0.502 OA
ATOM     23  H   UNL     1      28.033   7.181  27.626  1.00  0.00     0.293 HD
ENDBRANCH   2  22
BRANCH   6  24
ATOM     24  O   UNL     1      30.807   6.689  32.459  1.00  0.00    -0.507 OA
ATOM     25  H   UNL     1      30.151   6.094  31.968  1.00  0.00     0.293 HD
ENDBRANCH   6  24
BRANCH   8  26
ATOM     26  O   UNL     1      33.121  10.900  33.054  1.00  0.00    -0.508 OA
ATOM     27  H   UNL     1      33.977  10.601  33.507  1.00  0.00     0.293 HD
ENDBRANCH   8  26
TORSDOF 6
ENDMDL
