MODEL 1
REMARK VINA RESULT:    -5.227      0.000      0.000
REMARK INTER + INTRA:          -5.227
REMARK INTER:                  -5.227
REMARK INTRA:                   0.000
REMARK UNBOUND:                 0.000
REMARK SMILES C=C1CC[C@H]2C[C@@H]1C2(C)C
REMARK SMILES IDX 9 1 8 2 5 3 4 4 3 5 2 6 1 7 7 8 6 9 10 10
REMARK H PARENT
REMARK Flexibility Score: inf
ROOT
ATOM      1  C   UNL     1     146.337 147.380 131.143  1.00  0.00     0.012 C 
ATOM      2  C   UNL     1     145.998 146.299 132.199  1.00  0.00    -0.026 C 
ATOM      3  C   UNL     1     147.275 145.664 132.807  1.00  0.00    -0.004 C 
ATOM      4  C   UNL     1     146.944 144.892 134.125  1.00  0.00     0.008 C 
ATOM      5  C   UNL     1     145.754 143.875 133.949  1.00  0.00     0.031 C 
ATOM      6  C   UNL     1     145.082 143.996 132.572  1.00  0.00    -0.074 C 
ATOM      7  C   UNL     1     143.966 143.318 132.281  1.00  0.00     0.008 C 
ATOM      8  C   UNL     1     145.746 144.917 131.553  1.00  0.00     0.021 C 
ATOM      9  C   UNL     1     147.249 144.624 131.674  1.00  0.00     0.012 C 
ATOM     10  C   UNL     1     144.921 146.873 133.160  1.00  0.00     0.012 C 
ENDROOT
TORSDOF 0
ENDMDL
MODEL 2
REMARK VINA RESULT:    -5.180      1.370      3.461
REMARK INTER + INTRA:          -5.180
REMARK INTER:                  -5.180
REMARK INTRA:                   0.000
REMARK UNBOUND:                 0.000
REMARK SMILES C=C1CC[C@H]2C[C@@H]1C2(C)C
REMARK SMILES IDX 9 1 8 2 5 3 4 4 3 5 2 6 1 7 7 8 6 9 10 10
REMARK H PARENT
REMARK Flexibility Score: inf
ROOT
ATOM      1  C   UNL     1     144.495 143.500 131.060  1.00  0.00     0.012 C 
ATOM      2  C   UNL     1     144.824 144.564 132.136  1.00  0.00    -0.026 C 
ATOM      3  C   UNL     1     143.543 145.137 132.794  1.00  0.00    -0.004 C 
ATOM      4  C   UNL     1     143.881 145.885 134.124  1.00  0.00     0.008 C 
ATOM      5  C   UNL     1     145.029 146.949 133.945  1.00  0.00     0.031 C 
ATOM      6  C   UNL     1     145.669 146.888 132.549  1.00  0.00    -0.074 C 
ATOM      7  C   UNL     1     146.752 147.613 132.248  1.00  0.00     0.008 C 
ATOM      8  C   UNL     1     145.011 145.971 131.522  1.00  0.00     0.021 C 
ATOM      9  C   UNL     1     143.501 146.207 131.690  1.00  0.00     0.012 C 
ATOM     10  C   UNL     1     145.946 144.004 133.053  1.00  0.00     0.012 C 
ENDROOT
TORSDOF 0
ENDMDL
MODEL 3
REMARK VINA RESULT:    -5.100      1.391      2.414
REMARK INTER + INTRA:          -5.100
REMARK INTER:                  -5.100
REMARK INTRA:                   0.000
REMARK UNBOUND:                 0.000
REMARK SMILES C=C1CC[C@H]2C[C@@H]1C2(C)C
REMARK SMILES IDX 9 1 8 2 5 3 4 4 3 5 2 6 1 7 7 8 6 9 10 10
REMARK H PARENT
REMARK Flexibility Score: inf
ROOT
ATOM      1  C   UNL     1     143.347 146.495 131.040  1.00  0.00     0.012 C 
ATOM      2  C   UNL     1     144.332 146.146 132.183  1.00  0.00    -0.026 C 
ATOM      3  C   UNL     1     145.042 147.405 132.741  1.00  0.00    -0.004 C 
ATOM      4  C   UNL     1     145.705 147.110 134.125  1.00  0.00     0.008 C 
ATOM      5  C   UNL     1     146.621 145.828 134.096  1.00  0.00     0.031 C 
ATOM      6  C   UNL     1     146.520 145.069 132.764  1.00  0.00    -0.074 C 
ATOM      7  C   UNL     1     147.111 143.881 132.593  1.00  0.00     0.008 C 
ATOM      8  C   UNL     1     145.721 145.730 131.645  1.00  0.00     0.021 C 
ATOM      9  C   UNL     1     146.138 147.209 131.681  1.00  0.00     0.012 C 
ATOM     10  C   UNL     1     143.611 145.195 133.178  1.00  0.00     0.012 C 
ENDROOT
TORSDOF 0
ENDMDL
MODEL 4
REMARK VINA RESULT:    -5.048      1.098      3.114
REMARK INTER + INTRA:          -5.048
REMARK INTER:                  -5.048
REMARK INTRA:                   0.000
REMARK UNBOUND:                 0.000
REMARK SMILES C=C1CC[C@H]2C[C@@H]1C2(C)C
REMARK SMILES IDX 9 1 8 2 5 3 4 4 3 5 2 6 1 7 7 8 6 9 10 10
REMARK H PARENT
REMARK Flexibility Score: inf
ROOT
ATOM      1  C   UNL     1     143.839 143.126 131.788  1.00  0.00     0.012 C 
ATOM      2  C   UNL     1     145.019 144.107 132.001  1.00  0.00    -0.026 C 
ATOM      3  C   UNL     1     146.124 143.497 132.901  1.00  0.00    -0.004 C 
ATOM      4  C   UNL     1     147.456 144.305 132.780  1.00  0.00     0.008 C 
ATOM      5  C   UNL     1     147.247 145.852 132.995  1.00  0.00     0.031 C 
ATOM      6  C   UNL     1     145.762 146.230 133.105  1.00  0.00    -0.074 C 
ATOM      7  C   UNL     1     145.372 147.509 133.150  1.00  0.00     0.008 C 
ATOM      8  C   UNL     1     144.755 145.086 133.168  1.00  0.00     0.021 C 
ATOM      9  C   UNL     1     145.382 144.059 134.125  1.00  0.00     0.012 C 
ATOM     10  C   UNL     1     145.422 144.694 130.621  1.00  0.00     0.012 C 
ENDROOT
TORSDOF 0
ENDMDL
MODEL 5
REMARK VINA RESULT:    -5.030      1.294      2.675
REMARK INTER + INTRA:          -5.030
REMARK INTER:                  -5.030
REMARK INTRA:                   0.000
REMARK UNBOUND:                 0.000
REMARK SMILES C=C1CC[C@H]2C[C@@H]1C2(C)C
REMARK SMILES IDX 9 1 8 2 5 3 4 4 3 5 2 6 1 7 7 8 6 9 10 10
REMARK H PARENT
REMARK Flexibility Score: inf
ROOT
ATOM      1  C   UNL     1     145.537 147.812 133.384  1.00  0.00     0.012 C 
ATOM      2  C   UNL     1     145.566 146.470 132.612  1.00  0.00    -0.026 C 
ATOM      3  C   UNL     1     144.656 146.504 131.358  1.00  0.00    -0.004 C 
ATOM      4  C   UNL     1     144.996 145.328 130.386  1.00  0.00     0.008 C 
ATOM      5  C   UNL     1     145.019 143.930 131.111  1.00  0.00     0.031 C 
ATOM      6  C   UNL     1     144.872 144.061 132.635  1.00  0.00    -0.074 C 
ATOM      7  C   UNL     1     145.008 143.003 133.441  1.00  0.00     0.008 C 
ATOM      8  C   UNL     1     144.557 145.449 133.186  1.00  0.00     0.021 C 
ATOM      9  C   UNL     1     143.491 146.020 132.238  1.00  0.00     0.012 C 
ATOM     10  C   UNL     1     147.047 146.032 132.446  1.00  0.00     0.012 C 
ENDROOT
TORSDOF 0
ENDMDL
MODEL 6
REMARK VINA RESULT:    -5.025      1.019      3.333
REMARK INTER + INTRA:          -5.025
REMARK INTER:                  -5.025
REMARK INTRA:                   0.000
REMARK UNBOUND:                 0.000
REMARK SMILES C=C1CC[C@H]2C[C@@H]1C2(C)C
REMARK SMILES IDX 9 1 8 2 5 3 4 4 3 5 2 6 1 7 7 8 6 9 10 10
REMARK H PARENT
REMARK Flexibility Score: inf
ROOT
ATOM      1  C   UNL     1     145.159 143.109 133.648  1.00  0.00     0.012 C 
ATOM      2  C   UNL     1     145.171 144.371 132.749  1.00  0.00    -0.026 C 
ATOM      3  C   UNL     1     146.099 144.198 131.520  1.00  0.00    -0.004 C 
ATOM      4  C   UNL     1     145.799 145.280 130.433  1.00  0.00     0.008 C 
ATOM      5  C   UNL     1     145.793 146.742 131.020  1.00  0.00     0.031 C 
ATOM      6  C   UNL     1     145.914 146.756 132.552  1.00  0.00    -0.074 C 
ATOM      7  C   UNL     1     145.788 147.890 133.250  1.00  0.00     0.008 C 
ATOM      8  C   UNL     1     146.192 145.423 133.240  1.00  0.00     0.021 C 
ATOM      9  C   UNL     1     147.259 144.742 132.369  1.00  0.00     0.012 C 
ATOM     10  C   UNL     1     143.702 144.819 132.516  1.00  0.00     0.012 C 
ENDROOT
TORSDOF 0
ENDMDL
MODEL 7
REMARK VINA RESULT:    -4.965      1.252      2.447
REMARK INTER + INTRA:          -4.965
REMARK INTER:                  -4.965
REMARK INTRA:                   0.000
REMARK UNBOUND:                 0.000
REMARK SMILES C=C1CC[C@H]2C[C@@H]1C2(C)C
REMARK SMILES IDX 9 1 8 2 5 3 4 4 3 5 2 6 1 7 7 8 6 9 10 10
REMARK H PARENT
REMARK Flexibility Score: inf
ROOT
ATOM      1  C   UNL     1     147.205 144.431 130.864  1.00  0.00     0.012 C 
ATOM      2  C   UNL     1     146.278 144.763 132.060  1.00  0.00    -0.026 C 
ATOM      3  C   UNL     1     145.691 143.484 132.710  1.00  0.00    -0.004 C 
ATOM      4  C   UNL     1     145.104 143.792 134.125  1.00  0.00     0.008 C 
ATOM      5  C   UNL     1     144.106 145.011 134.114  1.00  0.00     0.031 C 
ATOM      6  C   UNL     1     144.069 145.723 132.753  1.00  0.00    -0.074 C 
ATOM      7  C   UNL     1     143.391 146.863 132.582  1.00  0.00     0.008 C 
ATOM      8  C   UNL     1     144.833 145.069 131.605  1.00  0.00     0.021 C 
ATOM      9  C   UNL     1     144.516 143.570 131.722  1.00  0.00     0.012 C 
ATOM     10  C   UNL     1     147.001 145.796 132.969  1.00  0.00     0.012 C 
ENDROOT
TORSDOF 0
ENDMDL
MODEL 8
REMARK VINA RESULT:    -4.938      1.166      2.983
REMARK INTER + INTRA:          -4.938
REMARK INTER:                  -4.938
REMARK INTRA:                   0.000
REMARK UNBOUND:                 0.000
REMARK SMILES C=C1CC[C@H]2C[C@@H]1C2(C)C
REMARK SMILES IDX 9 1 8 2 5 3 4 4 3 5 2 6 1 7 7 8 6 9 10 10
REMARK H PARENT
REMARK Flexibility Score: inf
ROOT
ATOM      1  C   UNL     1     143.121 146.126 133.364  1.00  0.00     0.012 C 
ATOM      2  C   UNL     1     144.462 145.865 132.635  1.00  0.00    -0.026 C 
ATOM      3  C   UNL     1     144.272 145.000 131.363  1.00  0.00    -0.004 C 
ATOM      4  C   UNL     1     145.527 145.082 130.435  1.00  0.00     0.008 C 
ATOM      5  C   UNL     1     146.869 144.787 131.205  1.00  0.00     0.031 C 
ATOM      6  C   UNL     1     146.655 144.655 132.721  1.00  0.00    -0.074 C 
ATOM      7  C   UNL     1     147.689 144.544 133.563  1.00  0.00     0.008 C 
ATOM      8  C   UNL     1     145.214 144.649 133.222  1.00  0.00     0.021 C 
ATOM      9  C   UNL     1     144.456 143.747 132.236  1.00  0.00     0.012 C 
ATOM     10  C   UNL     1     145.223 147.214 132.511  1.00  0.00     0.012 C 
ENDROOT
TORSDOF 0
ENDMDL
