MODEL 1
REMARK VINA RESULT:    -7.677      0.000      0.000
REMARK INTER + INTRA:         -10.505
REMARK INTER:                 -10.145
REMARK INTRA:                  -0.360
REMARK UNBOUND:                -0.360
REMARK SMILES CC[C@@H](C=C[C@@H](C)[C@@H]1CC[C@H]2C3=CC[C@@H]4C[C@H](O)CC[C@]4(C)[C@H]3CC[C@]21C)C(C)C
REMARK SMILES IDX 6 1 7 2 5 3 4 4 3 5 2 6 1 7 28 8 29 9 30 10 8 11 9 12 26 13
REMARK SMILES IDX 10 14 11 15 25 16 27 17 12 18 24 19 23 20 13 21 21 22 14 23
REMARK SMILES IDX 15 24 20 25 22 26 16 27 19 28 17 29 18 30
REMARK H PARENT 18 31
REMARK Flexibility Score: inf
ROOT
ATOM      1  C   UNL     1     118.954 128.163 130.096  1.00  0.00     0.012 C 
ATOM      2  C   UNL     1     117.656 128.879 130.518  1.00  0.00     0.012 C 
ENDROOT
BRANCH   1   3
ATOM      3  C   UNL     1     119.753 129.116 129.228  1.00  0.00    -0.028 C 
ATOM      4  C   UNL     1     119.594 130.447 129.319  1.00  0.00    -0.027 C 
BRANCH   4   5
ATOM      5  C   UNL     1     120.358 131.407 128.432  1.00  0.00     0.014 C 
BRANCH   5   6
ATOM      6  C   UNL     1     121.601 131.914 129.204  1.00  0.00     0.004 C 
ATOM      7  C   UNL     1     122.913 131.708 128.448  1.00  0.00     0.004 C 
ENDBRANCH   5   6
BRANCH   5   8
ATOM      8  C   UNL     1     119.438 132.547 127.891  1.00  0.00    -0.011 C 
ATOM      9  C   UNL     1     118.160 132.682 128.737  1.00  0.00     0.008 C 
ATOM     10  C   UNL     1     120.144 133.907 127.785  1.00  0.00     0.008 C 
ENDBRANCH   5   8
ENDBRANCH   4   5
ENDBRANCH   1   3
BRANCH   1  11
ATOM     11  C   UNL     1     118.753 126.786 129.367  1.00  0.00     0.002 C 
ATOM     12  C   UNL     1     118.091 126.860 127.989  1.00  0.00     0.005 C 
ATOM     13  C   UNL     1     118.032 125.609 130.139  1.00  0.00    -0.023 C 
ATOM     14  C   UNL     1     117.637 125.441 127.717  1.00  0.00     0.009 C 
ATOM     15  C   UNL     1     117.117 124.946 129.065  1.00  0.00     0.021 C 
ATOM     16  C   UNL     1     119.113 124.615 130.656  1.00  0.00     0.008 C 
ATOM     17  C   UNL     1     117.147 126.081 131.326  1.00  0.00     0.012 C 
ATOM     18  C   UNL     1     116.994 123.427 129.107  1.00  0.00    -0.067 C 
ATOM     19  C   UNL     1     118.525 123.310 131.185  1.00  0.00     0.009 C 
ATOM     20  C   UNL     1     117.711 122.540 130.118  1.00  0.00     0.021 C 
ATOM     21  C   UNL     1     116.171 122.808 128.233  1.00  0.00    -0.027 C 
ATOM     22  C   UNL     1     118.446 121.302 129.429  1.00  0.00    -0.023 C 
ATOM     23  C   UNL     1     116.209 121.306 128.114  1.00  0.00     0.031 C 
ATOM     24  C   UNL     1     117.692 120.886 128.095  1.00  0.00     0.002 C 
ATOM     25  C   UNL     1     118.465 120.133 130.471  1.00  0.00     0.010 C 
ATOM     26  C   UNL     1     119.903 121.663 129.038  1.00  0.00     0.012 C 
ATOM     27  C   UNL     1     117.897 119.419 127.641  1.00  0.00     0.036 C 
ATOM     28  C   UNL     1     118.793 118.762 129.878  1.00  0.00     0.032 C 
ATOM     29  C   UNL     1     117.806 118.395 128.773  1.00  0.00     0.114 C 
BRANCH  29  30
ATOM     30  O   UNL     1     116.501 118.328 129.287  1.00  0.00    -0.393 OA
ATOM     31  H   UNL     1     116.132 119.249 129.253  1.00  0.00     0.210 HD
ENDBRANCH  29  30
ENDBRANCH   1  11
TORSDOF 6
ENDMDL
MODEL 2
REMARK VINA RESULT:    -7.335      4.189      7.285
REMARK INTER + INTRA:         -10.054
REMARK INTER:                  -8.452
REMARK INTRA:                  -1.602
REMARK UNBOUND:                -0.360
REMARK SMILES CC[C@@H](C=C[C@@H](C)[C@@H]1CC[C@H]2C3=CC[C@@H]4C[C@H](O)CC[C@]4(C)[C@H]3CC[C@]21C)C(C)C
REMARK SMILES IDX 6 1 7 2 5 3 4 4 3 5 2 6 1 7 28 8 29 9 30 10 8 11 9 12 26 13
REMARK SMILES IDX 10 14 11 15 25 16 27 17 12 18 24 19 23 20 13 21 21 22 14 23
REMARK SMILES IDX 15 24 20 25 22 26 16 27 19 28 17 29 18 30
REMARK H PARENT 18 31
REMARK Flexibility Score: inf
ROOT
ATOM      1  C   UNL     1     117.059 124.293 130.025  1.00  0.00     0.012 C 
ATOM      2  C   UNL     1     117.395 125.720 130.499  1.00  0.00     0.012 C 
ENDROOT
BRANCH   1   3
ATOM      3  C   UNL     1     116.555 123.509 131.221  1.00  0.00    -0.028 C 
ATOM      4  C   UNL     1     117.280 122.518 131.764  1.00  0.00    -0.027 C 
BRANCH   4   5
ATOM      5  C   UNL     1     116.772 121.703 132.935  1.00  0.00     0.014 C 
BRANCH   5   6
ATOM      6  C   UNL     1     117.851 120.662 133.321  1.00  0.00     0.004 C 
ATOM      7  C   UNL     1     119.144 120.800 132.517  1.00  0.00     0.004 C 
ENDBRANCH   5   6
BRANCH   5   8
ATOM      8  C   UNL     1     115.370 121.083 132.638  1.00  0.00    -0.011 C 
ATOM      9  C   UNL     1     115.439 120.068 131.485  1.00  0.00     0.008 C 
ATOM     10  C   UNL     1     114.711 120.437 133.868  1.00  0.00     0.008 C 
ENDBRANCH   5   8
ENDBRANCH   4   5
ENDBRANCH   1   3
BRANCH   1  11
ATOM     11  C   UNL     1     118.234 123.527 129.317  1.00  0.00     0.002 C 
ATOM     12  C   UNL     1     119.299 124.413 128.666  1.00  0.00     0.005 C 
ATOM     13  C   UNL     1     117.888 122.405 128.258  1.00  0.00    -0.023 C 
ATOM     14  C   UNL     1     120.035 123.481 127.726  1.00  0.00     0.009 C 
ATOM     15  C   UNL     1     118.936 122.609 127.122  1.00  0.00     0.021 C 
ATOM     16  C   UNL     1     118.049 121.013 128.936  1.00  0.00     0.008 C 
ATOM     17  C   UNL     1     116.463 122.527 127.651  1.00  0.00     0.012 C 
ATOM     18  C   UNL     1     119.498 121.352 126.469  1.00  0.00    -0.067 C 
ATOM     19  C   UNL     1     117.998 119.853 127.946  1.00  0.00     0.009 C 
ATOM     20  C   UNL     1     119.104 119.934 126.866  1.00  0.00     0.021 C 
ATOM     21  C   UNL     1     120.368 121.474 125.442  1.00  0.00    -0.027 C 
ATOM     22  C   UNL     1     120.371 118.988 127.082  1.00  0.00    -0.023 C 
ATOM     23  C   UNL     1     121.099 120.257 124.939  1.00  0.00     0.031 C 
ATOM     24  C   UNL     1     121.581 119.469 126.173  1.00  0.00     0.002 C 
ATOM     25  C   UNL     1     119.928 117.528 126.729  1.00  0.00     0.010 C 
ATOM     26  C   UNL     1     120.858 119.033 128.555  1.00  0.00     0.012 C 
ATOM     27  C   UNL     1     122.628 118.383 125.823  1.00  0.00     0.036 C 
ATOM     28  C   UNL     1     121.083 116.548 126.522  1.00  0.00     0.032 C 
ATOM     29  C   UNL     1     122.023 117.036 125.423  1.00  0.00     0.114 C 
BRANCH  29  30
ATOM     30  O   UNL     1     121.336 117.136 124.203  1.00  0.00    -0.393 OA
ATOM     31  H   UNL     1     120.367 117.175 124.421  1.00  0.00     0.210 HD
ENDBRANCH  29  30
ENDBRANCH   1  11
TORSDOF 6
ENDMDL
MODEL 3
REMARK VINA RESULT:    -7.330      5.378      8.499
REMARK INTER + INTRA:         -10.047
REMARK INTER:                  -8.505
REMARK INTRA:                  -1.542
REMARK UNBOUND:                -0.360
REMARK SMILES CC[C@@H](C=C[C@@H](C)[C@@H]1CC[C@H]2C3=CC[C@@H]4C[C@H](O)CC[C@]4(C)[C@H]3CC[C@]21C)C(C)C
REMARK SMILES IDX 6 1 7 2 5 3 4 4 3 5 2 6 1 7 28 8 29 9 30 10 8 11 9 12 26 13
REMARK SMILES IDX 10 14 11 15 25 16 27 17 12 18 24 19 23 20 13 21 21 22 14 23
REMARK SMILES IDX 15 24 20 25 22 26 16 27 19 28 17 29 18 30
REMARK H PARENT 18 31
REMARK Flexibility Score: inf
ROOT
ATOM      1  C   UNL     1     119.331 122.103 131.572  1.00  0.00     0.012 C 
ATOM      2  C   UNL     1     119.618 121.655 133.018  1.00  0.00     0.012 C 
ENDROOT
BRANCH   1   3
ATOM      3  C   UNL     1     117.829 122.098 131.370  1.00  0.00    -0.028 C 
ATOM      4  C   UNL     1     117.100 120.986 131.562  1.00  0.00    -0.027 C 
BRANCH   4   5
ATOM      5  C   UNL     1     115.604 120.958 131.328  1.00  0.00     0.014 C 
BRANCH   5   6
ATOM      6  C   UNL     1     114.917 120.352 132.577  1.00  0.00     0.004 C 
ATOM      7  C   UNL     1     115.887 120.060 133.723  1.00  0.00     0.004 C 
ENDBRANCH   5   6
BRANCH   5   8
ATOM      8  C   UNL     1     115.245 120.234 129.993  1.00  0.00    -0.011 C 
ATOM      9  C   UNL     1     115.225 121.217 128.810  1.00  0.00     0.008 C 
ATOM     10  C   UNL     1     116.165 119.045 129.672  1.00  0.00     0.008 C 
ENDBRANCH   5   8
ENDBRANCH   4   5
ENDBRANCH   1   3
BRANCH   1  11
ATOM     11  C   UNL     1     120.042 121.256 130.454  1.00  0.00     0.002 C 
ATOM     12  C   UNL     1     121.324 120.539 130.887  1.00  0.00     0.005 C 
ATOM     13  C   UNL     1     120.368 121.941 129.067  1.00  0.00    -0.023 C 
ATOM     14  C   UNL     1     122.008 120.183 129.584  1.00  0.00     0.009 C 
ATOM     15  C   UNL     1     121.782 121.401 128.692  1.00  0.00     0.021 C 
ATOM     16  C   UNL     1     119.297 121.495 128.028  1.00  0.00     0.008 C 
ATOM     17  C   UNL     1     120.424 123.492 129.124  1.00  0.00     0.012 C 
ATOM     18  C   UNL     1     122.033 121.088 127.221  1.00  0.00    -0.067 C 
ATOM     19  C   UNL     1     119.654 121.879 126.595  1.00  0.00     0.009 C 
ATOM     20  C   UNL     1     120.992 121.261 126.121  1.00  0.00     0.021 C 
ATOM     21  C   UNL     1     123.258 120.670 126.836  1.00  0.00    -0.027 C 
ATOM     22  C   UNL     1     120.882 119.978 125.179  1.00  0.00    -0.023 C 
ATOM     23  C   UNL     1     123.459 120.145 125.438  1.00  0.00     0.031 C 
ATOM     24  C   UNL     1     122.272 119.212 125.125  1.00  0.00     0.002 C 
ATOM     25  C   UNL     1     120.442 120.478 123.762  1.00  0.00     0.010 C 
ATOM     26  C   UNL     1     119.828 118.976 125.719  1.00  0.00     0.012 C 
ATOM     27  C   UNL     1     122.507 118.341 123.866  1.00  0.00     0.036 C 
ATOM     28  C   UNL     1     120.636 119.455 122.641  1.00  0.00     0.032 C 
ATOM     29  C   UNL     1     122.094 119.011 122.555  1.00  0.00     0.114 C 
BRANCH  29  30
ATOM     30  O   UNL     1     122.922 120.109 122.269  1.00  0.00    -0.393 OA
ATOM     31  H   UNL     1     123.016 120.147 121.281  1.00  0.00     0.210 HD
ENDBRANCH  29  30
ENDBRANCH   1  11
TORSDOF 6
ENDMDL
MODEL 4
REMARK VINA RESULT:    -7.320      1.351      2.249
REMARK INTER + INTRA:         -10.034
REMARK INTER:                 -10.123
REMARK INTRA:                   0.089
REMARK UNBOUND:                -0.360
REMARK SMILES CC[C@@H](C=C[C@@H](C)[C@@H]1CC[C@H]2C3=CC[C@@H]4C[C@H](O)CC[C@]4(C)[C@H]3CC[C@]21C)C(C)C
REMARK SMILES IDX 6 1 7 2 5 3 4 4 3 5 2 6 1 7 28 8 29 9 30 10 8 11 9 12 26 13
REMARK SMILES IDX 10 14 11 15 25 16 27 17 12 18 24 19 23 20 13 21 21 22 14 23
REMARK SMILES IDX 15 24 20 25 22 26 16 27 19 28 17 29 18 30
REMARK H PARENT 18 31
REMARK Flexibility Score: inf
ROOT
ATOM      1  C   UNL     1     119.721 129.163 130.638  1.00  0.00     0.012 C 
ATOM      2  C   UNL     1     118.630 129.480 131.679  1.00  0.00     0.012 C 
ENDROOT
BRANCH   1   3
ATOM      3  C   UNL     1     119.769 130.309 129.646  1.00  0.00    -0.028 C 
ATOM      4  C   UNL     1     120.467 131.428 129.901  1.00  0.00    -0.027 C 
BRANCH   4   5
ATOM      5  C   UNL     1     120.492 132.594 128.935  1.00  0.00     0.014 C 
BRANCH   5   6
ATOM      6  C   UNL     1     119.589 132.254 127.724  1.00  0.00     0.004 C 
ATOM      7  C   UNL     1     118.968 133.485 127.064  1.00  0.00     0.004 C 
ENDBRANCH   5   6
BRANCH   5   8
ATOM      8  C   UNL     1     121.952 132.987 128.547  1.00  0.00    -0.011 C 
ATOM      9  C   UNL     1     122.554 133.976 129.561  1.00  0.00     0.008 C 
ATOM     10  C   UNL     1     122.887 131.780 128.372  1.00  0.00     0.008 C 
ENDBRANCH   5   8
ENDBRANCH   4   5
ENDBRANCH   1   3
BRANCH   1  11
ATOM     11  C   UNL     1     119.557 127.790 129.891  1.00  0.00     0.002 C 
ATOM     12  C   UNL     1     119.882 127.811 128.396  1.00  0.00     0.005 C 
ATOM     13  C   UNL     1     118.195 127.000 130.034  1.00  0.00    -0.023 C 
ATOM     14  C   UNL     1     119.250 126.544 127.860  1.00  0.00     0.009 C 
ATOM     15  C   UNL     1     117.920 126.440 128.605  1.00  0.00     0.021 C 
ATOM     16  C   UNL     1     118.391 125.850 131.065  1.00  0.00     0.008 C 
ATOM     17  C   UNL     1     116.992 127.885 130.463  1.00  0.00     0.012 C 
ATOM     18  C   UNL     1     117.322 125.041 128.516  1.00  0.00    -0.067 C 
ATOM     19  C   UNL     1     117.229 124.861 131.092  1.00  0.00     0.009 C 
ATOM     20  C   UNL     1     116.993 124.174 129.725  1.00  0.00     0.021 C 
ATOM     21  C   UNL     1     117.014 124.532 127.303  1.00  0.00    -0.027 C 
ATOM     22  C   UNL     1     117.551 122.686 129.578  1.00  0.00    -0.023 C 
ATOM     23  C   UNL     1     116.637 123.079 127.181  1.00  0.00     0.031 C 
ATOM     24  C   UNL     1     117.627 122.274 128.046  1.00  0.00     0.002 C 
ATOM     25  C   UNL     1     116.592 121.747 130.383  1.00  0.00     0.010 C 
ATOM     26  C   UNL     1     118.987 122.568 130.156  1.00  0.00     0.012 C 
ATOM     27  C   UNL     1     117.579 120.753 127.760  1.00  0.00     0.036 C 
ATOM     28  C   UNL     1     116.747 120.259 130.063  1.00  0.00     0.032 C 
ATOM     29  C   UNL     1     116.530 119.996 128.575  1.00  0.00     0.114 C 
BRANCH  29  30
ATOM     30  O   UNL     1     115.231 120.372 128.197  1.00  0.00    -0.393 OA
ATOM     31  H   UNL     1     114.612 119.704 128.593  1.00  0.00     0.210 HD
ENDBRANCH  29  30
ENDBRANCH   1  11
TORSDOF 6
ENDMDL
MODEL 5
REMARK VINA RESULT:    -7.314      7.867     10.559
REMARK INTER + INTRA:         -10.026
REMARK INTER:                  -9.122
REMARK INTRA:                  -0.904
REMARK UNBOUND:                -0.360
REMARK SMILES CC[C@@H](C=C[C@@H](C)[C@@H]1CC[C@H]2C3=CC[C@@H]4C[C@H](O)CC[C@]4(C)[C@H]3CC[C@]21C)C(C)C
REMARK SMILES IDX 6 1 7 2 5 3 4 4 3 5 2 6 1 7 28 8 29 9 30 10 8 11 9 12 26 13
REMARK SMILES IDX 10 14 11 15 25 16 27 17 12 18 24 19 23 20 13 21 21 22 14 23
REMARK SMILES IDX 15 24 20 25 22 26 16 27 19 28 17 29 18 30
REMARK H PARENT 18 31
REMARK Flexibility Score: inf
ROOT
ATOM      1  C   UNL     1     121.138 119.947 126.174  1.00  0.00     0.012 C 
ATOM      2  C   UNL     1     119.697 119.410 126.254  1.00  0.00     0.012 C 
ENDROOT
BRANCH   1   3
ATOM      3  C   UNL     1     121.177 121.290 126.876  1.00  0.00    -0.028 C 
ATOM      4  C   UNL     1     120.288 122.256 126.589  1.00  0.00    -0.027 C 
BRANCH   4   5
ATOM      5  C   UNL     1     120.338 123.614 127.257  1.00  0.00     0.014 C 
BRANCH   5   6
ATOM      6  C   UNL     1     120.013 123.440 128.761  1.00  0.00     0.004 C 
ATOM      7  C   UNL     1     121.181 123.796 129.681  1.00  0.00     0.004 C 
ENDBRANCH   5   6
BRANCH   5   8
ATOM      8  C   UNL     1     119.425 124.648 126.526  1.00  0.00    -0.011 C 
ATOM      9  C   UNL     1     117.977 124.140 126.419  1.00  0.00     0.008 C 
ATOM     10  C   UNL     1     119.445 126.046 127.166  1.00  0.00     0.008 C 
ENDBRANCH   5   8
ENDBRANCH   4   5
ENDBRANCH   1   3
BRANCH   1  11
ATOM     11  C   UNL     1     121.731 120.065 124.722  1.00  0.00     0.002 C 
ATOM     12  C   UNL     1     120.727 120.439 123.630  1.00  0.00     0.005 C 
ATOM     13  C   UNL     1     122.583 118.864 124.145  1.00  0.00    -0.023 C 
ATOM     14  C   UNL     1     121.426 120.069 122.339  1.00  0.00     0.009 C 
ATOM     15  C   UNL     1     122.133 118.753 122.656  1.00  0.00     0.021 C 
ATOM     16  C   UNL     1     124.093 119.227 124.255  1.00  0.00     0.008 C 
ATOM     17  C   UNL     1     122.320 117.506 124.849  1.00  0.00     0.012 C 
ATOM     18  C   UNL     1     123.214 118.423 121.632  1.00  0.00    -0.067 C 
ATOM     19  C   UNL     1     124.999 118.264 123.493  1.00  0.00     0.009 C 
ATOM     20  C   UNL     1     124.682 118.211 121.979  1.00  0.00     0.021 C 
ATOM     21  C   UNL     1     122.867 118.261 120.337  1.00  0.00    -0.027 C 
ATOM     22  C   UNL     1     125.659 119.035 121.025  1.00  0.00    -0.023 C 
ATOM     23  C   UNL     1     123.943 118.159 119.287  1.00  0.00     0.031 C 
ATOM     24  C   UNL     1     124.991 119.245 119.599  1.00  0.00     0.002 C 
ATOM     25  C   UNL     1     126.999 118.232 120.923  1.00  0.00     0.010 C 
ATOM     26  C   UNL     1     125.951 120.445 121.605  1.00  0.00     0.012 C 
ATOM     27  C   UNL     1     125.976 119.486 118.428  1.00  0.00     0.036 C 
ATOM     28  C   UNL     1     127.914 118.667 119.777  1.00  0.00     0.032 C 
ATOM     29  C   UNL     1     127.194 118.561 118.434  1.00  0.00     0.114 C 
BRANCH  29  30
ATOM     30  O   UNL     1     126.817 117.231 118.187  1.00  0.00    -0.393 OA
ATOM     31  H   UNL     1     127.618 116.769 117.825  1.00  0.00     0.210 HD
ENDBRANCH  29  30
ENDBRANCH   1  11
TORSDOF 6
ENDMDL
MODEL 6
REMARK VINA RESULT:    -7.204      4.766      8.159
REMARK INTER + INTRA:          -9.881
REMARK INTER:                  -8.563
REMARK INTRA:                  -1.318
REMARK UNBOUND:                -0.360
REMARK SMILES CC[C@@H](C=C[C@@H](C)[C@@H]1CC[C@H]2C3=CC[C@@H]4C[C@H](O)CC[C@]4(C)[C@H]3CC[C@]21C)C(C)C
REMARK SMILES IDX 6 1 7 2 5 3 4 4 3 5 2 6 1 7 28 8 29 9 30 10 8 11 9 12 26 13
REMARK SMILES IDX 10 14 11 15 25 16 27 17 12 18 24 19 23 20 13 21 21 22 14 23
REMARK SMILES IDX 15 24 20 25 22 26 16 27 19 28 17 29 18 30
REMARK H PARENT 18 31
REMARK Flexibility Score: inf
ROOT
ATOM      1  C   UNL     1     117.449 123.835 130.308  1.00  0.00     0.012 C 
ATOM      2  C   UNL     1     117.378 125.215 130.990  1.00  0.00     0.012 C 
ENDROOT
BRANCH   1   3
ATOM      3  C   UNL     1     116.730 122.837 131.195  1.00  0.00    -0.028 C 
ATOM      4  C   UNL     1     117.220 121.603 131.400  1.00  0.00    -0.027 C 
BRANCH   4   5
ATOM      5  C   UNL     1     116.493 120.585 132.253  1.00  0.00     0.014 C 
BRANCH   5   6
ATOM      6  C   UNL     1     115.262 120.069 131.468  1.00  0.00     0.004 C 
ATOM      7  C   UNL     1     115.622 119.417 130.133  1.00  0.00     0.004 C 
ENDBRANCH   5   6
BRANCH   5   8
ATOM      8  C   UNL     1     116.152 121.157 133.665  1.00  0.00    -0.011 C 
ATOM      9  C   UNL     1     114.792 120.640 134.165  1.00  0.00     0.008 C 
ATOM     10  C   UNL     1     117.237 120.883 134.718  1.00  0.00     0.008 C 
ENDBRANCH   5   8
ENDBRANCH   4   5
ENDBRANCH   1   3
BRANCH   1  11
ATOM     11  C   UNL     1     118.898 123.330 129.967  1.00  0.00     0.002 C 
ATOM     12  C   UNL     1     120.031 124.002 130.747  1.00  0.00     0.005 C 
ATOM     13  C   UNL     1     119.362 123.300 128.456  1.00  0.00    -0.023 C 
ATOM     14  C   UNL     1     121.277 123.669 129.954  1.00  0.00     0.009 C 
ATOM     15  C   UNL     1     120.841 123.791 128.495  1.00  0.00     0.021 C 
ATOM     16  C   UNL     1     119.264 121.837 127.933  1.00  0.00     0.008 C 
ATOM     17  C   UNL     1     118.548 124.241 127.526  1.00  0.00     0.012 C 
ATOM     18  C   UNL     1     121.820 123.109 127.547  1.00  0.00    -0.067 C 
ATOM     19  C   UNL     1     119.931 121.638 126.575  1.00  0.00     0.009 C 
ATOM     20  C   UNL     1     121.439 121.987 126.588  1.00  0.00     0.021 C 
ATOM     21  C   UNL     1     123.101 123.535 127.503  1.00  0.00    -0.027 C 
ATOM     22  C   UNL     1     122.448 120.754 126.661  1.00  0.00    -0.023 C 
ATOM     23  C   UNL     1     124.125 122.732 126.744  1.00  0.00     0.031 C 
ATOM     24  C   UNL     1     123.894 121.248 127.093  1.00  0.00     0.002 C 
ATOM     25  C   UNL     1     122.465 120.081 125.247  1.00  0.00     0.010 C 
ATOM     26  C   UNL     1     121.985 119.714 127.717  1.00  0.00     0.012 C 
ATOM     27  C   UNL     1     125.069 120.337 126.660  1.00  0.00     0.036 C 
ATOM     28  C   UNL     1     123.633 119.121 125.017  1.00  0.00     0.032 C 
ATOM     29  C   UNL     1     124.970 119.829 125.221  1.00  0.00     0.114 C 
BRANCH  29  30
ATOM     30  O   UNL     1     125.108 120.884 124.304  1.00  0.00    -0.393 OA
ATOM     31  H   UNL     1     125.533 120.504 123.491  1.00  0.00     0.210 HD
ENDBRANCH  29  30
ENDBRANCH   1  11
TORSDOF 6
ENDMDL
MODEL 7
REMARK VINA RESULT:    -7.201      3.023      5.905
REMARK INTER + INTRA:          -9.877
REMARK INTER:                  -8.198
REMARK INTRA:                  -1.679
REMARK UNBOUND:                -0.360
REMARK SMILES CC[C@@H](C=C[C@@H](C)[C@@H]1CC[C@H]2C3=CC[C@@H]4C[C@H](O)CC[C@]4(C)[C@H]3CC[C@]21C)C(C)C
REMARK SMILES IDX 6 1 7 2 5 3 4 4 3 5 2 6 1 7 28 8 29 9 30 10 8 11 9 12 26 13
REMARK SMILES IDX 10 14 11 15 25 16 27 17 12 18 24 19 23 20 13 21 21 22 14 23
REMARK SMILES IDX 15 24 20 25 22 26 16 27 19 28 17 29 18 30
REMARK H PARENT 18 31
REMARK Flexibility Score: inf
ROOT
ATOM      1  C   UNL     1     116.433 122.372 131.223  1.00  0.00     0.012 C 
ATOM      2  C   UNL     1     115.011 122.048 131.722  1.00  0.00     0.012 C 
ENDROOT
BRANCH   1   3
ATOM      3  C   UNL     1     116.602 123.878 131.236  1.00  0.00    -0.028 C 
ATOM      4  C   UNL     1     117.242 124.520 130.244  1.00  0.00    -0.027 C 
BRANCH   4   5
ATOM      5  C   UNL     1     117.450 126.020 130.264  1.00  0.00     0.014 C 
BRANCH   5   6
ATOM      6  C   UNL     1     116.875 126.618 128.956  1.00  0.00     0.004 C 
ATOM      7  C   UNL     1     116.714 125.589 127.837  1.00  0.00     0.004 C 
ENDBRANCH   5   6
BRANCH   5   8
ATOM      8  C   UNL     1     118.943 126.389 130.528  1.00  0.00    -0.011 C 
ATOM      9  C   UNL     1     119.876 125.205 130.223  1.00  0.00     0.008 C 
ATOM     10  C   UNL     1     119.412 127.637 129.763  1.00  0.00     0.008 C 
ENDBRANCH   5   8
ENDBRANCH   4   5
ENDBRANCH   1   3
BRANCH   1  11
ATOM     11  C   UNL     1     116.797 121.786 129.811  1.00  0.00     0.002 C 
ATOM     12  C   UNL     1     115.655 121.078 129.077  1.00  0.00     0.005 C 
ATOM     13  C   UNL     1     118.059 120.843 129.676  1.00  0.00    -0.023 C 
ATOM     14  C   UNL     1     116.349 120.267 128.004  1.00  0.00     0.009 C 
ATOM     15  C   UNL     1     117.602 119.725 128.690  1.00  0.00     0.021 C 
ATOM     16  C   UNL     1     119.239 121.670 129.088  1.00  0.00     0.008 C 
ATOM     17  C   UNL     1     118.499 120.182 131.011  1.00  0.00     0.012 C 
ATOM     18  C   UNL     1     118.634 119.228 127.685  1.00  0.00    -0.067 C 
ATOM     19  C   UNL     1     120.426 120.808 128.668  1.00  0.00     0.009 C 
ATOM     20  C   UNL     1     120.059 119.761 127.589  1.00  0.00     0.021 C 
ATOM     21  C   UNL     1     118.306 118.222 126.845  1.00  0.00    -0.027 C 
ATOM     22  C   UNL     1     120.477 120.116 126.091  1.00  0.00    -0.023 C 
ATOM     23  C   UNL     1     119.228 117.874 125.706  1.00  0.00     0.031 C 
ATOM     24  C   UNL     1     119.684 119.199 125.065  1.00  0.00     0.002 C 
ATOM     25  C   UNL     1     122.024 119.907 125.977  1.00  0.00     0.010 C 
ATOM     26  C   UNL     1     120.133 121.590 125.748  1.00  0.00     0.012 C 
ATOM     27  C   UNL     1     120.360 119.000 123.685  1.00  0.00     0.036 C 
ATOM     28  C   UNL     1     122.551 119.842 124.542  1.00  0.00     0.032 C 
ATOM     29  C   UNL     1     121.863 118.727 123.759  1.00  0.00     0.114 C 
BRANCH  29  30
ATOM     30  O   UNL     1     122.119 117.482 124.355  1.00  0.00    -0.393 OA
ATOM     31  H   UNL     1     122.609 116.938 123.684  1.00  0.00     0.210 HD
ENDBRANCH  29  30
ENDBRANCH   1  11
TORSDOF 6
ENDMDL
MODEL 8
REMARK VINA RESULT:    -7.174      3.331      8.958
REMARK INTER + INTRA:          -9.841
REMARK INTER:                  -8.422
REMARK INTRA:                  -1.419
REMARK UNBOUND:                -0.360
REMARK SMILES CC[C@@H](C=C[C@@H](C)[C@@H]1CC[C@H]2C3=CC[C@@H]4C[C@H](O)CC[C@]4(C)[C@H]3CC[C@]21C)C(C)C
REMARK SMILES IDX 6 1 7 2 5 3 4 4 3 5 2 6 1 7 28 8 29 9 30 10 8 11 9 12 26 13
REMARK SMILES IDX 10 14 11 15 25 16 27 17 12 18 24 19 23 20 13 21 21 22 14 23
REMARK SMILES IDX 15 24 20 25 22 26 16 27 19 28 17 29 18 30
REMARK H PARENT 18 31
REMARK Flexibility Score: inf
ROOT
ATOM      1  C   UNL     1     118.474 118.003 128.073  1.00  0.00     0.012 C 
ATOM      2  C   UNL     1     118.550 116.715 128.916  1.00  0.00     0.012 C 
ENDROOT
BRANCH   1   3
ATOM      3  C   UNL     1     119.545 117.925 127.003  1.00  0.00    -0.028 C 
ATOM      4  C   UNL     1     119.411 118.567 125.830  1.00  0.00    -0.027 C 
BRANCH   4   5
ATOM      5  C   UNL     1     120.456 118.468 124.739  1.00  0.00     0.014 C 
BRANCH   5   6
ATOM      6  C   UNL     1     121.573 117.503 125.208  1.00  0.00     0.004 C 
ATOM      7  C   UNL     1     122.912 118.198 125.457  1.00  0.00     0.004 C 
ENDBRANCH   5   6
BRANCH   5   8
ATOM      8  C   UNL     1     120.974 119.876 124.309  1.00  0.00    -0.011 C 
ATOM      9  C   UNL     1     120.728 120.130 122.812  1.00  0.00     0.008 C 
ATOM     10  C   UNL     1     120.385 121.027 125.141  1.00  0.00     0.008 C 
ENDBRANCH   5   8
ENDBRANCH   4   5
ENDBRANCH   1   3
BRANCH   1  11
ATOM     11  C   UNL     1     118.599 119.343 128.885  1.00  0.00     0.002 C 
ATOM     12  C   UNL     1     118.635 119.190 130.408  1.00  0.00     0.005 C 
ATOM     13  C   UNL     1     117.582 120.516 128.585  1.00  0.00    -0.023 C 
ATOM     14  C   UNL     1     118.326 120.577 130.929  1.00  0.00     0.009 C 
ATOM     15  C   UNL     1     117.241 121.101 129.989  1.00  0.00     0.021 C 
ATOM     16  C   UNL     1     118.291 121.573 127.688  1.00  0.00     0.008 C 
ATOM     17  C   UNL     1     116.265 120.053 127.903  1.00  0.00     0.012 C 
ATOM     18  C   UNL     1     117.082 122.613 130.086  1.00  0.00    -0.067 C 
ATOM     19  C   UNL     1     117.501 122.871 127.550  1.00  0.00     0.009 C 
ATOM     20  C   UNL     1     117.244 123.567 128.909  1.00  0.00     0.021 C 
ATOM     21  C   UNL     1     116.732 123.165 131.269  1.00  0.00    -0.027 C 
ATOM     22  C   UNL     1     118.186 124.808 129.254  1.00  0.00    -0.023 C 
ATOM     23  C   UNL     1     116.790 124.661 131.437  1.00  0.00     0.031 C 
ATOM     24  C   UNL     1     118.111 125.142 130.805  1.00  0.00     0.002 C 
ATOM     25  C   UNL     1     117.707 126.014 128.379  1.00  0.00     0.010 C 
ATOM     26  C   UNL     1     119.670 124.493 128.925  1.00  0.00     0.012 C 
ATOM     27  C   UNL     1     118.470 126.598 131.193  1.00  0.00     0.036 C 
ATOM     28  C   UNL     1     118.241 127.375 128.830  1.00  0.00     0.032 C 
ATOM     29  C   UNL     1     117.855 127.659 130.279  1.00  0.00     0.114 C 
BRANCH  29  30
ATOM     30  O   UNL     1     116.458 127.691 130.415  1.00  0.00    -0.393 OA
ATOM     31  H   UNL     1     116.196 128.648 130.464  1.00  0.00     0.210 HD
ENDBRANCH  29  30
ENDBRANCH   1  11
TORSDOF 6
ENDMDL
MODEL 9
REMARK VINA RESULT:    -7.163      4.500      9.261
REMARK INTER + INTRA:          -9.826
REMARK INTER:                  -8.140
REMARK INTRA:                  -1.687
REMARK UNBOUND:                -0.360
REMARK SMILES CC[C@@H](C=C[C@@H](C)[C@@H]1CC[C@H]2C3=CC[C@@H]4C[C@H](O)CC[C@]4(C)[C@H]3CC[C@]21C)C(C)C
REMARK SMILES IDX 6 1 7 2 5 3 4 4 3 5 2 6 1 7 28 8 29 9 30 10 8 11 9 12 26 13
REMARK SMILES IDX 10 14 11 15 25 16 27 17 12 18 24 19 23 20 13 21 21 22 14 23
REMARK SMILES IDX 15 24 20 25 22 26 16 27 19 28 17 29 18 30
REMARK H PARENT 18 31
REMARK Flexibility Score: inf
ROOT
ATOM      1  C   UNL     1     124.313 119.749 126.208  1.00  0.00     0.012 C 
ATOM      2  C   UNL     1     125.810 119.940 125.896  1.00  0.00     0.012 C 
ENDROOT
BRANCH   1   3
ATOM      3  C   UNL     1     123.683 119.011 125.044  1.00  0.00    -0.028 C 
ATOM      4  C   UNL     1     123.128 119.671 124.014  1.00  0.00    -0.027 C 
BRANCH   4   5
ATOM      5  C   UNL     1     122.462 118.946 122.863  1.00  0.00     0.014 C 
BRANCH   5   6
ATOM      6  C   UNL     1     123.244 119.255 121.563  1.00  0.00     0.004 C 
ATOM      7  C   UNL     1     122.949 118.274 120.428  1.00  0.00     0.004 C 
ENDBRANCH   5   6
BRANCH   5   8
ATOM      8  C   UNL     1     120.938 119.274 122.781  1.00  0.00    -0.011 C 
ATOM      9  C   UNL     1     120.150 118.554 123.888  1.00  0.00     0.008 C 
ATOM     10  C   UNL     1     120.632 120.780 122.813  1.00  0.00     0.008 C 
ENDBRANCH   5   8
ENDBRANCH   4   5
ENDBRANCH   1   3
BRANCH   1  11
ATOM     11  C   UNL     1     123.520 121.070 126.521  1.00  0.00     0.002 C 
ATOM     12  C   UNL     1     124.366 122.246 127.012  1.00  0.00     0.005 C 
ATOM     13  C   UNL     1     122.265 120.999 127.481  1.00  0.00    -0.023 C 
ATOM     14  C   UNL     1     123.362 123.196 127.630  1.00  0.00     0.009 C 
ATOM     15  C   UNL     1     122.377 122.283 128.358  1.00  0.00     0.021 C 
ATOM     16  C   UNL     1     120.972 121.016 126.613  1.00  0.00     0.008 C 
ATOM     17  C   UNL     1     122.251 119.757 128.413  1.00  0.00     0.012 C 
ATOM     18  C   UNL     1     121.076 123.002 128.697  1.00  0.00    -0.067 C 
ATOM     19  C   UNL     1     119.701 121.217 127.433  1.00  0.00     0.009 C 
ATOM     20  C   UNL     1     119.700 122.545 128.227  1.00  0.00     0.021 C 
ATOM     21  C   UNL     1     121.113 124.088 129.500  1.00  0.00    -0.027 C 
ATOM     22  C   UNL     1     118.842 123.738 127.604  1.00  0.00    -0.023 C 
ATOM     23  C   UNL     1     119.877 124.934 129.662  1.00  0.00     0.031 C 
ATOM     24  C   UNL     1     119.264 125.122 128.260  1.00  0.00     0.002 C 
ATOM     25  C   UNL     1     117.333 123.411 127.863  1.00  0.00     0.010 C 
ATOM     26  C   UNL     1     119.084 123.863 126.076  1.00  0.00     0.012 C 
ATOM     27  C   UNL     1     118.190 126.237 128.216  1.00  0.00     0.036 C 
ATOM     28  C   UNL     1     116.386 124.597 127.669  1.00  0.00     0.032 C 
ATOM     29  C   UNL     1     116.780 125.763 128.572  1.00  0.00     0.114 C 
BRANCH  29  30
ATOM     30  O   UNL     1     116.704 125.382 129.922  1.00  0.00    -0.393 OA
ATOM     31  H   UNL     1     117.511 125.749 130.370  1.00  0.00     0.210 HD
ENDBRANCH  29  30
ENDBRANCH   1  11
TORSDOF 6
ENDMDL
