MODEL 1
REMARK VINA RESULT:    -3.656      0.000      0.000
REMARK INTER + INTRA:          -6.190
REMARK INTER:                  -5.794
REMARK INTRA:                  -0.396
REMARK UNBOUND:                -0.396
REMARK SMILES CCCCCCCCCCCC(=O)[O-]
REMARK SMILES IDX 7 1 8 2 9 3 10 4 11 5 12 6 13 7 14 8 6 9 5 10 4 11 3 12 2 13
REMARK SMILES IDX 1 14
REMARK H PARENT
REMARK Flexibility Score: inf
ROOT
ATOM      1  C   UNL     1      -2.538  37.726  19.411  1.00  0.00     0.000 C 
ENDROOT
BRANCH   1   2
ATOM      2  C   UNL     1      -4.007  37.422  19.074  1.00  0.00     0.000 C 
BRANCH   2   3
ATOM      3  C   UNL     1      -4.883  37.280  20.330  1.00  0.00     0.000 C 
BRANCH   3   4
ATOM      4  C   UNL     1      -5.112  35.810  20.732  1.00  0.00     0.006 C 
BRANCH   4   5
ATOM      5  C   UNL     1      -4.135  35.283  21.795  1.00  0.00     0.053 C 
BRANCH   5   6
ATOM      6  C   UNL     1      -4.807  35.057  23.113  1.00  0.00     0.041 C 
ATOM      7  O   UNL     1      -5.114  33.892  23.479  1.00  0.00    -0.550 OA
ATOM      8  O   UNL     1      -5.125  36.140  23.925  1.00  0.00    -0.550 OA
ENDBRANCH   5   6
ENDBRANCH   4   5
ENDBRANCH   3   4
ENDBRANCH   2   3
ENDBRANCH   1   2
BRANCH   1   9
ATOM      9  C   UNL     1      -1.575  37.346  18.274  1.00  0.00     0.000 C 
BRANCH   9  10
ATOM     10  C   UNL     1      -2.262  37.487  16.907  1.00  0.00    -0.000 C 
BRANCH  10  11
ATOM     11  C   UNL     1      -1.919  36.336  15.948  1.00  0.00    -0.000 C 
BRANCH  11  12
ATOM     12  C   UNL     1      -2.249  36.668  14.483  1.00  0.00    -0.000 C 
BRANCH  12  13
ATOM     13  C   UNL     1      -3.761  36.779  14.230  1.00  0.00    -0.003 C 
ATOM     14  C   UNL     1      -4.268  38.219  14.292  1.00  0.00     0.004 C 
ENDBRANCH  12  13
ENDBRANCH  11  12
ENDBRANCH  10  11
ENDBRANCH   9  10
ENDBRANCH   1   9
TORSDOF 10
ENDMDL
MODEL 2
REMARK VINA RESULT:    -3.360      3.834      6.916
REMARK INTER + INTRA:          -5.721
REMARK INTER:                  -5.075
REMARK INTRA:                  -0.646
REMARK UNBOUND:                -0.396
REMARK SMILES CCCCCCCCCCCC(=O)[O-]
REMARK SMILES IDX 7 1 8 2 9 3 10 4 11 5 12 6 13 7 14 8 6 9 5 10 4 11 3 12 2 13
REMARK SMILES IDX 1 14
REMARK H PARENT
REMARK Flexibility Score: inf
ROOT
ATOM      1  C   UNL     1      -2.058  37.692  19.013  1.00  0.00     0.000 C 
ENDROOT
BRANCH   1   2
ATOM      2  C   UNL     1      -2.551  37.665  17.557  1.00  0.00     0.000 C 
BRANCH   2   3
ATOM      3  C   UNL     1      -1.715  36.728  16.668  1.00  0.00     0.000 C 
BRANCH   3   4
ATOM      4  C   UNL     1      -2.553  36.040  15.574  1.00  0.00     0.006 C 
BRANCH   4   5
ATOM      5  C   UNL     1      -2.699  36.854  14.278  1.00  0.00     0.053 C 
BRANCH   5   6
ATOM      6  C   UNL     1      -3.967  37.648  14.254  1.00  0.00     0.041 C 
ATOM      7  O   UNL     1      -5.044  37.115  13.877  1.00  0.00    -0.550 OA
ATOM      8  O   UNL     1      -3.955  38.989  14.619  1.00  0.00    -0.550 OA
ENDBRANCH   5   6
ENDBRANCH   4   5
ENDBRANCH   3   4
ENDBRANCH   2   3
ENDBRANCH   1   2
BRANCH   1   9
ATOM      9  C   UNL     1      -3.204  37.593  20.031  1.00  0.00     0.000 C 
BRANCH   9  10
ATOM     10  C   UNL     1      -4.499  37.123  19.352  1.00  0.00    -0.000 C 
BRANCH  10  11
ATOM     11  C   UNL     1      -4.981  35.759  19.871  1.00  0.00    -0.000 C 
BRANCH  11  12
ATOM     12  C   UNL     1      -4.253  35.323  21.155  1.00  0.00    -0.000 C 
BRANCH  12  13
ATOM     13  C   UNL     1      -5.125  35.486  22.410  1.00  0.00    -0.003 C 
ATOM     14  C   UNL     1      -4.637  34.639  23.584  1.00  0.00     0.004 C 
ENDBRANCH  12  13
ENDBRANCH  11  12
ENDBRANCH  10  11
ENDBRANCH   9  10
ENDBRANCH   1   9
TORSDOF 10
ENDMDL
MODEL 3
REMARK VINA RESULT:    -2.403      4.012      7.586
REMARK INTER + INTRA:          -4.204
REMARK INTER:                  -3.793
REMARK INTRA:                  -0.411
REMARK UNBOUND:                -0.396
REMARK SMILES CCCCCCCCCCCC(=O)[O-]
REMARK SMILES IDX 7 1 8 2 9 3 10 4 11 5 12 6 13 7 14 8 6 9 5 10 4 11 3 12 2 13
REMARK SMILES IDX 1 14
REMARK H PARENT
REMARK Flexibility Score: inf
ROOT
ATOM      1  C   UNL     1      -2.869  36.668  20.421  1.00  0.00     0.000 C 
ENDROOT
BRANCH   1   2
ATOM      2  C   UNL     1      -3.145  37.558  19.198  1.00  0.00     0.000 C 
BRANCH   2   3
ATOM      3  C   UNL     1      -1.887  37.798  18.346  1.00  0.00     0.000 C 
BRANCH   3   4
ATOM      4  C   UNL     1      -1.868  36.951  17.060  1.00  0.00     0.006 C 
BRANCH   4   5
ATOM      5  C   UNL     1      -3.252  36.723  16.429  1.00  0.00     0.053 C 
BRANCH   5   6
ATOM      6  C   UNL     1      -3.227  36.901  14.943  1.00  0.00     0.041 C 
ATOM      7  O   UNL     1      -2.213  36.560  14.279  1.00  0.00    -0.550 OA
ATOM      8  O   UNL     1      -4.314  37.474  14.294  1.00  0.00    -0.550 OA
ENDBRANCH   5   6
ENDBRANCH   4   5
ENDBRANCH   3   4
ENDBRANCH   2   3
ENDBRANCH   1   2
BRANCH   1   9
ATOM      9  C   UNL     1      -4.126  35.940  20.924  1.00  0.00     0.000 C 
BRANCH   9  10
ATOM     10  C   UNL     1      -3.768  34.929  22.023  1.00  0.00    -0.000 C 
BRANCH  10  11
ATOM     11  C   UNL     1      -4.824  34.864  23.138  1.00  0.00    -0.000 C 
BRANCH  11  12
ATOM     12  C   UNL     1      -5.110  36.240  23.762  1.00  0.00    -0.000 C 
BRANCH  12  13
ATOM     13  C   UNL     1      -4.593  36.352  25.205  1.00  0.00    -0.003 C 
ATOM     14  C   UNL     1      -5.069  37.622  25.909  1.00  0.00     0.004 C 
ENDBRANCH  12  13
ENDBRANCH  11  12
ENDBRANCH  10  11
ENDBRANCH   9  10
ENDBRANCH   1   9
TORSDOF 10
ENDMDL
MODEL 4
REMARK VINA RESULT:    -2.399      2.864      3.651
REMARK INTER + INTRA:          -4.197
REMARK INTER:                  -3.361
REMARK INTRA:                  -0.836
REMARK UNBOUND:                -0.396
REMARK SMILES CCCCCCCCCCCC(=O)[O-]
REMARK SMILES IDX 7 1 8 2 9 3 10 4 11 5 12 6 13 7 14 8 6 9 5 10 4 11 3 12 2 13
REMARK SMILES IDX 1 14
REMARK H PARENT
REMARK Flexibility Score: inf
ROOT
ATOM      1  C   UNL     1      -5.100  34.587  18.359  1.00  0.00     0.000 C 
ENDROOT
BRANCH   1   2
ATOM      2  C   UNL     1      -5.072  35.842  19.246  1.00  0.00     0.000 C 
BRANCH   2   3
ATOM      3  C   UNL     1      -4.390  35.592  20.602  1.00  0.00     0.000 C 
BRANCH   3   4
ATOM      4  C   UNL     1      -3.214  36.552  20.864  1.00  0.00     0.006 C 
BRANCH   4   5
ATOM      5  C   UNL     1      -2.986  37.594  19.757  1.00  0.00     0.053 C 
BRANCH   5   6
ATOM      6  C   UNL     1      -1.534  37.761  19.434  1.00  0.00     0.041 C 
ATOM      7  O   UNL     1      -1.182  38.330  18.368  1.00  0.00    -0.550 OA
ATOM      8  O   UNL     1      -0.568  37.260  20.298  1.00  0.00    -0.550 OA
ENDBRANCH   5   6
ENDBRANCH   4   5
ENDBRANCH   3   4
ENDBRANCH   2   3
ENDBRANCH   1   2
BRANCH   1   9
ATOM      9  C   UNL     1      -4.002  34.594  17.284  1.00  0.00     0.000 C 
BRANCH   9  10
ATOM     10  C   UNL     1      -3.719  36.025  16.801  1.00  0.00    -0.000 C 
BRANCH  10  11
ATOM     11  C   UNL     1      -2.371  36.151  16.074  1.00  0.00    -0.000 C 
BRANCH  11  12
ATOM     12  C   UNL     1      -2.519  36.694  14.642  1.00  0.00    -0.000 C 
BRANCH  12  13
ATOM     13  C   UNL     1      -3.976  37.031  14.289  1.00  0.00    -0.003 C 
ATOM     14  C   UNL     1      -4.234  38.536  14.211  1.00  0.00     0.004 C 
ENDBRANCH  12  13
ENDBRANCH  11  12
ENDBRANCH  10  11
ENDBRANCH   9  10
ENDBRANCH   1   9
TORSDOF 10
ENDMDL
MODEL 5
REMARK VINA RESULT:    -1.220      4.060      6.218
REMARK INTER + INTRA:          -2.330
REMARK INTER:                  -1.620
REMARK INTRA:                  -0.709
REMARK UNBOUND:                -0.396
REMARK SMILES CCCCCCCCCCCC(=O)[O-]
REMARK SMILES IDX 7 1 8 2 9 3 10 4 11 5 12 6 13 7 14 8 6 9 5 10 4 11 3 12 2 13
REMARK SMILES IDX 1 14
REMARK H PARENT
REMARK Flexibility Score: inf
ROOT
ATOM      1  C   UNL     1      -5.125  35.052  19.379  1.00  0.00     0.000 C 
ENDROOT
BRANCH   1   2
ATOM      2  C   UNL     1      -4.820  35.717  18.027  1.00  0.00     0.000 C 
BRANCH   2   3
ATOM      3  C   UNL     1      -3.711  34.988  17.248  1.00  0.00     0.000 C 
BRANCH   3   4
ATOM      4  C   UNL     1      -2.802  35.953  16.463  1.00  0.00     0.006 C 
BRANCH   4   5
ATOM      5  C   UNL     1      -3.427  37.330  16.186  1.00  0.00     0.053 C 
BRANCH   5   6
ATOM      6  C   UNL     1      -3.616  37.577  14.722  1.00  0.00     0.041 C 
ATOM      7  O   UNL     1      -3.076  36.817  13.875  1.00  0.00    -0.550 OA
ATOM      8  O   UNL     1      -4.363  38.667  14.291  1.00  0.00    -0.550 OA
ENDBRANCH   5   6
ENDBRANCH   4   5
ENDBRANCH   3   4
ENDBRANCH   2   3
ENDBRANCH   1   2
BRANCH   1   9
ATOM      9  C   UNL     1      -4.946  36.011  20.567  1.00  0.00     0.000 C 
BRANCH   9  10
ATOM     10  C   UNL     1      -3.638  35.714  21.316  1.00  0.00    -0.000 C 
BRANCH  10  11
ATOM     11  C   UNL     1      -2.403  36.299  20.611  1.00  0.00    -0.000 C 
BRANCH  11  12
ATOM     12  C   UNL     1      -2.702  37.633  19.905  1.00  0.00    -0.000 C 
BRANCH  12  13
ATOM     13  C   UNL     1      -1.657  37.977  18.831  1.00  0.00    -0.003 C 
ATOM     14  C   UNL     1      -0.225  37.704  19.288  1.00  0.00     0.004 C 
ENDBRANCH  12  13
ENDBRANCH  11  12
ENDBRANCH  10  11
ENDBRANCH   9  10
ENDBRANCH   1   9
TORSDOF 10
ENDMDL
