MODEL 1
REMARK VINA RESULT:    -2.918      0.000      0.000
REMARK INTER + INTRA:         -13.105
REMARK INTER:                  -7.695
REMARK INTRA:                  -5.410
REMARK UNBOUND:                -5.410
REMARK SMILES CCCCCCCCCCCCCCCCCCCCCCCCCCCCCC(=O)[O-]
REMARK SMILES IDX 16 1 17 2 18 3 19 4 20 5 21 6 22 7 23 8 24 9 25 10 26 11
REMARK SMILES IDX 27 12 28 13 29 14 30 15 31 16 32 17 15 18 14 19 13 20 12 21
REMARK SMILES IDX 11 22 10 23 9 24 8 25 7 26 6 27 5 28 4 29 3 30 2 31 1 32
REMARK H PARENT
REMARK Flexibility Score: inf
ROOT
ATOM      1  C   UNL     1     145.256 141.451 146.144  1.00  0.00     0.000 C 
ENDROOT
BRANCH   1   2
ATOM      2  C   UNL     1     144.360 140.469 145.370  1.00  0.00     0.000 C 
BRANCH   2   3
ATOM      3  C   UNL     1     143.052 141.073 144.816  1.00  0.00     0.000 C 
BRANCH   3   4
ATOM      4  C   UNL     1     141.773 140.709 145.594  1.00  0.00     0.000 C 
BRANCH   4   5
ATOM      5  C   UNL     1     140.951 141.943 146.004  1.00  0.00     0.000 C 
BRANCH   5   6
ATOM      6  C   UNL     1     141.758 143.252 145.931  1.00  0.00     0.000 C 
BRANCH   6   7
ATOM      7  C   UNL     1     142.521 143.624 147.216  1.00  0.00     0.000 C 
BRANCH   7   8
ATOM      8  C   UNL     1     143.400 144.872 147.052  1.00  0.00     0.000 C 
BRANCH   8   9
ATOM      9  C   UNL     1     142.904 145.751 145.893  1.00  0.00     0.000 C 
BRANCH   9  10
ATOM     10  C   UNL     1     143.975 145.920 144.794  1.00  0.00     0.000 C 
BRANCH  10  11
ATOM     11  C   UNL     1     143.607 145.234 143.469  1.00  0.00     0.000 C 
BRANCH  11  12
ATOM     12  C   UNL     1     144.462 143.988 143.180  1.00  0.00     0.000 C 
BRANCH  12  13
ATOM     13  C   UNL     1     145.899 144.121 143.710  1.00  0.00     0.006 C 
BRANCH  13  14
ATOM     14  C   UNL     1     146.939 144.217 142.585  1.00  0.00     0.053 C 
BRANCH  14  15
ATOM     15  C   UNL     1     147.179 142.869 141.977  1.00  0.00     0.041 C 
ATOM     16  O   UNL     1     147.142 142.720 140.727  1.00  0.00    -0.550 OA
ATOM     17  O   UNL     1     147.449 141.777 142.793  1.00  0.00    -0.550 OA
ENDBRANCH  14  15
ENDBRANCH  13  14
ENDBRANCH  12  13
ENDBRANCH  11  12
ENDBRANCH  10  11
ENDBRANCH   9  10
ENDBRANCH   8   9
ENDBRANCH   7   8
ENDBRANCH   6   7
ENDBRANCH   5   6
ENDBRANCH   4   5
ENDBRANCH   3   4
ENDBRANCH   2   3
ENDBRANCH   1   2
BRANCH   1  18
ATOM     18  C   UNL     1     145.226 141.213 147.664  1.00  0.00     0.000 C 
BRANCH  18  19
ATOM     19  C   UNL     1     144.343 140.006 148.049  1.00  0.00     0.000 C 
BRANCH  19  20
ATOM     20  C   UNL     1     143.218 140.353 149.039  1.00  0.00     0.000 C 
BRANCH  20  21
ATOM     21  C   UNL     1     143.735 141.005 150.331  1.00  0.00     0.000 C 
BRANCH  21  22
ATOM     22  C   UNL     1     142.864 142.185 150.790  1.00  0.00     0.000 C 
BRANCH  22  23
ATOM     23  C   UNL     1     141.435 142.119 150.234  1.00  0.00     0.000 C 
BRANCH  23  24
ATOM     24  C   UNL     1     140.602 143.308 150.733  1.00  0.00    -0.000 C 
BRANCH  24  25
ATOM     25  C   UNL     1     140.986 144.629 150.048  1.00  0.00    -0.000 C 
BRANCH  25  26
ATOM     26  C   UNL     1     141.480 145.692 151.045  1.00  0.00    -0.000 C 
BRANCH  26  27
ATOM     27  C   UNL     1     140.593 145.773 152.303  1.00  0.00    -0.000 C 
BRANCH  27  28
ATOM     28  C   UNL     1     141.360 145.602 153.630  1.00  0.00    -0.000 C 
BRANCH  28  29
ATOM     29  C   UNL     1     142.663 144.787 153.509  1.00  0.00    -0.000 C 
BRANCH  29  30
ATOM     30  C   UNL     1     142.579 143.432 154.234  1.00  0.00    -0.000 C 
BRANCH  30  31
ATOM     31  C   UNL     1     141.133 143.016 154.541  1.00  0.00    -0.003 C 
ATOM     32  C   UNL     1     140.758 141.677 153.909  1.00  0.00     0.004 C 
ENDBRANCH  30  31
ENDBRANCH  29  30
ENDBRANCH  28  29
ENDBRANCH  27  28
ENDBRANCH  26  27
ENDBRANCH  25  26
ENDBRANCH  24  25
ENDBRANCH  23  24
ENDBRANCH  22  23
ENDBRANCH  21  22
ENDBRANCH  20  21
ENDBRANCH  19  20
ENDBRANCH  18  19
ENDBRANCH   1  18
TORSDOF 28
ENDMDL
MODEL 2
REMARK VINA RESULT:    -2.843      3.626      5.398
REMARK INTER + INTRA:         -12.908
REMARK INTER:                  -6.496
REMARK INTRA:                  -6.412
REMARK UNBOUND:                -5.410
REMARK SMILES CCCCCCCCCCCCCCCCCCCCCCCCCCCCCC(=O)[O-]
REMARK SMILES IDX 16 1 17 2 18 3 19 4 20 5 21 6 22 7 23 8 24 9 25 10 26 11
REMARK SMILES IDX 27 12 28 13 29 14 30 15 31 16 32 17 15 18 14 19 13 20 12 21
REMARK SMILES IDX 11 22 10 23 9 24 8 25 7 26 6 27 5 28 4 29 3 30 2 31 1 32
REMARK H PARENT
REMARK Flexibility Score: inf
ROOT
ATOM      1  C   UNL     1     145.802 140.586 147.910  1.00  0.00     0.000 C 
ENDROOT
BRANCH   1   2
ATOM      2  C   UNL     1     145.228 141.664 146.973  1.00  0.00     0.000 C 
BRANCH   2   3
ATOM      3  C   UNL     1     145.449 141.408 145.468  1.00  0.00     0.000 C 
BRANCH   3   4
ATOM      4  C   UNL     1     144.167 141.298 144.620  1.00  0.00     0.000 C 
BRANCH   4   5
ATOM      5  C   UNL     1     143.439 139.955 144.808  1.00  0.00     0.000 C 
BRANCH   5   6
ATOM      6  C   UNL     1     142.224 140.060 145.748  1.00  0.00     0.000 C 
BRANCH   6   7
ATOM      7  C   UNL     1     141.286 141.250 145.476  1.00  0.00     0.000 C 
BRANCH   7   8
ATOM      8  C   UNL     1     140.971 142.066 146.738  1.00  0.00     0.000 C 
BRANCH   8   9
ATOM      9  C   UNL     1     142.009 143.178 146.953  1.00  0.00     0.000 C 
BRANCH   9  10
ATOM     10  C   UNL     1     142.048 144.171 145.773  1.00  0.00     0.000 C 
BRANCH  10  11
ATOM     11  C   UNL     1     141.980 145.644 146.208  1.00  0.00     0.000 C 
BRANCH  11  12
ATOM     12  C   UNL     1     141.207 145.847 147.523  1.00  0.00     0.000 C 
BRANCH  12  13
ATOM     13  C   UNL     1     141.570 147.164 148.226  1.00  0.00     0.006 C 
BRANCH  13  14
ATOM     14  C   UNL     1     140.607 147.510 149.369  1.00  0.00     0.053 C 
BRANCH  14  15
ATOM     15  C   UNL     1     141.087 148.718 150.113  1.00  0.00     0.041 C 
ATOM     16  O   UNL     1     140.534 149.836 149.937  1.00  0.00    -0.550 OA
ATOM     17  O   UNL     1     142.146 148.608 151.006  1.00  0.00    -0.550 OA
ENDBRANCH  14  15
ENDBRANCH  13  14
ENDBRANCH  12  13
ENDBRANCH  11  12
ENDBRANCH  10  11
ENDBRANCH   9  10
ENDBRANCH   8   9
ENDBRANCH   7   8
ENDBRANCH   6   7
ENDBRANCH   5   6
ENDBRANCH   4   5
ENDBRANCH   3   4
ENDBRANCH   2   3
ENDBRANCH   1   2
BRANCH   1  18
ATOM     18  C   UNL     1     144.719 139.900 148.761  1.00  0.00     0.000 C 
BRANCH  18  19
ATOM     19  C   UNL     1     143.595 140.875 149.174  1.00  0.00     0.000 C 
BRANCH  19  20
ATOM     20  C   UNL     1     143.111 140.685 150.622  1.00  0.00     0.000 C 
BRANCH  20  21
ATOM     21  C   UNL     1     144.146 141.136 151.664  1.00  0.00     0.000 C 
BRANCH  21  22
ATOM     22  C   UNL     1     143.499 141.726 152.927  1.00  0.00     0.000 C 
BRANCH  22  23
ATOM     23  C   UNL     1     142.016 141.355 153.062  1.00  0.00     0.000 C 
BRANCH  23  24
ATOM     24  C   UNL     1     141.323 142.254 154.096  1.00  0.00    -0.000 C 
BRANCH  24  25
ATOM     25  C   UNL     1     140.639 143.473 153.458  1.00  0.00    -0.000 C 
BRANCH  25  26
ATOM     26  C   UNL     1     140.010 143.151 152.091  1.00  0.00    -0.000 C 
BRANCH  26  27
ATOM     27  C   UNL     1     140.429 144.159 151.002  1.00  0.00    -0.000 C 
BRANCH  27  28
ATOM     28  C   UNL     1     141.909 144.056 150.582  1.00  0.00    -0.000 C 
BRANCH  28  29
ATOM     29  C   UNL     1     142.823 145.127 151.209  1.00  0.00    -0.000 C 
BRANCH  29  30
ATOM     30  C   UNL     1     144.301 144.937 150.826  1.00  0.00    -0.000 C 
BRANCH  30  31
ATOM     31  C   UNL     1     144.477 144.393 149.400  1.00  0.00    -0.003 C 
ATOM     32  C   UNL     1     144.946 145.462 148.414  1.00  0.00     0.004 C 
ENDBRANCH  30  31
ENDBRANCH  29  30
ENDBRANCH  28  29
ENDBRANCH  27  28
ENDBRANCH  26  27
ENDBRANCH  25  26
ENDBRANCH  24  25
ENDBRANCH  23  24
ENDBRANCH  22  23
ENDBRANCH  21  22
ENDBRANCH  20  21
ENDBRANCH  19  20
ENDBRANCH  18  19
ENDBRANCH   1  18
TORSDOF 28
ENDMDL
MODEL 3
REMARK VINA RESULT:    -2.827      3.299      7.289
REMARK INTER + INTRA:         -12.864
REMARK INTER:                  -7.231
REMARK INTRA:                  -5.632
REMARK UNBOUND:                -5.410
REMARK SMILES CCCCCCCCCCCCCCCCCCCCCCCCCCCCCC(=O)[O-]
REMARK SMILES IDX 16 1 17 2 18 3 19 4 20 5 21 6 22 7 23 8 24 9 25 10 26 11
REMARK SMILES IDX 27 12 28 13 29 14 30 15 31 16 32 17 15 18 14 19 13 20 12 21
REMARK SMILES IDX 11 22 10 23 9 24 8 25 7 26 6 27 5 28 4 29 3 30 2 31 1 32
REMARK H PARENT
REMARK Flexibility Score: inf
ROOT
ATOM      1  C   UNL     1     142.083 143.476 146.515  1.00  0.00     0.000 C 
ENDROOT
BRANCH   1   2
ATOM      2  C   UNL     1     141.182 142.282 146.876  1.00  0.00     0.000 C 
BRANCH   2   3
ATOM      3  C   UNL     1     140.753 141.401 145.684  1.00  0.00     0.000 C 
BRANCH   3   4
ATOM      4  C   UNL     1     141.828 140.433 145.156  1.00  0.00     0.000 C 
BRANCH   4   5
ATOM      5  C   UNL     1     142.849 140.026 146.232  1.00  0.00     0.000 C 
BRANCH   5   6
ATOM      6  C   UNL     1     144.293 139.976 145.698  1.00  0.00     0.000 C 
BRANCH   6   7
ATOM      7  C   UNL     1     145.224 141.083 146.225  1.00  0.00     0.000 C 
BRANCH   7   8
ATOM      8  C   UNL     1     146.570 141.136 145.487  1.00  0.00     0.000 C 
BRANCH   8   9
ATOM      9  C   UNL     1     146.937 142.578 145.105  1.00  0.00     0.000 C 
BRANCH   9  10
ATOM     10  C   UNL     1     145.927 143.602 145.666  1.00  0.00     0.000 C 
BRANCH  10  11
ATOM     11  C   UNL     1     145.193 144.400 144.575  1.00  0.00     0.000 C 
BRANCH  11  12
ATOM     12  C   UNL     1     144.413 143.504 143.599  1.00  0.00     0.000 C 
BRANCH  12  13
ATOM     13  C   UNL     1     144.692 143.849 142.127  1.00  0.00     0.006 C 
BRANCH  13  14
ATOM     14  C   UNL     1     146.062 144.508 141.922  1.00  0.00     0.053 C 
BRANCH  14  15
ATOM     15  C   UNL     1     146.897 143.701 140.976  1.00  0.00     0.041 C 
ATOM     16  O   UNL     1     147.292 144.202 139.891  1.00  0.00    -0.550 OA
ATOM     17  O   UNL     1     147.243 142.393 141.297  1.00  0.00    -0.550 OA
ENDBRANCH  14  15
ENDBRANCH  13  14
ENDBRANCH  12  13
ENDBRANCH  11  12
ENDBRANCH  10  11
ENDBRANCH   9  10
ENDBRANCH   8   9
ENDBRANCH   7   8
ENDBRANCH   6   7
ENDBRANCH   5   6
ENDBRANCH   4   5
ENDBRANCH   3   4
ENDBRANCH   2   3
ENDBRANCH   1   2
BRANCH   1  18
ATOM     18  C   UNL     1     142.538 144.274 147.751  1.00  0.00     0.000 C 
BRANCH  18  19
ATOM     19  C   UNL     1     143.172 145.628 147.371  1.00  0.00     0.000 C 
BRANCH  19  20
ATOM     20  C   UNL     1     142.380 146.847 147.875  1.00  0.00     0.000 C 
BRANCH  20  21
ATOM     21  C   UNL     1     141.008 146.993 147.199  1.00  0.00     0.000 C 
BRANCH  21  22
ATOM     22  C   UNL     1     141.101 147.619 145.799  1.00  0.00     0.000 C 
BRANCH  22  23
ATOM     23  C   UNL     1     140.800 146.614 144.678  1.00  0.00     0.000 C 
BRANCH  23  24
ATOM     24  C   UNL     1     142.069 146.301 143.873  1.00  0.00    -0.000 C 
BRANCH  24  25
ATOM     25  C   UNL     1     143.161 147.367 144.050  1.00  0.00    -0.000 C 
BRANCH  25  26
ATOM     26  C   UNL     1     144.037 147.531 142.796  1.00  0.00    -0.000 C 
BRANCH  26  27
ATOM     27  C   UNL     1     143.276 147.188 141.500  1.00  0.00    -0.000 C 
BRANCH  27  28
ATOM     28  C   UNL     1     143.114 148.376 140.529  1.00  0.00    -0.000 C 
BRANCH  28  29
ATOM     29  C   UNL     1     143.600 149.726 141.091  1.00  0.00    -0.000 C 
BRANCH  29  30
ATOM     30  C   UNL     1     142.490 150.485 141.839  1.00  0.00    -0.000 C 
BRANCH  30  31
ATOM     31  C   UNL     1     141.082 150.031 141.426  1.00  0.00    -0.003 C 
ATOM     32  C   UNL     1     140.230 149.591 142.615  1.00  0.00     0.004 C 
ENDBRANCH  30  31
ENDBRANCH  29  30
ENDBRANCH  28  29
ENDBRANCH  27  28
ENDBRANCH  26  27
ENDBRANCH  25  26
ENDBRANCH  24  25
ENDBRANCH  23  24
ENDBRANCH  22  23
ENDBRANCH  21  22
ENDBRANCH  20  21
ENDBRANCH  19  20
ENDBRANCH  18  19
ENDBRANCH   1  18
TORSDOF 28
ENDMDL
MODEL 4
REMARK VINA RESULT:    -2.826      3.428      7.216
REMARK INTER + INTRA:         -12.861
REMARK INTER:                  -6.266
REMARK INTRA:                  -6.595
REMARK UNBOUND:                -5.410
REMARK SMILES CCCCCCCCCCCCCCCCCCCCCCCCCCCCCC(=O)[O-]
REMARK SMILES IDX 16 1 17 2 18 3 19 4 20 5 21 6 22 7 23 8 24 9 25 10 26 11
REMARK SMILES IDX 27 12 28 13 29 14 30 15 31 16 32 17 15 18 14 19 13 20 12 21
REMARK SMILES IDX 11 22 10 23 9 24 8 25 7 26 6 27 5 28 4 29 3 30 2 31 1 32
REMARK H PARENT
REMARK Flexibility Score: inf
ROOT
ATOM      1  C   UNL     1     142.878 144.599 144.946  1.00  0.00     0.000 C 
ENDROOT
BRANCH   1   2
ATOM      2  C   UNL     1     141.804 144.363 146.023  1.00  0.00     0.000 C 
BRANCH   2   3
ATOM      3  C   UNL     1     142.184 143.340 147.114  1.00  0.00     0.000 C 
BRANCH   3   4
ATOM      4  C   UNL     1     141.266 142.107 147.213  1.00  0.00     0.000 C 
BRANCH   4   5
ATOM      5  C   UNL     1     140.810 141.588 145.838  1.00  0.00     0.000 C 
BRANCH   5   6
ATOM      6  C   UNL     1     141.871 140.713 145.146  1.00  0.00     0.000 C 
BRANCH   6   7
ATOM      7  C   UNL     1     142.757 139.885 146.095  1.00  0.00     0.000 C 
BRANCH   7   8
ATOM      8  C   UNL     1     144.242 139.914 145.707  1.00  0.00     0.000 C 
BRANCH   8   9
ATOM      9  C   UNL     1     145.140 139.943 146.953  1.00  0.00     0.000 C 
BRANCH   9  10
ATOM     10  C   UNL     1     145.276 141.365 147.537  1.00  0.00     0.000 C 
BRANCH  10  11
ATOM     11  C   UNL     1     144.903 141.454 149.026  1.00  0.00     0.000 C 
BRANCH  11  12
ATOM     12  C   UNL     1     144.124 140.225 149.525  1.00  0.00     0.000 C 
BRANCH  12  13
ATOM     13  C   UNL     1     142.713 140.579 150.021  1.00  0.00     0.006 C 
BRANCH  13  14
ATOM     14  C   UNL     1     142.723 141.638 151.131  1.00  0.00     0.053 C 
BRANCH  14  15
ATOM     15  C   UNL     1     141.351 142.206 151.328  1.00  0.00     0.041 C 
ATOM     16  O   UNL     1     141.177 143.203 152.076  1.00  0.00    -0.550 OA
ATOM     17  O   UNL     1     140.264 141.634 150.678  1.00  0.00    -0.550 OA
ENDBRANCH  14  15
ENDBRANCH  13  14
ENDBRANCH  12  13
ENDBRANCH  11  12
ENDBRANCH  10  11
ENDBRANCH   9  10
ENDBRANCH   8   9
ENDBRANCH   7   8
ENDBRANCH   6   7
ENDBRANCH   5   6
ENDBRANCH   4   5
ENDBRANCH   3   4
ENDBRANCH   2   3
ENDBRANCH   1   2
BRANCH   1  18
ATOM     18  C   UNL     1     144.033 143.585 145.026  1.00  0.00     0.000 C 
BRANCH  18  19
ATOM     19  C   UNL     1     144.403 143.011 143.642  1.00  0.00     0.000 C 
BRANCH  19  20
ATOM     20  C   UNL     1     145.575 143.738 142.962  1.00  0.00     0.000 C 
BRANCH  20  21
ATOM     21  C   UNL     1     146.779 142.820 142.697  1.00  0.00     0.000 C 
BRANCH  21  22
ATOM     22  C   UNL     1     146.924 141.713 143.752  1.00  0.00     0.000 C 
BRANCH  22  23
ATOM     23  C   UNL     1     148.260 141.783 144.506  1.00  0.00     0.000 C 
BRANCH  23  24
ATOM     24  C   UNL     1     148.132 142.661 145.759  1.00  0.00    -0.000 C 
BRANCH  24  25
ATOM     25  C   UNL     1     148.642 144.093 145.534  1.00  0.00    -0.000 C 
BRANCH  25  26
ATOM     26  C   UNL     1     147.577 145.158 145.850  1.00  0.00    -0.000 C 
BRANCH  26  27
ATOM     27  C   UNL     1     146.627 144.719 146.982  1.00  0.00    -0.000 C 
BRANCH  27  28
ATOM     28  C   UNL     1     146.825 145.484 148.306  1.00  0.00    -0.000 C 
BRANCH  28  29
ATOM     29  C   UNL     1     145.788 146.596 148.558  1.00  0.00    -0.000 C 
BRANCH  29  30
ATOM     30  C   UNL     1     144.406 146.254 147.975  1.00  0.00    -0.000 C 
BRANCH  30  31
ATOM     31  C   UNL     1     143.296 146.276 149.036  1.00  0.00    -0.003 C 
ATOM     32  C   UNL     1     143.426 145.140 150.049  1.00  0.00     0.004 C 
ENDBRANCH  30  31
ENDBRANCH  29  30
ENDBRANCH  28  29
ENDBRANCH  27  28
ENDBRANCH  26  27
ENDBRANCH  25  26
ENDBRANCH  24  25
ENDBRANCH  23  24
ENDBRANCH  22  23
ENDBRANCH  21  22
ENDBRANCH  20  21
ENDBRANCH  19  20
ENDBRANCH  18  19
ENDBRANCH   1  18
TORSDOF 28
ENDMDL
MODEL 5
REMARK VINA RESULT:    -2.734     11.300     16.014
REMARK INTER + INTRA:         -12.620
REMARK INTER:                  -6.777
REMARK INTRA:                  -5.843
REMARK UNBOUND:                -5.410
REMARK SMILES CCCCCCCCCCCCCCCCCCCCCCCCCCCCCC(=O)[O-]
REMARK SMILES IDX 16 1 17 2 18 3 19 4 20 5 21 6 22 7 23 8 24 9 25 10 26 11
REMARK SMILES IDX 27 12 28 13 29 14 30 15 31 16 32 17 15 18 14 19 13 20 12 21
REMARK SMILES IDX 11 22 10 23 9 24 8 25 7 26 6 27 5 28 4 29 3 30 2 31 1 32
REMARK H PARENT
REMARK Flexibility Score: inf
ROOT
ATOM      1  C   UNL     1     143.869 157.177 153.116  1.00  0.00     0.000 C 
ENDROOT
BRANCH   1   2
ATOM      2  C   UNL     1     143.177 155.809 152.986  1.00  0.00     0.000 C 
BRANCH   2   3
ATOM      3  C   UNL     1     142.098 155.516 154.050  1.00  0.00     0.000 C 
BRANCH   3   4
ATOM      4  C   UNL     1     142.239 154.168 154.782  1.00  0.00     0.000 C 
BRANCH   4   5
ATOM      5  C   UNL     1     140.886 153.573 155.208  1.00  0.00     0.000 C 
BRANCH   5   6
ATOM      6  C   UNL     1     140.607 153.737 156.714  1.00  0.00     0.000 C 
BRANCH   6   7
ATOM      7  C   UNL     1     141.729 154.420 157.517  1.00  0.00     0.000 C 
BRANCH   7   8
ATOM      8  C   UNL     1     142.328 153.512 158.600  1.00  0.00     0.000 C 
BRANCH   8   9
ATOM      9  C   UNL     1     143.426 152.607 158.022  1.00  0.00     0.000 C 
BRANCH   9  10
ATOM     10  C   UNL     1     143.045 151.114 158.091  1.00  0.00     0.000 C 
BRANCH  10  11
ATOM     11  C   UNL     1     141.871 150.824 159.041  1.00  0.00     0.000 C 
BRANCH  11  12
ATOM     12  C   UNL     1     140.681 150.150 158.336  1.00  0.00     0.000 C 
BRANCH  12  13
ATOM     13  C   UNL     1     140.918 149.954 156.830  1.00  0.00     0.006 C 
BRANCH  13  14
ATOM     14  C   UNL     1     140.969 148.474 156.427  1.00  0.00     0.053 C 
BRANCH  14  15
ATOM     15  C   UNL     1     142.298 147.880 156.779  1.00  0.00     0.041 C 
ATOM     16  O   UNL     1     143.283 148.024 156.008  1.00  0.00    -0.550 OA
ATOM     17  O   UNL     1     142.448 147.169 157.964  1.00  0.00    -0.550 OA
ENDBRANCH  14  15
ENDBRANCH  13  14
ENDBRANCH  12  13
ENDBRANCH  11  12
ENDBRANCH  10  11
ENDBRANCH   9  10
ENDBRANCH   8   9
ENDBRANCH   7   8
ENDBRANCH   6   7
ENDBRANCH   5   6
ENDBRANCH   4   5
ENDBRANCH   3   4
ENDBRANCH   2   3
ENDBRANCH   1   2
BRANCH   1  18
ATOM     18  C   UNL     1     143.241 158.060 154.208  1.00  0.00     0.000 C 
BRANCH  18  19
ATOM     19  C   UNL     1     144.296 158.615 155.189  1.00  0.00     0.000 C 
BRANCH  19  20
ATOM     20  C   UNL     1     145.745 158.451 154.699  1.00  0.00     0.000 C 
BRANCH  20  21
ATOM     21  C   UNL     1     146.783 158.672 155.810  1.00  0.00     0.000 C 
BRANCH  21  22
ATOM     22  C   UNL     1     148.094 157.912 155.557  1.00  0.00     0.000 C 
BRANCH  22  23
ATOM     23  C   UNL     1     148.898 157.671 156.843  1.00  0.00     0.000 C 
BRANCH  23  24
ATOM     24  C   UNL     1     148.093 158.105 158.077  1.00  0.00    -0.000 C 
BRANCH  24  25
ATOM     25  C   UNL     1     148.237 157.126 159.252  1.00  0.00    -0.000 C 
BRANCH  25  26
ATOM     26  C   UNL     1     146.905 156.457 159.633  1.00  0.00    -0.000 C 
BRANCH  26  27
ATOM     27  C   UNL     1     145.702 157.088 158.904  1.00  0.00    -0.000 C 
BRANCH  27  28
ATOM     28  C   UNL     1     145.014 156.150 157.892  1.00  0.00    -0.000 C 
BRANCH  28  29
ATOM     29  C   UNL     1     145.977 155.208 157.144  1.00  0.00    -0.000 C 
BRANCH  29  30
ATOM     30  C   UNL     1     145.449 154.809 155.754  1.00  0.00    -0.000 C 
BRANCH  30  31
ATOM     31  C   UNL     1     146.538 154.194 154.862  1.00  0.00    -0.003 C 
ATOM     32  C   UNL     1     146.883 155.073 153.662  1.00  0.00     0.004 C 
ENDBRANCH  30  31
ENDBRANCH  29  30
ENDBRANCH  28  29
ENDBRANCH  27  28
ENDBRANCH  26  27
ENDBRANCH  25  26
ENDBRANCH  24  25
ENDBRANCH  23  24
ENDBRANCH  22  23
ENDBRANCH  21  22
ENDBRANCH  20  21
ENDBRANCH  19  20
ENDBRANCH  18  19
ENDBRANCH   1  18
TORSDOF 28
ENDMDL
MODEL 6
REMARK VINA RESULT:    -2.724      3.877     10.001
REMARK INTER + INTRA:         -12.593
REMARK INTER:                  -7.777
REMARK INTRA:                  -4.815
REMARK UNBOUND:                -5.410
REMARK SMILES CCCCCCCCCCCCCCCCCCCCCCCCCCCCCC(=O)[O-]
REMARK SMILES IDX 16 1 17 2 18 3 19 4 20 5 21 6 22 7 23 8 24 9 25 10 26 11
REMARK SMILES IDX 27 12 28 13 29 14 30 15 31 16 32 17 15 18 14 19 13 20 12 21
REMARK SMILES IDX 11 22 10 23 9 24 8 25 7 26 6 27 5 28 4 29 3 30 2 31 1 32
REMARK H PARENT
REMARK Flexibility Score: inf
ROOT
ATOM      1  C   UNL     1     142.909 144.624 144.940  1.00  0.00     0.000 C 
ENDROOT
BRANCH   1   2
ATOM      2  C   UNL     1     141.865 144.444 146.056  1.00  0.00     0.000 C 
BRANCH   2   3
ATOM      3  C   UNL     1     142.212 143.372 147.111  1.00  0.00     0.000 C 
BRANCH   3   4
ATOM      4  C   UNL     1     141.204 142.214 147.235  1.00  0.00     0.000 C 
BRANCH   4   5
ATOM      5  C   UNL     1     140.659 141.746 145.874  1.00  0.00     0.000 C 
BRANCH   5   6
ATOM      6  C   UNL     1     141.647 140.840 145.114  1.00  0.00     0.000 C 
BRANCH   6   7
ATOM      7  C   UNL     1     142.567 139.984 146.003  1.00  0.00     0.000 C 
BRANCH   7   8
ATOM      8  C   UNL     1     144.026 139.979 145.526  1.00  0.00     0.000 C 
BRANCH   8   9
ATOM      9  C   UNL     1     144.997 139.875 146.713  1.00  0.00     0.000 C 
BRANCH   9  10
ATOM     10  C   UNL     1     145.287 141.251 147.348  1.00  0.00     0.000 C 
BRANCH  10  11
ATOM     11  C   UNL     1     144.987 141.306 148.855  1.00  0.00     0.000 C 
BRANCH  11  12
ATOM     12  C   UNL     1     144.106 140.140 149.335  1.00  0.00     0.000 C 
BRANCH  12  13
ATOM     13  C   UNL     1     142.737 140.607 149.856  1.00  0.00     0.006 C 
BRANCH  13  14
ATOM     14  C   UNL     1     142.854 141.609 151.012  1.00  0.00     0.053 C 
BRANCH  14  15
ATOM     15  C   UNL     1     141.523 142.232 151.303  1.00  0.00     0.041 C 
ATOM     16  O   UNL     1     141.439 143.217 152.082  1.00  0.00    -0.550 OA
ATOM     17  O   UNL     1     140.374 141.725 150.707  1.00  0.00    -0.550 OA
ENDBRANCH  14  15
ENDBRANCH  13  14
ENDBRANCH  12  13
ENDBRANCH  11  12
ENDBRANCH  10  11
ENDBRANCH   9  10
ENDBRANCH   8   9
ENDBRANCH   7   8
ENDBRANCH   6   7
ENDBRANCH   5   6
ENDBRANCH   4   5
ENDBRANCH   3   4
ENDBRANCH   2   3
ENDBRANCH   1   2
BRANCH   1  18
ATOM     18  C   UNL     1     144.009 143.549 144.974  1.00  0.00     0.000 C 
BRANCH  18  19
ATOM     19  C   UNL     1     144.419 143.087 143.559  1.00  0.00     0.000 C 
BRANCH  19  20
ATOM     20  C   UNL     1     145.651 143.819 143.001  1.00  0.00     0.000 C 
BRANCH  20  21
ATOM     21  C   UNL     1     146.840 142.880 142.741  1.00  0.00     0.000 C 
BRANCH  21  22
ATOM     22  C   UNL     1     146.999 141.807 143.829  1.00  0.00     0.000 C 
BRANCH  22  23
ATOM     23  C   UNL     1     148.369 141.861 144.519  1.00  0.00     0.000 C 
BRANCH  23  24
ATOM     24  C   UNL     1     149.489 142.063 143.490  1.00  0.00    -0.000 C 
BRANCH  24  25
ATOM     25  C   UNL     1     149.916 140.750 142.814  1.00  0.00    -0.000 C 
BRANCH  25  26
ATOM     26  C   UNL     1     149.714 140.775 141.289  1.00  0.00    -0.000 C 
BRANCH  26  27
ATOM     27  C   UNL     1     150.101 142.132 140.669  1.00  0.00    -0.000 C 
BRANCH  27  28
ATOM     28  C   UNL     1     151.520 142.169 140.064  1.00  0.00    -0.000 C 
BRANCH  28  29
ATOM     29  C   UNL     1     152.582 142.814 140.977  1.00  0.00    -0.000 C 
BRANCH  29  30
ATOM     30  C   UNL     1     153.319 141.778 141.844  1.00  0.00    -0.000 C 
BRANCH  30  31
ATOM     31  C   UNL     1     153.204 142.076 143.346  1.00  0.00    -0.003 C 
ATOM     32  C   UNL     1     152.875 143.539 143.634  1.00  0.00     0.004 C 
ENDBRANCH  30  31
ENDBRANCH  29  30
ENDBRANCH  28  29
ENDBRANCH  27  28
ENDBRANCH  26  27
ENDBRANCH  25  26
ENDBRANCH  24  25
ENDBRANCH  23  24
ENDBRANCH  22  23
ENDBRANCH  21  22
ENDBRANCH  20  21
ENDBRANCH  19  20
ENDBRANCH  18  19
ENDBRANCH   1  18
TORSDOF 28
ENDMDL
MODEL 7
REMARK VINA RESULT:    -2.697      4.340      9.428
REMARK INTER + INTRA:         -12.522
REMARK INTER:                  -7.922
REMARK INTRA:                  -4.600
REMARK UNBOUND:                -5.410
REMARK SMILES CCCCCCCCCCCCCCCCCCCCCCCCCCCCCC(=O)[O-]
REMARK SMILES IDX 16 1 17 2 18 3 19 4 20 5 21 6 22 7 23 8 24 9 25 10 26 11
REMARK SMILES IDX 27 12 28 13 29 14 30 15 31 16 32 17 15 18 14 19 13 20 12 21
REMARK SMILES IDX 11 22 10 23 9 24 8 25 7 26 6 27 5 28 4 29 3 30 2 31 1 32
REMARK H PARENT
REMARK Flexibility Score: inf
ROOT
ATOM      1  C   UNL     1     142.773 146.121 146.070  1.00  0.00     0.000 C 
ENDROOT
BRANCH   1   2
ATOM      2  C   UNL     1     142.912 144.905 145.136  1.00  0.00     0.000 C 
BRANCH   2   3
ATOM      3  C   UNL     1     144.209 144.088 145.314  1.00  0.00     0.000 C 
BRANCH   3   4
ATOM      4  C   UNL     1     144.656 143.279 144.082  1.00  0.00     0.000 C 
BRANCH   4   5
ATOM      5  C   UNL     1     144.298 141.786 144.183  1.00  0.00     0.000 C 
BRANCH   5   6
ATOM      6  C   UNL     1     144.345 141.256 145.629  1.00  0.00     0.000 C 
BRANCH   6   7
ATOM      7  C   UNL     1     143.116 140.438 146.066  1.00  0.00     0.000 C 
BRANCH   7   8
ATOM      8  C   UNL     1     141.862 140.750 145.238  1.00  0.00     0.000 C 
BRANCH   8   9
ATOM      9  C   UNL     1     141.039 141.877 145.880  1.00  0.00     0.000 C 
BRANCH   9  10
ATOM     10  C   UNL     1     141.114 141.844 147.421  1.00  0.00     0.000 C 
BRANCH  10  11
ATOM     11  C   UNL     1     141.540 143.184 148.043  1.00  0.00     0.000 C 
BRANCH  11  12
ATOM     12  C   UNL     1     142.929 143.126 148.702  1.00  0.00     0.000 C 
BRANCH  12  13
ATOM     13  C   UNL     1     142.864 143.255 150.232  1.00  0.00     0.006 C 
BRANCH  13  14
ATOM     14  C   UNL     1     142.200 142.044 150.902  1.00  0.00     0.053 C 
BRANCH  14  15
ATOM     15  C   UNL     1     143.110 140.855 150.857  1.00  0.00     0.041 C 
ATOM     16  O   UNL     1     143.787 140.535 151.869  1.00  0.00    -0.550 OA
ATOM     17  O   UNL     1     143.206 140.098 149.696  1.00  0.00    -0.550 OA
ENDBRANCH  14  15
ENDBRANCH  13  14
ENDBRANCH  12  13
ENDBRANCH  11  12
ENDBRANCH  10  11
ENDBRANCH   9  10
ENDBRANCH   8   9
ENDBRANCH   7   8
ENDBRANCH   6   7
ENDBRANCH   5   6
ENDBRANCH   4   5
ENDBRANCH   3   4
ENDBRANCH   2   3
ENDBRANCH   1   2
BRANCH   1  18
ATOM     18  C   UNL     1     141.309 146.543 146.282  1.00  0.00     0.000 C 
BRANCH  18  19
ATOM     19  C   UNL     1     140.863 147.630 145.280  1.00  0.00     0.000 C 
BRANCH  19  20
ATOM     20  C   UNL     1     139.935 147.105 144.170  1.00  0.00     0.000 C 
BRANCH  20  21
ATOM     21  C   UNL     1     140.450 147.425 142.757  1.00  0.00     0.000 C 
BRANCH  21  22
ATOM     22  C   UNL     1     141.975 147.597 142.706  1.00  0.00     0.000 C 
BRANCH  22  23
ATOM     23  C   UNL     1     142.654 146.594 141.763  1.00  0.00     0.000 C 
BRANCH  23  24
ATOM     24  C   UNL     1     143.677 147.300 140.862  1.00  0.00    -0.000 C 
BRANCH  24  25
ATOM     25  C   UNL     1     143.042 148.387 139.982  1.00  0.00    -0.000 C 
BRANCH  25  26
ATOM     26  C   UNL     1     143.670 149.774 140.207  1.00  0.00    -0.000 C 
BRANCH  26  27
ATOM     27  C   UNL     1     142.628 150.908 140.137  1.00  0.00    -0.000 C 
BRANCH  27  28
ATOM     28  C   UNL     1     141.164 150.423 140.162  1.00  0.00    -0.000 C 
BRANCH  28  29
ATOM     29  C   UNL     1     140.283 151.119 141.218  1.00  0.00    -0.000 C 
BRANCH  29  30
ATOM     30  C   UNL     1     140.934 151.131 142.612  1.00  0.00    -0.000 C 
BRANCH  30  31
ATOM     31  C   UNL     1     140.952 152.531 143.243  1.00  0.00    -0.003 C 
ATOM     32  C   UNL     1     142.225 153.310 142.918  1.00  0.00     0.004 C 
ENDBRANCH  30  31
ENDBRANCH  29  30
ENDBRANCH  28  29
ENDBRANCH  27  28
ENDBRANCH  26  27
ENDBRANCH  25  26
ENDBRANCH  24  25
ENDBRANCH  23  24
ENDBRANCH  22  23
ENDBRANCH  21  22
ENDBRANCH  20  21
ENDBRANCH  19  20
ENDBRANCH  18  19
ENDBRANCH   1  18
TORSDOF 28
ENDMDL
MODEL 8
REMARK VINA RESULT:    -2.644      1.258      2.409
REMARK INTER + INTRA:         -12.382
REMARK INTER:                  -7.765
REMARK INTRA:                  -4.617
REMARK UNBOUND:                -5.410
REMARK SMILES CCCCCCCCCCCCCCCCCCCCCCCCCCCCCC(=O)[O-]
REMARK SMILES IDX 16 1 17 2 18 3 19 4 20 5 21 6 22 7 23 8 24 9 25 10 26 11
REMARK SMILES IDX 27 12 28 13 29 14 30 15 31 16 32 17 15 18 14 19 13 20 12 21
REMARK SMILES IDX 11 22 10 23 9 24 8 25 7 26 6 27 5 28 4 29 3 30 2 31 1 32
REMARK H PARENT
REMARK Flexibility Score: inf
ROOT
ATOM      1  C   UNL     1     143.679 141.236 144.374  1.00  0.00     0.000 C 
ENDROOT
BRANCH   1   2
ATOM      2  C   UNL     1     142.654 140.472 145.230  1.00  0.00     0.000 C 
BRANCH   2   3
ATOM      3  C   UNL     1     141.398 141.278 145.624  1.00  0.00     0.000 C 
BRANCH   3   4
ATOM      4  C   UNL     1     141.405 141.862 147.049  1.00  0.00     0.000 C 
BRANCH   4   5
ATOM      5  C   UNL     1     141.386 143.400 147.066  1.00  0.00     0.000 C 
BRANCH   5   6
ATOM      6  C   UNL     1     142.723 144.010 147.525  1.00  0.00     0.000 C 
BRANCH   6   7
ATOM      7  C   UNL     1     143.653 144.476 146.390  1.00  0.00     0.000 C 
BRANCH   7   8
ATOM      8  C   UNL     1     142.913 144.709 145.065  1.00  0.00     0.000 C 
BRANCH   8   9
ATOM      9  C   UNL     1     142.658 146.205 144.828  1.00  0.00     0.000 C 
BRANCH   9  10
ATOM     10  C   UNL     1     142.878 146.605 143.354  1.00  0.00     0.000 C 
BRANCH  10  11
ATOM     11  C   UNL     1     144.216 147.320 143.105  1.00  0.00     0.000 C 
BRANCH  11  12
ATOM     12  C   UNL     1     145.430 146.385 143.238  1.00  0.00     0.000 C 
BRANCH  12  13
ATOM     13  C   UNL     1     146.058 146.033 141.880  1.00  0.00     0.006 C 
BRANCH  13  14
ATOM     14  C   UNL     1     147.100 144.911 141.982  1.00  0.00     0.053 C 
BRANCH  14  15
ATOM     15  C   UNL     1     146.579 143.653 141.358  1.00  0.00     0.041 C 
ATOM     16  O   UNL     1     147.288 142.613 141.334  1.00  0.00    -0.550 OA
ATOM     17  O   UNL     1     145.304 143.629 140.804  1.00  0.00    -0.550 OA
ENDBRANCH  14  15
ENDBRANCH  13  14
ENDBRANCH  12  13
ENDBRANCH  11  12
ENDBRANCH  10  11
ENDBRANCH   9  10
ENDBRANCH   8   9
ENDBRANCH   7   8
ENDBRANCH   6   7
ENDBRANCH   5   6
ENDBRANCH   4   5
ENDBRANCH   3   4
ENDBRANCH   2   3
ENDBRANCH   1   2
BRANCH   1  18
ATOM     18  C   UNL     1     145.043 141.384 145.069  1.00  0.00     0.000 C 
BRANCH  18  19
ATOM     19  C   UNL     1     145.526 140.059 145.697  1.00  0.00     0.000 C 
BRANCH  19  20
ATOM     20  C   UNL     1     145.842 140.163 147.199  1.00  0.00     0.000 C 
BRANCH  20  21
ATOM     21  C   UNL     1     145.457 141.524 147.800  1.00  0.00     0.000 C 
BRANCH  21  22
ATOM     22  C   UNL     1     144.833 141.401 149.198  1.00  0.00     0.000 C 
BRANCH  22  23
ATOM     23  C   UNL     1     143.784 140.284 149.283  1.00  0.00     0.000 C 
BRANCH  23  24
ATOM     24  C   UNL     1     142.758 140.583 150.386  1.00  0.00    -0.000 C 
BRANCH  24  25
ATOM     25  C   UNL     1     142.610 142.087 150.665  1.00  0.00    -0.000 C 
BRANCH  25  26
ATOM     26  C   UNL     1     141.147 142.506 150.891  1.00  0.00    -0.000 C 
BRANCH  26  27
ATOM     27  C   UNL     1     140.965 144.037 150.864  1.00  0.00    -0.000 C 
BRANCH  27  28
ATOM     28  C   UNL     1     140.844 144.683 152.260  1.00  0.00    -0.000 C 
BRANCH  28  29
ATOM     29  C   UNL     1     139.923 143.923 153.234  1.00  0.00    -0.000 C 
BRANCH  29  30
ATOM     30  C   UNL     1     140.710 143.169 154.321  1.00  0.00    -0.000 C 
BRANCH  30  31
ATOM     31  C   UNL     1     142.192 143.571 154.363  1.00  0.00    -0.003 C 
ATOM     32  C   UNL     1     142.546 144.391 155.602  1.00  0.00     0.004 C 
ENDBRANCH  30  31
ENDBRANCH  29  30
ENDBRANCH  28  29
ENDBRANCH  27  28
ENDBRANCH  26  27
ENDBRANCH  25  26
ENDBRANCH  24  25
ENDBRANCH  23  24
ENDBRANCH  22  23
ENDBRANCH  21  22
ENDBRANCH  20  21
ENDBRANCH  19  20
ENDBRANCH  18  19
ENDBRANCH   1  18
TORSDOF 28
ENDMDL
MODEL 9
REMARK VINA RESULT:    -2.639      4.636      9.165
REMARK INTER + INTRA:         -12.368
REMARK INTER:                  -7.541
REMARK INTRA:                  -4.827
REMARK UNBOUND:                -5.410
REMARK SMILES CCCCCCCCCCCCCCCCCCCCCCCCCCCCCC(=O)[O-]
REMARK SMILES IDX 16 1 17 2 18 3 19 4 20 5 21 6 22 7 23 8 24 9 25 10 26 11
REMARK SMILES IDX 27 12 28 13 29 14 30 15 31 16 32 17 15 18 14 19 13 20 12 21
REMARK SMILES IDX 11 22 10 23 9 24 8 25 7 26 6 27 5 28 4 29 3 30 2 31 1 32
REMARK H PARENT
REMARK Flexibility Score: inf
ROOT
ATOM      1  C   UNL     1     145.705 141.452 151.818  1.00  0.00     0.000 C 
ENDROOT
BRANCH   1   2
ATOM      2  C   UNL     1     144.765 140.620 152.708  1.00  0.00     0.000 C 
BRANCH   2   3
ATOM      3  C   UNL     1     143.588 141.402 153.329  1.00  0.00     0.000 C 
BRANCH   3   4
ATOM      4  C   UNL     1     142.890 142.404 152.390  1.00  0.00     0.000 C 
BRANCH   4   5
ATOM      5  C   UNL     1     141.886 141.732 151.437  1.00  0.00     0.000 C 
BRANCH   5   6
ATOM      6  C   UNL     1     140.453 142.273 151.599  1.00  0.00     0.000 C 
BRANCH   6   7
ATOM      7  C   UNL     1     140.174 142.999 152.928  1.00  0.00     0.000 C 
BRANCH   7   8
ATOM      8  C   UNL     1     139.875 144.493 152.742  1.00  0.00     0.000 C 
BRANCH   8   9
ATOM      9  C   UNL     1     140.134 145.276 154.039  1.00  0.00     0.000 C 
BRANCH   9  10
ATOM     10  C   UNL     1     141.042 144.497 155.015  1.00  0.00     0.000 C 
BRANCH  10  11
ATOM     11  C   UNL     1     142.477 145.044 155.087  1.00  0.00     0.000 C 
BRANCH  11  12
ATOM     12  C   UNL     1     143.468 144.048 155.712  1.00  0.00     0.000 C 
BRANCH  12  13
ATOM     13  C   UNL     1     144.569 144.742 156.529  1.00  0.00     0.006 C 
BRANCH  13  14
ATOM     14  C   UNL     1     144.128 145.065 157.963  1.00  0.00     0.053 C 
BRANCH  14  15
ATOM     15  C   UNL     1     143.872 146.533 158.116  1.00  0.00     0.041 C 
ATOM     16  O   UNL     1     144.586 147.370 157.503  1.00  0.00    -0.550 OA
ATOM     17  O   UNL     1     142.839 146.976 158.933  1.00  0.00    -0.550 OA
ENDBRANCH  14  15
ENDBRANCH  13  14
ENDBRANCH  12  13
ENDBRANCH  11  12
ENDBRANCH  10  11
ENDBRANCH   9  10
ENDBRANCH   8   9
ENDBRANCH   7   8
ENDBRANCH   6   7
ENDBRANCH   5   6
ENDBRANCH   4   5
ENDBRANCH   3   4
ENDBRANCH   2   3
ENDBRANCH   1   2
BRANCH   1  18
ATOM     18  C   UNL     1     146.011 140.769 150.474  1.00  0.00     0.000 C 
BRANCH  18  19
ATOM     19  C   UNL     1     144.788 140.758 149.532  1.00  0.00     0.000 C 
BRANCH  19  20
ATOM     20  C   UNL     1     144.977 139.884 148.280  1.00  0.00     0.000 C 
BRANCH  20  21
ATOM     21  C   UNL     1     145.201 140.706 147.002  1.00  0.00     0.000 C 
BRANCH  21  22
ATOM     22  C   UNL     1     144.508 140.094 145.774  1.00  0.00     0.000 C 
BRANCH  22  23
ATOM     23  C   UNL     1     142.997 139.915 145.973  1.00  0.00     0.000 C 
BRANCH  23  24
ATOM     24  C   UNL     1     142.216 140.992 145.206  1.00  0.00    -0.000 C 
BRANCH  24  25
ATOM     25  C   UNL     1     141.203 141.733 146.092  1.00  0.00    -0.000 C 
BRANCH  25  26
ATOM     26  C   UNL     1     141.708 141.929 147.533  1.00  0.00    -0.000 C 
BRANCH  26  27
ATOM     27  C   UNL     1     141.828 143.418 147.914  1.00  0.00    -0.000 C 
BRANCH  27  28
ATOM     28  C   UNL     1     143.054 143.749 148.790  1.00  0.00    -0.000 C 
BRANCH  28  29
ATOM     29  C   UNL     1     144.297 144.198 147.998  1.00  0.00    -0.000 C 
BRANCH  29  30
ATOM     30  C   UNL     1     143.944 144.715 146.592  1.00  0.00    -0.000 C 
BRANCH  30  31
ATOM     31  C   UNL     1     144.737 144.004 145.485  1.00  0.00    -0.003 C 
ATOM     32  C   UNL     1     143.915 143.787 144.216  1.00  0.00     0.004 C 
ENDBRANCH  30  31
ENDBRANCH  29  30
ENDBRANCH  28  29
ENDBRANCH  27  28
ENDBRANCH  26  27
ENDBRANCH  25  26
ENDBRANCH  24  25
ENDBRANCH  23  24
ENDBRANCH  22  23
ENDBRANCH  21  22
ENDBRANCH  20  21
ENDBRANCH  19  20
ENDBRANCH  18  19
ENDBRANCH   1  18
TORSDOF 28
ENDMDL
