MODEL 1
REMARK VINA RESULT:    -2.027      0.000      0.000
REMARK INTER + INTRA:          -7.881
REMARK INTER:                  -5.344
REMARK INTRA:                  -2.537
REMARK UNBOUND:                -2.537
REMARK SMILES CCCCCCCCCCCCCCCCCCCCCCCCCCCCCC(=O)[O-]
REMARK SMILES IDX 16 1 17 2 18 3 19 4 20 5 21 6 22 7 23 8 24 9 25 10 26 11
REMARK SMILES IDX 27 12 28 13 29 14 30 15 31 16 32 17 15 18 14 19 13 20 12 21
REMARK SMILES IDX 11 22 10 23 9 24 8 25 7 26 6 27 5 28 4 29 3 30 2 31 1 32
REMARK H PARENT
REMARK Flexibility Score: inf
ROOT
ATOM      1  C   UNL     1      25.912  36.921  34.361  1.00  0.00     0.000 C 
ENDROOT
BRANCH   1   2
ATOM      2  C   UNL     1      25.778  37.483  32.937  1.00  0.00     0.000 C 
BRANCH   2   3
ATOM      3  C   UNL     1      25.022  38.820  32.939  1.00  0.00     0.000 C 
BRANCH   3   4
ATOM      4  C   UNL     1      24.875  39.412  31.526  1.00  0.00     0.000 C 
BRANCH   4   5
ATOM      5  C   UNL     1      25.002  38.346  30.423  1.00  0.00     0.000 C 
BRANCH   5   6
ATOM      6  C   UNL     1      26.202  38.592  29.496  1.00  0.00     0.000 C 
BRANCH   6   7
ATOM      7  C   UNL     1      26.348  37.514  28.407  1.00  0.00     0.000 C 
BRANCH   7   8
ATOM      8  C   UNL     1      25.561  37.864  27.133  1.00  0.00     0.000 C 
BRANCH   8   9
ATOM      9  C   UNL     1      26.041  39.169  26.481  1.00  0.00     0.000 C 
BRANCH   9  10
ATOM     10  C   UNL     1      24.877  40.158  26.317  1.00  0.00     0.000 C 
BRANCH  10  11
ATOM     11  C   UNL     1      24.986  41.376  27.252  1.00  0.00     0.000 C 
BRANCH  11  12
ATOM     12  C   UNL     1      26.424  41.825  27.579  1.00  0.00     0.000 C 
BRANCH  12  13
ATOM     13  C   UNL     1      26.990  42.928  26.662  1.00  0.00     0.006 C 
BRANCH  13  14
ATOM     14  C   UNL     1      28.178  42.481  25.794  1.00  0.00     0.053 C 
BRANCH  14  15
ATOM     15  C   UNL     1      29.495  42.843  26.410  1.00  0.00     0.041 C 
ATOM     16  O   UNL     1      29.744  42.530  27.604  1.00  0.00    -0.550 OA
ATOM     17  O   UNL     1      30.449  43.523  25.662  1.00  0.00    -0.550 OA
ENDBRANCH  14  15
ENDBRANCH  13  14
ENDBRANCH  12  13
ENDBRANCH  11  12
ENDBRANCH  10  11
ENDBRANCH   9  10
ENDBRANCH   8   9
ENDBRANCH   7   8
ENDBRANCH   6   7
ENDBRANCH   5   6
ENDBRANCH   4   5
ENDBRANCH   3   4
ENDBRANCH   2   3
ENDBRANCH   1   2
BRANCH   1  18
ATOM     18  C   UNL     1      26.880  37.734  35.242  1.00  0.00     0.000 C 
BRANCH  18  19
ATOM     19  C   UNL     1      26.582  37.690  36.753  1.00  0.00     0.000 C 
BRANCH  19  20
ATOM     20  C   UNL     1      25.545  38.722  37.234  1.00  0.00     0.000 C 
BRANCH  20  21
ATOM     21  C   UNL     1      25.824  39.260  38.658  1.00  0.00     0.000 C 
BRANCH  21  22
ATOM     22  C   UNL     1      27.251  39.800  38.848  1.00  0.00     0.000 C 
BRANCH  22  23
ATOM     23  C   UNL     1      27.413  40.563  40.174  1.00  0.00     0.000 C 
BRANCH  23  24
ATOM     24  C   UNL     1      28.224  39.776  41.217  1.00  0.00    -0.000 C 
BRANCH  24  25
ATOM     25  C   UNL     1      27.754  38.326  41.454  1.00  0.00    -0.000 C 
BRANCH  25  26
ATOM     26  C   UNL     1      28.886  37.278  41.384  1.00  0.00    -0.000 C 
BRANCH  26  27
ATOM     27  C   UNL     1      30.101  37.779  40.580  1.00  0.00    -0.000 C 
BRANCH  27  28
ATOM     28  C   UNL     1      29.883  37.675  39.057  1.00  0.00    -0.000 C 
BRANCH  28  29
ATOM     29  C   UNL     1      31.091  38.136  38.218  1.00  0.00    -0.000 C 
BRANCH  29  30
ATOM     30  C   UNL     1      30.671  38.907  36.954  1.00  0.00    -0.000 C 
BRANCH  30  31
ATOM     31  C   UNL     1      31.611  38.645  35.767  1.00  0.00    -0.003 C 
ATOM     32  C   UNL     1      32.662  39.742  35.598  1.00  0.00     0.004 C 
ENDBRANCH  30  31
ENDBRANCH  29  30
ENDBRANCH  28  29
ENDBRANCH  27  28
ENDBRANCH  26  27
ENDBRANCH  25  26
ENDBRANCH  24  25
ENDBRANCH  23  24
ENDBRANCH  22  23
ENDBRANCH  21  22
ENDBRANCH  20  21
ENDBRANCH  19  20
ENDBRANCH  18  19
ENDBRANCH   1  18
TORSDOF 28
ENDMDL
MODEL 2
REMARK VINA RESULT:    -2.016      2.001      4.851
REMARK INTER + INTRA:          -7.852
REMARK INTER:                  -6.571
REMARK INTRA:                  -1.281
REMARK UNBOUND:                -2.537
REMARK SMILES CCCCCCCCCCCCCCCCCCCCCCCCCCCCCC(=O)[O-]
REMARK SMILES IDX 16 1 17 2 18 3 19 4 20 5 21 6 22 7 23 8 24 9 25 10 26 11
REMARK SMILES IDX 27 12 28 13 29 14 30 15 31 16 32 17 15 18 14 19 13 20 12 21
REMARK SMILES IDX 11 22 10 23 9 24 8 25 7 26 6 27 5 28 4 29 3 30 2 31 1 32
REMARK H PARENT
REMARK Flexibility Score: inf
ROOT
ATOM      1  C   UNL     1      25.637  38.454  29.068  1.00  0.00     0.000 C 
ENDROOT
BRANCH   1   2
ATOM      2  C   UNL     1      25.078  38.056  27.692  1.00  0.00     0.000 C 
BRANCH   2   3
ATOM      3  C   UNL     1      25.950  36.975  27.034  1.00  0.00     0.000 C 
BRANCH   3   4
ATOM      4  C   UNL     1      25.734  36.895  25.512  1.00  0.00     0.000 C 
BRANCH   4   5
ATOM      5  C   UNL     1      24.933  38.091  24.966  1.00  0.00     0.000 C 
BRANCH   5   6
ATOM      6  C   UNL     1      25.812  39.324  24.704  1.00  0.00     0.000 C 
BRANCH   6   7
ATOM      7  C   UNL     1      25.020  40.512  24.127  1.00  0.00     0.000 C 
BRANCH   7   8
ATOM      8  C   UNL     1      25.904  41.752  23.917  1.00  0.00     0.000 C 
BRANCH   8   9
ATOM      9  C   UNL     1      26.195  42.501  25.226  1.00  0.00     0.000 C 
BRANCH   9  10
ATOM     10  C   UNL     1      25.910  41.606  26.442  1.00  0.00     0.000 C 
BRANCH  10  11
ATOM     11  C   UNL     1      27.095  41.526  27.421  1.00  0.00     0.000 C 
BRANCH  11  12
ATOM     12  C   UNL     1      28.110  42.682  27.318  1.00  0.00     0.000 C 
BRANCH  12  13
ATOM     13  C   UNL     1      29.582  42.283  27.540  1.00  0.00     0.006 C 
BRANCH  13  14
ATOM     14  C   UNL     1      30.498  42.542  26.331  1.00  0.00     0.053 C 
BRANCH  14  15
ATOM     15  C   UNL     1      30.606  44.000  26.008  1.00  0.00     0.041 C 
ATOM     16  O   UNL     1      31.145  44.374  24.933  1.00  0.00    -0.550 OA
ATOM     17  O   UNL     1      30.105  44.948  26.893  1.00  0.00    -0.550 OA
ENDBRANCH  14  15
ENDBRANCH  13  14
ENDBRANCH  12  13
ENDBRANCH  11  12
ENDBRANCH  10  11
ENDBRANCH   9  10
ENDBRANCH   8   9
ENDBRANCH   7   8
ENDBRANCH   6   7
ENDBRANCH   5   6
ENDBRANCH   4   5
ENDBRANCH   3   4
ENDBRANCH   2   3
ENDBRANCH   1   2
BRANCH   1  18
ATOM     18  C   UNL     1      26.216  37.260  29.852  1.00  0.00     0.000 C 
BRANCH  18  19
ATOM     19  C   UNL     1      26.705  37.589  31.275  1.00  0.00     0.000 C 
BRANCH  19  20
ATOM     20  C   UNL     1      25.656  38.268  32.175  1.00  0.00     0.000 C 
BRANCH  20  21
ATOM     21  C   UNL     1      24.944  37.292  33.140  1.00  0.00     0.000 C 
BRANCH  21  22
ATOM     22  C   UNL     1      25.744  36.991  34.419  1.00  0.00     0.000 C 
BRANCH  22  23
ATOM     23  C   UNL     1      24.875  37.082  35.685  1.00  0.00     0.000 C 
BRANCH  23  24
ATOM     24  C   UNL     1      25.196  38.321  36.538  1.00  0.00    -0.000 C 
BRANCH  24  25
ATOM     25  C   UNL     1      26.017  38.043  37.813  1.00  0.00    -0.000 C 
BRANCH  25  26
ATOM     26  C   UNL     1      27.527  37.843  37.558  1.00  0.00    -0.000 C 
BRANCH  26  27
ATOM     27  C   UNL     1      28.369  38.033  38.834  1.00  0.00    -0.000 C 
BRANCH  27  28
ATOM     28  C   UNL     1      27.499  38.267  40.085  1.00  0.00    -0.000 C 
BRANCH  28  29
ATOM     29  C   UNL     1      27.488  39.728  40.576  1.00  0.00    -0.000 C 
BRANCH  29  30
ATOM     30  C   UNL     1      26.069  40.227  40.909  1.00  0.00    -0.000 C 
BRANCH  30  31
ATOM     31  C   UNL     1      25.291  40.660  39.657  1.00  0.00    -0.003 C 
ATOM     32  C   UNL     1      25.980  41.798  38.903  1.00  0.00     0.004 C 
ENDBRANCH  30  31
ENDBRANCH  29  30
ENDBRANCH  28  29
ENDBRANCH  27  28
ENDBRANCH  26  27
ENDBRANCH  25  26
ENDBRANCH  24  25
ENDBRANCH  23  24
ENDBRANCH  22  23
ENDBRANCH  21  22
ENDBRANCH  20  21
ENDBRANCH  19  20
ENDBRANCH  18  19
ENDBRANCH   1  18
TORSDOF 28
ENDMDL
MODEL 3
REMARK VINA RESULT:    -1.994      8.328     12.886
REMARK INTER + INTRA:          -7.794
REMARK INTER:                  -7.295
REMARK INTRA:                  -0.499
REMARK UNBOUND:                -2.537
REMARK SMILES CCCCCCCCCCCCCCCCCCCCCCCCCCCCCC(=O)[O-]
REMARK SMILES IDX 16 1 17 2 18 3 19 4 20 5 21 6 22 7 23 8 24 9 25 10 26 11
REMARK SMILES IDX 27 12 28 13 29 14 30 15 31 16 32 17 15 18 14 19 13 20 12 21
REMARK SMILES IDX 11 22 10 23 9 24 8 25 7 26 6 27 5 28 4 29 3 30 2 31 1 32
REMARK H PARENT
REMARK Flexibility Score: inf
ROOT
ATOM      1  C   UNL     1      30.294  44.830  41.738  1.00  0.00     0.000 C 
ENDROOT
BRANCH   1   2
ATOM      2  C   UNL     1      28.833  45.302  41.808  1.00  0.00     0.000 C 
BRANCH   2   3
ATOM      3  C   UNL     1      27.888  44.132  42.122  1.00  0.00     0.000 C 
BRANCH   3   4
ATOM      4  C   UNL     1      27.499  43.339  40.862  1.00  0.00     0.000 C 
BRANCH   4   5
ATOM      5  C   UNL     1      26.057  42.802  40.924  1.00  0.00     0.000 C 
BRANCH   5   6
ATOM      6  C   UNL     1      25.745  41.809  39.794  1.00  0.00     0.000 C 
BRANCH   6   7
ATOM      7  C   UNL     1      25.968  40.343  40.207  1.00  0.00     0.000 C 
BRANCH   7   8
ATOM      8  C   UNL     1      27.328  40.132  40.893  1.00  0.00     0.000 C 
BRANCH   8   9
ATOM      9  C   UNL     1      27.796  38.670  40.843  1.00  0.00     0.000 C 
BRANCH   9  10
ATOM     10  C   UNL     1      28.421  38.342  39.478  1.00  0.00     0.000 C 
BRANCH  10  11
ATOM     11  C   UNL     1      29.936  38.087  39.555  1.00  0.00     0.000 C 
BRANCH  11  12
ATOM     12  C   UNL     1      30.550  37.401  38.319  1.00  0.00     0.000 C 
BRANCH  12  13
ATOM     13  C   UNL     1      30.770  38.320  37.101  1.00  0.00     0.006 C 
BRANCH  13  14
ATOM     14  C   UNL     1      31.147  37.579  35.808  1.00  0.00     0.053 C 
BRANCH  14  15
ATOM     15  C   UNL     1      32.076  38.380  34.948  1.00  0.00     0.041 C 
ATOM     16  O   UNL     1      32.268  39.602  35.190  1.00  0.00    -0.550 OA
ATOM     17  O   UNL     1      32.733  37.777  33.883  1.00  0.00    -0.550 OA
ENDBRANCH  14  15
ENDBRANCH  13  14
ENDBRANCH  12  13
ENDBRANCH  11  12
ENDBRANCH  10  11
ENDBRANCH   9  10
ENDBRANCH   8   9
ENDBRANCH   7   8
ENDBRANCH   6   7
ENDBRANCH   5   6
ENDBRANCH   4   5
ENDBRANCH   3   4
ENDBRANCH   2   3
ENDBRANCH   1   2
BRANCH   1  18
ATOM     18  C   UNL     1      31.220  45.837  41.029  1.00  0.00     0.000 C 
BRANCH  18  19
ATOM     19  C   UNL     1      31.034  47.307  41.452  1.00  0.00     0.000 C 
BRANCH  19  20
ATOM     20  C   UNL     1      29.702  47.939  41.008  1.00  0.00     0.000 C 
BRANCH  20  21
ATOM     21  C   UNL     1      29.698  49.485  41.079  1.00  0.00     0.000 C 
BRANCH  21  22
ATOM     22  C   UNL     1      31.080  50.119  40.851  1.00  0.00     0.000 C 
BRANCH  22  23
ATOM     23  C   UNL     1      31.252  50.644  39.415  1.00  0.00     0.000 C 
BRANCH  23  24
ATOM     24  C   UNL     1      29.912  50.992  38.746  1.00  0.00    -0.000 C 
BRANCH  24  25
ATOM     25  C   UNL     1      29.634  52.500  38.583  1.00  0.00    -0.000 C 
BRANCH  25  26
ATOM     26  C   UNL     1      28.317  52.820  37.841  1.00  0.00    -0.000 C 
BRANCH  26  27
ATOM     27  C   UNL     1      27.084  52.711  38.759  1.00  0.00    -0.000 C 
BRANCH  27  28
ATOM     28  C   UNL     1      27.400  51.998  40.088  1.00  0.00    -0.000 C 
BRANCH  28  29
ATOM     29  C   UNL     1      27.365  52.924  41.320  1.00  0.00    -0.000 C 
BRANCH  29  30
ATOM     30  C   UNL     1      28.661  53.740  41.481  1.00  0.00    -0.000 C 
BRANCH  30  31
ATOM     31  C   UNL     1      28.413  55.114  42.124  1.00  0.00    -0.003 C 
ATOM     32  C   UNL     1      29.291  56.211  41.519  1.00  0.00     0.004 C 
ENDBRANCH  30  31
ENDBRANCH  29  30
ENDBRANCH  28  29
ENDBRANCH  27  28
ENDBRANCH  26  27
ENDBRANCH  25  26
ENDBRANCH  24  25
ENDBRANCH  23  24
ENDBRANCH  22  23
ENDBRANCH  21  22
ENDBRANCH  20  21
ENDBRANCH  19  20
ENDBRANCH  18  19
ENDBRANCH   1  18
TORSDOF 28
ENDMDL
MODEL 4
REMARK VINA RESULT:    -1.937      1.730      4.212
REMARK INTER + INTRA:          -7.644
REMARK INTER:                  -6.754
REMARK INTRA:                  -0.890
REMARK UNBOUND:                -2.537
REMARK SMILES CCCCCCCCCCCCCCCCCCCCCCCCCCCCCC(=O)[O-]
REMARK SMILES IDX 16 1 17 2 18 3 19 4 20 5 21 6 22 7 23 8 24 9 25 10 26 11
REMARK SMILES IDX 27 12 28 13 29 14 30 15 31 16 32 17 15 18 14 19 13 20 12 21
REMARK SMILES IDX 11 22 10 23 9 24 8 25 7 26 6 27 5 28 4 29 3 30 2 31 1 32
REMARK H PARENT
REMARK Flexibility Score: inf
ROOT
ATOM      1  C   UNL     1      25.638  38.450  29.067  1.00  0.00     0.000 C 
ENDROOT
BRANCH   1   2
ATOM      2  C   UNL     1      25.073  38.098  27.682  1.00  0.00     0.000 C 
BRANCH   2   3
ATOM      3  C   UNL     1      25.915  37.008  27.002  1.00  0.00     0.000 C 
BRANCH   3   4
ATOM      4  C   UNL     1      25.728  36.990  25.475  1.00  0.00     0.000 C 
BRANCH   4   5
ATOM      5  C   UNL     1      24.984  38.234  24.957  1.00  0.00     0.000 C 
BRANCH   5   6
ATOM      6  C   UNL     1      25.904  39.454  24.801  1.00  0.00     0.000 C 
BRANCH   6   7
ATOM      7  C   UNL     1      25.182  40.677  24.207  1.00  0.00     0.000 C 
BRANCH   7   8
ATOM      8  C   UNL     1      26.094  41.912  24.130  1.00  0.00     0.000 C 
BRANCH   8   9
ATOM      9  C   UNL     1      26.248  42.620  25.485  1.00  0.00     0.000 C 
BRANCH   9  10
ATOM     10  C   UNL     1      25.810  41.700  26.635  1.00  0.00     0.000 C 
BRANCH  10  11
ATOM     11  C   UNL     1      26.903  41.508  27.701  1.00  0.00     0.000 C 
BRANCH  11  12
ATOM     12  C   UNL     1      27.991  42.600  27.730  1.00  0.00     0.000 C 
BRANCH  12  13
ATOM     13  C   UNL     1      29.407  42.105  28.088  1.00  0.00     0.006 C 
BRANCH  13  14
ATOM     14  C   UNL     1      30.453  42.330  26.984  1.00  0.00     0.053 C 
BRANCH  14  15
ATOM     15  C   UNL     1      30.189  43.580  26.202  1.00  0.00     0.041 C 
ATOM     16  O   UNL     1      29.738  44.606  26.778  1.00  0.00    -0.550 OA
ATOM     17  O   UNL     1      30.444  43.613  24.836  1.00  0.00    -0.550 OA
ENDBRANCH  14  15
ENDBRANCH  13  14
ENDBRANCH  12  13
ENDBRANCH  11  12
ENDBRANCH  10  11
ENDBRANCH   9  10
ENDBRANCH   8   9
ENDBRANCH   7   8
ENDBRANCH   6   7
ENDBRANCH   5   6
ENDBRANCH   4   5
ENDBRANCH   3   4
ENDBRANCH   2   3
ENDBRANCH   1   2
BRANCH   1  18
ATOM     18  C   UNL     1      26.193  37.226  29.822  1.00  0.00     0.000 C 
BRANCH  18  19
ATOM     19  C   UNL     1      26.717  37.516  31.241  1.00  0.00     0.000 C 
BRANCH  19  20
ATOM     20  C   UNL     1      25.708  38.220  32.167  1.00  0.00     0.000 C 
BRANCH  20  21
ATOM     21  C   UNL     1      24.971  37.255  33.126  1.00  0.00     0.000 C 
BRANCH  21  22
ATOM     22  C   UNL     1      25.788  36.875  34.372  1.00  0.00     0.000 C 
BRANCH  22  23
ATOM     23  C   UNL     1      24.965  36.991  35.667  1.00  0.00     0.000 C 
BRANCH  23  24
ATOM     24  C   UNL     1      25.405  38.172  36.548  1.00  0.00    -0.000 C 
BRANCH  24  25
ATOM     25  C   UNL     1      26.231  37.789  37.792  1.00  0.00    -0.000 C 
BRANCH  25  26
ATOM     26  C   UNL     1      27.711  37.467  37.489  1.00  0.00    -0.000 C 
BRANCH  26  27
ATOM     27  C   UNL     1      28.680  38.239  38.406  1.00  0.00    -0.000 C 
BRANCH  27  28
ATOM     28  C   UNL     1      29.795  38.952  37.616  1.00  0.00    -0.000 C 
BRANCH  28  29
ATOM     29  C   UNL     1      30.932  38.018  37.155  1.00  0.00    -0.000 C 
BRANCH  29  30
ATOM     30  C   UNL     1      31.314  38.240  35.680  1.00  0.00    -0.000 C 
BRANCH  30  31
ATOM     31  C   UNL     1      32.828  38.420  35.488  1.00  0.00    -0.003 C 
ATOM     32  C   UNL     1      33.383  39.605  36.279  1.00  0.00     0.004 C 
ENDBRANCH  30  31
ENDBRANCH  29  30
ENDBRANCH  28  29
ENDBRANCH  27  28
ENDBRANCH  26  27
ENDBRANCH  25  26
ENDBRANCH  24  25
ENDBRANCH  23  24
ENDBRANCH  22  23
ENDBRANCH  21  22
ENDBRANCH  20  21
ENDBRANCH  19  20
ENDBRANCH  18  19
ENDBRANCH   1  18
TORSDOF 28
ENDMDL
MODEL 5
REMARK VINA RESULT:    -1.879      2.438      4.548
REMARK INTER + INTRA:          -7.491
REMARK INTER:                  -5.685
REMARK INTRA:                  -1.806
REMARK UNBOUND:                -2.537
REMARK SMILES CCCCCCCCCCCCCCCCCCCCCCCCCCCCCC(=O)[O-]
REMARK SMILES IDX 16 1 17 2 18 3 19 4 20 5 21 6 22 7 23 8 24 9 25 10 26 11
REMARK SMILES IDX 27 12 28 13 29 14 30 15 31 16 32 17 15 18 14 19 13 20 12 21
REMARK SMILES IDX 11 22 10 23 9 24 8 25 7 26 6 27 5 28 4 29 3 30 2 31 1 32
REMARK H PARENT
REMARK Flexibility Score: inf
ROOT
ATOM      1  C   UNL     1      26.843  39.292  30.078  1.00  0.00     0.000 C 
ENDROOT
BRANCH   1   2
ATOM      2  C   UNL     1      25.641  39.094  29.141  1.00  0.00     0.000 C 
BRANCH   2   3
ATOM      3  C   UNL     1      25.557  37.640  28.651  1.00  0.00     0.000 C 
BRANCH   3   4
ATOM      4  C   UNL     1      26.257  37.437  27.296  1.00  0.00     0.000 C 
BRANCH   4   5
ATOM      5  C   UNL     1      25.301  37.621  26.104  1.00  0.00     0.000 C 
BRANCH   5   6
ATOM      6  C   UNL     1      24.997  39.098  25.809  1.00  0.00     0.000 C 
BRANCH   6   7
ATOM      7  C   UNL     1      25.246  39.478  24.338  1.00  0.00     0.000 C 
BRANCH   7   8
ATOM      8  C   UNL     1      25.115  40.991  24.098  1.00  0.00     0.000 C 
BRANCH   8   9
ATOM      9  C   UNL     1      26.393  41.762  24.462  1.00  0.00     0.000 C 
BRANCH   9  10
ATOM     10  C   UNL     1      26.051  43.133  25.064  1.00  0.00     0.000 C 
BRANCH  10  11
ATOM     11  C   UNL     1      26.185  43.168  26.597  1.00  0.00     0.000 C 
BRANCH  11  12
ATOM     12  C   UNL     1      26.908  41.957  27.220  1.00  0.00     0.000 C 
BRANCH  12  13
ATOM     13  C   UNL     1      28.333  42.241  27.737  1.00  0.00     0.006 C 
BRANCH  13  14
ATOM     14  C   UNL     1      28.997  43.480  27.116  1.00  0.00     0.053 C 
BRANCH  14  15
ATOM     15  C   UNL     1      30.135  43.117  26.212  1.00  0.00     0.041 C 
ATOM     16  O   UNL     1      30.500  43.908  25.302  1.00  0.00    -0.550 OA
ATOM     17  O   UNL     1      30.796  41.905  26.378  1.00  0.00    -0.550 OA
ENDBRANCH  14  15
ENDBRANCH  13  14
ENDBRANCH  12  13
ENDBRANCH  11  12
ENDBRANCH  10  11
ENDBRANCH   9  10
ENDBRANCH   8   9
ENDBRANCH   7   8
ENDBRANCH   6   7
ENDBRANCH   5   6
ENDBRANCH   4   5
ENDBRANCH   3   4
ENDBRANCH   2   3
ENDBRANCH   1   2
BRANCH   1  18
ATOM     18  C   UNL     1      26.841  38.321  31.275  1.00  0.00     0.000 C 
BRANCH  18  19
ATOM     19  C   UNL     1      25.456  38.041  31.888  1.00  0.00     0.000 C 
BRANCH  19  20
ATOM     20  C   UNL     1      25.434  36.915  32.938  1.00  0.00     0.000 C 
BRANCH  20  21
ATOM     21  C   UNL     1      24.888  37.364  34.314  1.00  0.00     0.000 C 
BRANCH  21  22
ATOM     22  C   UNL     1      25.916  37.261  35.453  1.00  0.00     0.000 C 
BRANCH  22  23
ATOM     23  C   UNL     1      25.370  37.811  36.782  1.00  0.00     0.000 C 
BRANCH  23  24
ATOM     24  C   UNL     1      26.469  38.422  37.668  1.00  0.00    -0.000 C 
BRANCH  24  25
ATOM     25  C   UNL     1      26.609  37.791  39.068  1.00  0.00    -0.000 C 
BRANCH  25  26
ATOM     26  C   UNL     1      25.726  38.454  40.148  1.00  0.00    -0.000 C 
BRANCH  26  27
ATOM     27  C   UNL     1      26.255  38.207  41.573  1.00  0.00    -0.000 C 
BRANCH  27  28
ATOM     28  C   UNL     1      27.044  39.411  42.125  1.00  0.00    -0.000 C 
BRANCH  28  29
ATOM     29  C   UNL     1      26.314  40.761  41.974  1.00  0.00    -0.000 C 
BRANCH  29  30
ATOM     30  C   UNL     1      27.247  41.882  41.481  1.00  0.00    -0.000 C 
BRANCH  30  31
ATOM     31  C   UNL     1      26.660  43.282  41.721  1.00  0.00    -0.003 C 
ATOM     32  C   UNL     1      27.740  44.356  41.855  1.00  0.00     0.004 C 
ENDBRANCH  30  31
ENDBRANCH  29  30
ENDBRANCH  28  29
ENDBRANCH  27  28
ENDBRANCH  26  27
ENDBRANCH  25  26
ENDBRANCH  24  25
ENDBRANCH  23  24
ENDBRANCH  22  23
ENDBRANCH  21  22
ENDBRANCH  20  21
ENDBRANCH  19  20
ENDBRANCH  18  19
ENDBRANCH   1  18
TORSDOF 28
ENDMDL
MODEL 6
REMARK VINA RESULT:    -1.693      1.726      4.455
REMARK INTER + INTRA:          -7.001
REMARK INTER:                  -5.819
REMARK INTRA:                  -1.182
REMARK UNBOUND:                -2.537
REMARK SMILES CCCCCCCCCCCCCCCCCCCCCCCCCCCCCC(=O)[O-]
REMARK SMILES IDX 16 1 17 2 18 3 19 4 20 5 21 6 22 7 23 8 24 9 25 10 26 11
REMARK SMILES IDX 27 12 28 13 29 14 30 15 31 16 32 17 15 18 14 19 13 20 12 21
REMARK SMILES IDX 11 22 10 23 9 24 8 25 7 26 6 27 5 28 4 29 3 30 2 31 1 32
REMARK H PARENT
REMARK Flexibility Score: inf
ROOT
ATOM      1  C   UNL     1      26.841  38.371  31.183  1.00  0.00     0.000 C 
ENDROOT
BRANCH   1   2
ATOM      2  C   UNL     1      25.854  37.328  30.635  1.00  0.00     0.000 C 
BRANCH   2   3
ATOM      3  C   UNL     1      25.376  37.707  29.225  1.00  0.00     0.000 C 
BRANCH   3   4
ATOM      4  C   UNL     1      26.382  37.295  28.135  1.00  0.00     0.000 C 
BRANCH   4   5
ATOM      5  C   UNL     1      25.695  36.911  26.812  1.00  0.00     0.000 C 
BRANCH   5   6
ATOM      6  C   UNL     1      26.423  37.472  25.581  1.00  0.00     0.000 C 
BRANCH   6   7
ATOM      7  C   UNL     1      25.483  38.219  24.618  1.00  0.00     0.000 C 
BRANCH   7   8
ATOM      8  C   UNL     1      25.866  39.700  24.462  1.00  0.00     0.000 C 
BRANCH   8   9
ATOM      9  C   UNL     1      24.931  40.639  25.239  1.00  0.00     0.000 C 
BRANCH   9  10
ATOM     10  C   UNL     1      24.927  40.289  26.735  1.00  0.00     0.000 C 
BRANCH  10  11
ATOM     11  C   UNL     1      26.007  41.041  27.532  1.00  0.00     0.000 C 
BRANCH  11  12
ATOM     12  C   UNL     1      26.055  42.564  27.298  1.00  0.00     0.000 C 
BRANCH  12  13
ATOM     13  C   UNL     1      27.279  43.068  26.508  1.00  0.00     0.006 C 
BRANCH  13  14
ATOM     14  C   UNL     1      28.426  42.049  26.401  1.00  0.00     0.053 C 
BRANCH  14  15
ATOM     15  C   UNL     1      29.699  42.568  26.995  1.00  0.00     0.041 C 
ATOM     16  O   UNL     1      30.521  43.202  26.281  1.00  0.00    -0.550 OA
ATOM     17  O   UNL     1      29.976  42.357  28.341  1.00  0.00    -0.550 OA
ENDBRANCH  14  15
ENDBRANCH  13  14
ENDBRANCH  12  13
ENDBRANCH  11  12
ENDBRANCH  10  11
ENDBRANCH   9  10
ENDBRANCH   8   9
ENDBRANCH   7   8
ENDBRANCH   6   7
ENDBRANCH   5   6
ENDBRANCH   4   5
ENDBRANCH   3   4
ENDBRANCH   2   3
ENDBRANCH   1   2
BRANCH   1  18
ATOM     18  C   UNL     1      28.277  37.827  31.321  1.00  0.00     0.000 C 
BRANCH  18  19
ATOM     19  C   UNL     1      28.505  36.879  32.514  1.00  0.00     0.000 C 
BRANCH  19  20
ATOM     20  C   UNL     1      29.834  37.094  33.261  1.00  0.00     0.000 C 
BRANCH  20  21
ATOM     21  C   UNL     1      30.774  38.109  32.569  1.00  0.00     0.000 C 
BRANCH  21  22
ATOM     22  C   UNL     1      32.261  37.904  32.903  1.00  0.00     0.000 C 
BRANCH  22  23
ATOM     23  C   UNL     1      32.467  37.287  34.297  1.00  0.00     0.000 C 
BRANCH  23  24
ATOM     24  C   UNL     1      31.419  37.762  35.317  1.00  0.00    -0.000 C 
BRANCH  24  25
ATOM     25  C   UNL     1      31.994  38.336  36.628  1.00  0.00    -0.000 C 
BRANCH  25  26
ATOM     26  C   UNL     1      30.920  38.751  37.658  1.00  0.00    -0.000 C 
BRANCH  26  27
ATOM     27  C   UNL     1      30.594  37.622  38.653  1.00  0.00    -0.000 C 
BRANCH  27  28
ATOM     28  C   UNL     1      29.199  37.782  39.289  1.00  0.00    -0.000 C 
BRANCH  28  29
ATOM     29  C   UNL     1      28.843  39.235  39.662  1.00  0.00    -0.000 C 
BRANCH  29  30
ATOM     30  C   UNL     1      27.826  39.860  38.689  1.00  0.00    -0.000 C 
BRANCH  30  31
ATOM     31  C   UNL     1      26.955  40.933  39.360  1.00  0.00    -0.003 C 
ATOM     32  C   UNL     1      26.004  41.616  38.376  1.00  0.00     0.004 C 
ENDBRANCH  30  31
ENDBRANCH  29  30
ENDBRANCH  28  29
ENDBRANCH  27  28
ENDBRANCH  26  27
ENDBRANCH  25  26
ENDBRANCH  24  25
ENDBRANCH  23  24
ENDBRANCH  22  23
ENDBRANCH  21  22
ENDBRANCH  20  21
ENDBRANCH  19  20
ENDBRANCH  18  19
ENDBRANCH   1  18
TORSDOF 28
ENDMDL
MODEL 7
REMARK VINA RESULT:    -0.617      1.834      3.999
REMARK INTER + INTRA:          -4.165
REMARK INTER:                  -4.037
REMARK INTRA:                  -0.128
REMARK UNBOUND:                -2.537
REMARK SMILES CCCCCCCCCCCCCCCCCCCCCCCCCCCCCC(=O)[O-]
REMARK SMILES IDX 16 1 17 2 18 3 19 4 20 5 21 6 22 7 23 8 24 9 25 10 26 11
REMARK SMILES IDX 27 12 28 13 29 14 30 15 31 16 32 17 15 18 14 19 13 20 12 21
REMARK SMILES IDX 11 22 10 23 9 24 8 25 7 26 6 27 5 28 4 29 3 30 2 31 1 32
REMARK H PARENT
REMARK Flexibility Score: inf
ROOT
ATOM      1  C   UNL     1      27.204  39.457  30.000  1.00  0.00     0.000 C 
ENDROOT
BRANCH   1   2
ATOM      2  C   UNL     1      26.080  39.191  28.986  1.00  0.00     0.000 C 
BRANCH   2   3
ATOM      3  C   UNL     1      25.834  37.684  28.817  1.00  0.00     0.000 C 
BRANCH   3   4
ATOM      4  C   UNL     1      26.375  37.149  27.479  1.00  0.00     0.000 C 
BRANCH   4   5
ATOM      5  C   UNL     1      25.342  37.249  26.342  1.00  0.00     0.000 C 
BRANCH   5   6
ATOM      6  C   UNL     1      24.926  38.698  26.045  1.00  0.00     0.000 C 
BRANCH   6   7
ATOM      7  C   UNL     1      25.329  39.158  24.632  1.00  0.00     0.000 C 
BRANCH   7   8
ATOM      8  C   UNL     1      25.184  40.678  24.452  1.00  0.00     0.000 C 
BRANCH   8   9
ATOM      9  C   UNL     1      26.482  41.438  24.766  1.00  0.00     0.000 C 
BRANCH   9  10
ATOM     10  C   UNL     1      26.181  42.750  25.507  1.00  0.00     0.000 C 
BRANCH  10  11
ATOM     11  C   UNL     1      26.633  42.728  26.978  1.00  0.00     0.000 C 
BRANCH  11  12
ATOM     12  C   UNL     1      27.842  41.819  27.279  1.00  0.00     0.000 C 
BRANCH  12  13
ATOM     13  C   UNL     1      29.134  42.559  27.678  1.00  0.00     0.006 C 
BRANCH  13  14
ATOM     14  C   UNL     1      29.343  43.902  26.957  1.00  0.00     0.053 C 
BRANCH  14  15
ATOM     15  C   UNL     1      30.227  43.766  25.756  1.00  0.00     0.041 C 
ATOM     16  O   UNL     1      31.051  44.674  25.468  1.00  0.00    -0.550 OA
ATOM     17  O   UNL     1      30.143  42.632  24.955  1.00  0.00    -0.550 OA
ENDBRANCH  14  15
ENDBRANCH  13  14
ENDBRANCH  12  13
ENDBRANCH  11  12
ENDBRANCH  10  11
ENDBRANCH   9  10
ENDBRANCH   8   9
ENDBRANCH   7   8
ENDBRANCH   6   7
ENDBRANCH   5   6
ENDBRANCH   4   5
ENDBRANCH   3   4
ENDBRANCH   2   3
ENDBRANCH   1   2
BRANCH   1  18
ATOM     18  C   UNL     1      27.095  38.585  31.266  1.00  0.00     0.000 C 
BRANCH  18  19
ATOM     19  C   UNL     1      25.697  37.996  31.534  1.00  0.00     0.000 C 
BRANCH  19  20
ATOM     20  C   UNL     1      25.659  36.894  32.610  1.00  0.00     0.000 C 
BRANCH  20  21
ATOM     21  C   UNL     1      24.875  37.299  33.881  1.00  0.00     0.000 C 
BRANCH  21  22
ATOM     22  C   UNL     1      25.581  36.917  35.192  1.00  0.00     0.000 C 
BRANCH  22  23
ATOM     23  C   UNL     1      24.938  37.590  36.418  1.00  0.00     0.000 C 
BRANCH  23  24
ATOM     24  C   UNL     1      25.959  38.347  37.284  1.00  0.00    -0.000 C 
BRANCH  24  25
ATOM     25  C   UNL     1      26.089  37.841  38.734  1.00  0.00    -0.000 C 
BRANCH  25  26
ATOM     26  C   UNL     1      25.245  38.635  39.756  1.00  0.00    -0.000 C 
BRANCH  26  27
ATOM     27  C   UNL     1      25.664  38.352  41.211  1.00  0.00    -0.000 C 
BRANCH  27  28
ATOM     28  C   UNL     1      26.984  37.561  41.301  1.00  0.00    -0.000 C 
BRANCH  28  29
ATOM     29  C   UNL     1      28.184  38.266  40.637  1.00  0.00    -0.000 C 
BRANCH  29  30
ATOM     30  C   UNL     1      29.082  37.290  39.857  1.00  0.00    -0.000 C 
BRANCH  30  31
ATOM     31  C   UNL     1      30.456  37.895  39.524  1.00  0.00    -0.003 C 
ATOM     32  C   UNL     1      31.531  37.503  40.538  1.00  0.00     0.004 C 
ENDBRANCH  30  31
ENDBRANCH  29  30
ENDBRANCH  28  29
ENDBRANCH  27  28
ENDBRANCH  26  27
ENDBRANCH  25  26
ENDBRANCH  24  25
ENDBRANCH  23  24
ENDBRANCH  22  23
ENDBRANCH  21  22
ENDBRANCH  20  21
ENDBRANCH  19  20
ENDBRANCH  18  19
ENDBRANCH   1  18
TORSDOF 28
ENDMDL
