MODEL 1
REMARK VINA RESULT:    -4.335      0.000      0.000
REMARK INTER + INTRA:          -4.779
REMARK INTER:                  -4.589
REMARK INTRA:                  -0.190
REMARK UNBOUND:                -0.190
REMARK SMILES CC1=CC[C@H](C(C)C)C=C1
REMARK SMILES IDX 1 1 2 2 3 3 4 4 5 5 9 6 10 7 6 8 7 9 8 10
REMARK H PARENT
REMARK Flexibility Score: inf
ROOT
ATOM      1  C   UNL     1     134.746 140.709 136.252  1.00  0.00     0.044 C 
ATOM      2  C   UNL     1     136.116 140.207 135.904  1.00  0.00    -0.055 C 
ATOM      3  C   UNL     1     136.727 140.628 134.785  1.00  0.00    -0.023 C 
ATOM      4  C   UNL     1     138.035 140.020 134.346  1.00  0.00     0.035 C 
ATOM      5  C   UNL     1     138.898 139.621 135.568  1.00  0.00     0.018 C 
ATOM      6  C   UNL     1     138.055 138.874 136.583  1.00  0.00    -0.023 C 
ATOM      7  C   UNL     1     136.769 139.193 136.762  1.00  0.00    -0.001 C 
ENDROOT
BRANCH   5   8
ATOM      8  C   UNL     1     140.188 138.830 135.204  1.00  0.00    -0.010 C 
ATOM      9  C   UNL     1     140.735 137.979 136.363  1.00  0.00     0.008 C 
ATOM     10  C   UNL     1     139.991 137.962 133.954  1.00  0.00     0.008 C 
ENDBRANCH   5   8
TORSDOF 1
ENDMDL
MODEL 2
REMARK VINA RESULT:    -4.331      6.753      8.209
REMARK INTER + INTRA:          -4.774
REMARK INTER:                  -4.584
REMARK INTRA:                  -0.190
REMARK UNBOUND:                -0.190
REMARK SMILES CC1=CC[C@H](C(C)C)C=C1
REMARK SMILES IDX 1 1 2 2 3 3 4 4 5 5 9 6 10 7 6 8 7 9 8 10
REMARK H PARENT
REMARK Flexibility Score: inf
ROOT
ATOM      1  C   UNL     1     137.879 131.876 136.240  1.00  0.00     0.044 C 
ATOM      2  C   UNL     1     136.514 132.388 135.887  1.00  0.00    -0.055 C 
ATOM      3  C   UNL     1     135.900 131.964 134.771  1.00  0.00    -0.023 C 
ATOM      4  C   UNL     1     134.597 132.580 134.327  1.00  0.00     0.035 C 
ATOM      5  C   UNL     1     133.738 132.996 135.546  1.00  0.00     0.018 C 
ATOM      6  C   UNL     1     134.586 133.743 136.555  1.00  0.00    -0.023 C 
ATOM      7  C   UNL     1     135.869 133.414 136.737  1.00  0.00    -0.001 C 
ENDROOT
BRANCH   5   8
ATOM      8  C   UNL     1     132.454 133.795 135.175  1.00  0.00    -0.010 C 
ATOM      9  C   UNL     1     131.918 134.665 136.325  1.00  0.00     0.008 C 
ATOM     10  C   UNL     1     132.658 134.646 133.915  1.00  0.00     0.008 C 
ENDBRANCH   5   8
TORSDOF 1
ENDMDL
MODEL 3
REMARK VINA RESULT:    -4.316      4.149      5.823
REMARK INTER + INTRA:          -4.758
REMARK INTER:                  -4.569
REMARK INTRA:                  -0.190
REMARK UNBOUND:                -0.190
REMARK SMILES CC1=CC[C@H](C(C)C)C=C1
REMARK SMILES IDX 1 1 2 2 3 3 4 4 5 5 9 6 10 7 6 8 7 9 8 10
REMARK H PARENT
REMARK Flexibility Score: inf
ROOT
ATOM      1  C   UNL     1     131.883 134.712 136.227  1.00  0.00     0.044 C 
ATOM      2  C   UNL     1     132.389 136.084 135.891  1.00  0.00    -0.055 C 
ATOM      3  C   UNL     1     131.943 136.720 134.796  1.00  0.00    -0.023 C 
ATOM      4  C   UNL     1     132.550 138.031 134.366  1.00  0.00     0.035 C 
ATOM      5  C   UNL     1     132.991 138.866 135.593  1.00  0.00     0.018 C 
ATOM      6  C   UNL     1     133.758 137.998 136.570  1.00  0.00    -0.023 C 
ATOM      7  C   UNL     1     133.431 136.711 136.733  1.00  0.00    -0.001 C 
ENDROOT
BRANCH   5   8
ATOM      8  C   UNL     1     133.783 140.156 135.231  1.00  0.00    -0.010 C 
ATOM      9  C   UNL     1     134.654 140.686 136.384  1.00  0.00     0.008 C 
ATOM     10  C   UNL     1     134.633 139.968 133.967  1.00  0.00     0.008 C 
ENDBRANCH   5   8
TORSDOF 1
ENDMDL
MODEL 4
REMARK VINA RESULT:    -4.308      4.178      5.802
REMARK INTER + INTRA:          -4.749
REMARK INTER:                  -4.559
REMARK INTRA:                  -0.190
REMARK UNBOUND:                -0.190
REMARK SMILES CC1=CC[C@H](C(C)C)C=C1
REMARK SMILES IDX 1 1 2 2 3 3 4 4 5 5 9 6 10 7 6 8 7 9 8 10
REMARK H PARENT
REMARK Flexibility Score: inf
ROOT
ATOM      1  C   UNL     1     140.647 137.864 136.227  1.00  0.00     0.044 C 
ATOM      2  C   UNL     1     140.152 136.492 135.877  1.00  0.00    -0.055 C 
ATOM      3  C   UNL     1     140.578 135.884 134.758  1.00  0.00    -0.023 C 
ATOM      4  C   UNL     1     139.978 134.573 134.318  1.00  0.00     0.035 C 
ATOM      5  C   UNL     1     139.582 133.708 135.539  1.00  0.00     0.018 C 
ATOM      6  C   UNL     1     138.830 134.545 136.554  1.00  0.00    -0.023 C 
ATOM      7  C   UNL     1     139.141 135.833 136.734  1.00  0.00    -0.001 C 
ENDROOT
BRANCH   5   8
ATOM      8  C   UNL     1     138.799 132.413 135.173  1.00  0.00    -0.010 C 
ATOM      9  C   UNL     1     137.941 131.866 136.328  1.00  0.00     0.008 C 
ATOM     10  C   UNL     1     137.939 132.603 133.917  1.00  0.00     0.008 C 
ENDBRANCH   5   8
TORSDOF 1
ENDMDL
MODEL 5
REMARK VINA RESULT:    -4.080      3.854      5.602
REMARK INTER + INTRA:          -4.508
REMARK INTER:                  -4.367
REMARK INTRA:                  -0.141
REMARK UNBOUND:                -0.190
REMARK SMILES CC1=CC[C@H](C(C)C)C=C1
REMARK SMILES IDX 1 1 2 2 3 3 4 4 5 5 9 6 10 7 6 8 7 9 8 10
REMARK H PARENT
REMARK Flexibility Score: inf
ROOT
ATOM      1  C   UNL     1     137.881 131.860 136.525  1.00  0.00     0.044 C 
ATOM      2  C   UNL     1     138.610 133.139 136.238  1.00  0.00    -0.055 C 
ATOM      3  C   UNL     1     139.324 133.273 135.109  1.00  0.00    -0.023 C 
ATOM      4  C   UNL     1     140.180 134.492 134.879  1.00  0.00     0.035 C 
ATOM      5  C   UNL     1     139.536 135.749 135.514  1.00  0.00     0.018 C 
ATOM      6  C   UNL     1     139.072 135.445 136.924  1.00  0.00    -0.023 C 
ATOM      7  C   UNL     1     138.596 134.234 137.234  1.00  0.00    -0.001 C 
ENDROOT
BRANCH   5   8
ATOM      8  C   UNL     1     140.439 137.016 135.470  1.00  0.00    -0.010 C 
ATOM      9  C   UNL     1     140.054 138.007 134.357  1.00  0.00     0.008 C 
ATOM     10  C   UNL     1     140.483 137.732 136.827  1.00  0.00     0.008 C 
ENDBRANCH   5   8
TORSDOF 1
ENDMDL
MODEL 6
REMARK VINA RESULT:    -4.076      1.038      4.332
REMARK INTER + INTRA:          -4.505
REMARK INTER:                  -4.366
REMARK INTRA:                  -0.139
REMARK UNBOUND:                -0.190
REMARK SMILES CC1=CC[C@H](C(C)C)C=C1
REMARK SMILES IDX 1 1 2 2 3 3 4 4 5 5 9 6 10 7 6 8 7 9 8 10
REMARK H PARENT
REMARK Flexibility Score: inf
ROOT
ATOM      1  C   UNL     1     140.957 137.932 136.366  1.00  0.00     0.044 C 
ATOM      2  C   UNL     1     139.638 138.631 136.222  1.00  0.00    -0.055 C 
ATOM      3  C   UNL     1     139.396 139.406 135.152  1.00  0.00    -0.023 C 
ATOM      4  C   UNL     1     138.137 140.231 135.068  1.00  0.00     0.035 C 
ATOM      5  C   UNL     1     136.953 139.505 135.752  1.00  0.00     0.018 C 
ATOM      6  C   UNL     1     137.378 138.968 137.104  1.00  0.00    -0.023 C 
ATOM      7  C   UNL     1     138.623 138.518 137.293  1.00  0.00    -0.001 C 
ENDROOT
BRANCH   5   8
ATOM      8  C   UNL     1     135.659 140.363 135.860  1.00  0.00    -0.010 C 
ATOM      9  C   UNL     1     134.655 140.107 134.721  1.00  0.00     0.008 C 
ATOM     10  C   UNL     1     134.972 140.191 137.221  1.00  0.00     0.008 C 
ENDBRANCH   5   8
TORSDOF 1
ENDMDL
MODEL 7
REMARK VINA RESULT:    -4.076      6.538      7.010
REMARK INTER + INTRA:          -4.504
REMARK INTER:                  -4.361
REMARK INTRA:                  -0.143
REMARK UNBOUND:                -0.190
REMARK SMILES CC1=CC[C@H](C(C)C)C=C1
REMARK SMILES IDX 1 1 2 2 3 3 4 4 5 5 9 6 10 7 6 8 7 9 8 10
REMARK H PARENT
REMARK Flexibility Score: inf
ROOT
ATOM      1  C   UNL     1     131.874 134.738 136.564  1.00  0.00     0.044 C 
ATOM      2  C   UNL     1     133.153 134.008 136.280  1.00  0.00    -0.055 C 
ATOM      3  C   UNL     1     133.253 133.212 135.203  1.00  0.00    -0.023 C 
ATOM      4  C   UNL     1     134.476 132.358 134.987  1.00  0.00     0.035 C 
ATOM      5  C   UNL     1     135.747 133.068 135.516  1.00  0.00     0.018 C 
ATOM      6  C   UNL     1     135.493 133.635 136.898  1.00  0.00    -0.023 C 
ATOM      7  C   UNL     1     134.288 134.115 137.223  1.00  0.00    -0.001 C 
ENDROOT
BRANCH   5   8
ATOM      8  C   UNL     1     137.027 132.184 135.486  1.00  0.00    -0.010 C 
ATOM      9  C   UNL     1     138.023 132.581 134.383  1.00  0.00     0.008 C 
ATOM     10  C   UNL     1     137.730 132.153 136.850  1.00  0.00     0.008 C 
ENDBRANCH   5   8
TORSDOF 1
ENDMDL
MODEL 8
REMARK VINA RESULT:    -4.045      4.379      6.006
REMARK INTER + INTRA:          -4.471
REMARK INTER:                  -4.333
REMARK INTRA:                  -0.138
REMARK UNBOUND:                -0.190
REMARK SMILES CC1=CC[C@H](C(C)C)C=C1
REMARK SMILES IDX 1 1 2 2 3 3 4 4 5 5 9 6 10 7 6 8 7 9 8 10
REMARK H PARENT
REMARK Flexibility Score: inf
ROOT
ATOM      1  C   UNL     1     134.670 140.871 136.323  1.00  0.00     0.044 C 
ATOM      2  C   UNL     1     133.967 139.561 136.120  1.00  0.00    -0.055 C 
ATOM      3  C   UNL     1     133.288 139.326 134.986  1.00  0.00    -0.023 C 
ATOM      4  C   UNL     1     132.456 138.079 134.832  1.00  0.00     0.035 C 
ATOM      5  C   UNL     1     133.099 136.887 135.583  1.00  0.00     0.018 C 
ATOM      6  C   UNL     1     133.518 137.311 136.976  1.00  0.00    -0.023 C 
ATOM      7  C   UNL     1     133.968 138.550 137.201  1.00  0.00    -0.001 C 
ENDROOT
BRANCH   5   8
ATOM      8  C   UNL     1     132.216 135.606 135.616  1.00  0.00    -0.010 C 
ATOM      9  C   UNL     1     132.547 134.602 134.498  1.00  0.00     0.008 C 
ATOM     10  C   UNL     1     132.269 134.913 136.985  1.00  0.00     0.008 C 
ENDBRANCH   5   8
TORSDOF 1
ENDMDL
MODEL 9
REMARK VINA RESULT:    -3.817      2.883      5.228
REMARK INTER + INTRA:          -4.231
REMARK INTER:                  -4.042
REMARK INTRA:                  -0.188
REMARK UNBOUND:                -0.190
REMARK SMILES CC1=CC[C@H](C(C)C)C=C1
REMARK SMILES IDX 1 1 2 2 3 3 4 4 5 5 9 6 10 7 6 8 7 9 8 10
REMARK H PARENT
REMARK Flexibility Score: inf
ROOT
ATOM      1  C   UNL     1     139.435 132.758 135.523  1.00  0.00     0.044 C 
ATOM      2  C   UNL     1     139.519 134.235 135.773  1.00  0.00    -0.055 C 
ATOM      3  C   UNL     1     138.889 134.779 136.827  1.00  0.00    -0.023 C 
ATOM      4  C   UNL     1     138.840 136.275 137.006  1.00  0.00     0.035 C 
ATOM      5  C   UNL     1     140.137 136.938 136.481  1.00  0.00     0.018 C 
ATOM      6  C   UNL     1     140.495 136.383 135.117  1.00  0.00    -0.023 C 
ATOM      7  C   UNL     1     140.243 135.104 134.820  1.00  0.00    -0.001 C 
ENDROOT
BRANCH   5   8
ATOM      8  C   UNL     1     140.096 138.494 136.473  1.00  0.00    -0.010 C 
ATOM      9  C   UNL     1     139.989 139.098 135.061  1.00  0.00     0.008 C 
ATOM     10  C   UNL     1     138.977 139.040 137.370  1.00  0.00     0.008 C 
ENDBRANCH   5   8
TORSDOF 1
ENDMDL
