MODEL 1
REMARK VINA RESULT:    -7.433      0.000      0.000
REMARK INTER + INTRA:          -9.205
REMARK INTER:                  -8.954
REMARK INTRA:                  -0.251
REMARK UNBOUND:                -0.251
REMARK SMILES O=c1c(O)c(-c2ccc(O)c(O)c2)oc2cc(O)cc(O)c12
REMARK SMILES IDX 5 1 3 2 2 3 1 4 22 5 20 6 19 7 17 8 16 9 15 10 14 11 6 12
REMARK SMILES IDX 7 13 8 14 9 15 13 16 11 17 10 18 12 20 4 22 21 24 18 26
REMARK H PARENT 10 19 12 21 4 23 21 25 18 27
REMARK Flexibility Score: inf
ROOT
ATOM      1  C   UNL     1      37.476  19.592  12.098  1.00  0.00     0.180 A 
ATOM      2  C   UNL     1      37.146  20.776  12.779  1.00  0.00     0.208 A 
ATOM      3  C   UNL     1      37.960  21.909  12.607  1.00  0.00     0.238 A 
ATOM      4  O   UNL     1      37.692  22.950  13.261  1.00  0.00    -0.285 OA
ATOM      5  C   UNL     1      39.080  21.846  11.744  1.00  0.00     0.111 A 
ATOM      6  C   UNL     1      39.950  22.944  11.465  1.00  0.00     0.134 A 
ATOM      7  C   UNL     1      41.103  22.733  10.699  1.00  0.00     0.093 A 
ATOM      8  C   UNL     1      41.384  21.483  10.149  1.00  0.00     0.123 A 
ATOM      9  C   UNL     1      40.509  20.417  10.366  1.00  0.00     0.094 A 
ATOM     10  C   UNL     1      39.370  20.587  11.157  1.00  0.00     0.146 A 
ATOM     11  O   UNL     1      38.570  19.545  11.348  1.00  0.00    -0.452 OA
ENDROOT
BRANCH   1  12
ATOM     12  C   UNL     1      36.653  18.365  12.210  1.00  0.00     0.025 A 
ATOM     13  C   UNL     1      35.402  18.312  11.577  1.00  0.00     0.016 A 
ATOM     14  C   UNL     1      34.600  17.173  11.687  1.00  0.00     0.051 A 
ATOM     15  C   UNL     1      35.031  16.076  12.444  1.00  0.00     0.157 A 
ATOM     16  C   UNL     1      37.073  17.270  12.986  1.00  0.00     0.062 A 
ATOM     17  C   UNL     1      36.272  16.128  13.101  1.00  0.00     0.158 A 
BRANCH  15  18
ATOM     18  O   UNL     1      34.230  14.940  12.550  1.00  0.00    -0.504 OA
ATOM     19  H   UNL     1      34.245  14.212  11.846  1.00  0.00     0.293 HD
ENDBRANCH  15  18
BRANCH  17  20
ATOM     20  O   UNL     1      36.723  15.058  13.875  1.00  0.00    -0.504 OA
ATOM     21  H   UNL     1      36.195  14.704  14.663  1.00  0.00     0.293 HD
ENDBRANCH  17  20
ENDBRANCH   1  12
BRANCH   2  22
ATOM     22  O   UNL     1      36.049  20.810  13.642  1.00  0.00    -0.502 OA
ATOM     23  H   UNL     1      35.430  20.019  13.767  1.00  0.00     0.293 HD
ENDBRANCH   2  22
BRANCH   6  24
ATOM     24  O   UNL     1      39.714  24.254  11.888  1.00  0.00    -0.507 OA
ATOM     25  H   UNL     1      39.895  24.598  12.819  1.00  0.00     0.293 HD
ENDBRANCH   6  24
BRANCH   8  26
ATOM     26  O   UNL     1      42.533  21.313   9.378  1.00  0.00    -0.508 OA
ATOM     27  H   UNL     1      42.797  21.983   8.666  1.00  0.00     0.293 HD
ENDBRANCH   8  26
TORSDOF 6
ENDMDL
MODEL 2
REMARK VINA RESULT:    -7.032      1.410      3.178
REMARK INTER + INTRA:          -8.722
REMARK INTER:                  -8.398
REMARK INTRA:                  -0.323
REMARK UNBOUND:                -0.251
REMARK SMILES O=c1c(O)c(-c2ccc(O)c(O)c2)oc2cc(O)cc(O)c12
REMARK SMILES IDX 5 1 3 2 2 3 1 4 22 5 20 6 19 7 17 8 16 9 15 10 14 11 6 12
REMARK SMILES IDX 7 13 8 14 9 15 13 16 11 17 10 18 12 20 4 22 21 24 18 26
REMARK H PARENT 10 19 12 21 4 23 21 25 18 27
REMARK Flexibility Score: inf
ROOT
ATOM      1  C   UNL     1      37.136  19.683  12.182  1.00  0.00     0.180 A 
ATOM      2  C   UNL     1      38.125  19.942  11.219  1.00  0.00     0.208 A 
ATOM      3  C   UNL     1      38.776  21.187  11.229  1.00  0.00     0.238 A 
ATOM      4  O   UNL     1      39.621  21.434  10.330  1.00  0.00    -0.285 OA
ATOM      5  C   UNL     1      38.442  22.149  12.212  1.00  0.00     0.111 A 
ATOM      6  C   UNL     1      39.065  23.427  12.340  1.00  0.00     0.134 A 
ATOM      7  C   UNL     1      38.564  24.349  13.268  1.00  0.00     0.093 A 
ATOM      8  C   UNL     1      37.506  24.017  14.114  1.00  0.00     0.123 A 
ATOM      9  C   UNL     1      36.929  22.749  14.038  1.00  0.00     0.094 A 
ATOM     10  C   UNL     1      37.382  21.821  13.097  1.00  0.00     0.146 A 
ATOM     11  O   UNL     1      36.798  20.629  13.050  1.00  0.00    -0.452 OA
ENDROOT
BRANCH   1  12
ATOM     12  C   UNL     1      36.424  18.387  12.251  1.00  0.00     0.025 A 
ATOM     13  C   UNL     1      35.140  18.273  11.696  1.00  0.00     0.016 A 
ATOM     14  C   UNL     1      34.441  17.065  11.768  1.00  0.00     0.051 A 
ATOM     15  C   UNL     1      35.009  15.958  12.410  1.00  0.00     0.157 A 
ATOM     16  C   UNL     1      36.983  17.278  12.913  1.00  0.00     0.062 A 
ATOM     17  C   UNL     1      36.284  16.067  12.990  1.00  0.00     0.158 A 
BRANCH  15  18
ATOM     18  O   UNL     1      34.311  14.753  12.479  1.00  0.00    -0.504 OA
ATOM     19  H   UNL     1      33.366  14.666  12.124  1.00  0.00     0.293 HD
ENDBRANCH  15  18
BRANCH  17  20
ATOM     20  O   UNL     1      36.872  14.987  13.649  1.00  0.00    -0.504 OA
ATOM     21  H   UNL     1      36.324  14.305  14.158  1.00  0.00     0.293 HD
ENDBRANCH  17  20
ENDBRANCH   1  12
BRANCH   2  22
ATOM     22  O   UNL     1      38.425  18.987  10.243  1.00  0.00    -0.502 OA
ATOM     23  H   UNL     1      37.724  18.612   9.616  1.00  0.00     0.293 HD
ENDBRANCH   2  22
BRANCH   6  24
ATOM     24  O   UNL     1      40.186  23.825  11.608  1.00  0.00    -0.507 OA
ATOM     25  H   UNL     1      40.251  23.807  10.601  1.00  0.00     0.293 HD
ENDBRANCH   6  24
BRANCH   8  26
ATOM     26  O   UNL     1      37.044  24.954  15.036  1.00  0.00    -0.508 OA
ATOM     27  H   UNL     1      37.669  25.619  15.475  1.00  0.00     0.293 HD
ENDBRANCH   8  26
TORSDOF 6
ENDMDL
MODEL 3
REMARK VINA RESULT:    -6.851      3.864      8.865
REMARK INTER + INTRA:          -8.504
REMARK INTER:                  -8.297
REMARK INTRA:                  -0.207
REMARK UNBOUND:                -0.251
REMARK SMILES O=c1c(O)c(-c2ccc(O)c(O)c2)oc2cc(O)cc(O)c12
REMARK SMILES IDX 5 1 3 2 2 3 1 4 22 5 20 6 19 7 17 8 16 9 15 10 14 11 6 12
REMARK SMILES IDX 7 13 8 14 9 15 13 16 11 17 10 18 12 20 4 22 21 24 18 26
REMARK H PARENT 10 19 12 21 4 23 21 25 18 27
REMARK Flexibility Score: inf
ROOT
ATOM      1  C   UNL     1      40.998  24.203   9.851  1.00  0.00     0.180 A 
ATOM      2  C   UNL     1      41.233  22.818   9.878  1.00  0.00     0.208 A 
ATOM      3  C   UNL     1      40.547  22.029  10.818  1.00  0.00     0.238 A 
ATOM      4  O   UNL     1      40.802  20.798  10.873  1.00  0.00    -0.285 OA
ATOM      5  C   UNL     1      39.625  22.634  11.705  1.00  0.00     0.111 A 
ATOM      6  C   UNL     1      38.845  21.926  12.669  1.00  0.00     0.134 A 
ATOM      7  C   UNL     1      38.062  22.642  13.583  1.00  0.00     0.093 A 
ATOM      8  C   UNL     1      37.978  24.033  13.526  1.00  0.00     0.123 A 
ATOM      9  C   UNL     1      38.690  24.730  12.549  1.00  0.00     0.094 A 
ATOM     10  C   UNL     1      39.509  24.047  11.647  1.00  0.00     0.146 A 
ATOM     11  O   UNL     1      40.177  24.749  10.739  1.00  0.00    -0.452 OA
ENDROOT
BRANCH   1  12
ATOM     12  C   UNL     1      41.664  25.095   8.875  1.00  0.00     0.025 A 
ATOM     13  C   UNL     1      42.531  26.098   9.335  1.00  0.00     0.016 A 
ATOM     14  C   UNL     1      43.153  26.965   8.433  1.00  0.00     0.051 A 
ATOM     15  C   UNL     1      42.906  26.852   7.059  1.00  0.00     0.157 A 
ATOM     16  C   UNL     1      41.402  24.997   7.496  1.00  0.00     0.062 A 
ATOM     17  C   UNL     1      42.022  25.866   6.590  1.00  0.00     0.158 A 
BRANCH  15  18
ATOM     18  O   UNL     1      43.530  27.717   6.160  1.00  0.00    -0.504 OA
ATOM     19  H   UNL     1      43.621  28.707   6.354  1.00  0.00     0.293 HD
ENDBRANCH  15  18
BRANCH  17  20
ATOM     20  O   UNL     1      41.743  25.736   5.229  1.00  0.00    -0.504 OA
ATOM     21  H   UNL     1      41.672  24.832   4.778  1.00  0.00     0.293 HD
ENDBRANCH  17  20
ENDBRANCH   1  12
BRANCH   2  22
ATOM     22  O   UNL     1      42.164  22.245   9.008  1.00  0.00    -0.502 OA
ATOM     23  H   UNL     1      42.982  22.743   8.681  1.00  0.00     0.293 HD
ENDBRANCH   2  22
BRANCH   6  24
ATOM     24  O   UNL     1      38.784  20.533  12.752  1.00  0.00    -0.507 OA
ATOM     25  H   UNL     1      39.509  19.948  13.141  1.00  0.00     0.293 HD
ENDBRANCH   6  24
BRANCH   8  26
ATOM     26  O   UNL     1      37.176  24.711  14.441  1.00  0.00    -0.508 OA
ATOM     27  H   UNL     1      37.547  25.054  15.319  1.00  0.00     0.293 HD
ENDBRANCH   8  26
TORSDOF 6
ENDMDL
MODEL 4
REMARK VINA RESULT:    -6.647      3.865      8.936
REMARK INTER + INTRA:          -8.258
REMARK INTER:                  -8.270
REMARK INTRA:                   0.012
REMARK UNBOUND:                -0.251
REMARK SMILES O=c1c(O)c(-c2ccc(O)c(O)c2)oc2cc(O)cc(O)c12
REMARK SMILES IDX 5 1 3 2 2 3 1 4 22 5 20 6 19 7 17 8 16 9 15 10 14 11 6 12
REMARK SMILES IDX 7 13 8 14 9 15 13 16 11 17 10 18 12 20 4 22 21 24 18 26
REMARK H PARENT 10 19 12 21 4 23 21 25 18 27
REMARK Flexibility Score: inf
ROOT
ATOM      1  C   UNL     1      41.062  24.189   9.800  1.00  0.00     0.180 A 
ATOM      2  C   UNL     1      41.266  22.799   9.820  1.00  0.00     0.208 A 
ATOM      3  C   UNL     1      40.557  22.020  10.750  1.00  0.00     0.238 A 
ATOM      4  O   UNL     1      40.785  20.783  10.800  1.00  0.00    -0.285 OA
ATOM      5  C   UNL     1      39.642  22.639  11.635  1.00  0.00     0.111 A 
ATOM      6  C   UNL     1      38.842  21.942  12.590  1.00  0.00     0.134 A 
ATOM      7  C   UNL     1      38.068  22.669  13.503  1.00  0.00     0.093 A 
ATOM      8  C   UNL     1      38.014  24.062  13.454  1.00  0.00     0.123 A 
ATOM      9  C   UNL     1      38.747  24.750  12.486  1.00  0.00     0.094 A 
ATOM     10  C   UNL     1      39.557  24.055  11.585  1.00  0.00     0.146 A 
ATOM     11  O   UNL     1      40.246  24.748  10.686  1.00  0.00    -0.452 OA
ENDROOT
BRANCH   1  12
ATOM     12  C   UNL     1      41.753  25.072   8.833  1.00  0.00     0.025 A 
ATOM     13  C   UNL     1      41.737  24.750   7.468  1.00  0.00     0.016 A 
ATOM     14  C   UNL     1      42.400  25.558   6.541  1.00  0.00     0.051 A 
ATOM     15  C   UNL     1      43.104  26.692   6.968  1.00  0.00     0.157 A 
ATOM     16  C   UNL     1      42.477  26.200   9.261  1.00  0.00     0.062 A 
ATOM     17  C   UNL     1      43.146  27.011   8.335  1.00  0.00     0.158 A 
BRANCH  15  18
ATOM     18  O   UNL     1      43.764  27.497   6.041  1.00  0.00    -0.504 OA
ATOM     19  H   UNL     1      44.760  27.670   6.103  1.00  0.00     0.293 HD
ENDBRANCH  15  18
BRANCH  17  20
ATOM     20  O   UNL     1      43.849  28.125   8.794  1.00  0.00    -0.504 OA
ATOM     21  H   UNL     1      43.390  28.894   9.267  1.00  0.00     0.293 HD
ENDBRANCH  17  20
ENDBRANCH   1  12
BRANCH   2  22
ATOM     22  O   UNL     1      42.190  22.211   8.953  1.00  0.00    -0.502 OA
ATOM     23  H   UNL     1      42.904  22.746   8.473  1.00  0.00     0.293 HD
ENDBRANCH   2  22
BRANCH   6  24
ATOM     24  O   UNL     1      38.750  20.550  12.665  1.00  0.00    -0.507 OA
ATOM     25  H   UNL     1      39.487  19.911  12.406  1.00  0.00     0.293 HD
ENDBRANCH   6  24
BRANCH   8  26
ATOM     26  O   UNL     1      37.221  24.752  14.368  1.00  0.00    -0.508 OA
ATOM     27  H   UNL     1      37.408  24.719  15.363  1.00  0.00     0.293 HD
ENDBRANCH   8  26
TORSDOF 6
ENDMDL
MODEL 5
REMARK VINA RESULT:    -6.441      3.387      5.299
REMARK INTER + INTRA:          -8.010
REMARK INTER:                  -8.088
REMARK INTRA:                   0.078
REMARK UNBOUND:                -0.251
REMARK SMILES O=c1c(O)c(-c2ccc(O)c(O)c2)oc2cc(O)cc(O)c12
REMARK SMILES IDX 5 1 3 2 2 3 1 4 22 5 20 6 19 7 17 8 16 9 15 10 14 11 6 12
REMARK SMILES IDX 7 13 8 14 9 15 13 16 11 17 10 18 12 20 4 22 21 24 18 26
REMARK H PARENT 10 19 12 21 4 23 21 25 18 27
REMARK Flexibility Score: inf
ROOT
ATOM      1  C   UNL     1      38.356  22.608  12.508  1.00  0.00     0.180 A 
ATOM      2  C   UNL     1      38.682  21.269  12.232  1.00  0.00     0.208 A 
ATOM      3  C   UNL     1      39.734  20.994  11.342  1.00  0.00     0.238 A 
ATOM      4  O   UNL     1      39.985  19.795  11.057  1.00  0.00    -0.285 OA
ATOM      5  C   UNL     1      40.456  22.060  10.755  1.00  0.00     0.111 A 
ATOM      6  C   UNL     1      41.566  21.897   9.872  1.00  0.00     0.134 A 
ATOM      7  C   UNL     1      42.122  23.021   9.247  1.00  0.00     0.093 A 
ATOM      8  C   UNL     1      41.652  24.305   9.524  1.00  0.00     0.123 A 
ATOM      9  C   UNL     1      40.607  24.480  10.431  1.00  0.00     0.094 A 
ATOM     10  C   UNL     1      40.007  23.376  11.042  1.00  0.00     0.146 A 
ATOM     11  O   UNL     1      39.009  23.585  11.892  1.00  0.00    -0.452 OA
ENDROOT
BRANCH   1  12
ATOM     12  C   UNL     1      37.276  22.977  13.453  1.00  0.00     0.025 A 
ATOM     13  C   UNL     1      36.021  22.359  13.343  1.00  0.00     0.016 A 
ATOM     14  C   UNL     1      34.982  22.708  14.210  1.00  0.00     0.051 A 
ATOM     15  C   UNL     1      35.178  23.690  15.189  1.00  0.00     0.157 A 
ATOM     16  C   UNL     1      37.464  23.977  14.424  1.00  0.00     0.062 A 
ATOM     17  C   UNL     1      36.424  24.331  15.293  1.00  0.00     0.158 A 
BRANCH  15  18
ATOM     18  O   UNL     1      34.141  24.034  16.055  1.00  0.00    -0.504 OA
ATOM     19  H   UNL     1      33.309  24.508  15.723  1.00  0.00     0.293 HD
ENDBRANCH  15  18
BRANCH  17  20
ATOM     20  O   UNL     1      36.648  25.323  16.248  1.00  0.00    -0.504 OA
ATOM     21  H   UNL     1      35.975  25.530  16.976  1.00  0.00     0.293 HD
ENDBRANCH  17  20
ENDBRANCH   1  12
BRANCH   2  22
ATOM     22  O   UNL     1      37.942  20.232  12.805  1.00  0.00    -0.502 OA
ATOM     23  H   UNL     1      37.231  19.723  12.294  1.00  0.00     0.293 HD
ENDBRANCH   2  22
BRANCH   6  24
ATOM     24  O   UNL     1      42.172  20.669   9.598  1.00  0.00    -0.507 OA
ATOM     25  H   UNL     1      43.064  20.374   9.967  1.00  0.00     0.293 HD
ENDBRANCH   6  24
BRANCH   8  26
ATOM     26  O   UNL     1      42.240  25.402   8.896  1.00  0.00    -0.508 OA
ATOM     27  H   UNL     1      41.682  26.160   8.523  1.00  0.00     0.293 HD
ENDBRANCH   8  26
TORSDOF 6
ENDMDL
MODEL 6
REMARK VINA RESULT:    -6.434      3.320      7.038
REMARK INTER + INTRA:          -8.001
REMARK INTER:                  -7.672
REMARK INTRA:                  -0.329
REMARK UNBOUND:                -0.251
REMARK SMILES O=c1c(O)c(-c2ccc(O)c(O)c2)oc2cc(O)cc(O)c12
REMARK SMILES IDX 5 1 3 2 2 3 1 4 22 5 20 6 19 7 17 8 16 9 15 10 14 11 6 12
REMARK SMILES IDX 7 13 8 14 9 15 13 16 11 17 10 18 12 20 4 22 21 24 18 26
REMARK H PARENT 10 19 12 21 4 23 21 25 18 27
REMARK Flexibility Score: inf
ROOT
ATOM      1  C   UNL     1      37.253  23.567  12.624  1.00  0.00     0.180 A 
ATOM      2  C   UNL     1      38.543  23.657  12.075  1.00  0.00     0.208 A 
ATOM      3  C   UNL     1      39.201  22.478  11.685  1.00  0.00     0.238 A 
ATOM      4  O   UNL     1      40.377  22.561  11.245  1.00  0.00    -0.285 OA
ATOM      5  C   UNL     1      38.553  21.229  11.832  1.00  0.00     0.111 A 
ATOM      6  C   UNL     1      39.108  19.976  11.433  1.00  0.00     0.134 A 
ATOM      7  C   UNL     1      38.433  18.790  11.747  1.00  0.00     0.093 A 
ATOM      8  C   UNL     1      37.193  18.814  12.386  1.00  0.00     0.123 A 
ATOM      9  C   UNL     1      36.613  20.037  12.727  1.00  0.00     0.094 A 
ATOM     10  C   UNL     1      37.280  21.235  12.461  1.00  0.00     0.146 A 
ATOM     11  O   UNL     1      36.698  22.376  12.811  1.00  0.00    -0.452 OA
ENDROOT
BRANCH   1  12
ATOM     12  C   UNL     1      36.488  24.766  13.037  1.00  0.00     0.025 A 
ATOM     13  C   UNL     1      36.482  25.153  14.386  1.00  0.00     0.016 A 
ATOM     14  C   UNL     1      35.750  26.268  14.800  1.00  0.00     0.051 A 
ATOM     15  C   UNL     1      34.999  27.004  13.875  1.00  0.00     0.157 A 
ATOM     16  C   UNL     1      35.716  25.496  12.114  1.00  0.00     0.062 A 
ATOM     17  C   UNL     1      34.979  26.612  12.526  1.00  0.00     0.158 A 
BRANCH  15  18
ATOM     18  O   UNL     1      34.270  28.118  14.291  1.00  0.00    -0.504 OA
ATOM     19  H   UNL     1      34.169  28.935  13.701  1.00  0.00     0.293 HD
ENDBRANCH  15  18
BRANCH  17  20
ATOM     20  O   UNL     1      34.230  27.315  11.582  1.00  0.00    -0.504 OA
ATOM     21  H   UNL     1      33.797  28.206  11.794  1.00  0.00     0.293 HD
ENDBRANCH  17  20
ENDBRANCH   1  12
BRANCH   2  22
ATOM     22  O   UNL     1      39.174  24.899  11.959  1.00  0.00    -0.502 OA
ATOM     23  H   UNL     1      39.932  25.065  11.309  1.00  0.00     0.293 HD
ENDBRANCH   2  22
BRANCH   6  24
ATOM     24  O   UNL     1      40.296  19.844  10.708  1.00  0.00    -0.507 OA
ATOM     25  H   UNL     1      40.916  20.606  10.479  1.00  0.00     0.293 HD
ENDBRANCH   6  24
BRANCH   8  26
ATOM     26  O   UNL     1      36.542  17.615  12.668  1.00  0.00    -0.508 OA
ATOM     27  H   UNL     1      36.350  16.933  11.944  1.00  0.00     0.293 HD
ENDBRANCH   8  26
TORSDOF 6
ENDMDL
MODEL 7
REMARK VINA RESULT:    -6.341      3.109      6.469
REMARK INTER + INTRA:          -7.889
REMARK INTER:                  -7.574
REMARK INTRA:                  -0.315
REMARK UNBOUND:                -0.251
REMARK SMILES O=c1c(O)c(-c2ccc(O)c(O)c2)oc2cc(O)cc(O)c12
REMARK SMILES IDX 5 1 3 2 2 3 1 4 22 5 20 6 19 7 17 8 16 9 15 10 14 11 6 12
REMARK SMILES IDX 7 13 8 14 9 15 13 16 11 17 10 18 12 20 4 22 21 24 18 26
REMARK H PARENT 10 19 12 21 4 23 21 25 18 27
REMARK Flexibility Score: inf
ROOT
ATOM      1  C   UNL     1      37.076  23.196  12.579  1.00  0.00     0.180 A 
ATOM      2  C   UNL     1      36.392  21.971  12.673  1.00  0.00     0.208 A 
ATOM      3  C   UNL     1      37.033  20.799  12.237  1.00  0.00     0.238 A 
ATOM      4  O   UNL     1      36.396  19.715  12.272  1.00  0.00    -0.285 OA
ATOM      5  C   UNL     1      38.352  20.864  11.731  1.00  0.00     0.111 A 
ATOM      6  C   UNL     1      39.111  19.735  11.299  1.00  0.00     0.134 A 
ATOM      7  C   UNL     1      40.359  19.932  10.694  1.00  0.00     0.093 A 
ATOM      8  C   UNL     1      40.903  21.210  10.563  1.00  0.00     0.123 A 
ATOM      9  C   UNL     1      40.195  22.316  11.036  1.00  0.00     0.094 A 
ATOM     10  C   UNL     1      38.932  22.155  11.611  1.00  0.00     0.146 A 
ATOM     11  O   UNL     1      38.288  23.234  12.039  1.00  0.00    -0.452 OA
ENDROOT
BRANCH   1  12
ATOM     12  C   UNL     1      36.476  24.469  13.040  1.00  0.00     0.025 A 
ATOM     13  C   UNL     1      36.552  24.818  14.397  1.00  0.00     0.016 A 
ATOM     14  C   UNL     1      35.975  26.004  14.857  1.00  0.00     0.051 A 
ATOM     15  C   UNL     1      35.300  26.852  13.970  1.00  0.00     0.157 A 
ATOM     16  C   UNL     1      35.780  25.313  12.155  1.00  0.00     0.062 A 
ATOM     17  C   UNL     1      35.198  26.501  12.613  1.00  0.00     0.158 A 
BRANCH  15  18
ATOM     18  O   UNL     1      34.727  28.037  14.431  1.00  0.00    -0.504 OA
ATOM     19  H   UNL     1      34.594  28.834  13.820  1.00  0.00     0.293 HD
ENDBRANCH  15  18
BRANCH  17  20
ATOM     20  O   UNL     1      34.520  27.317  11.706  1.00  0.00    -0.504 OA
ATOM     21  H   UNL     1      34.611  28.325  11.718  1.00  0.00     0.293 HD
ENDBRANCH  17  20
ENDBRANCH   1  12
BRANCH   2  22
ATOM     22  O   UNL     1      35.082  21.932  13.155  1.00  0.00    -0.502 OA
ATOM     23  H   UNL     1      34.477  22.744  13.154  1.00  0.00     0.293 HD
ENDBRANCH   2  22
BRANCH   6  24
ATOM     24  O   UNL     1      38.702  18.409  11.466  1.00  0.00    -0.507 OA
ATOM     25  H   UNL     1      38.896  17.847  12.280  1.00  0.00     0.293 HD
ENDBRANCH   6  24
BRANCH   8  26
ATOM     26  O   UNL     1      42.154  21.367   9.970  1.00  0.00    -0.508 OA
ATOM     27  H   UNL     1      42.623  20.597   9.510  1.00  0.00     0.293 HD
ENDBRANCH   8  26
TORSDOF 6
ENDMDL
MODEL 8
REMARK VINA RESULT:    -6.299      4.680      9.987
REMARK INTER + INTRA:          -7.838
REMARK INTER:                  -7.912
REMARK INTRA:                   0.074
REMARK UNBOUND:                -0.251
REMARK SMILES O=c1c(O)c(-c2ccc(O)c(O)c2)oc2cc(O)cc(O)c12
REMARK SMILES IDX 5 1 3 2 2 3 1 4 22 5 20 6 19 7 17 8 16 9 15 10 14 11 6 12
REMARK SMILES IDX 7 13 8 14 9 15 13 16 11 17 10 18 12 20 4 22 21 24 18 26
REMARK H PARENT 10 19 12 21 4 23 21 25 18 27
REMARK Flexibility Score: inf
ROOT
ATOM      1  C   UNL     1      42.399  25.454   8.442  1.00  0.00     0.180 A 
ATOM      2  C   UNL     1      41.445  26.199   9.155  1.00  0.00     0.208 A 
ATOM      3  C   UNL     1      40.605  25.535  10.066  1.00  0.00     0.238 A 
ATOM      4  O   UNL     1      39.716  26.197  10.660  1.00  0.00    -0.285 OA
ATOM      5  C   UNL     1      40.742  24.140  10.262  1.00  0.00     0.111 A 
ATOM      6  C   UNL     1      39.972  23.373  11.188  1.00  0.00     0.134 A 
ATOM      7  C   UNL     1      40.102  21.978  11.205  1.00  0.00     0.093 A 
ATOM      8  C   UNL     1      41.019  21.330  10.377  1.00  0.00     0.123 A 
ATOM      9  C   UNL     1      41.819  22.076   9.511  1.00  0.00     0.094 A 
ATOM     10  C   UNL     1      41.686  23.465   9.445  1.00  0.00     0.146 A 
ATOM     11  O   UNL     1      42.459  24.137   8.600  1.00  0.00    -0.452 OA
ENDROOT
BRANCH   1  12
ATOM     12  C   UNL     1      43.335  26.085   7.484  1.00  0.00     0.025 A 
ATOM     13  C   UNL     1      44.000  27.267   7.845  1.00  0.00     0.016 A 
ATOM     14  C   UNL     1      44.871  27.892   6.948  1.00  0.00     0.051 A 
ATOM     15  C   UNL     1      45.079  27.353   5.672  1.00  0.00     0.157 A 
ATOM     16  C   UNL     1      43.529  25.558   6.194  1.00  0.00     0.062 A 
ATOM     17  C   UNL     1      44.399  26.182   5.293  1.00  0.00     0.158 A 
BRANCH  15  18
ATOM     18  O   UNL     1      45.950  27.976   4.780  1.00  0.00    -0.504 OA
ATOM     19  H   UNL     1      45.760  28.901   4.413  1.00  0.00     0.293 HD
ENDBRANCH  15  18
BRANCH  17  20
ATOM     20  O   UNL     1      44.573  25.628   4.024  1.00  0.00    -0.504 OA
ATOM     21  H   UNL     1      45.491  25.472   3.626  1.00  0.00     0.293 HD
ENDBRANCH  17  20
ENDBRANCH   1  12
BRANCH   2  22
ATOM     22  O   UNL     1      41.311  27.571   8.930  1.00  0.00    -0.502 OA
ATOM     23  H   UNL     1      41.481  28.260   9.652  1.00  0.00     0.293 HD
ENDBRANCH   2  22
BRANCH   6  24
ATOM     24  O   UNL     1      39.095  23.928  12.123  1.00  0.00    -0.507 OA
ATOM     25  H   UNL     1      38.424  24.654  11.920  1.00  0.00     0.293 HD
ENDBRANCH   6  24
BRANCH   8  26
ATOM     26  O   UNL     1      41.133  19.942  10.432  1.00  0.00    -0.508 OA
ATOM     27  H   UNL     1      41.602  19.479  11.201  1.00  0.00     0.293 HD
ENDBRANCH   8  26
TORSDOF 6
ENDMDL
MODEL 9
REMARK VINA RESULT:    -6.295      3.183      8.417
REMARK INTER + INTRA:          -7.834
REMARK INTER:                  -8.365
REMARK INTRA:                   0.530
REMARK UNBOUND:                -0.251
REMARK SMILES O=c1c(O)c(-c2ccc(O)c(O)c2)oc2cc(O)cc(O)c12
REMARK SMILES IDX 5 1 3 2 2 3 1 4 22 5 20 6 19 7 17 8 16 9 15 10 14 11 6 12
REMARK SMILES IDX 7 13 8 14 9 15 13 16 11 17 10 18 12 20 4 22 21 24 18 26
REMARK H PARENT 10 19 12 21 4 23 21 25 18 27
REMARK Flexibility Score: inf
ROOT
ATOM      1  C   UNL     1      40.572  23.464  10.372  1.00  0.00     0.180 A 
ATOM      2  C   UNL     1      40.864  22.091  10.308  1.00  0.00     0.208 A 
ATOM      3  C   UNL     1      40.175  21.208  11.156  1.00  0.00     0.238 A 
ATOM      4  O   UNL     1      40.481  19.988  11.133  1.00  0.00    -0.285 OA
ATOM      5  C   UNL     1      39.192  21.707  12.042  1.00  0.00     0.111 A 
ATOM      6  C   UNL     1      38.404  20.899  12.917  1.00  0.00     0.134 A 
ATOM      7  C   UNL     1      37.553  21.512  13.845  1.00  0.00     0.093 A 
ATOM      8  C   UNL     1      37.412  22.899  13.886  1.00  0.00     0.123 A 
ATOM      9  C   UNL     1      38.132  23.696  12.995  1.00  0.00     0.094 A 
ATOM     10  C   UNL     1      39.017  23.115  12.083  1.00  0.00     0.146 A 
ATOM     11  O   UNL     1      39.691  23.909  11.259  1.00  0.00    -0.452 OA
ENDROOT
BRANCH   1  12
ATOM     12  C   UNL     1      41.238  24.453   9.493  1.00  0.00     0.025 A 
ATOM     13  C   UNL     1      42.106  24.007   8.485  1.00  0.00     0.016 A 
ATOM     14  C   UNL     1      42.762  24.924   7.659  1.00  0.00     0.051 A 
ATOM     15  C   UNL     1      42.572  26.300   7.839  1.00  0.00     0.157 A 
ATOM     16  C   UNL     1      41.066  25.836   9.685  1.00  0.00     0.062 A 
ATOM     17  C   UNL     1      41.724  26.757   8.862  1.00  0.00     0.158 A 
BRANCH  15  18
ATOM     18  O   UNL     1      43.226  27.212   7.012  1.00  0.00    -0.504 OA
ATOM     19  H   UNL     1      43.020  27.274   6.023  1.00  0.00     0.293 HD
ENDBRANCH  15  18
BRANCH  17  20
ATOM     20  O   UNL     1      41.525  28.121   9.077  1.00  0.00    -0.504 OA
ATOM     21  H   UNL     1      42.282  28.740   9.341  1.00  0.00     0.293 HD
ENDBRANCH  17  20
ENDBRANCH   1  12
BRANCH   2  22
ATOM     22  O   UNL     1      41.855  21.622   9.441  1.00  0.00    -0.502 OA
ATOM     23  H   UNL     1      42.329  20.739   9.583  1.00  0.00     0.293 HD
ENDBRANCH   2  22
BRANCH   6  24
ATOM     24  O   UNL     1      38.400  19.502  12.896  1.00  0.00    -0.507 OA
ATOM     25  H   UNL     1      39.216  18.927  12.749  1.00  0.00     0.293 HD
ENDBRANCH   6  24
BRANCH   8  26
ATOM     26  O   UNL     1      36.544  23.475  14.811  1.00  0.00    -0.508 OA
ATOM     27  H   UNL     1      35.833  22.929  15.282  1.00  0.00     0.293 HD
ENDBRANCH   8  26
TORSDOF 6
ENDMDL
