MODEL 1
REMARK VINA RESULT:    -7.048      0.000      0.000
REMARK INTER + INTRA:          -7.147
REMARK INTER:                  -7.666
REMARK INTRA:                   0.518
REMARK UNBOUND:                 0.518
REMARK SMILES C[C@H]1[C@H](C)CC[C@]2(C(=O)[O-])CC[C@]3(C)C(=CC[C@@H]4[C@]5(C)CC[C@@H](O)C(C)(C)[C@@H]5CC[C@@]43C)[C@@H]12
REMARK SMILES IDX 7 1 6 2 11 3 33 4 5 5 12 6 15 7 2 8 3 9 13 10 16 11 1 12
REMARK SMILES IDX 4 13 14 14 31 15 17 16 18 17 30 18 32 19 19 20 29 21 28 22
REMARK SMILES IDX 21 23 20 24 25 25 22 26 23 27 26 28 27 29 8 30 9 31 10 32
REMARK SMILES IDX 24 33
REMARK H PARENT 24 34
REMARK Flexibility Score: inf
ROOT
ATOM      1  C   UNL     1     -22.764 -34.253  20.382  1.00  0.00     0.017 C 
ATOM      2  C   UNL     1     -21.280 -33.792  20.453  1.00  0.00     0.014 C 
ATOM      3  C   UNL     1     -22.862 -35.621  21.084  1.00  0.00     0.014 C 
ATOM      4  C   UNL     1     -23.158 -34.448  18.882  1.00  0.00     0.030 C 
ATOM      5  C   UNL     1     -21.031 -32.501  19.665  1.00  0.00     0.004 C 
ATOM      6  C   UNL     1     -24.282 -36.194  21.048  1.00  0.00     0.013 C 
ATOM      7  C   UNL     1     -24.519 -35.169  18.696  1.00  0.00    -0.063 C 
ATOM      8  C   UNL     1     -22.870 -33.177  17.996  1.00  0.00    -0.003 C 
ATOM      9  C   UNL     1     -21.419 -32.639  18.180  1.00  0.00    -0.011 C 
ATOM     10  C   UNL     1     -24.903 -36.348  19.604  1.00  0.00    -0.006 C 
ATOM     11  C   UNL     1     -25.167 -35.065  17.519  1.00  0.00    -0.027 C 
ATOM     12  C   UNL     1     -23.892 -32.034  18.156  1.00  0.00     0.008 C 
ATOM     13  C   UNL     1     -20.387 -33.480  17.404  1.00  0.00     0.008 C 
ATOM     14  C   UNL     1     -24.228 -37.617  18.986  1.00  0.00     0.017 C 
ATOM     15  C   UNL     1     -26.517 -36.515  19.646  1.00  0.00    -0.020 C 
ATOM     16  C   UNL     1     -26.272 -35.976  17.074  1.00  0.00     0.032 C 
ATOM     17  C   UNL     1     -27.113 -36.710  18.177  1.00  0.00     0.006 C 
ATOM     18  C   UNL     1     -27.256 -35.292  20.322  1.00  0.00     0.008 C 
ATOM     19  C   UNL     1     -26.824 -37.787  20.513  1.00  0.00     0.012 C 
ATOM     20  C   UNL     1     -28.665 -36.365  18.012  1.00  0.00    -0.025 C 
ATOM     21  C   UNL     1     -27.833 -34.259  19.340  1.00  0.00     0.005 C 
ATOM     22  C   UNL     1     -28.934 -34.833  18.396  1.00  0.00     0.003 C 
ATOM     23  C   UNL     1     -29.150 -36.772  16.571  1.00  0.00     0.010 C 
ATOM     24  C   UNL     1     -29.539 -37.269  18.944  1.00  0.00     0.012 C 
ATOM     25  C   UNL     1     -29.411 -33.792  17.256  1.00  0.00    -0.006 C 
ATOM     26  C   UNL     1     -30.276 -35.888  16.062  1.00  0.00     0.033 C 
ATOM     27  C   UNL     1     -29.745 -34.476  15.883  1.00  0.00     0.120 C 
ATOM     28  C   UNL     1     -30.677 -33.051  17.782  1.00  0.00     0.014 C 
ATOM     29  C   UNL     1     -28.361 -32.683  16.963  1.00  0.00     0.014 C 
ENDROOT
BRANCH   1  30
ATOM     30  C   UNL     1     -23.647 -33.255  21.127  1.00  0.00     0.048 C 
ATOM     31  O   UNL     1     -23.252 -32.745  22.211  1.00  0.00    -0.550 OA
ATOM     32  O   UNL     1     -24.932 -32.964  20.691  1.00  0.00    -0.550 OA
ENDBRANCH   1  30
BRANCH  27  33
ATOM     33  O   UNL     1     -30.691 -33.739  15.145  1.00  0.00    -0.393 OA
ATOM     34  H   UNL     1     -31.286 -34.390  14.690  1.00  0.00     0.210 HD
ENDBRANCH  27  33
TORSDOF 2
ENDMDL
MODEL 2
REMARK VINA RESULT:    -6.967      2.296      3.894
REMARK INTER + INTRA:          -7.059
REMARK INTER:                  -7.583
REMARK INTRA:                   0.524
REMARK UNBOUND:                 0.518
REMARK SMILES C[C@H]1[C@H](C)CC[C@]2(C(=O)[O-])CC[C@]3(C)C(=CC[C@@H]4[C@]5(C)CC[C@@H](O)C(C)(C)[C@@H]5CC[C@@]43C)[C@@H]12
REMARK SMILES IDX 7 1 6 2 11 3 33 4 5 5 12 6 15 7 2 8 3 9 13 10 16 11 1 12
REMARK SMILES IDX 4 13 14 14 31 15 17 16 18 17 30 18 32 19 19 20 29 21 28 22
REMARK SMILES IDX 21 23 20 24 25 25 22 26 23 27 26 28 27 29 8 30 9 31 10 32
REMARK SMILES IDX 24 33
REMARK H PARENT 24 34
REMARK Flexibility Score: inf
ROOT
ATOM      1  C   UNL     1     -23.628 -31.026  20.365  1.00  0.00     0.017 C 
ATOM      2  C   UNL     1     -22.119 -30.882  20.709  1.00  0.00     0.014 C 
ATOM      3  C   UNL     1     -24.420 -30.162  21.366  1.00  0.00     0.014 C 
ATOM      4  C   UNL     1     -24.050 -32.517  20.572  1.00  0.00     0.030 C 
ATOM      5  C   UNL     1     -21.235 -31.806  19.864  1.00  0.00     0.004 C 
ATOM      6  C   UNL     1     -25.933 -30.252  21.143  1.00  0.00     0.013 C 
ATOM      7  C   UNL     1     -25.586 -32.730  20.528  1.00  0.00    -0.063 C 
ATOM      8  C   UNL     1     -23.142 -33.533  19.778  1.00  0.00    -0.003 C 
ATOM      9  C   UNL     1     -21.622 -33.290  20.023  1.00  0.00    -0.011 C 
ATOM     10  C   UNL     1     -26.530 -31.713  21.191  1.00  0.00    -0.006 C 
ATOM     11  C   UNL     1     -26.076 -33.965  20.302  1.00  0.00    -0.027 C 
ATOM     12  C   UNL     1     -23.438 -33.617  18.268  1.00  0.00     0.008 C 
ATOM     13  C   UNL     1     -21.157 -33.851  21.380  1.00  0.00     0.008 C 
ATOM     14  C   UNL     1     -26.591 -32.096  22.707  1.00  0.00     0.017 C 
ATOM     15  C   UNL     1     -28.003 -31.797  20.514  1.00  0.00    -0.020 C 
ATOM     16  C   UNL     1     -27.487 -34.385  20.590  1.00  0.00     0.032 C 
ATOM     17  C   UNL     1     -28.598 -33.276  20.614  1.00  0.00     0.006 C 
ATOM     18  C   UNL     1     -28.019 -31.359  18.995  1.00  0.00     0.008 C 
ATOM     19  C   UNL     1     -28.926 -30.803  21.301  1.00  0.00     0.012 C 
ATOM     20  C   UNL     1     -29.752 -33.626  19.565  1.00  0.00    -0.025 C 
ATOM     21  C   UNL     1     -27.975 -32.516  17.985  1.00  0.00     0.005 C 
ATOM     22  C   UNL     1     -29.204 -33.472  18.068  1.00  0.00     0.003 C 
ATOM     23  C   UNL     1     -30.361 -35.040  19.897  1.00  0.00     0.010 C 
ATOM     24  C   UNL     1     -30.976 -32.667  19.744  1.00  0.00     0.012 C 
ATOM     25  C   UNL     1     -29.069 -34.778  17.126  1.00  0.00    -0.006 C 
ATOM     26  C   UNL     1     -30.870 -35.760  18.660  1.00  0.00     0.033 C 
ATOM     27  C   UNL     1     -29.690 -36.075  17.757  1.00  0.00     0.120 C 
ATOM     28  C   UNL     1     -29.783 -34.472  15.776  1.00  0.00     0.014 C 
ATOM     29  C   UNL     1     -27.596 -35.118  16.760  1.00  0.00     0.014 C 
ENDROOT
BRANCH   1  30
ATOM     30  C   UNL     1     -23.885 -30.502  18.954  1.00  0.00     0.048 C 
ATOM     31  O   UNL     1     -23.285 -29.472  18.542  1.00  0.00    -0.550 OA
ATOM     32  O   UNL     1     -24.848 -31.076  18.137  1.00  0.00    -0.550 OA
ENDBRANCH   1  30
BRANCH  27  33
ATOM     33  O   UNL     1     -30.118 -36.986  16.773  1.00  0.00    -0.393 OA
ATOM     34  H   UNL     1     -29.308 -37.414  16.392  1.00  0.00     0.210 HD
ENDBRANCH  27  33
TORSDOF 2
ENDMDL
MODEL 3
REMARK VINA RESULT:    -6.803      2.328      4.776
REMARK INTER + INTRA:          -6.881
REMARK INTER:                  -7.401
REMARK INTRA:                   0.520
REMARK UNBOUND:                 0.518
REMARK SMILES C[C@H]1[C@H](C)CC[C@]2(C(=O)[O-])CC[C@]3(C)C(=CC[C@@H]4[C@]5(C)CC[C@@H](O)C(C)(C)[C@@H]5CC[C@@]43C)[C@@H]12
REMARK SMILES IDX 7 1 6 2 11 3 33 4 5 5 12 6 15 7 2 8 3 9 13 10 16 11 1 12
REMARK SMILES IDX 4 13 14 14 31 15 17 16 18 17 30 18 32 19 19 20 29 21 28 22
REMARK SMILES IDX 21 23 20 24 25 25 22 26 23 27 26 28 27 29 8 30 9 31 10 32
REMARK SMILES IDX 24 33
REMARK H PARENT 24 34
REMARK Flexibility Score: inf
ROOT
ATOM      1  C   UNL     1     -20.470 -32.361  19.933  1.00  0.00     0.017 C 
ATOM      2  C   UNL     1     -19.048 -32.218  20.545  1.00  0.00     0.014 C 
ATOM      3  C   UNL     1     -21.033 -30.942  19.721  1.00  0.00     0.014 C 
ATOM      4  C   UNL     1     -21.387 -33.099  20.962  1.00  0.00     0.030 C 
ATOM      5  C   UNL     1     -18.436 -33.570  20.928  1.00  0.00     0.004 C 
ATOM      6  C   UNL     1     -22.454 -30.960  19.149  1.00  0.00     0.013 C 
ATOM      7  C   UNL     1     -22.891 -33.055  20.583  1.00  0.00    -0.063 C 
ATOM      8  C   UNL     1     -20.789 -34.473  21.450  1.00  0.00    -0.003 C 
ATOM      9  C   UNL     1     -19.313 -34.343  21.933  1.00  0.00    -0.011 C 
ATOM     10  C   UNL     1     -23.507 -31.774  19.998  1.00  0.00    -0.006 C 
ATOM     11  C   UNL     1     -23.738 -33.947  21.133  1.00  0.00    -0.027 C 
ATOM     12  C   UNL     1     -20.926 -35.630  20.440  1.00  0.00     0.008 C 
ATOM     13  C   UNL     1     -19.217 -33.738  23.347  1.00  0.00     0.008 C 
ATOM     14  C   UNL     1     -23.862 -30.862  21.219  1.00  0.00     0.017 C 
ATOM     15  C   UNL     1     -24.838 -32.136  19.142  1.00  0.00    -0.020 C 
ATOM     16  C   UNL     1     -25.230 -33.803  21.151  1.00  0.00     0.032 C 
ATOM     17  C   UNL     1     -25.901 -32.923  20.038  1.00  0.00     0.006 C 
ATOM     18  C   UNL     1     -24.537 -33.004  17.855  1.00  0.00     0.008 C 
ATOM     19  C   UNL     1     -25.456 -30.778  18.660  1.00  0.00     0.012 C 
ATOM     20  C   UNL     1     -26.982 -33.781  19.230  1.00  0.00    -0.025 C 
ATOM     21  C   UNL     1     -24.770 -34.514  18.021  1.00  0.00     0.005 C 
ATOM     22  C   UNL     1     -26.250 -34.892  18.338  1.00  0.00     0.003 C 
ATOM     23  C   UNL     1     -28.061 -34.347  20.226  1.00  0.00     0.010 C 
ATOM     24  C   UNL     1     -27.825 -32.863  18.284  1.00  0.00     0.012 C 
ATOM     25  C   UNL     1     -26.455 -36.457  18.680  1.00  0.00    -0.006 C 
ATOM     26  C   UNL     1     -28.641 -35.674  19.764  1.00  0.00     0.033 C 
ATOM     27  C   UNL     1     -27.542 -36.721  19.783  1.00  0.00     0.120 C 
ATOM     28  C   UNL     1     -26.870 -37.185  17.367  1.00  0.00     0.014 C 
ATOM     29  C   UNL     1     -25.150 -37.155  19.158  1.00  0.00     0.014 C 
ENDROOT
BRANCH   1  30
ATOM     30  C   UNL     1     -20.377 -33.060  18.578  1.00  0.00     0.048 C 
ATOM     31  O   UNL     1     -19.401 -32.832  17.813  1.00  0.00    -0.550 OA
ATOM     32  O   UNL     1     -21.402 -33.873  18.115  1.00  0.00    -0.550 OA
ENDBRANCH   1  30
BRANCH  27  33
ATOM     33  O   UNL     1     -28.137 -37.990  19.642  1.00  0.00    -0.393 OA
ATOM     34  H   UNL     1     -28.107 -38.433  20.530  1.00  0.00     0.210 HD
ENDBRANCH  27  33
TORSDOF 2
ENDMDL
MODEL 4
REMARK VINA RESULT:    -6.749      2.406      7.534
REMARK INTER + INTRA:          -6.822
REMARK INTER:                  -7.338
REMARK INTRA:                   0.516
REMARK UNBOUND:                 0.518
REMARK SMILES C[C@H]1[C@H](C)CC[C@]2(C(=O)[O-])CC[C@]3(C)C(=CC[C@@H]4[C@]5(C)CC[C@@H](O)C(C)(C)[C@@H]5CC[C@@]43C)[C@@H]12
REMARK SMILES IDX 7 1 6 2 11 3 33 4 5 5 12 6 15 7 2 8 3 9 13 10 16 11 1 12
REMARK SMILES IDX 4 13 14 14 31 15 17 16 18 17 30 18 32 19 19 20 29 21 28 22
REMARK SMILES IDX 21 23 20 24 25 25 22 26 23 27 26 28 27 29 8 30 9 31 10 32
REMARK SMILES IDX 24 33
REMARK H PARENT 24 34
REMARK Flexibility Score: inf
ROOT
ATOM      1  C   UNL     1     -29.270 -33.038  19.026  1.00  0.00     0.017 C 
ATOM      2  C   UNL     1     -30.487 -33.487  18.169  1.00  0.00     0.014 C 
ATOM      3  C   UNL     1     -29.537 -31.594  19.495  1.00  0.00     0.014 C 
ATOM      4  C   UNL     1     -27.996 -33.026  18.121  1.00  0.00     0.030 C 
ATOM      5  C   UNL     1     -30.277 -34.864  17.530  1.00  0.00     0.004 C 
ATOM      6  C   UNL     1     -28.381 -31.030  20.327  1.00  0.00     0.013 C 
ATOM      7  C   UNL     1     -26.778 -32.334  18.787  1.00  0.00    -0.063 C 
ATOM      8  C   UNL     1     -27.750 -34.396  17.381  1.00  0.00    -0.003 C 
ATOM      9  C   UNL     1     -29.020 -34.908  16.637  1.00  0.00    -0.011 C 
ATOM     10  C   UNL     1     -26.972 -31.052  19.615  1.00  0.00    -0.006 C 
ATOM     11  C   UNL     1     -25.539 -32.580  18.319  1.00  0.00    -0.027 C 
ATOM     12  C   UNL     1     -27.159 -35.511  18.267  1.00  0.00     0.008 C 
ATOM     13  C   UNL     1     -29.250 -34.168  15.305  1.00  0.00     0.008 C 
ATOM     14  C   UNL     1     -26.995 -29.869  18.592  1.00  0.00     0.017 C 
ATOM     15  C   UNL     1     -25.749 -30.881  20.669  1.00  0.00    -0.020 C 
ATOM     16  C   UNL     1     -24.338 -31.730  18.607  1.00  0.00     0.032 C 
ATOM     17  C   UNL     1     -24.340 -30.866  19.918  1.00  0.00     0.006 C 
ATOM     18  C   UNL     1     -25.710 -32.013  21.772  1.00  0.00     0.008 C 
ATOM     19  C   UNL     1     -25.968 -29.514  21.406  1.00  0.00     0.012 C 
ATOM     20  C   UNL     1     -23.073 -31.229  20.822  1.00  0.00    -0.025 C 
ATOM     21  C   UNL     1     -24.723 -33.157  21.493  1.00  0.00     0.005 C 
ATOM     22  C   UNL     1     -23.232 -32.703  21.430  1.00  0.00     0.003 C 
ATOM     23  C   UNL     1     -21.750 -31.000  20.000  1.00  0.00     0.010 C 
ATOM     24  C   UNL     1     -22.928 -30.218  22.008  1.00  0.00     0.012 C 
ATOM     25  C   UNL     1     -22.220 -33.874  20.967  1.00  0.00    -0.006 C 
ATOM     26  C   UNL     1     -20.632 -31.940  20.420  1.00  0.00     0.033 C 
ATOM     27  C   UNL     1     -21.034 -33.363  20.074  1.00  0.00     0.120 C 
ATOM     28  C   UNL     1     -21.645 -34.546  22.250  1.00  0.00     0.014 C 
ATOM     29  C   UNL     1     -22.924 -35.011  20.172  1.00  0.00     0.014 C 
ENDROOT
BRANCH   1  30
ATOM     30  C   UNL     1     -29.148 -33.938  20.253  1.00  0.00     0.048 C 
ATOM     31  O   UNL     1     -30.178 -34.280  20.894  1.00  0.00    -0.550 OA
ATOM     32  O   UNL     1     -27.908 -34.313  20.750  1.00  0.00    -0.550 OA
ENDBRANCH   1  30
BRANCH  27  33
ATOM     33  O   UNL     1     -19.896 -34.184  20.191  1.00  0.00    -0.393 OA
ATOM     34  H   UNL     1     -20.213 -35.117  20.311  1.00  0.00     0.210 HD
ENDBRANCH  27  33
TORSDOF 2
ENDMDL
MODEL 5
REMARK VINA RESULT:    -6.723      4.066      6.679
REMARK INTER + INTRA:          -6.795
REMARK INTER:                  -7.466
REMARK INTRA:                   0.671
REMARK UNBOUND:                 0.518
REMARK SMILES C[C@H]1[C@H](C)CC[C@]2(C(=O)[O-])CC[C@]3(C)C(=CC[C@@H]4[C@]5(C)CC[C@@H](O)C(C)(C)[C@@H]5CC[C@@]43C)[C@@H]12
REMARK SMILES IDX 7 1 6 2 11 3 33 4 5 5 12 6 15 7 2 8 3 9 13 10 16 11 1 12
REMARK SMILES IDX 4 13 14 14 31 15 17 16 18 17 30 18 32 19 19 20 29 21 28 22
REMARK SMILES IDX 21 23 20 24 25 25 22 26 23 27 26 28 27 29 8 30 9 31 10 32
REMARK SMILES IDX 24 33
REMARK H PARENT 24 34
REMARK Flexibility Score: inf
ROOT
ATOM      1  C   UNL     1     -23.225 -32.064  18.403  1.00  0.00     0.017 C 
ATOM      2  C   UNL     1     -21.828 -32.614  17.995  1.00  0.00     0.014 C 
ATOM      3  C   UNL     1     -23.613 -30.974  17.385  1.00  0.00     0.014 C 
ATOM      4  C   UNL     1     -23.111 -31.396  19.811  1.00  0.00     0.030 C 
ATOM      5  C   UNL     1     -21.272 -33.613  19.016  1.00  0.00     0.004 C 
ATOM      6  C   UNL     1     -24.967 -30.334  17.707  1.00  0.00     0.013 C 
ATOM      7  C   UNL     1     -24.366 -30.572  20.201  1.00  0.00    -0.063 C 
ATOM      8  C   UNL     1     -22.487 -32.349  20.900  1.00  0.00    -0.003 C 
ATOM      9  C   UNL     1     -21.154 -33.004  20.426  1.00  0.00    -0.011 C 
ATOM     10  C   UNL     1     -25.084 -29.707  19.152  1.00  0.00    -0.006 C 
ATOM     11  C   UNL     1     -24.583 -30.271  21.496  1.00  0.00    -0.027 C 
ATOM     12  C   UNL     1     -23.450 -33.422  21.445  1.00  0.00     0.008 C 
ATOM     13  C   UNL     1     -19.964 -32.029  20.521  1.00  0.00     0.008 C 
ATOM     14  C   UNL     1     -24.302 -28.353  19.090  1.00  0.00     0.017 C 
ATOM     15  C   UNL     1     -26.627 -29.464  19.592  1.00  0.00    -0.020 C 
ATOM     16  C   UNL     1     -25.521 -29.203  21.974  1.00  0.00     0.032 C 
ATOM     17  C   UNL     1     -26.713 -28.793  21.039  1.00  0.00     0.006 C 
ATOM     18  C   UNL     1     -27.489 -30.789  19.610  1.00  0.00     0.008 C 
ATOM     19  C   UNL     1     -27.262 -28.504  18.526  1.00  0.00     0.012 C 
ATOM     20  C   UNL     1     -28.105 -28.977  21.802  1.00  0.00    -0.025 C 
ATOM     21  C   UNL     1     -27.660 -31.435  20.994  1.00  0.00     0.005 C 
ATOM     22  C   UNL     1     -28.414 -30.534  22.020  1.00  0.00     0.003 C 
ATOM     23  C   UNL     1     -28.105 -28.119  23.122  1.00  0.00     0.010 C 
ATOM     24  C   UNL     1     -29.279 -28.352  20.978  1.00  0.00     0.012 C 
ATOM     25  C   UNL     1     -28.438 -31.144  23.516  1.00  0.00    -0.006 C 
ATOM     26  C   UNL     1     -28.957 -28.736  24.219  1.00  0.00     0.033 C 
ATOM     27  C   UNL     1     -28.332 -30.054  24.641  1.00  0.00     0.120 C 
ATOM     28  C   UNL     1     -29.770 -31.933  23.691  1.00  0.00     0.014 C 
ATOM     29  C   UNL     1     -27.299 -32.171  23.776  1.00  0.00     0.014 C 
ENDROOT
BRANCH   1  30
ATOM     30  C   UNL     1     -24.257 -33.188  18.335  1.00  0.00     0.048 C 
ATOM     31  O   UNL     1     -25.305 -33.129  19.033  1.00  0.00    -0.550 OA
ATOM     32  O   UNL     1     -24.023 -34.337  17.593  1.00  0.00    -0.550 OA
ENDBRANCH   1  30
BRANCH  27  33
ATOM     33  O   UNL     1     -28.946 -30.471  25.838  1.00  0.00    -0.393 OA
ATOM     34  H   UNL     1     -28.404 -30.116  26.589  1.00  0.00     0.210 HD
ENDBRANCH  27  33
TORSDOF 2
ENDMDL
MODEL 6
REMARK VINA RESULT:    -6.722      4.071      7.826
REMARK INTER + INTRA:          -6.793
REMARK INTER:                  -7.312
REMARK INTRA:                   0.519
REMARK UNBOUND:                 0.518
REMARK SMILES C[C@H]1[C@H](C)CC[C@]2(C(=O)[O-])CC[C@]3(C)C(=CC[C@@H]4[C@]5(C)CC[C@@H](O)C(C)(C)[C@@H]5CC[C@@]43C)[C@@H]12
REMARK SMILES IDX 7 1 6 2 11 3 33 4 5 5 12 6 15 7 2 8 3 9 13 10 16 11 1 12
REMARK SMILES IDX 4 13 14 14 31 15 17 16 18 17 30 18 32 19 19 20 29 21 28 22
REMARK SMILES IDX 21 23 20 24 25 25 22 26 23 27 26 28 27 29 8 30 9 31 10 32
REMARK SMILES IDX 24 33
REMARK H PARENT 24 34
REMARK Flexibility Score: inf
ROOT
ATOM      1  C   UNL     1     -28.510 -29.818  23.022  1.00  0.00     0.017 C 
ATOM      2  C   UNL     1     -29.641 -29.850  24.089  1.00  0.00     0.014 C 
ATOM      3  C   UNL     1     -29.079 -29.143  21.759  1.00  0.00     0.014 C 
ATOM      4  C   UNL     1     -28.123 -31.287  22.656  1.00  0.00     0.030 C 
ATOM      5  C   UNL     1     -29.235 -30.624  25.349  1.00  0.00     0.004 C 
ATOM      6  C   UNL     1     -28.056 -29.084  20.620  1.00  0.00     0.013 C 
ATOM      7  C   UNL     1     -27.206 -31.385  21.408  1.00  0.00    -0.063 C 
ATOM      8  C   UNL     1     -27.753 -32.162  23.913  1.00  0.00    -0.003 C 
ATOM      9  C   UNL     1     -28.830 -32.078  25.036  1.00  0.00    -0.011 C 
ATOM     10  C   UNL     1     -27.452 -30.478  20.191  1.00  0.00    -0.006 C 
ATOM     11  C   UNL     1     -26.487 -32.506  21.202  1.00  0.00    -0.027 C 
ATOM     12  C   UNL     1     -26.349 -31.896  24.493  1.00  0.00     0.008 C 
ATOM     13  C   UNL     1     -30.061 -32.951  24.725  1.00  0.00     0.008 C 
ATOM     14  C   UNL     1     -28.564 -31.177  19.341  1.00  0.00     0.017 C 
ATOM     15  C   UNL     1     -26.084 -30.316  19.333  1.00  0.00    -0.020 C 
ATOM     16  C   UNL     1     -25.862 -32.886  19.893  1.00  0.00     0.032 C 
ATOM     17  C   UNL     1     -25.519 -31.739  18.878  1.00  0.00     0.006 C 
ATOM     18  C   UNL     1     -24.940 -29.557  20.115  1.00  0.00     0.008 C 
ATOM     19  C   UNL     1     -26.437 -29.459  18.067  1.00  0.00     0.012 C 
ATOM     20  C   UNL     1     -23.965 -31.777  18.505  1.00  0.00    -0.025 C 
ATOM     21  C   UNL     1     -23.893 -30.466  20.778  1.00  0.00     0.005 C 
ATOM     22  C   UNL     1     -23.083 -31.336  19.767  1.00  0.00     0.003 C 
ATOM     23  C   UNL     1     -23.596 -33.186  17.908  1.00  0.00     0.010 C 
ATOM     24  C   UNL     1     -23.654 -30.802  17.320  1.00  0.00     0.012 C 
ATOM     25  C   UNL     1     -22.109 -32.411  20.478  1.00  0.00    -0.006 C 
ATOM     26  C   UNL     1     -22.159 -33.585  18.202  1.00  0.00     0.033 C 
ATOM     27  C   UNL     1     -22.000 -33.770  19.701  1.00  0.00     0.120 C 
ATOM     28  C   UNL     1     -20.693 -31.771  20.595  1.00  0.00     0.014 C 
ATOM     29  C   UNL     1     -22.539 -32.757  21.932  1.00  0.00     0.014 C 
ENDROOT
BRANCH   1  30
ATOM     30  C   UNL     1     -27.341 -28.983  23.541  1.00  0.00     0.048 C 
ATOM     31  O   UNL     1     -27.557 -27.912  24.169  1.00  0.00    -0.550 OA
ATOM     32  O   UNL     1     -26.028 -29.323  23.248  1.00  0.00    -0.550 OA
ENDBRANCH   1  30
BRANCH  27  33
ATOM     33  O   UNL     1     -20.771 -34.415  19.938  1.00  0.00    -0.393 OA
ATOM     34  H   UNL     1     -20.054 -33.738  19.831  1.00  0.00     0.210 HD
ENDBRANCH  27  33
TORSDOF 2
ENDMDL
MODEL 7
REMARK VINA RESULT:    -6.705      2.838      6.820
REMARK INTER + INTRA:          -6.774
REMARK INTER:                  -7.298
REMARK INTRA:                   0.523
REMARK UNBOUND:                 0.518
REMARK SMILES C[C@H]1[C@H](C)CC[C@]2(C(=O)[O-])CC[C@]3(C)C(=CC[C@@H]4[C@]5(C)CC[C@@H](O)C(C)(C)[C@@H]5CC[C@@]43C)[C@@H]12
REMARK SMILES IDX 7 1 6 2 11 3 33 4 5 5 12 6 15 7 2 8 3 9 13 10 16 11 1 12
REMARK SMILES IDX 4 13 14 14 31 15 17 16 18 17 30 18 32 19 19 20 29 21 28 22
REMARK SMILES IDX 21 23 20 24 25 25 22 26 23 27 26 28 27 29 8 30 9 31 10 32
REMARK SMILES IDX 24 33
REMARK H PARENT 24 34
REMARK Flexibility Score: inf
ROOT
ATOM      1  C   UNL     1     -28.760 -36.102  19.538  1.00  0.00     0.017 C 
ATOM      2  C   UNL     1     -29.369 -37.377  18.888  1.00  0.00     0.014 C 
ATOM      3  C   UNL     1     -29.744 -35.611  20.618  1.00  0.00     0.014 C 
ATOM      4  C   UNL     1     -28.642 -34.989  18.447  1.00  0.00     0.030 C 
ATOM      5  C   UNL     1     -28.542 -37.882  17.701  1.00  0.00     0.004 C 
ATOM      6  C   UNL     1     -29.260 -34.333  21.308  1.00  0.00     0.013 C 
ATOM      7  C   UNL     1     -28.308 -33.592  19.031  1.00  0.00    -0.063 C 
ATOM      8  C   UNL     1     -27.853 -35.460  17.165  1.00  0.00    -0.003 C 
ATOM      9  C   UNL     1     -28.384 -36.812  16.602  1.00  0.00    -0.011 C 
ATOM     10  C   UNL     1     -28.964 -33.121  20.340  1.00  0.00    -0.006 C 
ATOM     11  C   UNL     1     -27.800 -32.641  18.223  1.00  0.00    -0.027 C 
ATOM     12  C   UNL     1     -26.321 -35.512  17.334  1.00  0.00     0.008 C 
ATOM     13  C   UNL     1     -29.688 -36.634  15.800  1.00  0.00     0.008 C 
ATOM     14  C   UNL     1     -30.364 -32.543  19.945  1.00  0.00     0.017 C 
ATOM     15  C   UNL     1     -28.047 -31.983  21.044  1.00  0.00    -0.020 C 
ATOM     16  C   UNL     1     -27.775 -31.177  18.546  1.00  0.00     0.032 C 
ATOM     17  C   UNL     1     -27.798 -30.752  20.057  1.00  0.00     0.006 C 
ATOM     18  C   UNL     1     -26.641 -32.521  21.527  1.00  0.00     0.008 C 
ATOM     19  C   UNL     1     -28.823 -31.490  22.315  1.00  0.00     0.012 C 
ATOM     20  C   UNL     1     -26.528 -29.842  20.395  1.00  0.00    -0.025 C 
ATOM     21  C   UNL     1     -25.473 -32.240  20.568  1.00  0.00     0.005 C 
ATOM     22  C   UNL     1     -25.190 -30.722  20.349  1.00  0.00     0.003 C 
ATOM     23  C   UNL     1     -26.514 -28.579  19.457  1.00  0.00     0.010 C 
ATOM     24  C   UNL     1     -26.658 -29.215  21.824  1.00  0.00     0.012 C 
ATOM     25  C   UNL     1     -24.080 -30.431  19.211  1.00  0.00    -0.006 C 
ATOM     26  C   UNL     1     -25.107 -28.085  19.165  1.00  0.00     0.033 C 
ATOM     27  C   UNL     1     -24.374 -29.144  18.361  1.00  0.00     0.120 C 
ATOM     28  C   UNL     1     -22.699 -30.276  19.917  1.00  0.00     0.014 C 
ATOM     29  C   UNL     1     -23.913 -31.606  18.206  1.00  0.00     0.014 C 
ENDROOT
BRANCH   1  30
ATOM     30  C   UNL     1     -27.433 -36.453  20.207  1.00  0.00     0.048 C 
ATOM     31  O   UNL     1     -27.291 -37.562  20.791  1.00  0.00    -0.550 OA
ATOM     32  O   UNL     1     -26.397 -35.533  20.279  1.00  0.00    -0.550 OA
ENDBRANCH   1  30
BRANCH  27  33
ATOM     33  O   UNL     1     -23.194 -28.572  17.848  1.00  0.00    -0.393 OA
ATOM     34  H   UNL     1     -23.320 -28.456  16.871  1.00  0.00     0.210 HD
ENDBRANCH  27  33
TORSDOF 2
ENDMDL
MODEL 8
REMARK VINA RESULT:    -6.666      2.796      4.194
REMARK INTER + INTRA:          -6.732
REMARK INTER:                  -7.243
REMARK INTRA:                   0.510
REMARK UNBOUND:                 0.518
REMARK SMILES C[C@H]1[C@H](C)CC[C@]2(C(=O)[O-])CC[C@]3(C)C(=CC[C@@H]4[C@]5(C)CC[C@@H](O)C(C)(C)[C@@H]5CC[C@@]43C)[C@@H]12
REMARK SMILES IDX 7 1 6 2 11 3 33 4 5 5 12 6 15 7 2 8 3 9 13 10 16 11 1 12
REMARK SMILES IDX 4 13 14 14 31 15 17 16 18 17 30 18 32 19 19 20 29 21 28 22
REMARK SMILES IDX 21 23 20 24 25 25 22 26 23 27 26 28 27 29 8 30 9 31 10 32
REMARK SMILES IDX 24 33
REMARK H PARENT 24 34
REMARK Flexibility Score: inf
ROOT
ATOM      1  C   UNL     1     -21.890 -34.303  20.389  1.00  0.00     0.017 C 
ATOM      2  C   UNL     1     -20.400 -34.740  20.293  1.00  0.00     0.014 C 
ATOM      3  C   UNL     1     -22.760 -35.548  20.124  1.00  0.00     0.014 C 
ATOM      4  C   UNL     1     -22.181 -33.259  19.263  1.00  0.00     0.030 C 
ATOM      5  C   UNL     1     -19.435 -33.555  20.405  1.00  0.00     0.004 C 
ATOM      6  C   UNL     1     -24.257 -35.230  20.160  1.00  0.00     0.013 C 
ATOM      7  C   UNL     1     -23.692 -32.959  19.082  1.00  0.00    -0.063 C 
ATOM      8  C   UNL     1     -21.183 -32.038  19.279  1.00  0.00    -0.003 C 
ATOM      9  C   UNL     1     -19.692 -32.488  19.323  1.00  0.00    -0.011 C 
ATOM     10  C   UNL     1     -24.724 -34.095  19.166  1.00  0.00    -0.006 C 
ATOM     11  C   UNL     1     -24.071 -31.831  18.449  1.00  0.00    -0.027 C 
ATOM     12  C   UNL     1     -21.463 -30.991  20.376  1.00  0.00     0.008 C 
ATOM     13  C   UNL     1     -19.186 -32.953  17.943  1.00  0.00     0.008 C 
ATOM     14  C   UNL     1     -24.760 -34.761  17.750  1.00  0.00     0.017 C 
ATOM     15  C   UNL     1     -26.180 -33.496  19.559  1.00  0.00    -0.020 C 
ATOM     16  C   UNL     1     -25.441 -31.592  17.888  1.00  0.00     0.032 C 
ATOM     17  C   UNL     1     -26.645 -32.380  18.514  1.00  0.00     0.006 C 
ATOM     18  C   UNL     1     -26.228 -32.866  21.009  1.00  0.00     0.008 C 
ATOM     19  C   UNL     1     -27.191 -34.695  19.534  1.00  0.00     0.012 C 
ATOM     20  C   UNL     1     -27.759 -31.363  19.042  1.00  0.00    -0.025 C 
ATOM     21  C   UNL     1     -26.077 -31.337  21.057  1.00  0.00     0.005 C 
ATOM     22  C   UNL     1     -27.218 -30.568  20.323  1.00  0.00     0.003 C 
ATOM     23  C   UNL     1     -28.243 -30.445  17.858  1.00  0.00     0.010 C 
ATOM     24  C   UNL     1     -29.063 -32.127  19.448  1.00  0.00     0.012 C 
ATOM     25  C   UNL     1     -26.964 -28.975  20.230  1.00  0.00    -0.006 C 
ATOM     26  C   UNL     1     -28.681 -29.068  18.330  1.00  0.00     0.033 C 
ATOM     27  C   UNL     1     -27.473 -28.336  18.889  1.00  0.00     0.120 C 
ATOM     28  C   UNL     1     -27.696 -28.301  21.429  1.00  0.00     0.014 C 
ATOM     29  C   UNL     1     -25.466 -28.585  20.373  1.00  0.00     0.014 C 
ENDROOT
BRANCH   1  30
ATOM     30  C   UNL     1     -22.184 -33.791  21.797  1.00  0.00     0.048 C 
ATOM     31  O   UNL     1     -21.682 -34.368  22.800  1.00  0.00    -0.550 OA
ATOM     32  O   UNL     1     -23.081 -32.754  22.013  1.00  0.00    -0.550 OA
ENDBRANCH   1  30
BRANCH  27  33
ATOM     33  O   UNL     1     -27.814 -26.979  19.049  1.00  0.00    -0.393 OA
ATOM     34  H   UNL     1     -28.635 -26.942  19.605  1.00  0.00     0.210 HD
ENDBRANCH  27  33
TORSDOF 2
ENDMDL
MODEL 9
REMARK VINA RESULT:    -6.517      2.685      4.937
REMARK INTER + INTRA:          -6.570
REMARK INTER:                  -7.120
REMARK INTRA:                   0.550
REMARK UNBOUND:                 0.518
REMARK SMILES C[C@H]1[C@H](C)CC[C@]2(C(=O)[O-])CC[C@]3(C)C(=CC[C@@H]4[C@]5(C)CC[C@@H](O)C(C)(C)[C@@H]5CC[C@@]43C)[C@@H]12
REMARK SMILES IDX 7 1 6 2 11 3 33 4 5 5 12 6 15 7 2 8 3 9 13 10 16 11 1 12
REMARK SMILES IDX 4 13 14 14 31 15 17 16 18 17 30 18 32 19 19 20 29 21 28 22
REMARK SMILES IDX 21 23 20 24 25 25 22 26 23 27 26 28 27 29 8 30 9 31 10 32
REMARK SMILES IDX 24 33
REMARK H PARENT 24 34
REMARK Flexibility Score: inf
ROOT
ATOM      1  C   UNL     1     -22.002 -31.833  19.780  1.00  0.00     0.017 C 
ATOM      2  C   UNL     1     -20.502 -32.068  20.116  1.00  0.00     0.014 C 
ATOM      3  C   UNL     1     -22.232 -30.311  19.708  1.00  0.00     0.014 C 
ATOM      4  C   UNL     1     -22.873 -32.401  20.947  1.00  0.00     0.030 C 
ATOM      5  C   UNL     1     -20.179 -33.548  20.348  1.00  0.00     0.004 C 
ATOM      6  C   UNL     1     -23.692 -29.956  19.413  1.00  0.00     0.013 C 
ATOM      7  C   UNL     1     -24.363 -31.981  20.858  1.00  0.00    -0.063 C 
ATOM      8  C   UNL     1     -22.550 -33.907  21.284  1.00  0.00    -0.003 C 
ATOM      9  C   UNL     1     -21.025 -34.159  21.483  1.00  0.00    -0.011 C 
ATOM     10  C   UNL     1     -24.743 -30.554  20.428  1.00  0.00    -0.006 C 
ATOM     11  C   UNL     1     -25.290 -32.683  21.539  1.00  0.00    -0.027 C 
ATOM     12  C   UNL     1     -23.141 -34.930  20.293  1.00  0.00     0.008 C 
ATOM     13  C   UNL     1     -20.536 -33.688  22.866  1.00  0.00     0.008 C 
ATOM     14  C   UNL     1     -24.644 -29.667  21.713  1.00  0.00     0.017 C 
ATOM     15  C   UNL     1     -26.252 -30.537  19.830  1.00  0.00    -0.020 C 
ATOM     16  C   UNL     1     -26.675 -32.193  21.841  1.00  0.00     0.032 C 
ATOM     17  C   UNL     1     -27.299 -31.109  20.893  1.00  0.00     0.006 C 
ATOM     18  C   UNL     1     -26.405 -31.364  18.491  1.00  0.00     0.008 C 
ATOM     19  C   UNL     1     -26.598 -29.042  19.502  1.00  0.00     0.012 C 
ATOM     20  C   UNL     1     -28.681 -31.634  20.285  1.00  0.00    -0.025 C 
ATOM     21  C   UNL     1     -26.965 -32.784  18.665  1.00  0.00     0.005 C 
ATOM     22  C   UNL     1     -28.411 -32.824  19.247  1.00  0.00     0.003 C 
ATOM     23  C   UNL     1     -29.672 -31.996  21.453  1.00  0.00     0.010 C 
ATOM     24  C   UNL     1     -29.431 -30.483  19.534  1.00  0.00     0.012 C 
ATOM     25  C   UNL     1     -28.927 -34.317  19.588  1.00  0.00    -0.006 C 
ATOM     26  C   UNL     1     -30.629 -33.115  21.080  1.00  0.00     0.033 C 
ATOM     27  C   UNL     1     -29.831 -34.391  20.870  1.00  0.00     0.120 C 
ATOM     28  C   UNL     1     -29.733 -34.838  18.361  1.00  0.00     0.014 C 
ATOM     29  C   UNL     1     -27.767 -35.332  19.797  1.00  0.00     0.014 C 
ENDROOT
BRANCH   1  30
ATOM     30  C   UNL     1     -22.323 -32.442  18.417  1.00  0.00     0.048 C 
ATOM     31  O   UNL     1     -21.452 -32.452  17.506  1.00  0.00    -0.550 OA
ATOM     32  O   UNL     1     -23.598 -32.902  18.116  1.00  0.00    -0.550 OA
ENDBRANCH   1  30
BRANCH  27  33
ATOM     33  O   UNL     1     -30.733 -35.472  20.816  1.00  0.00    -0.393 OA
ATOM     34  H   UNL     1     -30.384 -36.180  21.418  1.00  0.00     0.210 HD
ENDBRANCH  27  33
TORSDOF 2
ENDMDL
