MODEL 1
REMARK VINA RESULT:    -5.120      0.000      0.000
REMARK INTER + INTRA:          -8.392
REMARK INTER:                  -7.365
REMARK INTRA:                  -1.027
REMARK UNBOUND:                -1.027
REMARK SMILES O=c1cc(-c2ccc(O)c(O)c2)oc2cc(O[C@H]3O[C@H](CO)[C@H](O)[C@H](O)[C@H]3O)cc(O)c12
REMARK SMILES IDX 17 1 16 2 4 3 3 4 13 5 2 6 14 7 1 8 32 9 15 10 30 11 29 12
REMARK SMILES IDX 5 13 6 14 7 15 8 16 12 17 10 18 9 19 11 21 31 23 18 25 27 26
REMARK SMILES IDX 19 27 25 28 20 29 23 30 28 31 26 33 21 35 22 36 24 38
REMARK H PARENT 9 20 11 22 31 24 28 32 26 34 22 37 24 39
REMARK Flexibility Score: inf
ROOT
ATOM      1  O   UNL     1      -3.080  13.320 -26.108  1.00  0.00    -0.462 OA
ENDROOT
BRANCH   1   2
ATOM      2  C   UNL     1      -2.451  14.582 -26.060  1.00  0.00     0.130 A 
ATOM      3  C   UNL     1      -2.163  18.956 -27.905  1.00  0.00     0.138 A 
ATOM      4  C   UNL     1      -1.181  19.351 -26.981  1.00  0.00     0.100 A 
ATOM      5  O   UNL     1      -2.569  17.691 -27.927  1.00  0.00    -0.456 OA
ATOM      6  C   UNL     1      -0.725  18.439 -26.033  1.00  0.00     0.197 A 
ATOM      7  C   UNL     1      -2.153  16.780 -27.053  1.00  0.00     0.146 A 
ATOM      8  O   UNL     1       0.110  18.815 -25.166  1.00  0.00    -0.289 OA
ATOM      9  C   UNL     1      -1.230  17.127 -26.038  1.00  0.00     0.107 A 
ATOM     10  C   UNL     1      -2.695  15.490 -27.096  1.00  0.00     0.094 A 
ATOM     11  C   UNL     1      -0.887  16.168 -25.060  1.00  0.00     0.134 A 
ATOM     12  C   UNL     1      -1.542  14.932 -25.046  1.00  0.00     0.093 A 
BRANCH   3  13
ATOM     13  C   UNL     1      -2.876  19.947 -28.738  1.00  0.00     0.021 A 
ATOM     14  C   UNL     1      -2.519  21.306 -28.722  1.00  0.00     0.016 A 
ATOM     15  C   UNL     1      -3.271  22.243 -29.443  1.00  0.00     0.051 A 
ATOM     16  C   UNL     1      -4.421  21.842 -30.134  1.00  0.00     0.157 A 
ATOM     17  C   UNL     1      -4.027  19.552 -29.437  1.00  0.00     0.062 A 
ATOM     18  C   UNL     1      -4.782  20.486 -30.155  1.00  0.00     0.158 A 
BRANCH  16  19
ATOM     19  O   UNL     1      -5.232  22.792 -30.750  1.00  0.00    -0.504 OA
ATOM     20  H   UNL     1      -5.060  23.111 -31.695  1.00  0.00     0.293 HD
ENDBRANCH  16  19
BRANCH  18  21
ATOM     21  O   UNL     1      -5.903  20.038 -30.854  1.00  0.00    -0.504 OA
ATOM     22  H   UNL     1      -5.846  19.426 -31.666  1.00  0.00     0.293 HD
ENDBRANCH  18  21
ENDBRANCH   3  13
BRANCH  11  23
ATOM     23  O   UNL     1       0.076  16.439 -24.087  1.00  0.00    -0.507 OA
ATOM     24  H   UNL     1       1.048  16.596 -24.327  1.00  0.00     0.293 HD
ENDBRANCH  11  23
ENDBRANCH   1   2
BRANCH   1  25
ATOM     25  C   UNL     1      -4.217  12.981 -26.913  1.00  0.00     0.339 C 
ATOM     26  C   UNL     1      -5.287  12.142 -26.132  1.00  0.00     0.214 C 
ATOM     27  O   UNL     1      -3.785  12.345 -28.107  1.00  0.00    -0.332 OA
ATOM     28  C   UNL     1      -4.915  10.643 -26.031  1.00  0.00     0.180 C 
ATOM     29  C   UNL     1      -3.274  11.047 -27.865  1.00  0.00     0.179 C 
ATOM     30  C   UNL     1      -4.437  10.127 -27.396  1.00  0.00     0.177 C 
BRANCH  26  31
ATOM     31  O   UNL     1      -5.472  12.639 -24.830  1.00  0.00    -0.384 OA
ATOM     32  H   UNL     1      -6.233  12.134 -24.431  1.00  0.00     0.211 HD
ENDBRANCH  26  31
BRANCH  28  33
ATOM     33  O   UNL     1      -5.988   9.875 -25.543  1.00  0.00    -0.387 OA
ATOM     34  H   UNL     1      -6.500   9.514 -26.319  1.00  0.00     0.211 HD
ENDBRANCH  28  33
BRANCH  29  35
ATOM     35  C   UNL     1      -2.528  10.568 -29.135  1.00  0.00     0.191 C 
BRANCH  35  36
ATOM     36  O   UNL     1      -3.347  10.613 -30.269  1.00  0.00    -0.394 OA
ATOM     37  H   UNL     1      -3.680   9.679 -30.416  1.00  0.00     0.210 HD
ENDBRANCH  35  36
ENDBRANCH  29  35
BRANCH  30  38
ATOM     38  O   UNL     1      -5.508  10.175 -28.323  1.00  0.00    -0.387 OA
ATOM     39  H   UNL     1      -6.089   9.386 -28.159  1.00  0.00     0.211 HD
ENDBRANCH  30  38
ENDBRANCH   1  25
TORSDOF 11
ENDMDL
MODEL 2
REMARK VINA RESULT:    -3.651      2.152      8.384
REMARK INTER + INTRA:          -6.278
REMARK INTER:                  -5.537
REMARK INTRA:                  -0.741
REMARK UNBOUND:                -1.027
REMARK SMILES O=c1cc(-c2ccc(O)c(O)c2)oc2cc(O[C@H]3O[C@H](CO)[C@H](O)[C@H](O)[C@H]3O)cc(O)c12
REMARK SMILES IDX 17 1 16 2 4 3 3 4 13 5 2 6 14 7 1 8 32 9 15 10 30 11 29 12
REMARK SMILES IDX 5 13 6 14 7 15 8 16 12 17 10 18 9 19 11 21 31 23 18 25 27 26
REMARK SMILES IDX 19 27 25 28 20 29 23 30 28 31 26 33 21 35 22 36 24 38
REMARK H PARENT 9 20 11 22 31 24 28 32 26 34 22 37 24 39
REMARK Flexibility Score: inf
ROOT
ATOM      1  O   UNL     1      -2.795  20.077 -27.859  1.00  0.00    -0.462 OA
ENDROOT
BRANCH   1   2
ATOM      2  C   UNL     1      -2.379  18.790 -27.460  1.00  0.00     0.130 A 
ATOM      3  C   UNL     1      -2.924  14.094 -27.985  1.00  0.00     0.138 A 
ATOM      4  C   UNL     1      -1.897  13.808 -27.069  1.00  0.00     0.100 A 
ATOM      5  O   UNL     1      -3.308  15.353 -28.163  1.00  0.00    -0.456 OA
ATOM      6  C   UNL     1      -1.227  14.854 -26.440  1.00  0.00     0.197 A 
ATOM      7  C   UNL     1      -2.711  16.385 -27.575  1.00  0.00     0.146 A 
ATOM      8  O   UNL     1      -0.266  14.595 -25.666  1.00  0.00    -0.289 OA
ATOM      9  C   UNL     1      -1.613  16.180 -26.707  1.00  0.00     0.107 A 
ATOM     10  C   UNL     1      -3.128  17.686 -27.882  1.00  0.00     0.094 A 
ATOM     11  C   UNL     1      -0.931  17.298 -26.179  1.00  0.00     0.134 A 
ATOM     12  C   UNL     1      -1.281  18.584 -26.607  1.00  0.00     0.093 A 
BRANCH   3  13
ATOM     13  C   UNL     1      -3.468  13.051 -28.879  1.00  0.00     0.021 A 
ATOM     14  C   UNL     1      -3.891  11.807 -28.377  1.00  0.00     0.016 A 
ATOM     15  C   UNL     1      -4.310  10.797 -29.252  1.00  0.00     0.051 A 
ATOM     16  C   UNL     1      -4.254  10.998 -30.637  1.00  0.00     0.157 A 
ATOM     17  C   UNL     1      -3.420  13.245 -30.268  1.00  0.00     0.062 A 
ATOM     18  C   UNL     1      -3.835  12.238 -31.145  1.00  0.00     0.158 A 
BRANCH  16  19
ATOM     19  O   UNL     1      -4.559   9.952 -31.507  1.00  0.00    -0.504 OA
ATOM     20  H   UNL     1      -5.242  10.053 -32.247  1.00  0.00     0.293 HD
ENDBRANCH  16  19
BRANCH  18  21
ATOM     21  O   UNL     1      -3.791  12.490 -32.516  1.00  0.00    -0.504 OA
ATOM     22  H   UNL     1      -4.085  11.812 -33.217  1.00  0.00     0.293 HD
ENDBRANCH  18  21
ENDBRANCH   3  13
BRANCH  11  23
ATOM     23  O   UNL     1       0.107  17.146 -25.259  1.00  0.00    -0.507 OA
ATOM     24  H   UNL     1       0.558  16.251 -25.106  1.00  0.00     0.293 HD
ENDBRANCH  11  23
ENDBRANCH   1   2
BRANCH   1  25
ATOM     25  C   UNL     1      -2.736  20.603 -29.191  1.00  0.00     0.339 C 
ATOM     26  C   UNL     1      -2.820  22.168 -29.233  1.00  0.00     0.214 C 
ATOM     27  O   UNL     1      -3.726  19.978 -29.995  1.00  0.00    -0.332 OA
ATOM     28  C   UNL     1      -4.269  22.693 -29.093  1.00  0.00     0.180 C 
ATOM     29  C   UNL     1      -5.036  20.385 -29.641  1.00  0.00     0.179 C 
ATOM     30  C   UNL     1      -5.210  21.888 -30.000  1.00  0.00     0.177 C 
BRANCH  26  31
ATOM     31  O   UNL     1      -2.040  22.745 -28.215  1.00  0.00    -0.384 OA
ATOM     32  H   UNL     1      -2.672  23.161 -27.565  1.00  0.00     0.211 HD
ENDBRANCH  26  31
BRANCH  28  33
ATOM     33  O   UNL     1      -4.348  24.071 -29.370  1.00  0.00    -0.387 OA
ATOM     34  H   UNL     1      -4.663  24.189 -30.309  1.00  0.00     0.211 HD
ENDBRANCH  28  33
BRANCH  29  35
ATOM     35  C   UNL     1      -6.047  19.427 -30.316  1.00  0.00     0.191 C 
BRANCH  35  36
ATOM     36  O   UNL     1      -7.362  19.897 -30.215  1.00  0.00    -0.394 OA
ATOM     37  H   UNL     1      -7.459  20.271 -29.290  1.00  0.00     0.210 HD
ENDBRANCH  35  36
ENDBRANCH  29  35
BRANCH  30  38
ATOM     38  O   UNL     1      -4.869  22.115 -31.357  1.00  0.00    -0.387 OA
ATOM     39  H   UNL     1      -5.088  21.290 -31.868  1.00  0.00     0.211 HD
ENDBRANCH  30  38
ENDBRANCH   1  25
TORSDOF 11
ENDMDL
MODEL 3
REMARK VINA RESULT:    -3.060      1.139      2.363
REMARK INTER + INTRA:          -5.429
REMARK INTER:                  -6.148
REMARK INTRA:                   0.718
REMARK UNBOUND:                -1.027
REMARK SMILES O=c1cc(-c2ccc(O)c(O)c2)oc2cc(O[C@H]3O[C@H](CO)[C@H](O)[C@H](O)[C@H]3O)cc(O)c12
REMARK SMILES IDX 17 1 16 2 4 3 3 4 13 5 2 6 14 7 1 8 32 9 15 10 30 11 29 12
REMARK SMILES IDX 5 13 6 14 7 15 8 16 12 17 10 18 9 19 11 21 31 23 18 25 27 26
REMARK SMILES IDX 19 27 25 28 20 29 23 30 28 31 26 33 21 35 22 36 24 38
REMARK H PARENT 9 20 11 22 31 24 28 32 26 34 22 37 24 39
REMARK Flexibility Score: inf
ROOT
ATOM      1  O   UNL     1      -3.191  13.077 -26.485  1.00  0.00    -0.462 OA
ENDROOT
BRANCH   1   2
ATOM      2  C   UNL     1      -2.601  14.350 -26.340  1.00  0.00     0.130 A 
ATOM      3  C   UNL     1      -2.325  18.812 -27.964  1.00  0.00     0.138 A 
ATOM      4  C   UNL     1      -1.413  19.188 -26.963  1.00  0.00     0.100 A 
ATOM      5  O   UNL     1      -2.694  17.540 -28.068  1.00  0.00    -0.456 OA
ATOM      6  C   UNL     1      -0.990  18.244 -26.031  1.00  0.00     0.197 A 
ATOM      7  C   UNL     1      -2.306  16.599 -27.212  1.00  0.00     0.146 A 
ATOM      8  O   UNL     1      -0.220  18.600 -25.098  1.00  0.00    -0.289 OA
ATOM      9  C   UNL     1      -1.457  16.921 -26.127  1.00  0.00     0.107 A 
ATOM     10  C   UNL     1      -2.808  15.300 -27.348  1.00  0.00     0.094 A 
ATOM     11  C   UNL     1      -1.147  15.927 -25.174  1.00  0.00     0.134 A 
ATOM     12  C   UNL     1      -1.767  14.675 -25.257  1.00  0.00     0.093 A 
BRANCH   3  13
ATOM     13  C   UNL     1      -3.014  19.823 -28.793  1.00  0.00     0.021 A 
ATOM     14  C   UNL     1      -2.658  21.181 -28.736  1.00  0.00     0.016 A 
ATOM     15  C   UNL     1      -3.388  22.135 -29.455  1.00  0.00     0.051 A 
ATOM     16  C   UNL     1      -4.518  21.751 -30.188  1.00  0.00     0.157 A 
ATOM     17  C   UNL     1      -4.145  19.445 -29.534  1.00  0.00     0.062 A 
ATOM     18  C   UNL     1      -4.879  20.396 -30.251  1.00  0.00     0.158 A 
BRANCH  16  19
ATOM     19  O   UNL     1      -5.312  22.716 -30.805  1.00  0.00    -0.504 OA
ATOM     20  H   UNL     1      -5.713  22.572 -31.723  1.00  0.00     0.293 HD
ENDBRANCH  16  19
BRANCH  18  21
ATOM     21  O   UNL     1      -5.979  19.965 -30.993  1.00  0.00    -0.504 OA
ATOM     22  H   UNL     1      -6.807  19.550 -30.571  1.00  0.00     0.293 HD
ENDBRANCH  18  21
ENDBRANCH   3  13
BRANCH  11  23
ATOM     23  O   UNL     1      -0.253  16.176 -24.132  1.00  0.00    -0.507 OA
ATOM     24  H   UNL     1      -0.398  15.798 -23.202  1.00  0.00     0.293 HD
ENDBRANCH  11  23
ENDBRANCH   1   2
BRANCH   1  25
ATOM     25  C   UNL     1      -2.553  11.914 -27.027  1.00  0.00     0.339 C 
ATOM     26  C   UNL     1      -1.598  12.246 -28.225  1.00  0.00     0.214 C 
ATOM     27  O   UNL     1      -3.534  10.942 -27.360  1.00  0.00    -0.332 OA
ATOM     28  C   UNL     1      -2.358  12.447 -29.559  1.00  0.00     0.180 C 
ATOM     29  C   UNL     1      -4.308  11.328 -28.481  1.00  0.00     0.179 C 
ATOM     30  C   UNL     1      -3.399  11.334 -29.743  1.00  0.00     0.177 C 
BRANCH  26  31
ATOM     31  O   UNL     1      -0.844  13.404 -27.968  1.00  0.00    -0.384 OA
ATOM     32  H   UNL     1      -0.643  13.823 -28.851  1.00  0.00     0.211 HD
ENDBRANCH  26  31
BRANCH  28  33
ATOM     33  O   UNL     1      -1.475  12.506 -30.653  1.00  0.00    -0.387 OA
ATOM     34  H   UNL     1      -1.391  13.457 -30.942  1.00  0.00     0.211 HD
ENDBRANCH  28  33
BRANCH  29  35
ATOM     35  C   UNL     1      -5.545  10.400 -28.566  1.00  0.00     0.191 C 
BRANCH  35  36
ATOM     36  O   UNL     1      -5.894   9.879 -27.315  1.00  0.00    -0.394 OA
ATOM     37  H   UNL     1      -6.136   8.918 -27.465  1.00  0.00     0.210 HD
ENDBRANCH  35  36
ENDBRANCH  29  35
BRANCH  30  38
ATOM     38  O   UNL     1      -2.741  10.087 -29.883  1.00  0.00    -0.387 OA
ATOM     39  H   UNL     1      -1.775  10.229 -29.695  1.00  0.00     0.211 HD
ENDBRANCH  30  38
ENDBRANCH   1  25
TORSDOF 11
ENDMDL
MODEL 4
REMARK VINA RESULT:    -2.933      2.019      2.766
REMARK INTER + INTRA:          -5.246
REMARK INTER:                  -5.763
REMARK INTRA:                   0.517
REMARK UNBOUND:                -1.027
REMARK SMILES O=c1cc(-c2ccc(O)c(O)c2)oc2cc(O[C@H]3O[C@H](CO)[C@H](O)[C@H](O)[C@H]3O)cc(O)c12
REMARK SMILES IDX 17 1 16 2 4 3 3 4 13 5 2 6 14 7 1 8 32 9 15 10 30 11 29 12
REMARK SMILES IDX 5 13 6 14 7 15 8 16 12 17 10 18 9 19 11 21 31 23 18 25 27 26
REMARK SMILES IDX 19 27 25 28 20 29 23 30 28 31 26 33 21 35 22 36 24 38
REMARK H PARENT 9 20 11 22 31 24 28 32 26 34 22 37 24 39
REMARK Flexibility Score: inf
ROOT
ATOM      1  O   UNL     1      -4.648  14.138 -27.784  1.00  0.00    -0.462 OA
ENDROOT
BRANCH   1   2
ATOM      2  C   UNL     1      -3.622  14.939 -27.240  1.00  0.00     0.130 A 
ATOM      3  C   UNL     1      -1.502  19.196 -27.193  1.00  0.00     0.138 A 
ATOM      4  C   UNL     1      -0.596  18.805 -26.192  1.00  0.00     0.100 A 
ATOM      5  O   UNL     1      -2.328  18.296 -27.714  1.00  0.00    -0.456 OA
ATOM      6  C   UNL     1      -0.648  17.509 -25.688  1.00  0.00     0.197 A 
ATOM      7  C   UNL     1      -2.406  17.043 -27.278  1.00  0.00     0.146 A 
ATOM      8  O   UNL     1       0.124  17.181 -24.747  1.00  0.00    -0.289 OA
ATOM      9  C   UNL     1      -1.585  16.601 -26.212  1.00  0.00     0.107 A 
ATOM     10  C   UNL     1      -3.363  16.182 -27.828  1.00  0.00     0.094 A 
ATOM     11  C   UNL     1      -1.763  15.298 -25.699  1.00  0.00     0.134 A 
ATOM     12  C   UNL     1      -2.813  14.506 -26.175  1.00  0.00     0.093 A 
BRANCH   3  13
ATOM     13  C   UNL     1      -1.676  20.617 -27.559  1.00  0.00     0.021 A 
ATOM     14  C   UNL     1      -2.542  21.003 -28.597  1.00  0.00     0.016 A 
ATOM     15  C   UNL     1      -2.617  22.345 -28.993  1.00  0.00     0.051 A 
ATOM     16  C   UNL     1      -1.784  23.302 -28.400  1.00  0.00     0.157 A 
ATOM     17  C   UNL     1      -0.848  21.584 -26.966  1.00  0.00     0.062 A 
ATOM     18  C   UNL     1      -0.918  22.923 -27.362  1.00  0.00     0.158 A 
BRANCH  16  19
ATOM     19  O   UNL     1      -1.775  24.611 -28.877  1.00  0.00    -0.504 OA
ATOM     20  H   UNL     1      -1.098  25.293 -28.558  1.00  0.00     0.293 HD
ENDBRANCH  16  19
BRANCH  18  21
ATOM     21  O   UNL     1      -0.093  23.849 -26.724  1.00  0.00    -0.504 OA
ATOM     22  H   UNL     1      -0.075  24.839 -26.964  1.00  0.00     0.293 HD
ENDBRANCH  18  21
ENDBRANCH   3  13
BRANCH  11  23
ATOM     23  O   UNL     1      -0.926  14.792 -24.703  1.00  0.00    -0.507 OA
ATOM     24  H   UNL     1      -0.805  15.267 -23.815  1.00  0.00     0.293 HD
ENDBRANCH  11  23
ENDBRANCH   1   2
BRANCH   1  25
ATOM     25  C   UNL     1      -4.462  12.996 -28.630  1.00  0.00     0.339 C 
ATOM     26  C   UNL     1      -4.713  11.639 -27.886  1.00  0.00     0.214 C 
ATOM     27  O   UNL     1      -3.182  13.058 -29.242  1.00  0.00    -0.332 OA
ATOM     28  C   UNL     1      -3.505  11.196 -27.027  1.00  0.00     0.180 C 
ATOM     29  C   UNL     1      -2.136  12.834 -28.314  1.00  0.00     0.179 C 
ATOM     30  C   UNL     1      -2.204  11.360 -27.826  1.00  0.00     0.177 C 
BRANCH  26  31
ATOM     31  O   UNL     1      -5.842  11.719 -27.051  1.00  0.00    -0.384 OA
ATOM     32  H   UNL     1      -6.057  10.789 -26.763  1.00  0.00     0.211 HD
ENDBRANCH  26  31
BRANCH  28  33
ATOM     33  O   UNL     1      -3.657   9.875 -26.564  1.00  0.00    -0.387 OA
ATOM     34  H   UNL     1      -3.249   9.808 -25.656  1.00  0.00     0.211 HD
ENDBRANCH  28  33
BRANCH  29  35
ATOM     35  C   UNL     1      -0.798  13.247 -28.976  1.00  0.00     0.191 C 
BRANCH  35  36
ATOM     36  O   UNL     1      -0.687  12.755 -30.282  1.00  0.00    -0.394 OA
ATOM     37  H   UNL     1      -1.243  11.922 -30.320  1.00  0.00     0.210 HD
ENDBRANCH  35  36
ENDBRANCH  29  35
BRANCH  30  38
ATOM     38  O   UNL     1      -2.211  10.473 -28.931  1.00  0.00    -0.387 OA
ATOM     39  H   UNL     1      -1.316  10.044 -28.984  1.00  0.00     0.211 HD
ENDBRANCH  30  38
ENDBRANCH   1  25
TORSDOF 11
ENDMDL
MODEL 5
REMARK VINA RESULT:    -2.881      1.650      2.485
REMARK INTER + INTRA:          -5.171
REMARK INTER:                  -6.075
REMARK INTRA:                   0.903
REMARK UNBOUND:                -1.027
REMARK SMILES O=c1cc(-c2ccc(O)c(O)c2)oc2cc(O[C@H]3O[C@H](CO)[C@H](O)[C@H](O)[C@H]3O)cc(O)c12
REMARK SMILES IDX 17 1 16 2 4 3 3 4 13 5 2 6 14 7 1 8 32 9 15 10 30 11 29 12
REMARK SMILES IDX 5 13 6 14 7 15 8 16 12 17 10 18 9 19 11 21 31 23 18 25 27 26
REMARK SMILES IDX 19 27 25 28 20 29 23 30 28 31 26 33 21 35 22 36 24 38
REMARK H PARENT 9 20 11 22 31 24 28 32 26 34 22 37 24 39
REMARK Flexibility Score: inf
ROOT
ATOM      1  O   UNL     1      -5.154  12.203 -27.146  1.00  0.00    -0.462 OA
ENDROOT
BRANCH   1   2
ATOM      2  C   UNL     1      -4.365  13.366 -27.026  1.00  0.00     0.130 A 
ATOM      3  C   UNL     1      -3.516  17.775 -28.594  1.00  0.00     0.138 A 
ATOM      4  C   UNL     1      -2.487  17.979 -27.659  1.00  0.00     0.100 A 
ATOM      5  O   UNL     1      -4.084  16.578 -28.690  1.00  0.00    -0.456 OA
ATOM      6  C   UNL     1      -2.150  16.956 -26.776  1.00  0.00     0.197 A 
ATOM      7  C   UNL     1      -3.787  15.566 -27.882  1.00  0.00     0.146 A 
ATOM      8  O   UNL     1      -1.269  17.163 -25.898  1.00  0.00    -0.289 OA
ATOM      9  C   UNL     1      -2.822  15.724 -26.858  1.00  0.00     0.107 A 
ATOM     10  C   UNL     1      -4.493  14.363 -28.000  1.00  0.00     0.094 A 
ATOM     11  C   UNL     1      -2.603  14.667 -25.947  1.00  0.00     0.134 A 
ATOM     12  C   UNL     1      -3.414  13.529 -26.003  1.00  0.00     0.093 A 
BRANCH   3  13
ATOM     13  C   UNL     1      -4.097  18.902 -29.353  1.00  0.00     0.021 A 
ATOM     14  C   UNL     1      -3.386  20.100 -29.540  1.00  0.00     0.016 A 
ATOM     15  C   UNL     1      -3.994  21.190 -30.177  1.00  0.00     0.051 A 
ATOM     16  C   UNL     1      -5.334  21.116 -30.576  1.00  0.00     0.157 A 
ATOM     17  C   UNL     1      -5.438  18.833 -29.761  1.00  0.00     0.062 A 
ATOM     18  C   UNL     1      -6.049  19.921 -30.394  1.00  0.00     0.158 A 
BRANCH  16  19
ATOM     19  O   UNL     1      -5.970  22.239 -31.100  1.00  0.00    -0.504 OA
ATOM     20  H   UNL     1      -6.532  22.854 -30.525  1.00  0.00     0.293 HD
ENDBRANCH  16  19
BRANCH  18  21
ATOM     21  O   UNL     1      -7.376  19.794 -30.803  1.00  0.00    -0.504 OA
ATOM     22  H   UNL     1      -8.120  19.470 -30.187  1.00  0.00     0.293 HD
ENDBRANCH  18  21
ENDBRANCH   3  13
BRANCH  11  23
ATOM     23  O   UNL     1      -1.608  14.747 -24.971  1.00  0.00    -0.507 OA
ATOM     24  H   UNL     1      -1.441  13.992 -24.316  1.00  0.00     0.293 HD
ENDBRANCH  11  23
ENDBRANCH   1   2
BRANCH   1  25
ATOM     25  C   UNL     1      -4.903  11.107 -28.035  1.00  0.00     0.339 C 
ATOM     26  C   UNL     1      -3.694  10.218 -27.580  1.00  0.00     0.214 C 
ATOM     27  O   UNL     1      -4.759  11.591 -29.362  1.00  0.00    -0.332 OA
ATOM     28  C   UNL     1      -2.324  10.833 -27.957  1.00  0.00     0.180 C 
ATOM     29  C   UNL     1      -3.555  12.315 -29.539  1.00  0.00     0.179 C 
ATOM     30  C   UNL     1      -2.355  11.336 -29.407  1.00  0.00     0.177 C 
BRANCH  26  31
ATOM     31  O   UNL     1      -3.715  10.005 -26.191  1.00  0.00    -0.384 OA
ATOM     32  H   UNL     1      -4.115  10.819 -25.777  1.00  0.00     0.211 HD
ENDBRANCH  26  31
BRANCH  28  33
ATOM     33  O   UNL     1      -1.274   9.918 -27.756  1.00  0.00    -0.387 OA
ATOM     34  H   UNL     1      -0.494  10.408 -27.371  1.00  0.00     0.211 HD
ENDBRANCH  28  33
BRANCH  29  35
ATOM     35  C   UNL     1      -3.635  13.080 -30.883  1.00  0.00     0.191 C 
BRANCH  35  36
ATOM     36  O   UNL     1      -2.506  12.856 -31.680  1.00  0.00    -0.394 OA
ATOM     37  H   UNL     1      -2.665  13.345 -32.540  1.00  0.00     0.210 HD
ENDBRANCH  35  36
ENDBRANCH  29  35
BRANCH  30  38
ATOM     38  O   UNL     1      -2.515  10.237 -30.287  1.00  0.00    -0.387 OA
ATOM     39  H   UNL     1      -2.313  10.551 -31.208  1.00  0.00     0.211 HD
ENDBRANCH  30  38
ENDBRANCH   1  25
TORSDOF 11
ENDMDL
MODEL 6
REMARK VINA RESULT:    -2.826      2.372      4.812
REMARK INTER + INTRA:          -5.092
REMARK INTER:                  -6.644
REMARK INTRA:                   1.552
REMARK UNBOUND:                -1.027
REMARK SMILES O=c1cc(-c2ccc(O)c(O)c2)oc2cc(O[C@H]3O[C@H](CO)[C@H](O)[C@H](O)[C@H]3O)cc(O)c12
REMARK SMILES IDX 17 1 16 2 4 3 3 4 13 5 2 6 14 7 1 8 32 9 15 10 30 11 29 12
REMARK SMILES IDX 5 13 6 14 7 15 8 16 12 17 10 18 9 19 11 21 31 23 18 25 27 26
REMARK SMILES IDX 19 27 25 28 20 29 23 30 28 31 26 33 21 35 22 36 24 38
REMARK H PARENT 9 20 11 22 31 24 28 32 26 34 22 37 24 39
REMARK Flexibility Score: inf
ROOT
ATOM      1  O   UNL     1      -3.204  10.410 -27.730  1.00  0.00    -0.462 OA
ENDROOT
BRANCH   1   2
ATOM      2  C   UNL     1      -3.713  11.607 -27.183  1.00  0.00     0.130 A 
ATOM      3  C   UNL     1      -2.907  16.191 -26.205  1.00  0.00     0.138 A 
ATOM      4  C   UNL     1      -4.198  16.373 -25.684  1.00  0.00     0.100 A 
ATOM      5  O   UNL     1      -2.510  14.974 -26.559  1.00  0.00    -0.456 OA
ATOM      6  C   UNL     1      -5.080  15.296 -25.643  1.00  0.00     0.197 A 
ATOM      7  C   UNL     1      -3.309  13.911 -26.525  1.00  0.00     0.146 A 
ATOM      8  O   UNL     1      -6.258  15.478 -25.232  1.00  0.00    -0.289 OA
ATOM      9  C   UNL     1      -4.651  14.035 -26.094  1.00  0.00     0.107 A 
ATOM     10  C   UNL     1      -2.835  12.681 -26.994  1.00  0.00     0.094 A 
ATOM     11  C   UNL     1      -5.507  12.915 -26.168  1.00  0.00     0.134 A 
ATOM     12  C   UNL     1      -5.048  11.735 -26.764  1.00  0.00     0.093 A 
BRANCH   3  13
ATOM     13  C   UNL     1      -2.039  17.343 -26.529  1.00  0.00     0.021 A 
ATOM     14  C   UNL     1      -0.888  17.625 -25.773  1.00  0.00     0.016 A 
ATOM     15  C   UNL     1      -0.135  18.777 -26.034  1.00  0.00     0.051 A 
ATOM     16  C   UNL     1      -0.559  19.689 -27.009  1.00  0.00     0.157 A 
ATOM     17  C   UNL     1      -2.454  18.260 -27.507  1.00  0.00     0.062 A 
ATOM     18  C   UNL     1      -1.707  19.413 -27.768  1.00  0.00     0.158 A 
BRANCH  16  19
ATOM     19  O   UNL     1       0.124  20.891 -27.185  1.00  0.00    -0.504 OA
ATOM     20  H   UNL     1       1.017  20.935 -27.659  1.00  0.00     0.293 HD
ENDBRANCH  16  19
BRANCH  18  21
ATOM     21  O   UNL     1      -2.149  20.279 -28.768  1.00  0.00    -0.504 OA
ATOM     22  H   UNL     1      -1.572  21.023 -29.156  1.00  0.00     0.293 HD
ENDBRANCH  18  21
ENDBRANCH   3  13
BRANCH  11  23
ATOM     23  O   UNL     1      -6.814  12.968 -25.682  1.00  0.00    -0.507 OA
ATOM     24  H   UNL     1      -7.066  13.547 -24.889  1.00  0.00     0.293 HD
ENDBRANCH  11  23
ENDBRANCH   1   2
BRANCH   1  25
ATOM     25  C   UNL     1      -2.464  10.295 -28.952  1.00  0.00     0.339 C 
ATOM     26  C   UNL     1      -1.064  10.996 -28.886  1.00  0.00     0.214 C 
ATOM     27  O   UNL     1      -3.258  10.756 -30.036  1.00  0.00    -0.332 OA
ATOM     28  C   UNL     1      -1.151  12.528 -29.087  1.00  0.00     0.180 C 
ATOM     29  C   UNL     1      -3.440  12.160 -30.005  1.00  0.00     0.179 C 
ATOM     30  C   UNL     1      -2.073  12.850 -30.272  1.00  0.00     0.177 C 
BRANCH  26  31
ATOM     31  O   UNL     1      -0.429  10.748 -27.655  1.00  0.00    -0.384 OA
ATOM     32  H   UNL     1      -1.136  10.781 -26.952  1.00  0.00     0.211 HD
ENDBRANCH  26  31
BRANCH  28  33
ATOM     33  O   UNL     1       0.123  13.101 -29.260  1.00  0.00    -0.387 OA
ATOM     34  H   UNL     1       0.015  14.086 -29.375  1.00  0.00     0.211 HD
ENDBRANCH  28  33
BRANCH  29  35
ATOM     35  C   UNL     1      -4.569  12.530 -30.998  1.00  0.00     0.191 C 
BRANCH  35  36
ATOM     36  O   UNL     1      -4.236  12.195 -32.316  1.00  0.00    -0.394 OA
ATOM     37  H   UNL     1      -4.684  11.319 -32.509  1.00  0.00     0.210 HD
ENDBRANCH  35  36
ENDBRANCH  29  35
BRANCH  30  38
ATOM     38  O   UNL     1      -1.495  12.358 -31.469  1.00  0.00    -0.387 OA
ATOM     39  H   UNL     1      -1.716  12.996 -32.199  1.00  0.00     0.211 HD
ENDBRANCH  30  38
ENDBRANCH   1  25
TORSDOF 11
ENDMDL
MODEL 7
REMARK VINA RESULT:    -2.453      2.588      4.360
REMARK INTER + INTRA:          -4.556
REMARK INTER:                  -5.377
REMARK INTRA:                   0.822
REMARK UNBOUND:                -1.027
REMARK SMILES O=c1cc(-c2ccc(O)c(O)c2)oc2cc(O[C@H]3O[C@H](CO)[C@H](O)[C@H](O)[C@H]3O)cc(O)c12
REMARK SMILES IDX 17 1 16 2 4 3 3 4 13 5 2 6 14 7 1 8 32 9 15 10 30 11 29 12
REMARK SMILES IDX 5 13 6 14 7 15 8 16 12 17 10 18 9 19 11 21 31 23 18 25 27 26
REMARK SMILES IDX 19 27 25 28 20 29 23 30 28 31 26 33 21 35 22 36 24 38
REMARK H PARENT 9 20 11 22 31 24 28 32 26 34 22 37 24 39
REMARK Flexibility Score: inf
ROOT
ATOM      1  O   UNL     1      -3.025  13.992 -28.141  1.00  0.00    -0.462 OA
ENDROOT
BRANCH   1   2
ATOM      2  C   UNL     1      -2.341  14.954 -27.368  1.00  0.00     0.130 A 
ATOM      3  C   UNL     1      -1.058  19.511 -26.914  1.00  0.00     0.138 A 
ATOM      4  C   UNL     1      -0.419  19.276 -25.686  1.00  0.00     0.100 A 
ATOM      5  O   UNL     1      -1.543  18.486 -27.606  1.00  0.00    -0.456 OA
ATOM      6  C   UNL     1      -0.395  17.986 -25.161  1.00  0.00     0.197 A 
ATOM      7  C   UNL     1      -1.531  17.235 -27.155  1.00  0.00     0.146 A 
ATOM      8  O   UNL     1       0.125  17.790 -24.029  1.00  0.00    -0.289 OA
ATOM      9  C   UNL     1      -0.982  16.934 -25.886  1.00  0.00     0.107 A 
ATOM     10  C   UNL     1      -2.137  16.226 -27.913  1.00  0.00     0.094 A 
ATOM     11  C   UNL     1      -1.078  15.617 -25.387  1.00  0.00     0.134 A 
ATOM     12  C   UNL     1      -1.805  14.660 -26.102  1.00  0.00     0.093 A 
BRANCH   3  13
ATOM     13  C   UNL     1      -1.355  20.884 -27.375  1.00  0.00     0.021 A 
ATOM     14  C   UNL     1      -2.290  21.124 -28.398  1.00  0.00     0.016 A 
ATOM     15  C   UNL     1      -2.484  22.422 -28.887  1.00  0.00     0.051 A 
ATOM     16  C   UNL     1      -1.704  23.481 -28.404  1.00  0.00     0.157 A 
ATOM     17  C   UNL     1      -0.582  21.951 -26.893  1.00  0.00     0.062 A 
ATOM     18  C   UNL     1      -0.770  23.248 -27.382  1.00  0.00     0.158 A 
BRANCH  16  19
ATOM     19  O   UNL     1      -1.815  24.747 -28.975  1.00  0.00    -0.504 OA
ATOM     20  H   UNL     1      -1.523  24.933 -29.926  1.00  0.00     0.293 HD
ENDBRANCH  16  19
BRANCH  18  21
ATOM     21  O   UNL     1       0.007  24.277 -26.852  1.00  0.00    -0.504 OA
ATOM     22  H   UNL     1      -0.240  24.781 -26.001  1.00  0.00     0.293 HD
ENDBRANCH  18  21
ENDBRANCH   3  13
BRANCH  11  23
ATOM     23  O   UNL     1      -0.484  15.256 -24.176  1.00  0.00    -0.507 OA
ATOM     24  H   UNL     1      -0.916  14.589 -23.547  1.00  0.00     0.293 HD
ENDBRANCH  11  23
ENDBRANCH   1   2
BRANCH   1  25
ATOM     25  C   UNL     1      -4.397  14.065 -28.547  1.00  0.00     0.339 C 
ATOM     26  C   UNL     1      -4.643  15.118 -29.681  1.00  0.00     0.214 C 
ATOM     27  O   UNL     1      -5.221  14.280 -27.410  1.00  0.00    -0.332 OA
ATOM     28  C   UNL     1      -4.729  16.567 -29.144  1.00  0.00     0.180 C 
ATOM     29  C   UNL     1      -5.066  15.584 -26.878  1.00  0.00     0.179 C 
ATOM     30  C   UNL     1      -5.626  16.613 -27.900  1.00  0.00     0.177 C 
BRANCH  26  31
ATOM     31  O   UNL     1      -3.626  15.067 -30.651  1.00  0.00    -0.384 OA
ATOM     32  H   UNL     1      -2.796  15.418 -30.222  1.00  0.00     0.211 HD
ENDBRANCH  26  31
BRANCH  28  33
ATOM     33  O   UNL     1      -5.182  17.460 -30.134  1.00  0.00    -0.387 OA
ATOM     34  H   UNL     1      -5.895  18.036 -29.740  1.00  0.00     0.211 HD
ENDBRANCH  28  33
BRANCH  29  35
ATOM     35  C   UNL     1      -5.724  15.623 -25.477  1.00  0.00     0.191 C 
BRANCH  35  36
ATOM     36  O   UNL     1      -6.976  16.247 -25.504  1.00  0.00    -0.394 OA
ATOM     37  H   UNL     1      -7.279  16.318 -24.552  1.00  0.00     0.210 HD
ENDBRANCH  35  36
ENDBRANCH  29  35
BRANCH  30  38
ATOM     38  O   UNL     1      -6.956  16.279 -28.260  1.00  0.00    -0.387 OA
ATOM     39  H   UNL     1      -7.092  16.549 -29.207  1.00  0.00     0.211 HD
ENDBRANCH  30  38
ENDBRANCH   1  25
TORSDOF 11
ENDMDL
