MODEL 1
REMARK VINA RESULT:    -5.969      0.000      0.000
REMARK INTER + INTRA:          -7.310
REMARK INTER:                  -7.016
REMARK INTRA:                  -0.295
REMARK UNBOUND:                -0.295
REMARK SMILES O=c1cc(-c2ccc(O)c(O)c2)oc2cc(O)cc(O)c12
REMARK SMILES IDX 4 1 3 2 2 3 1 4 21 5 19 6 18 7 16 8 15 9 14 10 13 11 5 12
REMARK SMILES IDX 6 13 7 14 8 15 12 16 10 17 9 18 11 20 20 22 17 24
REMARK H PARENT 9 19 11 21 20 23 17 25
REMARK Flexibility Score: inf
ROOT
ATOM      1  C   UNL     1      45.755  15.900  -3.762  1.00  0.00     0.138 A 
ATOM      2  C   UNL     1      46.130  14.650  -3.252  1.00  0.00     0.100 A 
ATOM      3  C   UNL     1      47.395  14.136  -3.544  1.00  0.00     0.197 A 
ATOM      4  O   UNL     1      47.679  12.985  -3.124  1.00  0.00    -0.289 OA
ATOM      5  C   UNL     1      48.298  14.895  -4.326  1.00  0.00     0.107 A 
ATOM      6  C   UNL     1      49.627  14.490  -4.653  1.00  0.00     0.134 A 
ATOM      7  C   UNL     1      50.389  15.271  -5.531  1.00  0.00     0.093 A 
ATOM      8  C   UNL     1      49.893  16.471  -6.045  1.00  0.00     0.123 A 
ATOM      9  C   UNL     1      48.618  16.901  -5.688  1.00  0.00     0.094 A 
ATOM     10  C   UNL     1      47.819  16.128  -4.842  1.00  0.00     0.146 A 
ATOM     11  O   UNL     1      46.602  16.567  -4.539  1.00  0.00    -0.456 OA
ENDROOT
BRANCH   1  12
ATOM     12  C   UNL     1      44.423  16.494  -3.482  1.00  0.00     0.021 A 
ATOM     13  C   UNL     1      44.004  17.692  -4.093  1.00  0.00     0.016 A 
ATOM     14  C   UNL     1      42.741  18.223  -3.819  1.00  0.00     0.051 A 
ATOM     15  C   UNL     1      41.873  17.565  -2.940  1.00  0.00     0.157 A 
ATOM     16  C   UNL     1      43.538  15.832  -2.612  1.00  0.00     0.062 A 
ATOM     17  C   UNL     1      42.271  16.366  -2.336  1.00  0.00     0.158 A 
BRANCH  15  18
ATOM     18  O   UNL     1      40.613  18.092  -2.665  1.00  0.00    -0.504 OA
ATOM     19  H   UNL     1      39.941  17.589  -2.096  1.00  0.00     0.293 HD
ENDBRANCH  15  18
BRANCH  17  20
ATOM     20  O   UNL     1      41.404  15.711  -1.465  1.00  0.00    -0.504 OA
ATOM     21  H   UNL     1      40.446  15.503  -1.725  1.00  0.00     0.293 HD
ENDBRANCH  17  20
ENDBRANCH   1  12
BRANCH   6  22
ATOM     22  O   UNL     1      50.249  13.354  -4.128  1.00  0.00    -0.507 OA
ATOM     23  H   UNL     1      49.931  12.845  -3.317  1.00  0.00     0.293 HD
ENDBRANCH   6  22
BRANCH   8  24
ATOM     24  O   UNL     1      50.664  17.249  -6.906  1.00  0.00    -0.508 OA
ATOM     25  H   UNL     1      50.787  16.999  -7.880  1.00  0.00     0.293 HD
ENDBRANCH   8  24
TORSDOF 5
ENDMDL
MODEL 2
REMARK VINA RESULT:    -5.895      1.252      2.718
REMARK INTER + INTRA:          -7.224
REMARK INTER:                  -6.908
REMARK INTRA:                  -0.316
REMARK UNBOUND:                -0.295
REMARK SMILES O=c1cc(-c2ccc(O)c(O)c2)oc2cc(O)cc(O)c12
REMARK SMILES IDX 4 1 3 2 2 3 1 4 21 5 19 6 18 7 16 8 15 9 14 10 13 11 5 12
REMARK SMILES IDX 6 13 7 14 8 15 12 16 10 17 9 18 11 20 20 22 17 24
REMARK H PARENT 9 19 11 21 20 23 17 25
REMARK Flexibility Score: inf
ROOT
ATOM      1  C   UNL     1      45.585  16.216  -3.890  1.00  0.00     0.138 A 
ATOM      2  C   UNL     1      46.337  16.896  -4.858  1.00  0.00     0.100 A 
ATOM      3  C   UNL     1      47.572  16.385  -5.258  1.00  0.00     0.197 A 
ATOM      4  O   UNL     1      48.251  17.050  -6.082  1.00  0.00    -0.289 OA
ATOM      5  C   UNL     1      48.041  15.169  -4.707  1.00  0.00     0.107 A 
ATOM      6  C   UNL     1      49.266  14.532  -5.070  1.00  0.00     0.134 A 
ATOM      7  C   UNL     1      49.682  13.390  -4.373  1.00  0.00     0.093 A 
ATOM      8  C   UNL     1      48.890  12.829  -3.369  1.00  0.00     0.123 A 
ATOM      9  C   UNL     1      47.668  13.413  -3.046  1.00  0.00     0.094 A 
ATOM     10  C   UNL     1      47.240  14.571  -3.698  1.00  0.00     0.146 A 
ATOM     11  O   UNL     1      46.074  15.105  -3.349  1.00  0.00    -0.456 OA
ENDROOT
BRANCH   1  12
ATOM     12  C   UNL     1      44.266  16.715  -3.428  1.00  0.00     0.021 A 
ATOM     13  C   UNL     1      43.807  18.006  -3.755  1.00  0.00     0.016 A 
ATOM     14  C   UNL     1      42.555  18.446  -3.316  1.00  0.00     0.051 A 
ATOM     15  C   UNL     1      41.739  17.605  -2.552  1.00  0.00     0.157 A 
ATOM     16  C   UNL     1      43.432  15.872  -2.672  1.00  0.00     0.062 A 
ATOM     17  C   UNL     1      42.176  16.315  -2.230  1.00  0.00     0.158 A 
BRANCH  15  18
ATOM     18  O   UNL     1      40.491  18.041  -2.112  1.00  0.00    -0.504 OA
ATOM     19  H   UNL     1      39.982  17.548  -1.387  1.00  0.00     0.293 HD
ENDBRANCH  15  18
BRANCH  17  20
ATOM     20  O   UNL     1      41.360  15.478  -1.472  1.00  0.00    -0.504 OA
ATOM     21  H   UNL     1      41.635  15.159  -0.550  1.00  0.00     0.293 HD
ENDBRANCH  17  20
ENDBRANCH   1  12
BRANCH   6  22
ATOM     22  O   UNL     1      50.090  14.961  -6.114  1.00  0.00    -0.507 OA
ATOM     23  H   UNL     1      50.163  14.511  -7.014  1.00  0.00     0.293 HD
ENDBRANCH   6  22
BRANCH   8  24
ATOM     24  O   UNL     1      49.305  11.685  -2.692  1.00  0.00    -0.508 OA
ATOM     25  H   UNL     1      50.164  11.669  -2.154  1.00  0.00     0.293 HD
ENDBRANCH   8  24
TORSDOF 5
ENDMDL
MODEL 3
REMARK VINA RESULT:    -5.847      1.381      7.236
REMARK INTER + INTRA:          -7.167
REMARK INTER:                  -6.853
REMARK INTRA:                  -0.315
REMARK UNBOUND:                -0.295
REMARK SMILES O=c1cc(-c2ccc(O)c(O)c2)oc2cc(O)cc(O)c12
REMARK SMILES IDX 4 1 3 2 2 3 1 4 21 5 19 6 18 7 16 8 15 9 14 10 13 11 5 12
REMARK SMILES IDX 6 13 7 14 8 15 12 16 10 17 9 18 11 20 20 22 17 24
REMARK H PARENT 9 19 11 21 20 23 17 25
REMARK Flexibility Score: inf
ROOT
ATOM      1  C   UNL     1      46.434  16.388  -4.609  1.00  0.00     0.138 A 
ATOM      2  C   UNL     1      46.047  17.417  -5.477  1.00  0.00     0.100 A 
ATOM      3  C   UNL     1      44.775  17.979  -5.359  1.00  0.00     0.197 A 
ATOM      4  O   UNL     1      44.434  18.858  -6.193  1.00  0.00    -0.289 OA
ATOM      5  C   UNL     1      43.899  17.528  -4.344  1.00  0.00     0.107 A 
ATOM      6  C   UNL     1      42.595  18.056  -4.102  1.00  0.00     0.134 A 
ATOM      7  C   UNL     1      41.773  17.451  -3.143  1.00  0.00     0.093 A 
ATOM      8  C   UNL     1      42.230  16.376  -2.375  1.00  0.00     0.123 A 
ATOM      9  C   UNL     1      43.521  15.890  -2.566  1.00  0.00     0.094 A 
ATOM     10  C   UNL     1      44.353  16.449  -3.539  1.00  0.00     0.146 A 
ATOM     11  O   UNL     1      45.572  15.945  -3.700  1.00  0.00    -0.456 OA
ENDROOT
BRANCH   1  12
ATOM     12  C   UNL     1      47.775  15.756  -4.691  1.00  0.00     0.021 A 
ATOM     13  C   UNL     1      48.842  16.370  -5.375  1.00  0.00     0.016 A 
ATOM     14  C   UNL     1      50.097  15.756  -5.427  1.00  0.00     0.051 A 
ATOM     15  C   UNL     1      50.310  14.527  -4.792  1.00  0.00     0.157 A 
ATOM     16  C   UNL     1      48.002  14.528  -4.044  1.00  0.00     0.062 A 
ATOM     17  C   UNL     1      49.261  13.912  -4.098  1.00  0.00     0.158 A 
BRANCH  15  18
ATOM     18  O   UNL     1      51.559  13.913  -4.843  1.00  0.00    -0.504 OA
ATOM     19  H   UNL     1      51.688  13.008  -5.282  1.00  0.00     0.293 HD
ENDBRANCH  15  18
BRANCH  17  20
ATOM     20  O   UNL     1      49.477  12.690  -3.463  1.00  0.00    -0.504 OA
ATOM     21  H   UNL     1      50.412  12.338  -3.293  1.00  0.00     0.293 HD
ENDBRANCH  17  20
ENDBRANCH   1  12
BRANCH   6  22
ATOM     22  O   UNL     1      42.073  19.177  -4.753  1.00  0.00    -0.507 OA
ATOM     23  H   UNL     1      41.111  19.476  -4.705  1.00  0.00     0.293 HD
ENDBRANCH   6  22
BRANCH   8  24
ATOM     24  O   UNL     1      41.411  15.791  -1.413  1.00  0.00    -0.508 OA
ATOM     25  H   UNL     1      41.029  14.861  -1.537  1.00  0.00     0.293 HD
ENDBRANCH   8  24
TORSDOF 5
ENDMDL
MODEL 4
REMARK VINA RESULT:    -5.447      1.149      1.262
REMARK INTER + INTRA:          -6.697
REMARK INTER:                  -6.420
REMARK INTRA:                  -0.278
REMARK UNBOUND:                -0.295
REMARK SMILES O=c1cc(-c2ccc(O)c(O)c2)oc2cc(O)cc(O)c12
REMARK SMILES IDX 4 1 3 2 2 3 1 4 21 5 19 6 18 7 16 8 15 9 14 10 13 11 5 12
REMARK SMILES IDX 6 13 7 14 8 15 12 16 10 17 9 18 11 20 20 22 17 24
REMARK H PARENT 9 19 11 21 20 23 17 25
REMARK Flexibility Score: inf
ROOT
ATOM      1  C   UNL     1      46.098  15.654  -4.036  1.00  0.00     0.138 A 
ATOM      2  C   UNL     1      45.973  14.276  -3.810  1.00  0.00     0.100 A 
ATOM      3  C   UNL     1      47.086  13.447  -3.962  1.00  0.00     0.197 A 
ATOM      4  O   UNL     1      46.927  12.208  -3.812  1.00  0.00    -0.289 OA
ATOM      5  C   UNL     1      48.337  14.008  -4.312  1.00  0.00     0.107 A 
ATOM      6  C   UNL     1      49.548  13.265  -4.454  1.00  0.00     0.134 A 
ATOM      7  C   UNL     1      50.701  13.911  -4.918  1.00  0.00     0.093 A 
ATOM      8  C   UNL     1      50.702  15.282  -5.187  1.00  0.00     0.123 A 
ATOM      9  C   UNL     1      49.540  16.024  -4.998  1.00  0.00     0.094 A 
ATOM     10  C   UNL     1      48.364  15.404  -4.570  1.00  0.00     0.146 A 
ATOM     11  O   UNL     1      47.272  16.146  -4.418  1.00  0.00    -0.456 OA
ENDROOT
BRANCH   1  12
ATOM     12  C   UNL     1      44.948  16.580  -3.889  1.00  0.00     0.021 A 
ATOM     13  C   UNL     1      44.692  17.597  -4.829  1.00  0.00     0.016 A 
ATOM     14  C   UNL     1      43.595  18.449  -4.671  1.00  0.00     0.051 A 
ATOM     15  C   UNL     1      42.733  18.296  -3.579  1.00  0.00     0.157 A 
ATOM     16  C   UNL     1      44.068  16.425  -2.803  1.00  0.00     0.062 A 
ATOM     17  C   UNL     1      42.968  17.281  -2.644  1.00  0.00     0.158 A 
BRANCH  15  18
ATOM     18  O   UNL     1      41.640  19.144  -3.419  1.00  0.00    -0.504 OA
ATOM     19  H   UNL     1      41.277  19.374  -2.500  1.00  0.00     0.293 HD
ENDBRANCH  15  18
BRANCH  17  20
ATOM     20  O   UNL     1      42.106  17.129  -1.560  1.00  0.00    -0.504 OA
ATOM     21  H   UNL     1      41.148  17.457  -1.593  1.00  0.00     0.293 HD
ENDBRANCH  17  20
ENDBRANCH   1  12
BRANCH   6  22
ATOM     22  O   UNL     1      49.677  11.912  -4.132  1.00  0.00    -0.507 OA
ATOM     23  H   UNL     1      49.478  11.148  -4.760  1.00  0.00     0.293 HD
ENDBRANCH   6  22
BRANCH   8  24
ATOM     24  O   UNL     1      51.859  15.918  -5.633  1.00  0.00    -0.508 OA
ATOM     25  H   UNL     1      52.449  16.449  -5.003  1.00  0.00     0.293 HD
ENDBRANCH   8  24
TORSDOF 5
ENDMDL
MODEL 5
REMARK VINA RESULT:    -5.437      1.818      3.406
REMARK INTER + INTRA:          -6.685
REMARK INTER:                  -6.373
REMARK INTRA:                  -0.312
REMARK UNBOUND:                -0.295
REMARK SMILES O=c1cc(-c2ccc(O)c(O)c2)oc2cc(O)cc(O)c12
REMARK SMILES IDX 4 1 3 2 2 3 1 4 21 5 19 6 18 7 16 8 15 9 14 10 13 11 5 12
REMARK SMILES IDX 6 13 7 14 8 15 12 16 10 17 9 18 11 20 20 22 17 24
REMARK H PARENT 9 19 11 21 20 23 17 25
REMARK Flexibility Score: inf
ROOT
ATOM      1  C   UNL     1      45.930  15.193  -3.610  1.00  0.00     0.138 A 
ATOM      2  C   UNL     1      46.745  15.198  -4.750  1.00  0.00     0.100 A 
ATOM      3  C   UNL     1      47.802  14.291  -4.847  1.00  0.00     0.197 A 
ATOM      4  O   UNL     1      48.553  14.361  -5.854  1.00  0.00    -0.289 OA
ATOM      5  C   UNL     1      48.022  13.354  -3.810  1.00  0.00     0.107 A 
ATOM      6  C   UNL     1      49.042  12.355  -3.820  1.00  0.00     0.134 A 
ATOM      7  C   UNL     1      49.237  11.559  -2.685  1.00  0.00     0.093 A 
ATOM      8  C   UNL     1      48.412  11.683  -1.565  1.00  0.00     0.123 A 
ATOM      9  C   UNL     1      47.379  12.617  -1.568  1.00  0.00     0.094 A 
ATOM     10  C   UNL     1      47.179  13.451  -2.671  1.00  0.00     0.146 A 
ATOM     11  O   UNL     1      46.192  14.340  -2.626  1.00  0.00    -0.456 OA
ENDROOT
BRANCH   1  12
ATOM     12  C   UNL     1      44.794  16.136  -3.455  1.00  0.00     0.021 A 
ATOM     13  C   UNL     1      44.705  17.318  -4.215  1.00  0.00     0.016 A 
ATOM     14  C   UNL     1      43.618  18.183  -4.056  1.00  0.00     0.051 A 
ATOM     15  C   UNL     1      42.600  17.878  -3.145  1.00  0.00     0.157 A 
ATOM     16  C   UNL     1      43.759  15.831  -2.552  1.00  0.00     0.062 A 
ATOM     17  C   UNL     1      42.669  16.699  -2.392  1.00  0.00     0.158 A 
BRANCH  15  18
ATOM     18  O   UNL     1      41.515  18.738  -2.984  1.00  0.00    -0.504 OA
ATOM     19  H   UNL     1      41.077  18.874  -2.080  1.00  0.00     0.293 HD
ENDBRANCH  15  18
BRANCH  17  20
ATOM     20  O   UNL     1      41.653  16.396  -1.489  1.00  0.00    -0.504 OA
ATOM     21  H   UNL     1      40.994  15.646  -1.662  1.00  0.00     0.293 HD
ENDBRANCH  17  20
ENDBRANCH   1  12
BRANCH   6  22
ATOM     22  O   UNL     1      49.865  12.091  -4.917  1.00  0.00    -0.507 OA
ATOM     23  H   UNL     1      50.872  12.043  -4.885  1.00  0.00     0.293 HD
ENDBRANCH   6  22
BRANCH   8  24
ATOM     24  O   UNL     1      48.604  10.876  -0.446  1.00  0.00    -0.508 OA
ATOM     25  H   UNL     1      48.495   9.869  -0.494  1.00  0.00     0.293 HD
ENDBRANCH   8  24
TORSDOF 5
ENDMDL
MODEL 6
REMARK VINA RESULT:    -5.309      1.275      6.855
REMARK INTER + INTRA:          -6.535
REMARK INTER:                  -6.254
REMARK INTRA:                  -0.281
REMARK UNBOUND:                -0.295
REMARK SMILES O=c1cc(-c2ccc(O)c(O)c2)oc2cc(O)cc(O)c12
REMARK SMILES IDX 4 1 3 2 2 3 1 4 21 5 19 6 18 7 16 8 15 9 14 10 13 11 5 12
REMARK SMILES IDX 6 13 7 14 8 15 12 16 10 17 9 18 11 20 20 22 17 24
REMARK H PARENT 9 19 11 21 20 23 17 25
REMARK Flexibility Score: inf
ROOT
ATOM      1  C   UNL     1      46.469  15.708  -4.334  1.00  0.00     0.138 A 
ATOM      2  C   UNL     1      45.937  14.432  -4.106  1.00  0.00     0.100 A 
ATOM      3  C   UNL     1      44.643  14.303  -3.600  1.00  0.00     0.197 A 
ATOM      4  O   UNL     1      44.218  13.146  -3.348  1.00  0.00    -0.289 OA
ATOM      5  C   UNL     1      43.868  15.460  -3.350  1.00  0.00     0.107 A 
ATOM      6  C   UNL     1      42.522  15.448  -2.873  1.00  0.00     0.134 A 
ATOM      7  C   UNL     1      41.894  16.658  -2.552  1.00  0.00     0.093 A 
ATOM      8  C   UNL     1      42.541  17.881  -2.748  1.00  0.00     0.123 A 
ATOM      9  C   UNL     1      43.834  17.904  -3.265  1.00  0.00     0.094 A 
ATOM     10  C   UNL     1      44.501  16.713  -3.563  1.00  0.00     0.146 A 
ATOM     11  O   UNL     1      45.740  16.779  -4.039  1.00  0.00    -0.456 OA
ENDROOT
BRANCH   1  12
ATOM     12  C   UNL     1      47.839  15.903  -4.871  1.00  0.00     0.021 A 
ATOM     13  C   UNL     1      48.143  16.955  -5.756  1.00  0.00     0.016 A 
ATOM     14  C   UNL     1      49.445  17.122  -6.239  1.00  0.00     0.051 A 
ATOM     15  C   UNL     1      50.463  16.248  -5.841  1.00  0.00     0.157 A 
ATOM     16  C   UNL     1      48.872  15.039  -4.466  1.00  0.00     0.062 A 
ATOM     17  C   UNL     1      50.177  15.205  -4.952  1.00  0.00     0.158 A 
BRANCH  15  18
ATOM     18  O   UNL     1      51.761  16.411  -6.321  1.00  0.00    -0.504 OA
ATOM     19  H   UNL     1      52.007  16.173  -7.275  1.00  0.00     0.293 HD
ENDBRANCH  15  18
BRANCH  17  20
ATOM     20  O   UNL     1      51.194  14.339  -4.554  1.00  0.00    -0.504 OA
ATOM     21  H   UNL     1      51.679  13.748  -5.220  1.00  0.00     0.293 HD
ENDBRANCH  17  20
ENDBRANCH   1  12
BRANCH   6  22
ATOM     22  O   UNL     1      41.757  14.289  -2.722  1.00  0.00    -0.507 OA
ATOM     23  H   UNL     1      41.362  13.967  -1.851  1.00  0.00     0.293 HD
ENDBRANCH   6  22
BRANCH   8  24
ATOM     24  O   UNL     1      41.902  19.080  -2.440  1.00  0.00    -0.508 OA
ATOM     25  H   UNL     1      41.989  19.507  -1.525  1.00  0.00     0.293 HD
ENDBRANCH   8  24
TORSDOF 5
ENDMDL
MODEL 7
REMARK VINA RESULT:    -5.282      2.051      6.853
REMARK INTER + INTRA:          -6.503
REMARK INTER:                  -6.188
REMARK INTRA:                  -0.314
REMARK UNBOUND:                -0.295
REMARK SMILES O=c1cc(-c2ccc(O)c(O)c2)oc2cc(O)cc(O)c12
REMARK SMILES IDX 4 1 3 2 2 3 1 4 21 5 19 6 18 7 16 8 15 9 14 10 13 11 5 12
REMARK SMILES IDX 6 13 7 14 8 15 12 16 10 17 9 18 11 20 20 22 17 24
REMARK H PARENT 9 19 11 21 20 23 17 25
REMARK Flexibility Score: inf
ROOT
ATOM      1  C   UNL     1      46.237  15.258  -3.750  1.00  0.00     0.138 A 
ATOM      2  C   UNL     1      46.533  16.125  -4.810  1.00  0.00     0.100 A 
ATOM      3  C   UNL     1      45.665  17.177  -5.106  1.00  0.00     0.197 A 
ATOM      4  O   UNL     1      45.927  17.899  -6.102  1.00  0.00    -0.289 OA
ATOM      5  C   UNL     1      44.510  17.379  -4.314  1.00  0.00     0.107 A 
ATOM      6  C   UNL     1      43.576  18.443  -4.496  1.00  0.00     0.134 A 
ATOM      7  C   UNL     1      42.408  18.474  -3.724  1.00  0.00     0.093 A 
ATOM      8  C   UNL     1      42.170  17.515  -2.736  1.00  0.00     0.123 A 
ATOM      9  C   UNL     1      43.103  16.506  -2.514  1.00  0.00     0.094 A 
ATOM     10  C   UNL     1      44.261  16.426  -3.290  1.00  0.00     0.146 A 
ATOM     11  O   UNL     1      45.118  15.437  -3.056  1.00  0.00    -0.456 OA
ENDROOT
BRANCH   1  12
ATOM     12  C   UNL     1      47.125  14.124  -3.392  1.00  0.00     0.021 A 
ATOM     13  C   UNL     1      48.143  13.679  -4.258  1.00  0.00     0.016 A 
ATOM     14  C   UNL     1      48.972  12.615  -3.891  1.00  0.00     0.051 A 
ATOM     15  C   UNL     1      48.805  11.984  -2.653  1.00  0.00     0.157 A 
ATOM     16  C   UNL     1      46.974  13.492  -2.144  1.00  0.00     0.062 A 
ATOM     17  C   UNL     1      47.805  12.423  -1.777  1.00  0.00     0.158 A 
BRANCH  15  18
ATOM     18  O   UNL     1      49.629  10.923  -2.285  1.00  0.00    -0.504 OA
ATOM     19  H   UNL     1      49.967  10.252  -2.966  1.00  0.00     0.293 HD
ENDBRANCH  15  18
BRANCH  17  20
ATOM     20  O   UNL     1      47.643  11.795  -0.544  1.00  0.00    -0.504 OA
ATOM     21  H   UNL     1      48.396  11.753   0.134  1.00  0.00     0.293 HD
ENDBRANCH  17  20
ENDBRANCH   1  12
BRANCH   6  22
ATOM     22  O   UNL     1      43.759  19.496  -5.395  1.00  0.00    -0.507 OA
ATOM     23  H   UNL     1      43.540  19.460  -6.379  1.00  0.00     0.293 HD
ENDBRANCH   6  22
BRANCH   8  24
ATOM     24  O   UNL     1      41.012  17.564  -1.963  1.00  0.00    -0.508 OA
ATOM     25  H   UNL     1      40.683  16.755  -1.450  1.00  0.00     0.293 HD
ENDBRANCH   8  24
TORSDOF 5
ENDMDL
MODEL 8
REMARK VINA RESULT:    -5.185      2.203      7.469
REMARK INTER + INTRA:          -6.389
REMARK INTER:                  -6.072
REMARK INTRA:                  -0.317
REMARK UNBOUND:                -0.295
REMARK SMILES O=c1cc(-c2ccc(O)c(O)c2)oc2cc(O)cc(O)c12
REMARK SMILES IDX 4 1 3 2 2 3 1 4 21 5 19 6 18 7 16 8 15 9 14 10 13 11 5 12
REMARK SMILES IDX 6 13 7 14 8 15 12 16 10 17 9 18 11 20 20 22 17 24
REMARK H PARENT 9 19 11 21 20 23 17 25
REMARK Flexibility Score: inf
ROOT
ATOM      1  C   UNL     1      48.982  13.919  -4.876  1.00  0.00     0.138 A 
ATOM      2  C   UNL     1      48.504  12.669  -4.462  1.00  0.00     0.100 A 
ATOM      3  C   UNL     1      47.212  12.560  -3.944  1.00  0.00     0.197 A 
ATOM      4  O   UNL     1      46.835  11.436  -3.523  1.00  0.00    -0.289 OA
ATOM      5  C   UNL     1      46.385  13.706  -3.871  1.00  0.00     0.107 A 
ATOM      6  C   UNL     1      45.037  13.706  -3.401  1.00  0.00     0.134 A 
ATOM      7  C   UNL     1      44.355  14.922  -3.265  1.00  0.00     0.093 A 
ATOM      8  C   UNL     1      44.950  16.129  -3.640  1.00  0.00     0.123 A 
ATOM      9  C   UNL     1      46.245  16.132  -4.152  1.00  0.00     0.094 A 
ATOM     10  C   UNL     1      46.965  14.940  -4.268  1.00  0.00     0.146 A 
ATOM     11  O   UNL     1      48.204  14.989  -4.746  1.00  0.00    -0.456 OA
ENDROOT
BRANCH   1  12
ATOM     12  C   UNL     1      50.347  14.092  -5.434  1.00  0.00     0.021 A 
ATOM     13  C   UNL     1      51.141  12.988  -5.799  1.00  0.00     0.016 A 
ATOM     14  C   UNL     1      52.419  13.180  -6.332  1.00  0.00     0.051 A 
ATOM     15  C   UNL     1      52.921  14.473  -6.517  1.00  0.00     0.157 A 
ATOM     16  C   UNL     1      50.853  15.388  -5.637  1.00  0.00     0.062 A 
ATOM     17  C   UNL     1      52.137  15.580  -6.170  1.00  0.00     0.158 A 
BRANCH  15  18
ATOM     18  O   UNL     1      54.195  14.667  -7.047  1.00  0.00    -0.504 OA
ATOM     19  H   UNL     1      55.006  14.784  -6.450  1.00  0.00     0.293 HD
ENDBRANCH  15  18
BRANCH  17  20
ATOM     20  O   UNL     1      52.637  16.866  -6.359  1.00  0.00    -0.504 OA
ATOM     21  H   UNL     1      53.360  17.061  -7.043  1.00  0.00     0.293 HD
ENDBRANCH  17  20
ENDBRANCH   1  12
BRANCH   6  22
ATOM     22  O   UNL     1      44.322  12.550  -3.080  1.00  0.00    -0.507 OA
ATOM     23  H   UNL     1      43.898  11.928  -3.752  1.00  0.00     0.293 HD
ENDBRANCH   6  22
BRANCH   8  24
ATOM     24  O   UNL     1      44.258  17.331  -3.517  1.00  0.00    -0.508 OA
ATOM     25  H   UNL     1      43.518  17.585  -4.161  1.00  0.00     0.293 HD
ENDBRANCH   8  24
TORSDOF 5
ENDMDL
MODEL 9
REMARK VINA RESULT:    -5.180      2.100      3.891
REMARK INTER + INTRA:          -6.383
REMARK INTER:                  -6.074
REMARK INTRA:                  -0.309
REMARK UNBOUND:                -0.295
REMARK SMILES O=c1cc(-c2ccc(O)c(O)c2)oc2cc(O)cc(O)c12
REMARK SMILES IDX 4 1 3 2 2 3 1 4 21 5 19 6 18 7 16 8 15 9 14 10 13 11 5 12
REMARK SMILES IDX 6 13 7 14 8 15 12 16 10 17 9 18 11 20 20 22 17 24
REMARK H PARENT 9 19 11 21 20 23 17 25
REMARK Flexibility Score: inf
ROOT
ATOM      1  C   UNL     1      46.270  16.524  -4.845  1.00  0.00     0.138 A 
ATOM      2  C   UNL     1      47.643  16.600  -5.117  1.00  0.00     0.100 A 
ATOM      3  C   UNL     1      48.489  15.575  -4.691  1.00  0.00     0.197 A 
ATOM      4  O   UNL     1      49.724  15.702  -4.895  1.00  0.00    -0.289 OA
ATOM      5  C   UNL     1      47.950  14.453  -4.018  1.00  0.00     0.107 A 
ATOM      6  C   UNL     1      48.711  13.329  -3.575  1.00  0.00     0.134 A 
ATOM      7  C   UNL     1      48.088  12.331  -2.817  1.00  0.00     0.093 A 
ATOM      8  C   UNL     1      46.720  12.385  -2.537  1.00  0.00     0.123 A 
ATOM      9  C   UNL     1      45.959  13.450  -3.012  1.00  0.00     0.094 A 
ATOM     10  C   UNL     1      46.557  14.480  -3.742  1.00  0.00     0.146 A 
ATOM     11  O   UNL     1      45.798  15.486  -4.163  1.00  0.00    -0.456 OA
ENDROOT
BRANCH   1  12
ATOM     12  C   UNL     1      45.326  17.586  -5.275  1.00  0.00     0.021 A 
ATOM     13  C   UNL     1      45.583  18.394  -6.399  1.00  0.00     0.016 A 
ATOM     14  C   UNL     1      44.670  19.379  -6.788  1.00  0.00     0.051 A 
ATOM     15  C   UNL     1      43.486  19.570  -6.066  1.00  0.00     0.157 A 
ATOM     16  C   UNL     1      44.126  17.775  -4.565  1.00  0.00     0.062 A 
ATOM     17  C   UNL     1      43.212  18.766  -4.953  1.00  0.00     0.158 A 
BRANCH  15  18
ATOM     18  O   UNL     1      42.576  20.552  -6.450  1.00  0.00    -0.504 OA
ATOM     19  H   UNL     1      42.432  21.388  -5.895  1.00  0.00     0.293 HD
ENDBRANCH  15  18
BRANCH  17  20
ATOM     20  O   UNL     1      42.031  18.954  -4.240  1.00  0.00    -0.504 OA
ATOM     21  H   UNL     1      41.588  18.195  -3.734  1.00  0.00     0.293 HD
ENDBRANCH  17  20
ENDBRANCH   1  12
BRANCH   6  22
ATOM     22  O   UNL     1      50.063  13.135  -3.872  1.00  0.00    -0.507 OA
ATOM     23  H   UNL     1      50.411  12.615  -4.663  1.00  0.00     0.293 HD
ENDBRANCH   6  22
BRANCH   8  24
ATOM     24  O   UNL     1      46.106  11.379  -1.795  1.00  0.00    -0.508 OA
ATOM     25  H   UNL     1      45.707  11.563  -0.881  1.00  0.00     0.293 HD
ENDBRANCH   8  24
TORSDOF 5
ENDMDL
