MODEL 1
REMARK VINA RESULT:    -2.615      0.000      0.000
REMARK INTER + INTRA:          -6.000
REMARK INTER:                  -4.449
REMARK INTRA:                  -1.551
REMARK UNBOUND:                -1.551
REMARK SMILES CCCCCCCCCCCCCC(=O)[O-]
REMARK SMILES IDX 8 1 9 2 10 3 11 4 12 5 13 6 14 7 15 8 16 9 7 10 6 11 5 12
REMARK SMILES IDX 4 13 3 14 2 15 1 16
REMARK H PARENT
REMARK Flexibility Score: inf
ROOT
ATOM      1  C   UNL     1     145.885 151.518 155.187  1.00  0.00     0.000 C 
ENDROOT
BRANCH   1   2
ATOM      2  C   UNL     1     144.760 150.655 154.593  1.00  0.00     0.000 C 
BRANCH   2   3
ATOM      3  C   UNL     1     143.647 151.497 153.951  1.00  0.00     0.000 C 
BRANCH   3   4
ATOM      4  C   UNL     1     143.420 151.151 152.471  1.00  0.00     0.000 C 
BRANCH   4   5
ATOM      5  C   UNL     1     144.697 150.585 151.839  1.00  0.00     0.006 C 
BRANCH   5   6
ATOM      6  C   UNL     1     145.181 151.474 150.689  1.00  0.00     0.053 C 
BRANCH   6   7
ATOM      7  C   UNL     1     145.750 150.639 149.586  1.00  0.00     0.041 C 
ATOM      8  O   UNL     1     145.810 151.094 148.414  1.00  0.00    -0.550 OA
ATOM      9  O   UNL     1     146.170 149.339 149.843  1.00  0.00    -0.550 OA
ENDBRANCH   6   7
ENDBRANCH   5   6
ENDBRANCH   4   5
ENDBRANCH   3   4
ENDBRANCH   2   3
ENDBRANCH   1   2
BRANCH   1  10
ATOM     10  C   UNL     1     145.732 152.985 154.767  1.00  0.00     0.000 C 
BRANCH  10  11
ATOM     11  C   UNL     1     146.811 153.383 153.749  1.00  0.00    -0.000 C 
BRANCH  11  12
ATOM     12  C   UNL     1     146.445 154.653 152.965  1.00  0.00    -0.000 C 
BRANCH  12  13
ATOM     13  C   UNL     1     144.934 154.771 152.703  1.00  0.00    -0.000 C 
BRANCH  13  14
ATOM     14  C   UNL     1     144.493 156.218 152.431  1.00  0.00    -0.000 C 
BRANCH  14  15
ATOM     15  C   UNL     1     145.568 157.244 152.816  1.00  0.00    -0.003 C 
ATOM     16  C   UNL     1     145.243 157.904 154.154  1.00  0.00     0.004 C 
ENDBRANCH  14  15
ENDBRANCH  13  14
ENDBRANCH  12  13
ENDBRANCH  11  12
ENDBRANCH  10  11
ENDBRANCH   1  10
TORSDOF 12
ENDMDL
MODEL 2
REMARK VINA RESULT:    -2.579      9.852     12.664
REMARK INTER + INTRA:          -5.939
REMARK INTER:                  -3.544
REMARK INTRA:                  -2.395
REMARK UNBOUND:                -1.551
REMARK SMILES CCCCCCCCCCCCCC(=O)[O-]
REMARK SMILES IDX 8 1 9 2 10 3 11 4 12 5 13 6 14 7 15 8 16 9 7 10 6 11 5 12
REMARK SMILES IDX 4 13 3 14 2 15 1 16
REMARK H PARENT
REMARK Flexibility Score: inf
ROOT
ATOM      1  C   UNL     1     147.453 147.540 142.988  1.00  0.00     0.000 C 
ENDROOT
BRANCH   1   2
ATOM      2  C   UNL     1     147.133 149.016 142.707  1.00  0.00     0.000 C 
BRANCH   2   3
ATOM      3  C   UNL     1     146.517 149.233 141.316  1.00  0.00     0.000 C 
BRANCH   3   4
ATOM      4  C   UNL     1     145.146 149.924 141.376  1.00  0.00     0.000 C 
BRANCH   4   5
ATOM      5  C   UNL     1     144.222 149.407 140.267  1.00  0.00     0.006 C 
BRANCH   5   6
ATOM      6  C   UNL     1     144.904 148.301 139.455  1.00  0.00     0.053 C 
BRANCH   6   7
ATOM      7  C   UNL     1     144.679 148.512 137.992  1.00  0.00     0.041 C 
ATOM      8  O   UNL     1     143.988 149.486 137.590  1.00  0.00    -0.550 OA
ATOM      9  O   UNL     1     145.194 147.608 137.071  1.00  0.00    -0.550 OA
ENDBRANCH   6   7
ENDBRANCH   5   6
ENDBRANCH   4   5
ENDBRANCH   3   4
ENDBRANCH   2   3
ENDBRANCH   1   2
BRANCH   1  10
ATOM     10  C   UNL     1     147.274 146.690 141.725  1.00  0.00     0.000 C 
BRANCH  10  11
ATOM     11  C   UNL     1     146.312 145.520 141.980  1.00  0.00    -0.000 C 
BRANCH  11  12
ATOM     12  C   UNL     1     145.278 145.832 143.073  1.00  0.00    -0.000 C 
BRANCH  12  13
ATOM     13  C   UNL     1     143.950 146.354 142.500  1.00  0.00    -0.000 C 
BRANCH  13  14
ATOM     14  C   UNL     1     143.310 147.437 143.383  1.00  0.00    -0.000 C 
BRANCH  14  15
ATOM     15  C   UNL     1     144.145 147.747 144.634  1.00  0.00    -0.003 C 
ATOM     16  C   UNL     1     144.181 149.247 144.913  1.00  0.00     0.004 C 
ENDBRANCH  14  15
ENDBRANCH  13  14
ENDBRANCH  12  13
ENDBRANCH  11  12
ENDBRANCH  10  11
ENDBRANCH   1  10
TORSDOF 12
ENDMDL
MODEL 3
REMARK VINA RESULT:    -2.548      7.280     11.499
REMARK INTER + INTRA:          -5.886
REMARK INTER:                  -3.803
REMARK INTRA:                  -2.083
REMARK UNBOUND:                -1.551
REMARK SMILES CCCCCCCCCCCCCC(=O)[O-]
REMARK SMILES IDX 8 1 9 2 10 3 11 4 12 5 13 6 14 7 15 8 16 9 7 10 6 11 5 12
REMARK SMILES IDX 4 13 3 14 2 15 1 16
REMARK H PARENT
REMARK Flexibility Score: inf
ROOT
ATOM      1  C   UNL     1     144.304 150.433 140.680  1.00  0.00     0.000 C 
ENDROOT
BRANCH   1   2
ATOM      2  C   UNL     1     143.162 150.338 141.703  1.00  0.00     0.000 C 
BRANCH   2   3
ATOM      3  C   UNL     1     143.668 150.316 143.153  1.00  0.00     0.000 C 
BRANCH   3   4
ATOM      4  C   UNL     1     143.273 149.031 143.899  1.00  0.00     0.000 C 
BRANCH   4   5
ATOM      5  C   UNL     1     144.034 148.911 145.225  1.00  0.00     0.006 C 
BRANCH   5   6
ATOM      6  C   UNL     1     144.747 150.222 145.570  1.00  0.00     0.053 C 
BRANCH   6   7
ATOM      7  C   UNL     1     144.542 150.564 147.012  1.00  0.00     0.041 C 
ATOM      8  O   UNL     1     144.849 151.707 147.441  1.00  0.00    -0.550 OA
ATOM      9  O   UNL     1     144.057 149.605 147.892  1.00  0.00    -0.550 OA
ENDBRANCH   6   7
ENDBRANCH   5   6
ENDBRANCH   4   5
ENDBRANCH   3   4
ENDBRANCH   2   3
ENDBRANCH   1   2
BRANCH   1  10
ATOM     10  C   UNL     1     144.179 149.337 139.613  1.00  0.00     0.000 C 
BRANCH  10  11
ATOM     11  C   UNL     1     143.587 148.052 140.211  1.00  0.00    -0.000 C 
BRANCH  11  12
ATOM     12  C   UNL     1     144.620 146.920 140.319  1.00  0.00    -0.000 C 
BRANCH  12  13
ATOM     13  C   UNL     1     145.333 146.900 141.682  1.00  0.00    -0.000 C 
BRANCH  13  14
ATOM     14  C   UNL     1     146.661 147.675 141.665  1.00  0.00    -0.000 C 
BRANCH  14  15
ATOM     15  C   UNL     1     146.939 148.398 142.991  1.00  0.00    -0.003 C 
ATOM     16  C   UNL     1     147.289 149.864 142.754  1.00  0.00     0.004 C 
ENDBRANCH  14  15
ENDBRANCH  13  14
ENDBRANCH  12  13
ENDBRANCH  11  12
ENDBRANCH  10  11
ENDBRANCH   1  10
TORSDOF 12
ENDMDL
MODEL 4
REMARK VINA RESULT:    -2.519     11.137     12.959
REMARK INTER + INTRA:          -5.838
REMARK INTER:                  -3.574
REMARK INTRA:                  -2.264
REMARK UNBOUND:                -1.551
REMARK SMILES CCCCCCCCCCCCCC(=O)[O-]
REMARK SMILES IDX 8 1 9 2 10 3 11 4 12 5 13 6 14 7 15 8 16 9 7 10 6 11 5 12
REMARK SMILES IDX 4 13 3 14 2 15 1 16
REMARK H PARENT
REMARK Flexibility Score: inf
ROOT
ATOM      1  C   UNL     1     147.363 146.305 143.451  1.00  0.00     0.000 C 
ENDROOT
BRANCH   1   2
ATOM      2  C   UNL     1     147.888 145.740 142.122  1.00  0.00     0.000 C 
BRANCH   2   3
ATOM      3  C   UNL     1     147.284 146.448 140.899  1.00  0.00     0.000 C 
BRANCH   3   4
ATOM      4  C   UNL     1     146.462 145.500 140.012  1.00  0.00     0.000 C 
BRANCH   4   5
ATOM      5  C   UNL     1     145.351 146.261 139.279  1.00  0.00     0.006 C 
BRANCH   5   6
ATOM      6  C   UNL     1     145.865 147.600 138.740  1.00  0.00     0.053 C 
BRANCH   6   7
ATOM      7  C   UNL     1     144.756 148.360 138.084  1.00  0.00     0.041 C 
ATOM      8  O   UNL     1     144.065 149.174 138.751  1.00  0.00    -0.550 OA
ATOM      9  O   UNL     1     144.455 148.135 136.747  1.00  0.00    -0.550 OA
ENDBRANCH   6   7
ENDBRANCH   5   6
ENDBRANCH   4   5
ENDBRANCH   3   4
ENDBRANCH   2   3
ENDBRANCH   1   2
BRANCH   1  10
ATOM     10  C   UNL     1     146.072 145.595 143.877  1.00  0.00     0.000 C 
BRANCH  10  11
ATOM     11  C   UNL     1     144.908 146.590 143.993  1.00  0.00    -0.000 C 
BRANCH  11  12
ATOM     12  C   UNL     1     144.021 146.611 142.738  1.00  0.00    -0.000 C 
BRANCH  12  13
ATOM     13  C   UNL     1     143.896 148.018 142.127  1.00  0.00    -0.000 C 
BRANCH  13  14
ATOM     14  C   UNL     1     144.808 149.045 142.818  1.00  0.00    -0.000 C 
BRANCH  14  15
ATOM     15  C   UNL     1     145.821 149.677 141.853  1.00  0.00    -0.003 C 
ATOM     16  C   UNL     1     147.153 149.940 142.549  1.00  0.00     0.004 C 
ENDBRANCH  14  15
ENDBRANCH  13  14
ENDBRANCH  12  13
ENDBRANCH  11  12
ENDBRANCH  10  11
ENDBRANCH   1  10
TORSDOF 12
ENDMDL
MODEL 5
REMARK VINA RESULT:    -2.516     11.579     13.557
REMARK INTER + INTRA:          -5.833
REMARK INTER:                  -3.984
REMARK INTRA:                  -1.849
REMARK UNBOUND:                -1.551
REMARK SMILES CCCCCCCCCCCCCC(=O)[O-]
REMARK SMILES IDX 8 1 9 2 10 3 11 4 12 5 13 6 14 7 15 8 16 9 7 10 6 11 5 12
REMARK SMILES IDX 4 13 3 14 2 15 1 16
REMARK H PARENT
REMARK Flexibility Score: inf
ROOT
ATOM      1  C   UNL     1     147.030 148.479 142.874  1.00  0.00     0.000 C 
ENDROOT
BRANCH   1   2
ATOM      2  C   UNL     1     146.208 149.619 142.253  1.00  0.00     0.000 C 
BRANCH   2   3
ATOM      3  C   UNL     1     144.707 149.297 142.186  1.00  0.00     0.000 C 
BRANCH   3   4
ATOM      4  C   UNL     1     143.872 150.472 141.651  1.00  0.00     0.000 C 
BRANCH   4   5
ATOM      5  C   UNL     1     144.226 150.775 140.190  1.00  0.00     0.006 C 
BRANCH   5   6
ATOM      6  C   UNL     1     143.367 149.944 139.233  1.00  0.00     0.053 C 
BRANCH   6   7
ATOM      7  C   UNL     1     143.502 150.453 137.833  1.00  0.00     0.041 C 
ATOM      8  O   UNL     1     143.701 151.678 137.621  1.00  0.00    -0.550 OA
ATOM      9  O   UNL     1     143.360 149.583 136.759  1.00  0.00    -0.550 OA
ENDBRANCH   6   7
ENDBRANCH   5   6
ENDBRANCH   4   5
ENDBRANCH   3   4
ENDBRANCH   2   3
ENDBRANCH   1   2
BRANCH   1  10
ATOM     10  C   UNL     1     146.121 147.326 143.318  1.00  0.00     0.000 C 
BRANCH  10  11
ATOM     11  C   UNL     1     146.833 145.974 143.168  1.00  0.00    -0.000 C 
BRANCH  11  12
ATOM     12  C   UNL     1     147.801 145.944 141.975  1.00  0.00    -0.000 C 
BRANCH  12  13
ATOM     13  C   UNL     1     147.106 145.549 140.660  1.00  0.00    -0.000 C 
BRANCH  13  14
ATOM     14  C   UNL     1     147.059 146.705 139.648  1.00  0.00    -0.000 C 
BRANCH  14  15
ATOM     15  C   UNL     1     145.625 147.118 139.290  1.00  0.00    -0.003 C 
ATOM     16  C   UNL     1     144.605 146.262 140.036  1.00  0.00     0.004 C 
ENDBRANCH  14  15
ENDBRANCH  13  14
ENDBRANCH  12  13
ENDBRANCH  11  12
ENDBRANCH  10  11
ENDBRANCH   1  10
TORSDOF 12
ENDMDL
MODEL 6
REMARK VINA RESULT:    -2.494      9.523     12.837
REMARK INTER + INTRA:          -5.795
REMARK INTER:                  -3.715
REMARK INTRA:                  -2.080
REMARK UNBOUND:                -1.551
REMARK SMILES CCCCCCCCCCCCCC(=O)[O-]
REMARK SMILES IDX 8 1 9 2 10 3 11 4 12 5 13 6 14 7 15 8 16 9 7 10 6 11 5 12
REMARK SMILES IDX 4 13 3 14 2 15 1 16
REMARK H PARENT
REMARK Flexibility Score: inf
ROOT
ATOM      1  C   UNL     1     147.833 145.247 142.007  1.00  0.00     0.000 C 
ENDROOT
BRANCH   1   2
ATOM      2  C   UNL     1     147.968 146.363 143.055  1.00  0.00     0.000 C 
BRANCH   2   3
ATOM      3  C   UNL     1     146.771 147.325 143.051  1.00  0.00     0.000 C 
BRANCH   3   4
ATOM      4  C   UNL     1     147.089 148.665 142.369  1.00  0.00     0.000 C 
BRANCH   4   5
ATOM      5  C   UNL     1     146.439 149.832 143.121  1.00  0.00     0.006 C 
BRANCH   5   6
ATOM      6  C   UNL     1     145.204 149.365 143.898  1.00  0.00     0.053 C 
BRANCH   6   7
ATOM      7  C   UNL     1     144.158 150.434 143.911  1.00  0.00     0.041 C 
ATOM      8  O   UNL     1     143.437 150.626 142.897  1.00  0.00    -0.550 OA
ATOM      9  O   UNL     1     144.012 151.250 145.025  1.00  0.00    -0.550 OA
ENDBRANCH   6   7
ENDBRANCH   5   6
ENDBRANCH   4   5
ENDBRANCH   3   4
ENDBRANCH   2   3
ENDBRANCH   1   2
BRANCH   1  10
ATOM     10  C   UNL     1     146.358 144.945 141.714  1.00  0.00     0.000 C 
BRANCH  10  11
ATOM     11  C   UNL     1     146.067 145.028 140.208  1.00  0.00    -0.000 C 
BRANCH  11  12
ATOM     12  C   UNL     1     146.935 146.076 139.495  1.00  0.00    -0.000 C 
BRANCH  12  13
ATOM     13  C   UNL     1     146.146 147.343 139.123  1.00  0.00    -0.000 C 
BRANCH  13  14
ATOM     14  C   UNL     1     144.628 147.166 139.295  1.00  0.00    -0.000 C 
BRANCH  14  15
ATOM     15  C   UNL     1     144.038 148.117 140.346  1.00  0.00    -0.003 C 
ATOM     16  C   UNL     1     143.325 147.343 141.451  1.00  0.00     0.004 C 
ENDBRANCH  14  15
ENDBRANCH  13  14
ENDBRANCH  12  13
ENDBRANCH  11  12
ENDBRANCH  10  11
ENDBRANCH   1  10
TORSDOF 12
ENDMDL
MODEL 7
REMARK VINA RESULT:    -2.478      9.259     12.324
REMARK INTER + INTRA:          -5.767
REMARK INTER:                  -3.717
REMARK INTRA:                  -2.050
REMARK UNBOUND:                -1.551
REMARK SMILES CCCCCCCCCCCCCC(=O)[O-]
REMARK SMILES IDX 8 1 9 2 10 3 11 4 12 5 13 6 14 7 15 8 16 9 7 10 6 11 5 12
REMARK SMILES IDX 4 13 3 14 2 15 1 16
REMARK H PARENT
REMARK Flexibility Score: inf
ROOT
ATOM      1  C   UNL     1     146.895 149.225 141.636  1.00  0.00     0.000 C 
ENDROOT
BRANCH   1   2
ATOM      2  C   UNL     1     146.136 148.366 140.614  1.00  0.00     0.000 C 
BRANCH   2   3
ATOM      3  C   UNL     1     144.698 148.857 140.381  1.00  0.00     0.000 C 
BRANCH   3   4
ATOM      4  C   UNL     1     144.444 150.250 140.979  1.00  0.00     0.000 C 
BRANCH   4   5
ATOM      5  C   UNL     1     143.179 150.252 141.846  1.00  0.00     0.006 C 
BRANCH   5   6
ATOM      6  C   UNL     1     143.425 149.536 143.178  1.00  0.00     0.053 C 
BRANCH   6   7
ATOM      7  C   UNL     1     143.896 150.507 144.214  1.00  0.00     0.041 C 
ATOM      8  O   UNL     1     144.824 150.190 145.004  1.00  0.00    -0.550 OA
ATOM      9  O   UNL     1     143.277 151.744 144.340  1.00  0.00    -0.550 OA
ENDBRANCH   6   7
ENDBRANCH   5   6
ENDBRANCH   4   5
ENDBRANCH   3   4
ENDBRANCH   2   3
ENDBRANCH   1   2
BRANCH   1  10
ATOM     10  C   UNL     1     147.025 148.495 142.979  1.00  0.00     0.000 C 
BRANCH  10  11
ATOM     11  C   UNL     1     147.663 147.110 142.793  1.00  0.00    -0.000 C 
BRANCH  11  12
ATOM     12  C   UNL     1     146.812 145.982 143.395  1.00  0.00    -0.000 C 
BRANCH  12  13
ATOM     13  C   UNL     1     145.414 146.460 143.822  1.00  0.00    -0.000 C 
BRANCH  13  14
ATOM     14  C   UNL     1     144.292 145.843 142.970  1.00  0.00    -0.000 C 
BRANCH  14  15
ATOM     15  C   UNL     1     144.817 144.805 141.967  1.00  0.00    -0.003 C 
ATOM     16  C   UNL     1     144.314 145.101 140.557  1.00  0.00     0.004 C 
ENDBRANCH  14  15
ENDBRANCH  13  14
ENDBRANCH  12  13
ENDBRANCH  11  12
ENDBRANCH  10  11
ENDBRANCH   1  10
TORSDOF 12
ENDMDL
MODEL 8
REMARK VINA RESULT:    -2.477      8.360     12.019
REMARK INTER + INTRA:          -5.765
REMARK INTER:                  -3.499
REMARK INTRA:                  -2.266
REMARK UNBOUND:                -1.551
REMARK SMILES CCCCCCCCCCCCCC(=O)[O-]
REMARK SMILES IDX 8 1 9 2 10 3 11 4 12 5 13 6 14 7 15 8 16 9 7 10 6 11 5 12
REMARK SMILES IDX 4 13 3 14 2 15 1 16
REMARK H PARENT
REMARK Flexibility Score: inf
ROOT
ATOM      1  C   UNL     1     147.433 147.035 142.898  1.00  0.00     0.000 C 
ENDROOT
BRANCH   1   2
ATOM      2  C   UNL     1     146.212 146.104 142.925  1.00  0.00     0.000 C 
BRANCH   2   3
ATOM      3  C   UNL     1     145.193 146.496 144.006  1.00  0.00     0.000 C 
BRANCH   3   4
ATOM      4  C   UNL     1     143.819 146.859 143.422  1.00  0.00     0.000 C 
BRANCH   4   5
ATOM      5  C   UNL     1     143.315 148.191 143.991  1.00  0.00     0.006 C 
BRANCH   5   6
ATOM      6  C   UNL     1     144.022 148.528 145.308  1.00  0.00     0.053 C 
BRANCH   6   7
ATOM      7  C   UNL     1     144.374 149.980 145.356  1.00  0.00     0.041 C 
ATOM      8  O   UNL     1     144.298 150.685 144.315  1.00  0.00    -0.550 OA
ATOM      9  O   UNL     1     144.832 150.547 146.539  1.00  0.00    -0.550 OA
ENDBRANCH   6   7
ENDBRANCH   5   6
ENDBRANCH   4   5
ENDBRANCH   3   4
ENDBRANCH   2   3
ENDBRANCH   1   2
BRANCH   1  10
ATOM     10  C   UNL     1     147.006 148.504 143.011  1.00  0.00     0.000 C 
BRANCH  10  11
ATOM     11  C   UNL     1     146.897 149.155 141.625  1.00  0.00    -0.000 C 
BRANCH  11  12
ATOM     12  C   UNL     1     145.445 149.459 141.226  1.00  0.00    -0.000 C 
BRANCH  12  13
ATOM     13  C   UNL     1     144.908 148.485 140.163  1.00  0.00    -0.000 C 
BRANCH  13  14
ATOM     14  C   UNL     1     146.024 147.664 139.496  1.00  0.00    -0.000 C 
BRANCH  14  15
ATOM     15  C   UNL     1     145.568 146.249 139.113  1.00  0.00    -0.003 C 
ATOM     16  C   UNL     1     144.250 145.893 139.797  1.00  0.00     0.004 C 
ENDBRANCH  14  15
ENDBRANCH  13  14
ENDBRANCH  12  13
ENDBRANCH  11  12
ENDBRANCH  10  11
ENDBRANCH   1  10
TORSDOF 12
ENDMDL
MODEL 9
REMARK VINA RESULT:    -2.459      6.857     11.242
REMARK INTER + INTRA:          -5.736
REMARK INTER:                  -3.771
REMARK INTRA:                  -1.964
REMARK UNBOUND:                -1.551
REMARK SMILES CCCCCCCCCCCCCC(=O)[O-]
REMARK SMILES IDX 8 1 9 2 10 3 11 4 12 5 13 6 14 7 15 8 16 9 7 10 6 11 5 12
REMARK SMILES IDX 4 13 3 14 2 15 1 16
REMARK H PARENT
REMARK Flexibility Score: inf
ROOT
ATOM      1  C   UNL     1     146.934 149.620 142.564  1.00  0.00     0.000 C 
ENDROOT
BRANCH   1   2
ATOM      2  C   UNL     1     145.787 149.834 143.563  1.00  0.00     0.000 C 
BRANCH   2   3
ATOM      3  C   UNL     1     144.412 149.502 142.963  1.00  0.00     0.000 C 
BRANCH   3   4
ATOM      4  C   UNL     1     143.379 149.107 144.031  1.00  0.00     0.000 C 
BRANCH   4   5
ATOM      5  C   UNL     1     143.997 149.149 145.433  1.00  0.00     0.006 C 
BRANCH   5   6
ATOM      6  C   UNL     1     143.310 150.205 146.305  1.00  0.00     0.053 C 
BRANCH   6   7
ATOM      7  C   UNL     1     144.292 151.249 146.732  1.00  0.00     0.041 C 
ATOM      8  O   UNL     1     145.284 150.934 147.440  1.00  0.00    -0.550 OA
ATOM      9  O   UNL     1     144.085 152.580 146.390  1.00  0.00    -0.550 OA
ENDBRANCH   6   7
ENDBRANCH   5   6
ENDBRANCH   4   5
ENDBRANCH   3   4
ENDBRANCH   2   3
ENDBRANCH   1   2
BRANCH   1  10
ATOM     10  C   UNL     1     146.908 148.196 141.995  1.00  0.00     0.000 C 
BRANCH  10  11
ATOM     11  C   UNL     1     147.551 147.200 142.972  1.00  0.00    -0.000 C 
BRANCH  11  12
ATOM     12  C   UNL     1     146.756 145.891 143.090  1.00  0.00    -0.000 C 
BRANCH  12  13
ATOM     13  C   UNL     1     145.548 146.017 144.035  1.00  0.00    -0.000 C 
BRANCH  13  14
ATOM     14  C   UNL     1     144.230 145.590 143.368  1.00  0.00    -0.000 C 
BRANCH  14  15
ATOM     15  C   UNL     1     144.344 145.502 141.839  1.00  0.00    -0.003 C 
ATOM     16  C   UNL     1     143.363 146.454 141.160  1.00  0.00     0.004 C 
ENDBRANCH  14  15
ENDBRANCH  13  14
ENDBRANCH  12  13
ENDBRANCH  11  12
ENDBRANCH  10  11
ENDBRANCH   1  10
TORSDOF 12
ENDMDL
