MODEL 1
REMARK VINA RESULT:    -5.292      0.000      0.000
REMARK INTER + INTRA:         -11.335
REMARK INTER:                  -9.932
REMARK INTRA:                  -1.403
REMARK UNBOUND:                -1.403
REMARK SMILES CCCCCCCCC=CCCCCCCCC(=O)[O-]
REMARK SMILES IDX 10 1 9 2 11 3 12 4 13 5 14 6 15 7 16 8 17 9 18 10 19 11
REMARK SMILES IDX 20 12 8 13 7 14 6 15 5 16 4 17 3 18 2 19 1 20
REMARK H PARENT
REMARK Flexibility Score: inf
ROOT
ATOM      1  C   UNL     1      24.663 -11.648  28.011  1.00  0.00    -0.031 C 
ATOM      2  C   UNL     1      26.001 -11.617  28.101  1.00  0.00    -0.031 C 
ENDROOT
BRANCH   1   3
ATOM      3  C   UNL     1      23.808 -10.576  28.627  1.00  0.00     0.027 C 
BRANCH   3   4
ATOM      4  C   UNL     1      22.316 -10.901  28.471  1.00  0.00     0.004 C 
BRANCH   4   5
ATOM      5  C   UNL     1      21.573  -9.886  27.584  1.00  0.00     0.000 C 
BRANCH   5   6
ATOM      6  C   UNL     1      21.661  -8.422  28.059  1.00  0.00     0.000 C 
BRANCH   6   7
ATOM      7  C   UNL     1      20.759  -8.066  29.258  1.00  0.00     0.000 C 
BRANCH   7   8
ATOM      8  C   UNL     1      19.435  -8.854  29.332  1.00  0.00     0.006 C 
BRANCH   8   9
ATOM      9  C   UNL     1      18.962  -9.167  30.760  1.00  0.00     0.053 C 
BRANCH   9  10
ATOM     10  C   UNL     1      19.011 -10.634  31.057  1.00  0.00     0.041 C 
ATOM     11  O   UNL     1      18.892 -11.046  32.241  1.00  0.00    -0.550 OA
ATOM     12  O   UNL     1      19.155 -11.548  30.022  1.00  0.00    -0.550 OA
ENDBRANCH   9  10
ENDBRANCH   8   9
ENDBRANCH   7   8
ENDBRANCH   6   7
ENDBRANCH   5   6
ENDBRANCH   4   5
ENDBRANCH   3   4
ENDBRANCH   1   3
BRANCH   2  13
ATOM     13  C   UNL     1      26.858 -12.688  27.484  1.00  0.00     0.027 C 
BRANCH  13  14
ATOM     14  C   UNL     1      27.651 -12.141  26.288  1.00  0.00     0.004 C 
BRANCH  14  15
ATOM     15  C   UNL     1      26.963 -12.416  24.939  1.00  0.00     0.000 C 
BRANCH  15  16
ATOM     16  C   UNL     1      27.303 -13.798  24.342  1.00  0.00     0.000 C 
BRANCH  16  17
ATOM     17  C   UNL     1      26.048 -14.640  24.071  1.00  0.00    -0.000 C 
BRANCH  17  18
ATOM     18  C   UNL     1      25.621 -15.413  25.324  1.00  0.00    -0.000 C 
BRANCH  18  19
ATOM     19  C   UNL     1      24.341 -14.824  25.926  1.00  0.00    -0.003 C 
ATOM     20  C   UNL     1      23.255 -15.887  26.064  1.00  0.00     0.004 C 
ENDBRANCH  18  19
ENDBRANCH  17  18
ENDBRANCH  16  17
ENDBRANCH  15  16
ENDBRANCH  14  15
ENDBRANCH  13  14
ENDBRANCH   2  13
TORSDOF 15
ENDMDL
MODEL 2
REMARK VINA RESULT:    -5.220      1.328      2.779
REMARK INTER + INTRA:         -11.200
REMARK INTER:                  -9.423
REMARK INTRA:                  -1.777
REMARK UNBOUND:                -1.403
REMARK SMILES CCCCCCCCC=CCCCCCCCC(=O)[O-]
REMARK SMILES IDX 10 1 9 2 11 3 12 4 13 5 14 6 15 7 16 8 17 9 18 10 19 11
REMARK SMILES IDX 20 12 8 13 7 14 6 15 5 16 4 17 3 18 2 19 1 20
REMARK H PARENT
REMARK Flexibility Score: inf
ROOT
ATOM      1  C   UNL     1      23.587 -11.891  27.977  1.00  0.00    -0.031 C 
ATOM      2  C   UNL     1      24.496 -12.085  27.009  1.00  0.00    -0.031 C 
ENDROOT
BRANCH   1   3
ATOM      3  C   UNL     1      23.122 -10.513  28.354  1.00  0.00     0.027 C 
BRANCH   3   4
ATOM      4  C   UNL     1      22.376  -9.843  27.191  1.00  0.00     0.004 C 
BRANCH   4   5
ATOM      5  C   UNL     1      21.641  -8.558  27.614  1.00  0.00     0.000 C 
BRANCH   5   6
ATOM      6  C   UNL     1      20.108  -8.606  27.456  1.00  0.00     0.000 C 
BRANCH   6   7
ATOM      7  C   UNL     1      19.311  -8.493  28.771  1.00  0.00     0.000 C 
BRANCH   7   8
ATOM      8  C   UNL     1      20.138  -8.709  30.054  1.00  0.00     0.006 C 
BRANCH   8   9
ATOM      9  C   UNL     1      19.448  -9.582  31.114  1.00  0.00     0.053 C 
BRANCH   9  10
ATOM     10  C   UNL     1      19.265 -10.993  30.644  1.00  0.00     0.041 C 
ATOM     11  O   UNL     1      18.186 -11.601  30.867  1.00  0.00    -0.550 OA
ATOM     12  O   UNL     1      20.275 -11.624  29.930  1.00  0.00    -0.550 OA
ENDBRANCH   9  10
ENDBRANCH   8   9
ENDBRANCH   7   8
ENDBRANCH   6   7
ENDBRANCH   5   6
ENDBRANCH   4   5
ENDBRANCH   3   4
ENDBRANCH   1   3
BRANCH   2  13
ATOM     13  C   UNL     1      24.962 -13.463  26.629  1.00  0.00     0.027 C 
BRANCH  13  14
ATOM     14  C   UNL     1      25.273 -13.548  25.128  1.00  0.00     0.004 C 
BRANCH  14  15
ATOM     15  C   UNL     1      26.780 -13.657  24.835  1.00  0.00     0.000 C 
BRANCH  15  16
ATOM     16  C   UNL     1      27.486 -12.290  24.711  1.00  0.00     0.000 C 
BRANCH  16  17
ATOM     17  C   UNL     1      28.593 -12.111  25.760  1.00  0.00    -0.000 C 
BRANCH  17  18
ATOM     18  C   UNL     1      28.114 -11.236  26.924  1.00  0.00    -0.000 C 
BRANCH  18  19
ATOM     19  C   UNL     1      28.046 -12.042  28.226  1.00  0.00    -0.003 C 
ATOM     20  C   UNL     1      27.199 -11.325  29.275  1.00  0.00     0.004 C 
ENDBRANCH  18  19
ENDBRANCH  17  18
ENDBRANCH  16  17
ENDBRANCH  15  16
ENDBRANCH  14  15
ENDBRANCH  13  14
ENDBRANCH   2  13
TORSDOF 15
ENDMDL
MODEL 3
REMARK VINA RESULT:    -5.202      1.449      2.788
REMARK INTER + INTRA:         -11.167
REMARK INTER:                  -9.392
REMARK INTRA:                  -1.775
REMARK UNBOUND:                -1.403
REMARK SMILES CCCCCCCCC=CCCCCCCCC(=O)[O-]
REMARK SMILES IDX 10 1 9 2 11 3 12 4 13 5 14 6 15 7 16 8 17 9 18 10 19 11
REMARK SMILES IDX 20 12 8 13 7 14 6 15 5 16 4 17 3 18 2 19 1 20
REMARK H PARENT
REMARK Flexibility Score: inf
ROOT
ATOM      1  C   UNL     1      22.449  -9.424  27.839  1.00  0.00    -0.031 C 
ATOM      2  C   UNL     1      23.065 -10.607  27.987  1.00  0.00    -0.031 C 
ENDROOT
BRANCH   1   3
ATOM      3  C   UNL     1      21.240  -9.271  26.959  1.00  0.00     0.027 C 
BRANCH   3   4
ATOM      4  C   UNL     1      20.069  -8.646  27.730  1.00  0.00     0.004 C 
BRANCH   4   5
ATOM      5  C   UNL     1      20.460  -8.198  29.150  1.00  0.00     0.000 C 
BRANCH   5   6
ATOM      6  C   UNL     1      19.763  -8.968  30.289  1.00  0.00     0.000 C 
BRANCH   6   7
ATOM      7  C   UNL     1      19.227 -10.362  29.906  1.00  0.00     0.000 C 
BRANCH   7   8
ATOM      8  C   UNL     1      20.250 -11.509  30.028  1.00  0.00     0.006 C 
BRANCH   8   9
ATOM      9  C   UNL     1      21.201 -11.386  31.230  1.00  0.00     0.053 C 
BRANCH   9  10
ATOM     10  C   UNL     1      20.618 -11.994  32.469  1.00  0.00     0.041 C 
ATOM     11  O   UNL     1      20.700 -13.236  32.664  1.00  0.00    -0.550 OA
ATOM     12  O   UNL     1      20.015 -11.186  33.423  1.00  0.00    -0.550 OA
ENDBRANCH   9  10
ENDBRANCH   8   9
ENDBRANCH   7   8
ENDBRANCH   6   7
ENDBRANCH   5   6
ENDBRANCH   4   5
ENDBRANCH   3   4
ENDBRANCH   1   3
BRANCH   2  13
ATOM     13  C   UNL     1      24.273 -10.761  28.869  1.00  0.00     0.027 C 
BRANCH  13  14
ATOM     14  C   UNL     1      25.362 -11.592  28.175  1.00  0.00     0.004 C 
BRANCH  14  15
ATOM     15  C   UNL     1      24.799 -12.528  27.090  1.00  0.00     0.000 C 
BRANCH  15  16
ATOM     16  C   UNL     1      25.442 -12.323  25.702  1.00  0.00     0.000 C 
BRANCH  16  17
ATOM     17  C   UNL     1      26.373 -13.482  25.316  1.00  0.00    -0.000 C 
BRANCH  17  18
ATOM     18  C   UNL     1      25.633 -14.524  24.469  1.00  0.00    -0.000 C 
BRANCH  18  19
ATOM     19  C   UNL     1      25.243 -15.743  25.313  1.00  0.00    -0.003 C 
ATOM     20  C   UNL     1      23.796 -15.646  25.786  1.00  0.00     0.004 C 
ENDBRANCH  18  19
ENDBRANCH  17  18
ENDBRANCH  16  17
ENDBRANCH  15  16
ENDBRANCH  14  15
ENDBRANCH  13  14
ENDBRANCH   2  13
TORSDOF 15
ENDMDL
MODEL 4
REMARK VINA RESULT:    -5.145      6.102      9.358
REMARK INTER + INTRA:         -11.059
REMARK INTER:                  -9.014
REMARK INTRA:                  -2.045
REMARK UNBOUND:                -1.403
REMARK SMILES CCCCCCCCC=CCCCCCCCC(=O)[O-]
REMARK SMILES IDX 10 1 9 2 11 3 12 4 13 5 14 6 15 7 16 8 17 9 18 10 19 11
REMARK SMILES IDX 20 12 8 13 7 14 6 15 5 16 4 17 3 18 2 19 1 20
REMARK H PARENT
REMARK Flexibility Score: inf
ROOT
ATOM      1  C   UNL     1      27.847 -18.605  22.287  1.00  0.00    -0.031 C 
ATOM      2  C   UNL     1      29.031 -18.558  22.916  1.00  0.00    -0.031 C 
ENDROOT
BRANCH   1   3
ATOM      3  C   UNL     1      27.261 -17.391  21.622  1.00  0.00     0.027 C 
BRANCH   3   4
ATOM      4  C   UNL     1      27.716 -16.103  22.322  1.00  0.00     0.004 C 
BRANCH   4   5
ATOM      5  C   UNL     1      26.598 -15.447  23.151  1.00  0.00     0.000 C 
BRANCH   5   6
ATOM      6  C   UNL     1      26.496 -15.939  24.609  1.00  0.00     0.000 C 
BRANCH   6   7
ATOM      7  C   UNL     1      25.316 -15.360  25.415  1.00  0.00     0.000 C 
BRANCH   7   8
ATOM      8  C   UNL     1      24.928 -13.912  25.053  1.00  0.00     0.006 C 
BRANCH   8   9
ATOM      9  C   UNL     1      25.342 -12.864  26.099  1.00  0.00     0.053 C 
BRANCH   9  10
ATOM     10  C   UNL     1      26.738 -12.371  25.874  1.00  0.00     0.041 C 
ATOM     11  O   UNL     1      27.452 -12.022  26.851  1.00  0.00    -0.550 OA
ATOM     12  O   UNL     1      27.262 -12.328  24.589  1.00  0.00    -0.550 OA
ENDBRANCH   9  10
ENDBRANCH   8   9
ENDBRANCH   7   8
ENDBRANCH   6   7
ENDBRANCH   5   6
ENDBRANCH   4   5
ENDBRANCH   3   4
ENDBRANCH   1   3
BRANCH   2  13
ATOM     13  C   UNL     1      29.620 -19.772  23.580  1.00  0.00     0.027 C 
BRANCH  13  14
ATOM     14  C   UNL     1      29.400 -21.030  22.729  1.00  0.00     0.004 C 
BRANCH  14  15
ATOM     15  C   UNL     1      30.621 -21.385  21.861  1.00  0.00     0.000 C 
BRANCH  15  16
ATOM     16  C   UNL     1      30.347 -21.304  20.345  1.00  0.00     0.000 C 
BRANCH  16  17
ATOM     17  C   UNL     1      30.878 -20.001  19.728  1.00  0.00    -0.000 C 
BRANCH  17  18
ATOM     18  C   UNL     1      29.732 -19.144  19.179  1.00  0.00    -0.000 C 
BRANCH  18  19
ATOM     19  C   UNL     1      28.492 -19.999  18.892  1.00  0.00    -0.003 C 
ATOM     20  C   UNL     1      27.482 -19.238  18.038  1.00  0.00     0.004 C 
ENDBRANCH  18  19
ENDBRANCH  17  18
ENDBRANCH  16  17
ENDBRANCH  15  16
ENDBRANCH  14  15
ENDBRANCH  13  14
ENDBRANCH   2  13
TORSDOF 15
ENDMDL
MODEL 5
REMARK VINA RESULT:    -5.135      1.349      3.044
REMARK INTER + INTRA:         -11.040
REMARK INTER:                  -9.404
REMARK INTRA:                  -1.636
REMARK UNBOUND:                -1.403
REMARK SMILES CCCCCCCCC=CCCCCCCCC(=O)[O-]
REMARK SMILES IDX 10 1 9 2 11 3 12 4 13 5 14 6 15 7 16 8 17 9 18 10 19 11
REMARK SMILES IDX 20 12 8 13 7 14 6 15 5 16 4 17 3 18 2 19 1 20
REMARK H PARENT
REMARK Flexibility Score: inf
ROOT
ATOM      1  C   UNL     1      24.627 -12.018  27.019  1.00  0.00    -0.031 C 
ATOM      2  C   UNL     1      24.689 -13.352  26.892  1.00  0.00    -0.031 C 
ENDROOT
BRANCH   1   3
ATOM      3  C   UNL     1      24.821 -11.345  28.350  1.00  0.00     0.027 C 
BRANCH   3   4
ATOM      4  C   UNL     1      23.596 -10.498  28.725  1.00  0.00     0.004 C 
BRANCH   4   5
ATOM      5  C   UNL     1      22.515 -10.494  27.629  1.00  0.00     0.000 C 
BRANCH   5   6
ATOM      6  C   UNL     1      22.006  -9.095  27.225  1.00  0.00     0.000 C 
BRANCH   6   7
ATOM      7  C   UNL     1      20.485  -8.994  26.990  1.00  0.00     0.000 C 
BRANCH   7   8
ATOM      8  C   UNL     1      19.686  -8.378  28.156  1.00  0.00     0.006 C 
BRANCH   8   9
ATOM      9  C   UNL     1      20.550  -7.904  29.335  1.00  0.00     0.053 C 
BRANCH   9  10
ATOM     10  C   UNL     1      20.182  -8.596  30.612  1.00  0.00     0.041 C 
ATOM     11  O   UNL     1      20.891  -8.447  31.642  1.00  0.00    -0.550 OA
ATOM     12  O   UNL     1      19.037  -9.380  30.673  1.00  0.00    -0.550 OA
ENDBRANCH   9  10
ENDBRANCH   8   9
ENDBRANCH   7   8
ENDBRANCH   6   7
ENDBRANCH   5   6
ENDBRANCH   4   5
ENDBRANCH   3   4
ENDBRANCH   1   3
BRANCH   2  13
ATOM     13  C   UNL     1      24.497 -14.027  25.563  1.00  0.00     0.027 C 
BRANCH  13  14
ATOM     14  C   UNL     1      25.079 -15.448  25.574  1.00  0.00     0.004 C 
BRANCH  14  15
ATOM     15  C   UNL     1      26.441 -15.541  24.863  1.00  0.00     0.000 C 
BRANCH  15  16
ATOM     16  C   UNL     1      26.704 -14.384  23.875  1.00  0.00     0.000 C 
BRANCH  16  17
ATOM     17  C   UNL     1      27.972 -13.594  24.230  1.00  0.00    -0.000 C 
BRANCH  17  18
ATOM     18  C   UNL     1      27.630 -12.156  24.636  1.00  0.00    -0.000 C 
BRANCH  18  19
ATOM     19  C   UNL     1      28.734 -11.554  25.513  1.00  0.00    -0.003 C 
ATOM     20  C   UNL     1      28.285 -11.445  26.968  1.00  0.00     0.004 C 
ENDBRANCH  18  19
ENDBRANCH  17  18
ENDBRANCH  16  17
ENDBRANCH  15  16
ENDBRANCH  14  15
ENDBRANCH  13  14
ENDBRANCH   2  13
TORSDOF 15
ENDMDL
MODEL 6
REMARK VINA RESULT:    -5.104      6.158      8.631
REMARK INTER + INTRA:         -10.984
REMARK INTER:                  -9.226
REMARK INTRA:                  -1.758
REMARK UNBOUND:                -1.403
REMARK SMILES CCCCCCCCC=CCCCCCCCC(=O)[O-]
REMARK SMILES IDX 10 1 9 2 11 3 12 4 13 5 14 6 15 7 16 8 17 9 18 10 19 11
REMARK SMILES IDX 20 12 8 13 7 14 6 15 5 16 4 17 3 18 2 19 1 20
REMARK H PARENT
REMARK Flexibility Score: inf
ROOT
ATOM      1  C   UNL     1      26.498 -15.997  24.579  1.00  0.00    -0.031 C 
ATOM      2  C   UNL     1      26.644 -15.530  23.330  1.00  0.00    -0.031 C 
ENDROOT
BRANCH   1   3
ATOM      3  C   UNL     1      25.585 -15.326  25.568  1.00  0.00     0.027 C 
BRANCH   3   4
ATOM      4  C   UNL     1      24.963 -14.055  24.972  1.00  0.00     0.004 C 
BRANCH   4   5
ATOM      5  C   UNL     1      25.364 -12.779  25.735  1.00  0.00     0.000 C 
BRANCH   5   6
ATOM      6  C   UNL     1      26.455 -12.980  26.806  1.00  0.00     0.000 C 
BRANCH   6   7
ATOM      7  C   UNL     1      27.643 -12.001  26.723  1.00  0.00     0.000 C 
BRANCH   7   8
ATOM      8  C   UNL     1      28.083 -11.633  25.292  1.00  0.00     0.006 C 
BRANCH   8   9
ATOM      9  C   UNL     1      28.793 -12.766  24.535  1.00  0.00     0.053 C 
BRANCH   9  10
ATOM     10  C   UNL     1      30.234 -12.449  24.276  1.00  0.00     0.041 C 
ATOM     11  O   UNL     1      30.993 -12.124  25.227  1.00  0.00    -0.550 OA
ATOM     12  O   UNL     1      30.747 -12.546  22.989  1.00  0.00    -0.550 OA
ENDBRANCH   9  10
ENDBRANCH   8   9
ENDBRANCH   7   8
ENDBRANCH   6   7
ENDBRANCH   5   6
ENDBRANCH   4   5
ENDBRANCH   3   4
ENDBRANCH   1   3
BRANCH   2  13
ATOM     13  C   UNL     1      27.556 -16.201  22.340  1.00  0.00     0.027 C 
BRANCH  13  14
ATOM     14  C   UNL     1      27.630 -17.714  22.593  1.00  0.00     0.004 C 
BRANCH  14  15
ATOM     15  C   UNL     1      27.645 -18.536  21.292  1.00  0.00     0.000 C 
BRANCH  15  16
ATOM     16  C   UNL     1      28.790 -19.569  21.227  1.00  0.00     0.000 C 
BRANCH  16  17
ATOM     17  C   UNL     1      30.155 -18.944  21.551  1.00  0.00    -0.000 C 
BRANCH  17  18
ATOM     18  C   UNL     1      30.853 -19.703  22.685  1.00  0.00    -0.000 C 
BRANCH  18  19
ATOM     19  C   UNL     1      29.927 -20.765  23.289  1.00  0.00    -0.003 C 
ATOM     20  C   UNL     1      29.426 -20.341  24.667  1.00  0.00     0.004 C 
ENDBRANCH  18  19
ENDBRANCH  17  18
ENDBRANCH  16  17
ENDBRANCH  15  16
ENDBRANCH  14  15
ENDBRANCH  13  14
ENDBRANCH   2  13
TORSDOF 15
ENDMDL
MODEL 7
REMARK VINA RESULT:    -5.099      2.957      7.635
REMARK INTER + INTRA:         -10.973
REMARK INTER:                  -9.132
REMARK INTRA:                  -1.841
REMARK UNBOUND:                -1.403
REMARK SMILES CCCCCCCCC=CCCCCCCCC(=O)[O-]
REMARK SMILES IDX 10 1 9 2 11 3 12 4 13 5 14 6 15 7 16 8 17 9 18 10 19 11
REMARK SMILES IDX 20 12 8 13 7 14 6 15 5 16 4 17 3 18 2 19 1 20
REMARK H PARENT
REMARK Flexibility Score: inf
ROOT
ATOM      1  C   UNL     1      25.968 -10.929  29.548  1.00  0.00    -0.031 C 
ATOM      2  C   UNL     1      24.972 -10.860  28.653  1.00  0.00    -0.031 C 
ENDROOT
BRANCH   1   3
ATOM      3  C   UNL     1      27.350 -11.369  29.155  1.00  0.00     0.027 C 
BRANCH   3   4
ATOM      4  C   UNL     1      27.940 -10.443  28.081  1.00  0.00     0.004 C 
BRANCH   4   5
ATOM      5  C   UNL     1      28.749 -11.204  27.015  1.00  0.00     0.000 C 
BRANCH   5   6
ATOM      6  C   UNL     1      28.017 -12.402  26.377  1.00  0.00     0.000 C 
BRANCH   6   7
ATOM      7  C   UNL     1      26.997 -12.038  25.280  1.00  0.00     0.000 C 
BRANCH   7   8
ATOM      8  C   UNL     1      25.568 -12.566  25.520  1.00  0.00     0.006 C 
BRANCH   8   9
ATOM      9  C   UNL     1      25.488 -13.772  26.469  1.00  0.00     0.053 C 
BRANCH   9  10
ATOM     10  C   UNL     1      25.213 -15.046  25.731  1.00  0.00     0.041 C 
ATOM     11  O   UNL     1      26.146 -15.651  25.140  1.00  0.00    -0.550 OA
ATOM     12  O   UNL     1      23.932 -15.584  25.725  1.00  0.00    -0.550 OA
ENDBRANCH   9  10
ENDBRANCH   8   9
ENDBRANCH   7   8
ENDBRANCH   6   7
ENDBRANCH   5   6
ENDBRANCH   4   5
ENDBRANCH   3   4
ENDBRANCH   1   3
BRANCH   2  13
ATOM     13  C   UNL     1      23.589 -10.419  29.044  1.00  0.00     0.027 C 
BRANCH  13  14
ATOM     14  C   UNL     1      22.607 -10.571  27.874  1.00  0.00     0.004 C 
BRANCH  14  15
ATOM     15  C   UNL     1      22.037  -9.225  27.393  1.00  0.00     0.000 C 
BRANCH  15  16
ATOM     16  C   UNL     1      20.503  -9.228  27.224  1.00  0.00     0.000 C 
BRANCH  16  17
ATOM     17  C   UNL     1      19.809  -8.266  28.200  1.00  0.00    -0.000 C 
BRANCH  17  18
ATOM     18  C   UNL     1      20.745  -7.877  29.350  1.00  0.00    -0.000 C 
BRANCH  18  19
ATOM     19  C   UNL     1      20.452  -8.710  30.603  1.00  0.00    -0.003 C 
ATOM     20  C   UNL     1      19.028  -9.260  30.580  1.00  0.00     0.004 C 
ENDBRANCH  18  19
ENDBRANCH  17  18
ENDBRANCH  16  17
ENDBRANCH  15  16
ENDBRANCH  14  15
ENDBRANCH  13  14
ENDBRANCH   2  13
TORSDOF 15
ENDMDL
MODEL 8
REMARK VINA RESULT:    -5.096      3.868      8.197
REMARK INTER + INTRA:         -10.967
REMARK INTER:                  -9.601
REMARK INTRA:                  -1.366
REMARK UNBOUND:                -1.403
REMARK SMILES CCCCCCCCC=CCCCCCCCC(=O)[O-]
REMARK SMILES IDX 10 1 9 2 11 3 12 4 13 5 14 6 15 7 16 8 17 9 18 10 19 11
REMARK SMILES IDX 20 12 8 13 7 14 6 15 5 16 4 17 3 18 2 19 1 20
REMARK H PARENT
REMARK Flexibility Score: inf
ROOT
ATOM      1  C   UNL     1      24.358 -13.948  26.541  1.00  0.00    -0.031 C 
ATOM      2  C   UNL     1      25.406 -13.157  26.815  1.00  0.00    -0.031 C 
ENDROOT
BRANCH   1   3
ATOM      3  C   UNL     1      24.505 -15.186  25.701  1.00  0.00     0.027 C 
BRANCH   3   4
ATOM      4  C   UNL     1      25.976 -15.435  25.336  1.00  0.00     0.004 C 
BRANCH   4   5
ATOM      5  C   UNL     1      26.306 -15.046  23.884  1.00  0.00     0.000 C 
BRANCH   5   6
ATOM      6  C   UNL     1      27.613 -14.246  23.707  1.00  0.00     0.000 C 
BRANCH   6   7
ATOM      7  C   UNL     1      27.575 -12.802  24.245  1.00  0.00     0.000 C 
BRANCH   7   8
ATOM      8  C   UNL     1      28.893 -12.306  24.872  1.00  0.00     0.006 C 
BRANCH   8   9
ATOM      9  C   UNL     1      28.722 -11.569  26.210  1.00  0.00     0.053 C 
BRANCH   9  10
ATOM     10  C   UNL     1      29.918 -11.733  27.097  1.00  0.00     0.041 C 
ATOM     11  O   UNL     1      29.815 -11.562  28.340  1.00  0.00    -0.550 OA
ATOM     12  O   UNL     1      31.140 -12.109  26.553  1.00  0.00    -0.550 OA
ENDBRANCH   9  10
ENDBRANCH   8   9
ENDBRANCH   7   8
ENDBRANCH   6   7
ENDBRANCH   5   6
ENDBRANCH   4   5
ENDBRANCH   3   4
ENDBRANCH   1   3
BRANCH   2  13
ATOM     13  C   UNL     1      25.261 -11.920  27.657  1.00  0.00     0.027 C 
BRANCH  13  14
ATOM     14  C   UNL     1      23.782 -11.587  27.901  1.00  0.00     0.004 C 
BRANCH  14  15
ATOM     15  C   UNL     1      23.585 -10.453  28.923  1.00  0.00     0.000 C 
BRANCH  15  16
ATOM     16  C   UNL     1      22.763  -9.266  28.379  1.00  0.00     0.000 C 
BRANCH  16  17
ATOM     17  C   UNL     1      21.901  -9.661  27.171  1.00  0.00    -0.000 C 
BRANCH  17  18
ATOM     18  C   UNL     1      20.521  -8.997  27.238  1.00  0.00    -0.000 C 
BRANCH  18  19
ATOM     19  C   UNL     1      19.943  -9.069  28.656  1.00  0.00    -0.003 C 
ATOM     20  C   UNL     1      19.570 -10.502  29.027  1.00  0.00     0.004 C 
ENDBRANCH  18  19
ENDBRANCH  17  18
ENDBRANCH  16  17
ENDBRANCH  15  16
ENDBRANCH  14  15
ENDBRANCH  13  14
ENDBRANCH   2  13
TORSDOF 15
ENDMDL
MODEL 9
REMARK VINA RESULT:    -5.052      6.182      9.101
REMARK INTER + INTRA:         -10.886
REMARK INTER:                  -8.758
REMARK INTRA:                  -2.128
REMARK UNBOUND:                -1.403
REMARK SMILES CCCCCCCCC=CCCCCCCCC(=O)[O-]
REMARK SMILES IDX 10 1 9 2 11 3 12 4 13 5 14 6 15 7 16 8 17 9 18 10 19 11
REMARK SMILES IDX 20 12 8 13 7 14 6 15 5 16 4 17 3 18 2 19 1 20
REMARK H PARENT
REMARK Flexibility Score: inf
ROOT
ATOM      1  C   UNL     1      26.931 -12.237  25.021  1.00  0.00    -0.031 C 
ATOM      2  C   UNL     1      28.084 -12.877  24.775  1.00  0.00    -0.031 C 
ENDROOT
BRANCH   1   3
ATOM      3  C   UNL     1      25.841 -12.866  25.843  1.00  0.00     0.027 C 
BRANCH   3   4
ATOM      4  C   UNL     1      25.014 -13.851  25.004  1.00  0.00     0.004 C 
BRANCH   4   5
ATOM      5  C   UNL     1      25.244 -15.319  25.406  1.00  0.00     0.000 C 
BRANCH   5   6
ATOM      6  C   UNL     1      26.374 -16.033  24.638  1.00  0.00     0.000 C 
BRANCH   6   7
ATOM      7  C   UNL     1      26.487 -15.663  23.145  1.00  0.00     0.000 C 
BRANCH   7   8
ATOM      8  C   UNL     1      27.604 -16.396  22.376  1.00  0.00     0.006 C 
BRANCH   8   9
ATOM      9  C   UNL     1      27.542 -17.929  22.477  1.00  0.00     0.053 C 
BRANCH   9  10
ATOM     10  C   UNL     1      28.905 -18.536  22.611  1.00  0.00     0.041 C 
ATOM     11  O   UNL     1      29.060 -19.615  23.241  1.00  0.00    -0.550 OA
ATOM     12  O   UNL     1      29.999 -17.928  22.009  1.00  0.00    -0.550 OA
ENDBRANCH   9  10
ENDBRANCH   8   9
ENDBRANCH   7   8
ENDBRANCH   6   7
ENDBRANCH   5   6
ENDBRANCH   4   5
ENDBRANCH   3   4
ENDBRANCH   1   3
BRANCH   2  13
ATOM     13  C   UNL     1      29.175 -12.247  23.954  1.00  0.00     0.027 C 
BRANCH  13  14
ATOM     14  C   UNL     1      29.567 -10.873  24.514  1.00  0.00     0.004 C 
BRANCH  14  15
ATOM     15  C   UNL     1      30.528 -10.968  25.712  1.00  0.00     0.000 C 
BRANCH  15  16
ATOM     16  C   UNL     1      29.888 -10.554  27.054  1.00  0.00     0.000 C 
BRANCH  16  17
ATOM     17  C   UNL     1      29.850 -11.713  28.061  1.00  0.00    -0.000 C 
BRANCH  17  18
ATOM     18  C   UNL     1      28.409 -12.046  28.465  1.00  0.00    -0.000 C 
BRANCH  18  19
ATOM     19  C   UNL     1      27.587 -10.769  28.675  1.00  0.00    -0.003 C 
ATOM     20  C   UNL     1      26.159 -11.097  29.102  1.00  0.00     0.004 C 
ENDBRANCH  18  19
ENDBRANCH  17  18
ENDBRANCH  16  17
ENDBRANCH  15  16
ENDBRANCH  14  15
ENDBRANCH  13  14
ENDBRANCH   2  13
TORSDOF 15
ENDMDL
