MODEL 1
REMARK VINA RESULT:    -5.276      0.000      0.000
REMARK INTER + INTRA:          -6.678
REMARK INTER:                  -6.355
REMARK INTRA:                  -0.323
REMARK UNBOUND:                -0.323
REMARK SMILES O=c1c(O)c(-c2ccc(O)c(O)c2)oc2cc(O)cc(O)c12
REMARK SMILES IDX 5 1 3 2 2 3 1 4 22 5 20 6 19 7 17 8 16 9 15 10 14 11 6 12
REMARK SMILES IDX 7 13 8 14 9 15 13 16 11 17 10 18 12 20 4 22 21 24 18 26
REMARK H PARENT 10 19 12 21 4 23 21 25 18 27
REMARK Flexibility Score: inf
ROOT
ATOM      1  C   UNL     1      23.682  40.419  14.859  1.00  0.00     0.180 A 
ATOM      2  C   UNL     1      24.782  40.316  13.991  1.00  0.00     0.208 A 
ATOM      3  C   UNL     1      24.798  39.291  13.031  1.00  0.00     0.238 A 
ATOM      4  O   UNL     1      25.750  39.251  12.208  1.00  0.00    -0.285 OA
ATOM      5  C   UNL     1      23.742  38.349  12.987  1.00  0.00     0.111 A 
ATOM      6  C   UNL     1      23.677  37.244  12.085  1.00  0.00     0.134 A 
ATOM      7  C   UNL     1      22.531  36.438  12.063  1.00  0.00     0.093 A 
ATOM      8  C   UNL     1      21.478  36.658  12.949  1.00  0.00     0.123 A 
ATOM      9  C   UNL     1      21.555  37.701  13.871  1.00  0.00     0.094 A 
ATOM     10  C   UNL     1      22.667  38.546  13.893  1.00  0.00     0.146 A 
ATOM     11  O   UNL     1      22.690  39.540  14.773  1.00  0.00    -0.452 OA
ENDROOT
BRANCH   1  12
ATOM     12  C   UNL     1      23.585  41.480  15.887  1.00  0.00     0.025 A 
ATOM     13  C   UNL     1      23.028  42.722  15.546  1.00  0.00     0.016 A 
ATOM     14  C   UNL     1      22.945  43.745  16.495  1.00  0.00     0.051 A 
ATOM     15  C   UNL     1      23.434  43.545  17.793  1.00  0.00     0.157 A 
ATOM     16  C   UNL     1      24.093  41.291  17.185  1.00  0.00     0.062 A 
ATOM     17  C   UNL     1      24.013  42.317  18.137  1.00  0.00     0.158 A 
BRANCH  15  18
ATOM     18  O   UNL     1      23.352  44.562  18.743  1.00  0.00    -0.504 OA
ATOM     19  H   UNL     1      24.171  45.085  19.032  1.00  0.00     0.293 HD
ENDBRANCH  15  18
BRANCH  17  20
ATOM     20  O   UNL     1      24.510  42.126  19.424  1.00  0.00    -0.504 OA
ATOM     21  H   UNL     1      24.363  42.812  20.157  1.00  0.00     0.293 HD
ENDBRANCH  17  20
ENDBRANCH   1  12
BRANCH   2  22
ATOM     22  O   UNL     1      25.851  41.209  14.101  1.00  0.00    -0.502 OA
ATOM     23  H   UNL     1      26.472  41.413  13.327  1.00  0.00     0.293 HD
ENDBRANCH   2  22
BRANCH   6  24
ATOM     24  O   UNL     1      24.710  36.879  11.217  1.00  0.00    -0.507 OA
ATOM     25  H   UNL     1      25.217  36.008  11.253  1.00  0.00     0.293 HD
ENDBRANCH   6  24
BRANCH   8  26
ATOM     26  O   UNL     1      20.362  35.825  12.909  1.00  0.00    -0.508 OA
ATOM     27  H   UNL     1      20.241  35.136  12.177  1.00  0.00     0.293 HD
ENDBRANCH   8  26
TORSDOF 6
ENDMDL
MODEL 2
REMARK VINA RESULT:    -5.211     13.055     16.377
REMARK INTER + INTRA:          -6.600
REMARK INTER:                  -6.499
REMARK INTRA:                  -0.101
REMARK UNBOUND:                -0.323
REMARK SMILES O=c1c(O)c(-c2ccc(O)c(O)c2)oc2cc(O)cc(O)c12
REMARK SMILES IDX 5 1 3 2 2 3 1 4 22 5 20 6 19 7 17 8 16 9 15 10 14 11 6 12
REMARK SMILES IDX 7 13 8 14 9 15 13 16 11 17 10 18 12 20 4 22 21 24 18 26
REMARK H PARENT 10 19 12 21 4 23 21 25 18 27
REMARK Flexibility Score: inf
ROOT
ATOM      1  C   UNL     1      13.920  42.651  25.427  1.00  0.00     0.180 A 
ATOM      2  C   UNL     1      14.975  43.508  25.784  1.00  0.00     0.208 A 
ATOM      3  C   UNL     1      15.098  43.913  27.123  1.00  0.00     0.238 A 
ATOM      4  O   UNL     1      16.087  44.619  27.450  1.00  0.00    -0.285 OA
ATOM      5  C   UNL     1      14.135  43.504  28.076  1.00  0.00     0.111 A 
ATOM      6  C   UNL     1      14.136  43.890  29.451  1.00  0.00     0.134 A 
ATOM      7  C   UNL     1      13.191  43.338  30.325  1.00  0.00     0.093 A 
ATOM      8  C   UNL     1      12.208  42.463  29.864  1.00  0.00     0.123 A 
ATOM      9  C   UNL     1      12.164  42.121  28.513  1.00  0.00     0.094 A 
ATOM     10  C   UNL     1      13.116  42.625  27.623  1.00  0.00     0.146 A 
ATOM     11  O   UNL     1      13.050  42.257  26.349  1.00  0.00    -0.452 OA
ENDROOT
BRANCH   1  12
ATOM     12  C   UNL     1      13.732  42.169  24.039  1.00  0.00     0.025 A 
ATOM     13  C   UNL     1      13.503  43.097  23.011  1.00  0.00     0.016 A 
ATOM     14  C   UNL     1      13.303  42.663  21.698  1.00  0.00     0.051 A 
ATOM     15  C   UNL     1      13.311  41.294  21.398  1.00  0.00     0.157 A 
ATOM     16  C   UNL     1      13.719  40.795  23.737  1.00  0.00     0.062 A 
ATOM     17  C   UNL     1      13.514  40.359  22.420  1.00  0.00     0.158 A 
BRANCH  15  18
ATOM     18  O   UNL     1      13.113  40.858  20.089  1.00  0.00    -0.504 OA
ATOM     19  H   UNL     1      12.595  41.413  19.417  1.00  0.00     0.293 HD
ENDBRANCH  15  18
BRANCH  17  20
ATOM     20  O   UNL     1      13.509  38.998  22.120  1.00  0.00    -0.504 OA
ATOM     21  H   UNL     1      13.810  38.305  22.796  1.00  0.00     0.293 HD
ENDBRANCH  17  20
ENDBRANCH   1  12
BRANCH   2  22
ATOM     22  O   UNL     1      15.871  43.963  24.814  1.00  0.00    -0.502 OA
ATOM     23  H   UNL     1      16.157  43.393  24.027  1.00  0.00     0.293 HD
ENDBRANCH   2  22
BRANCH   6  24
ATOM     24  O   UNL     1      15.018  44.826  30.000  1.00  0.00    -0.507 OA
ATOM     25  H   UNL     1      15.307  45.682  29.552  1.00  0.00     0.293 HD
ENDBRANCH   6  24
BRANCH   8  26
ATOM     26  O   UNL     1      11.274  41.946  30.759  1.00  0.00    -0.508 OA
ATOM     27  H   UNL     1      11.110  42.377  31.661  1.00  0.00     0.293 HD
ENDBRANCH   8  26
TORSDOF 6
ENDMDL
MODEL 3
REMARK VINA RESULT:    -5.176      1.676      7.100
REMARK INTER + INTRA:          -6.558
REMARK INTER:                  -6.282
REMARK INTRA:                  -0.276
REMARK UNBOUND:                -0.323
REMARK SMILES O=c1c(O)c(-c2ccc(O)c(O)c2)oc2cc(O)cc(O)c12
REMARK SMILES IDX 5 1 3 2 2 3 1 4 22 5 20 6 19 7 17 8 16 9 15 10 14 11 6 12
REMARK SMILES IDX 7 13 8 14 9 15 13 16 11 17 10 18 12 20 4 22 21 24 18 26
REMARK H PARENT 10 19 12 21 4 23 21 25 18 27
REMARK Flexibility Score: inf
ROOT
ATOM      1  C   UNL     1      23.720  41.309  14.846  1.00  0.00     0.180 A 
ATOM      2  C   UNL     1      22.949  42.397  14.404  1.00  0.00     0.208 A 
ATOM      3  C   UNL     1      22.622  43.413  15.316  1.00  0.00     0.238 A 
ATOM      4  O   UNL     1      21.996  44.422  14.896  1.00  0.00    -0.285 OA
ATOM      5  C   UNL     1      23.020  43.303  16.670  1.00  0.00     0.111 A 
ATOM      6  C   UNL     1      22.706  44.251  17.690  1.00  0.00     0.134 A 
ATOM      7  C   UNL     1      23.244  44.089  18.973  1.00  0.00     0.093 A 
ATOM      8  C   UNL     1      24.032  42.983  19.290  1.00  0.00     0.123 A 
ATOM      9  C   UNL     1      24.300  42.022  18.316  1.00  0.00     0.094 A 
ATOM     10  C   UNL     1      23.810  42.175  17.017  1.00  0.00     0.146 A 
ATOM     11  O   UNL     1      24.107  41.247  16.114  1.00  0.00    -0.452 OA
ENDROOT
BRANCH   1  12
ATOM     12  C   UNL     1      24.117  40.205  13.942  1.00  0.00     0.025 A 
ATOM     13  C   UNL     1      25.160  40.407  13.023  1.00  0.00     0.016 A 
ATOM     14  C   UNL     1      25.538  39.387  12.147  1.00  0.00     0.051 A 
ATOM     15  C   UNL     1      24.869  38.156  12.165  1.00  0.00     0.157 A 
ATOM     16  C   UNL     1      23.435  38.975  13.943  1.00  0.00     0.062 A 
ATOM     17  C   UNL     1      23.812  37.952  13.061  1.00  0.00     0.158 A 
BRANCH  15  18
ATOM     18  O   UNL     1      25.244  37.136  11.293  1.00  0.00    -0.504 OA
ATOM     19  H   UNL     1      24.825  36.214  11.344  1.00  0.00     0.293 HD
ENDBRANCH  15  18
BRANCH  17  20
ATOM     20  O   UNL     1      23.140  36.731  13.068  1.00  0.00    -0.504 OA
ATOM     21  H   UNL     1      23.637  35.852  12.979  1.00  0.00     0.293 HD
ENDBRANCH  17  20
ENDBRANCH   1  12
BRANCH   2  22
ATOM     22  O   UNL     1      22.500  42.450  13.082  1.00  0.00    -0.502 OA
ATOM     23  H   UNL     1      22.347  41.618  12.525  1.00  0.00     0.293 HD
ENDBRANCH   2  22
BRANCH   6  24
ATOM     24  O   UNL     1      21.856  45.346  17.506  1.00  0.00    -0.507 OA
ATOM     25  H   UNL     1      20.897  45.289  17.199  1.00  0.00     0.293 HD
ENDBRANCH   6  24
BRANCH   8  26
ATOM     26  O   UNL     1      24.536  42.847  20.581  1.00  0.00    -0.508 OA
ATOM     27  H   UNL     1      25.379  43.326  20.875  1.00  0.00     0.293 HD
ENDBRANCH   8  26
TORSDOF 6
ENDMDL
MODEL 4
REMARK VINA RESULT:    -5.158      2.466      3.091
REMARK INTER + INTRA:          -6.537
REMARK INTER:                  -6.214
REMARK INTRA:                  -0.323
REMARK UNBOUND:                -0.323
REMARK SMILES O=c1c(O)c(-c2ccc(O)c(O)c2)oc2cc(O)cc(O)c12
REMARK SMILES IDX 5 1 3 2 2 3 1 4 22 5 20 6 19 7 17 8 16 9 15 10 14 11 6 12
REMARK SMILES IDX 7 13 8 14 9 15 13 16 11 17 10 18 12 20 4 22 21 24 18 26
REMARK H PARENT 10 19 12 21 4 23 21 25 18 27
REMARK Flexibility Score: inf
ROOT
ATOM      1  C   UNL     1      23.016  39.877  15.969  1.00  0.00     0.180 A 
ATOM      2  C   UNL     1      24.086  40.748  15.702  1.00  0.00     0.208 A 
ATOM      3  C   UNL     1      24.781  40.621  14.489  1.00  0.00     0.238 A 
ATOM      4  O   UNL     1      25.688  41.451  14.223  1.00  0.00    -0.285 OA
ATOM      5  C   UNL     1      24.435  39.589  13.582  1.00  0.00     0.111 A 
ATOM      6  C   UNL     1      25.100  39.339  12.344  1.00  0.00     0.134 A 
ATOM      7  C   UNL     1      24.603  38.356  11.479  1.00  0.00     0.093 A 
ATOM      8  C   UNL     1      23.505  37.572  11.833  1.00  0.00     0.123 A 
ATOM      9  C   UNL     1      22.881  37.771  13.065  1.00  0.00     0.094 A 
ATOM     10  C   UNL     1      23.330  38.770  13.933  1.00  0.00     0.146 A 
ATOM     11  O   UNL     1      22.694  38.940  15.086  1.00  0.00    -0.452 OA
ENDROOT
BRANCH   1  12
ATOM     12  C   UNL     1      22.226  39.959  17.219  1.00  0.00     0.025 A 
ATOM     13  C   UNL     1      21.099  40.793  17.269  1.00  0.00     0.016 A 
ATOM     14  C   UNL     1      20.351  40.901  18.445  1.00  0.00     0.051 A 
ATOM     15  C   UNL     1      20.729  40.189  19.590  1.00  0.00     0.157 A 
ATOM     16  C   UNL     1      22.614  39.261  18.377  1.00  0.00     0.062 A 
ATOM     17  C   UNL     1      21.865  39.371  19.557  1.00  0.00     0.158 A 
BRANCH  15  18
ATOM     18  O   UNL     1      19.984  40.292  20.764  1.00  0.00    -0.504 OA
ATOM     19  H   UNL     1      19.939  41.158  21.289  1.00  0.00     0.293 HD
ENDBRANCH  15  18
BRANCH  17  20
ATOM     20  O   UNL     1      22.246  38.674  20.702  1.00  0.00    -0.504 OA
ATOM     21  H   UNL     1      21.696  38.711  21.553  1.00  0.00     0.293 HD
ENDBRANCH  17  20
ENDBRANCH   1  12
BRANCH   2  22
ATOM     22  O   UNL     1      24.462  41.711  16.643  1.00  0.00    -0.502 OA
ATOM     23  H   UNL     1      24.165  41.670  17.611  1.00  0.00     0.293 HD
ENDBRANCH   2  22
BRANCH   6  24
ATOM     24  O   UNL     1      26.259  40.002  11.929  1.00  0.00    -0.507 OA
ATOM     25  H   UNL     1      26.495  40.211  10.972  1.00  0.00     0.293 HD
ENDBRANCH   6  24
BRANCH   8  26
ATOM     26  O   UNL     1      23.048  36.593  10.956  1.00  0.00    -0.508 OA
ATOM     27  H   UNL     1      22.349  35.915  11.235  1.00  0.00     0.293 HD
ENDBRANCH   8  26
TORSDOF 6
ENDMDL
MODEL 5
REMARK VINA RESULT:    -5.158     12.953     16.362
REMARK INTER + INTRA:          -6.537
REMARK INTER:                  -6.237
REMARK INTRA:                  -0.300
REMARK UNBOUND:                -0.323
REMARK SMILES O=c1c(O)c(-c2ccc(O)c(O)c2)oc2cc(O)cc(O)c12
REMARK SMILES IDX 5 1 3 2 2 3 1 4 22 5 20 6 19 7 17 8 16 9 15 10 14 11 6 12
REMARK SMILES IDX 7 13 8 14 9 15 13 16 11 17 10 18 12 20 4 22 21 24 18 26
REMARK H PARENT 10 19 12 21 4 23 21 25 18 27
REMARK Flexibility Score: inf
ROOT
ATOM      1  C   UNL     1      13.894  42.527  25.248  1.00  0.00     0.180 A 
ATOM      2  C   UNL     1      14.352  43.852  25.335  1.00  0.00     0.208 A 
ATOM      3  C   UNL     1      14.097  44.584  26.506  1.00  0.00     0.238 A 
ATOM      4  O   UNL     1      14.575  45.743  26.609  1.00  0.00    -0.285 OA
ATOM      5  C   UNL     1      13.339  44.002  27.551  1.00  0.00     0.111 A 
ATOM      6  C   UNL     1      12.982  44.667  28.763  1.00  0.00     0.134 A 
ATOM      7  C   UNL     1      12.318  43.955  29.771  1.00  0.00     0.093 A 
ATOM      8  C   UNL     1      11.944  42.625  29.588  1.00  0.00     0.123 A 
ATOM      9  C   UNL     1      12.239  41.982  28.386  1.00  0.00     0.094 A 
ATOM     10  C   UNL     1      12.933  42.653  27.376  1.00  0.00     0.146 A 
ATOM     11  O   UNL     1      13.213  41.996  26.256  1.00  0.00    -0.452 OA
ENDROOT
BRANCH   1  12
ATOM     12  C   UNL     1      14.136  41.686  24.052  1.00  0.00     0.025 A 
ATOM     13  C   UNL     1      15.214  40.787  24.048  1.00  0.00     0.016 A 
ATOM     14  C   UNL     1      15.473  39.999  22.924  1.00  0.00     0.051 A 
ATOM     15  C   UNL     1      14.669  40.111  21.782  1.00  0.00     0.157 A 
ATOM     16  C   UNL     1      13.343  41.810  22.897  1.00  0.00     0.062 A 
ATOM     17  C   UNL     1      13.605  41.021  21.767  1.00  0.00     0.158 A 
BRANCH  15  18
ATOM     18  O   UNL     1      14.924  39.325  20.659  1.00  0.00    -0.504 OA
ATOM     19  H   UNL     1      15.840  38.928  20.487  1.00  0.00     0.293 HD
ENDBRANCH  15  18
BRANCH  17  20
ATOM     20  O   UNL     1      12.815  41.140  20.626  1.00  0.00    -0.504 OA
ATOM     21  H   UNL     1      12.094  41.848  20.551  1.00  0.00     0.293 HD
ENDBRANCH  17  20
ENDBRANCH   1  12
BRANCH   2  22
ATOM     22  O   UNL     1      15.032  44.434  24.262  1.00  0.00    -0.502 OA
ATOM     23  H   UNL     1      15.854  44.011  23.845  1.00  0.00     0.293 HD
ENDBRANCH   2  22
BRANCH   6  24
ATOM     24  O   UNL     1      13.229  46.020  29.017  1.00  0.00    -0.507 OA
ATOM     25  H   UNL     1      13.497  46.401  29.911  1.00  0.00     0.293 HD
ENDBRANCH   6  24
BRANCH   8  26
ATOM     26  O   UNL     1      11.270  41.955  30.606  1.00  0.00    -0.508 OA
ATOM     27  H   UNL     1      11.769  41.454  31.332  1.00  0.00     0.293 HD
ENDBRANCH   8  26
TORSDOF 6
ENDMDL
MODEL 6
REMARK VINA RESULT:    -5.062      2.098      7.325
REMARK INTER + INTRA:          -6.421
REMARK INTER:                  -6.335
REMARK INTRA:                  -0.085
REMARK UNBOUND:                -0.323
REMARK SMILES O=c1c(O)c(-c2ccc(O)c(O)c2)oc2cc(O)cc(O)c12
REMARK SMILES IDX 5 1 3 2 2 3 1 4 22 5 20 6 19 7 17 8 16 9 15 10 14 11 6 12
REMARK SMILES IDX 7 13 8 14 9 15 13 16 11 17 10 18 12 20 4 22 21 24 18 26
REMARK H PARENT 10 19 12 21 4 23 21 25 18 27
REMARK Flexibility Score: inf
ROOT
ATOM      1  C   UNL     1      23.727  41.733  16.038  1.00  0.00     0.180 A 
ATOM      2  C   UNL     1      24.065  41.676  17.400  1.00  0.00     0.208 A 
ATOM      3  C   UNL     1      23.620  42.697  18.255  1.00  0.00     0.238 A 
ATOM      4  O   UNL     1      23.862  42.601  19.486  1.00  0.00    -0.285 OA
ATOM      5  C   UNL     1      22.891  43.791  17.728  1.00  0.00     0.111 A 
ATOM      6  C   UNL     1      22.428  44.904  18.494  1.00  0.00     0.134 A 
ATOM      7  C   UNL     1      21.625  45.875  17.884  1.00  0.00     0.093 A 
ATOM      8  C   UNL     1      21.320  45.810  16.525  1.00  0.00     0.123 A 
ATOM      9  C   UNL     1      21.812  44.756  15.755  1.00  0.00     0.094 A 
ATOM     10  C   UNL     1      22.584  43.750  16.343  1.00  0.00     0.146 A 
ATOM     11  O   UNL     1      23.014  42.754  15.578  1.00  0.00    -0.452 OA
ENDROOT
BRANCH   1  12
ATOM     12  C   UNL     1      24.147  40.687  15.077  1.00  0.00     0.025 A 
ATOM     13  C   UNL     1      23.770  39.353  15.301  1.00  0.00     0.016 A 
ATOM     14  C   UNL     1      24.172  38.347  14.419  1.00  0.00     0.051 A 
ATOM     15  C   UNL     1      24.969  38.658  13.309  1.00  0.00     0.157 A 
ATOM     16  C   UNL     1      24.964  40.991  13.974  1.00  0.00     0.062 A 
ATOM     17  C   UNL     1      25.370  39.981  13.089  1.00  0.00     0.158 A 
BRANCH  15  18
ATOM     18  O   UNL     1      25.371  37.657  12.426  1.00  0.00    -0.504 OA
ATOM     19  H   UNL     1      24.890  37.501  11.547  1.00  0.00     0.293 HD
ENDBRANCH  15  18
BRANCH  17  20
ATOM     20  O   UNL     1      26.174  40.285  11.993  1.00  0.00    -0.504 OA
ATOM     21  H   UNL     1      25.913  41.003  11.326  1.00  0.00     0.293 HD
ENDBRANCH  17  20
ENDBRANCH   1  12
BRANCH   2  22
ATOM     22  O   UNL     1      24.851  40.628  17.887  1.00  0.00    -0.502 OA
ATOM     23  H   UNL     1      24.558  40.042  18.660  1.00  0.00     0.293 HD
ENDBRANCH   2  22
BRANCH   6  24
ATOM     24  O   UNL     1      22.747  45.116  19.839  1.00  0.00    -0.507 OA
ATOM     25  H   UNL     1      22.108  45.003  20.610  1.00  0.00     0.293 HD
ENDBRANCH   6  24
BRANCH   8  26
ATOM     26  O   UNL     1      20.532  46.803  15.949  1.00  0.00    -0.508 OA
ATOM     27  H   UNL     1      20.937  47.536  15.378  1.00  0.00     0.293 HD
ENDBRANCH   8  26
TORSDOF 6
ENDMDL
MODEL 7
REMARK VINA RESULT:    -5.021     13.702     15.792
REMARK INTER + INTRA:          -6.371
REMARK INTER:                  -6.079
REMARK INTRA:                  -0.292
REMARK UNBOUND:                -0.323
REMARK SMILES O=c1c(O)c(-c2ccc(O)c(O)c2)oc2cc(O)cc(O)c12
REMARK SMILES IDX 5 1 3 2 2 3 1 4 22 5 20 6 19 7 17 8 16 9 15 10 14 11 6 12
REMARK SMILES IDX 7 13 8 14 9 15 13 16 11 17 10 18 12 20 4 22 21 24 18 26
REMARK H PARENT 10 19 12 21 4 23 21 25 18 27
REMARK Flexibility Score: inf
ROOT
ATOM      1  C   UNL     1      21.962  39.363  29.437  1.00  0.00     0.180 A 
ATOM      2  C   UNL     1      22.748  40.226  30.220  1.00  0.00     0.208 A 
ATOM      3  C   UNL     1      22.565  41.613  30.096  1.00  0.00     0.238 A 
ATOM      4  O   UNL     1      23.217  42.377  30.853  1.00  0.00    -0.285 OA
ATOM      5  C   UNL     1      21.640  42.121  29.152  1.00  0.00     0.111 A 
ATOM      6  C   UNL     1      21.405  43.508  28.910  1.00  0.00     0.134 A 
ATOM      7  C   UNL     1      20.388  43.893  28.026  1.00  0.00     0.093 A 
ATOM      8  C   UNL     1      19.642  42.944  27.329  1.00  0.00     0.123 A 
ATOM      9  C   UNL     1      19.900  41.586  27.516  1.00  0.00     0.094 A 
ATOM     10  C   UNL     1      20.881  41.170  28.420  1.00  0.00     0.146 A 
ATOM     11  O   UNL     1      21.079  39.867  28.584  1.00  0.00    -0.452 OA
ENDROOT
BRANCH   1  12
ATOM     12  C   UNL     1      22.087  37.889  29.522  1.00  0.00     0.025 A 
ATOM     13  C   UNL     1      21.474  37.205  30.583  1.00  0.00     0.016 A 
ATOM     14  C   UNL     1      21.595  35.818  30.694  1.00  0.00     0.051 A 
ATOM     15  C   UNL     1      22.344  35.097  29.755  1.00  0.00     0.157 A 
ATOM     16  C   UNL     1      22.855  37.165  28.593  1.00  0.00     0.062 A 
ATOM     17  C   UNL     1      22.979  35.772  28.706  1.00  0.00     0.158 A 
BRANCH  15  18
ATOM     18  O   UNL     1      22.466  33.712  29.862  1.00  0.00    -0.504 OA
ATOM     19  H   UNL     1      21.663  33.101  29.769  1.00  0.00     0.293 HD
ENDBRANCH  15  18
BRANCH  17  20
ATOM     20  O   UNL     1      23.735  35.055  27.781  1.00  0.00    -0.504 OA
ATOM     21  H   UNL     1      24.464  34.414  28.075  1.00  0.00     0.293 HD
ENDBRANCH  17  20
ENDBRANCH   1  12
BRANCH   2  22
ATOM     22  O   UNL     1      23.710  39.707  31.090  1.00  0.00    -0.502 OA
ATOM     23  H   UNL     1      23.991  40.185  31.939  1.00  0.00     0.293 HD
ENDBRANCH   2  22
BRANCH   6  24
ATOM     24  O   UNL     1      22.151  44.541  29.486  1.00  0.00    -0.507 OA
ATOM     25  H   UNL     1      22.253  44.698  30.476  1.00  0.00     0.293 HD
ENDBRANCH   6  24
BRANCH   8  26
ATOM     26  O   UNL     1      18.651  43.363  26.445  1.00  0.00    -0.508 OA
ATOM     27  H   UNL     1      18.880  43.817  25.568  1.00  0.00     0.293 HD
ENDBRANCH   8  26
TORSDOF 6
ENDMDL
MODEL 8
REMARK VINA RESULT:    -5.001     12.201     14.778
REMARK INTER + INTRA:          -6.347
REMARK INTER:                  -6.016
REMARK INTRA:                  -0.331
REMARK UNBOUND:                -0.323
REMARK SMILES O=c1c(O)c(-c2ccc(O)c(O)c2)oc2cc(O)cc(O)c12
REMARK SMILES IDX 5 1 3 2 2 3 1 4 22 5 20 6 19 7 17 8 16 9 15 10 14 11 6 12
REMARK SMILES IDX 7 13 8 14 9 15 13 16 11 17 10 18 12 20 4 22 21 24 18 26
REMARK H PARENT 10 19 12 21 4 23 21 25 18 27
REMARK Flexibility Score: inf
ROOT
ATOM      1  C   UNL     1      14.242  43.599  25.488  1.00  0.00     0.180 A 
ATOM      2  C   UNL     1      14.786  44.807  25.020  1.00  0.00     0.208 A 
ATOM      3  C   UNL     1      14.909  45.006  23.635  1.00  0.00     0.238 A 
ATOM      4  O   UNL     1      15.327  46.119  23.222  1.00  0.00    -0.285 OA
ATOM      5  C   UNL     1      14.540  43.975  22.738  1.00  0.00     0.111 A 
ATOM      6  C   UNL     1      14.665  44.051  21.318  1.00  0.00     0.134 A 
ATOM      7  C   UNL     1      14.168  43.008  20.525  1.00  0.00     0.093 A 
ATOM      8  C   UNL     1      13.611  41.867  21.100  1.00  0.00     0.123 A 
ATOM      9  C   UNL     1      13.534  41.759  22.488  1.00  0.00     0.094 A 
ATOM     10  C   UNL     1      13.985  42.798  23.306  1.00  0.00     0.146 A 
ATOM     11  O   UNL     1      13.874  42.663  24.622  1.00  0.00    -0.452 OA
ENDROOT
BRANCH   1  12
ATOM     12  C   UNL     1      14.066  43.321  26.932  1.00  0.00     0.025 A 
ATOM     13  C   UNL     1      15.069  42.629  27.628  1.00  0.00     0.016 A 
ATOM     14  C   UNL     1      14.916  42.337  28.986  1.00  0.00     0.051 A 
ATOM     15  C   UNL     1      13.750  42.718  29.662  1.00  0.00     0.157 A 
ATOM     16  C   UNL     1      12.888  43.684  27.610  1.00  0.00     0.062 A 
ATOM     17  C   UNL     1      12.732  43.389  28.972  1.00  0.00     0.158 A 
BRANCH  15  18
ATOM     18  O   UNL     1      13.593  42.431  31.018  1.00  0.00    -0.504 OA
ATOM     19  H   UNL     1      13.811  43.115  31.733  1.00  0.00     0.293 HD
ENDBRANCH  15  18
BRANCH  17  20
ATOM     20  O   UNL     1      11.569  43.755  29.645  1.00  0.00    -0.504 OA
ATOM     21  H   UNL     1      11.342  43.376  30.557  1.00  0.00     0.293 HD
ENDBRANCH  17  20
ENDBRANCH   1  12
BRANCH   2  22
ATOM     22  O   UNL     1      15.216  45.782  25.924  1.00  0.00    -0.502 OA
ATOM     23  H   UNL     1      14.795  45.900  26.838  1.00  0.00     0.293 HD
ENDBRANCH   2  22
BRANCH   6  24
ATOM     24  O   UNL     1      15.285  45.105  20.641  1.00  0.00    -0.507 OA
ATOM     25  H   UNL     1      15.584  45.970  21.066  1.00  0.00     0.293 HD
ENDBRANCH   6  24
BRANCH   8  26
ATOM     26  O   UNL     1      13.143  40.843  20.280  1.00  0.00    -0.508 OA
ATOM     27  H   UNL     1      13.723  40.047  20.044  1.00  0.00     0.293 HD
ENDBRANCH   8  26
TORSDOF 6
ENDMDL
MODEL 9
REMARK VINA RESULT:    -4.945     13.654     16.501
REMARK INTER + INTRA:          -6.280
REMARK INTER:                  -5.949
REMARK INTRA:                  -0.331
REMARK UNBOUND:                -0.323
REMARK SMILES O=c1c(O)c(-c2ccc(O)c(O)c2)oc2cc(O)cc(O)c12
REMARK SMILES IDX 5 1 3 2 2 3 1 4 22 5 20 6 19 7 17 8 16 9 15 10 14 11 6 12
REMARK SMILES IDX 7 13 8 14 9 15 13 16 11 17 10 18 12 20 4 22 21 24 18 26
REMARK H PARENT 10 19 12 21 4 23 21 25 18 27
REMARK Flexibility Score: inf
ROOT
ATOM      1  C   UNL     1      14.937  44.390  27.231  1.00  0.00     0.180 A 
ATOM      2  C   UNL     1      14.695  44.579  25.860  1.00  0.00     0.208 A 
ATOM      3  C   UNL     1      15.663  45.233  25.082  1.00  0.00     0.238 A 
ATOM      4  O   UNL     1      15.474  45.331  23.842  1.00  0.00    -0.285 OA
ATOM      5  C   UNL     1      16.835  45.741  25.694  1.00  0.00     0.111 A 
ATOM      6  C   UNL     1      17.862  46.459  25.010  1.00  0.00     0.134 A 
ATOM      7  C   UNL     1      19.027  46.821  25.699  1.00  0.00     0.093 A 
ATOM      8  C   UNL     1      19.176  46.548  27.058  1.00  0.00     0.123 A 
ATOM      9  C   UNL     1      18.155  45.895  27.749  1.00  0.00     0.094 A 
ATOM     10  C   UNL     1      16.997  45.486  27.081  1.00  0.00     0.146 A 
ATOM     11  O   UNL     1      16.060  44.848  27.771  1.00  0.00    -0.452 OA
ENDROOT
BRANCH   1  12
ATOM     12  C   UNL     1      13.971  43.697  28.115  1.00  0.00     0.025 A 
ATOM     13  C   UNL     1      13.045  44.452  28.851  1.00  0.00     0.016 A 
ATOM     14  C   UNL     1      12.138  43.821  29.706  1.00  0.00     0.051 A 
ATOM     15  C   UNL     1      12.155  42.427  29.849  1.00  0.00     0.157 A 
ATOM     16  C   UNL     1      13.998  42.300  28.276  1.00  0.00     0.062 A 
ATOM     17  C   UNL     1      13.090  41.666  29.136  1.00  0.00     0.158 A 
BRANCH  15  18
ATOM     18  O   UNL     1      11.250  41.793  30.700  1.00  0.00    -0.504 OA
ATOM     19  H   UNL     1      10.285  42.096  30.768  1.00  0.00     0.293 HD
ENDBRANCH  15  18
BRANCH  17  20
ATOM     20  O   UNL     1      13.113  40.282  29.291  1.00  0.00    -0.504 OA
ATOM     21  H   UNL     1      12.605  39.823  30.039  1.00  0.00     0.293 HD
ENDBRANCH  17  20
ENDBRANCH   1  12
BRANCH   2  22
ATOM     22  O   UNL     1      13.497  44.138  25.290  1.00  0.00    -0.502 OA
ATOM     23  H   UNL     1      12.985  44.686  24.608  1.00  0.00     0.293 HD
ENDBRANCH   2  22
BRANCH   6  24
ATOM     24  O   UNL     1      17.780  46.863  23.674  1.00  0.00    -0.507 OA
ATOM     25  H   UNL     1      18.450  47.453  23.206  1.00  0.00     0.293 HD
ENDBRANCH   6  24
BRANCH   8  26
ATOM     26  O   UNL     1      20.340  46.938  27.714  1.00  0.00    -0.508 OA
ATOM     27  H   UNL     1      21.210  46.431  27.598  1.00  0.00     0.293 HD
ENDBRANCH   8  26
TORSDOF 6
ENDMDL
