MODEL 1
REMARK VINA RESULT:    -3.664      0.000      0.000
REMARK INTER + INTRA:          -9.392
REMARK INTER:                  -7.090
REMARK INTRA:                  -2.301
REMARK UNBOUND:                -2.301
REMARK SMILES CCCCCCCCCCCCCCCCCC(=O)[O-]
REMARK SMILES IDX 10 1 11 2 12 3 13 4 14 5 15 6 16 7 17 8 18 9 19 10 20 11
REMARK SMILES IDX 9 12 8 13 7 14 6 15 5 16 4 17 3 18 2 19 1 20
REMARK H PARENT
REMARK Flexibility Score: inf
ROOT
ATOM      1  C   UNL     1     -99.137  31.701 -38.498  1.00  0.00     0.000 C 
ENDROOT
BRANCH   1   2
ATOM      2  C   UNL     1     -99.866  30.356 -38.352  1.00  0.00     0.000 C 
BRANCH   2   3
ATOM      3  C   UNL     1    -101.179  30.305 -39.150  1.00  0.00     0.000 C 
BRANCH   3   4
ATOM      4  C   UNL     1    -102.413  30.092 -38.255  1.00  0.00     0.000 C 
BRANCH   4   5
ATOM      5  C   UNL     1    -103.278  31.359 -38.084  1.00  0.00     0.000 C 
BRANCH   5   6
ATOM      6  C   UNL     1    -103.577  31.661 -36.604  1.00  0.00     0.000 C 
BRANCH   6   7
ATOM      7  C   UNL     1    -104.533  32.851 -36.425  1.00  0.00     0.006 C 
BRANCH   7   8
ATOM      8  C   UNL     1    -105.276  33.212 -37.718  1.00  0.00     0.053 C 
BRANCH   8   9
ATOM      9  C   UNL     1    -106.660  32.646 -37.699  1.00  0.00     0.041 C 
ATOM     10  O   UNL     1    -107.552  33.178 -36.986  1.00  0.00    -0.550 OA
ATOM     11  O   UNL     1    -106.953  31.501 -38.427  1.00  0.00    -0.550 OA
ENDBRANCH   8   9
ENDBRANCH   7   8
ENDBRANCH   6   7
ENDBRANCH   5   6
ENDBRANCH   4   5
ENDBRANCH   3   4
ENDBRANCH   2   3
ENDBRANCH   1   2
BRANCH   1  12
ATOM     12  C   UNL     1     -99.192  32.552 -37.216  1.00  0.00     0.000 C 
BRANCH  12  13
ATOM     13  C   UNL     1     -99.865  31.813 -36.049  1.00  0.00    -0.000 C 
BRANCH  13  14
ATOM     14  C   UNL     1     -98.849  31.282 -35.023  1.00  0.00    -0.000 C 
BRANCH  14  15
ATOM     15  C   UNL     1     -99.435  30.178 -34.130  1.00  0.00    -0.000 C 
BRANCH  15  16
ATOM     16  C   UNL     1    -100.951  30.001 -34.330  1.00  0.00    -0.000 C 
BRANCH  16  17
ATOM     17  C   UNL     1    -101.763  30.441 -33.102  1.00  0.00    -0.000 C 
BRANCH  17  18
ATOM     18  C   UNL     1    -102.149  31.929 -33.152  1.00  0.00    -0.000 C 
BRANCH  18  19
ATOM     19  C   UNL     1    -103.576  32.185 -32.641  1.00  0.00    -0.003 C 
ATOM     20  C   UNL     1    -104.536  31.044 -32.976  1.00  0.00     0.004 C 
ENDBRANCH  18  19
ENDBRANCH  17  18
ENDBRANCH  16  17
ENDBRANCH  15  16
ENDBRANCH  14  15
ENDBRANCH  13  14
ENDBRANCH  12  13
ENDBRANCH   1  12
TORSDOF 16
ENDMDL
MODEL 2
REMARK VINA RESULT:    -3.578      2.749      6.215
REMARK INTER + INTRA:          -9.226
REMARK INTER:                  -7.261
REMARK INTRA:                  -1.965
REMARK UNBOUND:                -2.301
REMARK SMILES CCCCCCCCCCCCCCCCCC(=O)[O-]
REMARK SMILES IDX 10 1 11 2 12 3 13 4 14 5 15 6 16 7 17 8 18 9 19 10 20 11
REMARK SMILES IDX 9 12 8 13 7 14 6 15 5 16 4 17 3 18 2 19 1 20
REMARK H PARENT
REMARK Flexibility Score: inf
ROOT
ATOM      1  C   UNL     1    -106.685  33.238 -37.805  1.00  0.00     0.000 C 
ENDROOT
BRANCH   1   2
ATOM      2  C   UNL     1    -107.177  32.180 -36.804  1.00  0.00     0.000 C 
BRANCH   2   3
ATOM      3  C   UNL     1    -108.129  32.762 -35.747  1.00  0.00     0.000 C 
BRANCH   3   4
ATOM      4  C   UNL     1    -107.436  33.023 -34.398  1.00  0.00     0.000 C 
BRANCH   4   5
ATOM      5  C   UNL     1    -106.115  32.246 -34.222  1.00  0.00     0.000 C 
BRANCH   5   6
ATOM      6  C   UNL     1    -104.919  33.183 -33.975  1.00  0.00     0.000 C 
BRANCH   6   7
ATOM      7  C   UNL     1    -103.671  32.773 -34.772  1.00  0.00     0.006 C 
BRANCH   7   8
ATOM      8  C   UNL     1    -103.313  31.292 -34.589  1.00  0.00     0.053 C 
BRANCH   8   9
ATOM      9  C   UNL     1    -102.500  31.103 -33.348  1.00  0.00     0.041 C 
ATOM     10  O   UNL     1    -101.311  31.516 -33.301  1.00  0.00    -0.550 OA
ATOM     11  O   UNL     1    -103.037  30.426 -32.261  1.00  0.00    -0.550 OA
ENDBRANCH   8   9
ENDBRANCH   7   8
ENDBRANCH   6   7
ENDBRANCH   5   6
ENDBRANCH   4   5
ENDBRANCH   3   4
ENDBRANCH   2   3
ENDBRANCH   1   2
BRANCH   1  12
ATOM     12  C   UNL     1    -105.191  33.088 -38.145  1.00  0.00     0.000 C 
BRANCH  12  13
ATOM     13  C   UNL     1    -104.693  31.644 -37.981  1.00  0.00    -0.000 C 
BRANCH  13  14
ATOM     14  C   UNL     1    -103.487  31.330 -38.883  1.00  0.00    -0.000 C 
BRANCH  14  15
ATOM     15  C   UNL     1    -102.282  30.798 -38.092  1.00  0.00    -0.000 C 
BRANCH  15  16
ATOM     16  C   UNL     1    -101.077  30.479 -38.996  1.00  0.00    -0.000 C 
BRANCH  16  17
ATOM     17  C   UNL     1     -99.736  30.828 -38.334  1.00  0.00    -0.000 C 
BRANCH  17  18
ATOM     18  C   UNL     1     -99.829  32.069 -37.430  1.00  0.00    -0.000 C 
BRANCH  18  19
ATOM     19  C   UNL     1     -98.700  33.077 -37.696  1.00  0.00    -0.003 C 
ATOM     20  C   UNL     1     -97.965  32.808 -39.008  1.00  0.00     0.004 C 
ENDBRANCH  18  19
ENDBRANCH  17  18
ENDBRANCH  16  17
ENDBRANCH  15  16
ENDBRANCH  14  15
ENDBRANCH  13  14
ENDBRANCH  12  13
ENDBRANCH   1  12
TORSDOF 16
ENDMDL
MODEL 3
REMARK VINA RESULT:    -3.489      1.887      4.545
REMARK INTER + INTRA:          -9.054
REMARK INTER:                  -6.849
REMARK INTRA:                  -2.204
REMARK UNBOUND:                -2.301
REMARK SMILES CCCCCCCCCCCCCCCCCC(=O)[O-]
REMARK SMILES IDX 10 1 11 2 12 3 13 4 14 5 15 6 16 7 17 8 18 9 19 10 20 11
REMARK SMILES IDX 9 12 8 13 7 14 6 15 5 16 4 17 3 18 2 19 1 20
REMARK H PARENT
REMARK Flexibility Score: inf
ROOT
ATOM      1  C   UNL     1    -100.016  31.985 -36.032  1.00  0.00     0.000 C 
ENDROOT
BRANCH   1   2
ATOM      2  C   UNL     1     -99.138  31.107 -35.126  1.00  0.00     0.000 C 
BRANCH   2   3
ATOM      3  C   UNL     1     -99.919  30.507 -33.946  1.00  0.00     0.000 C 
BRANCH   3   4
ATOM      4  C   UNL     1    -101.200  31.293 -33.617  1.00  0.00     0.000 C 
BRANCH   4   5
ATOM      5  C   UNL     1    -102.478  30.428 -33.633  1.00  0.00     0.000 C 
BRANCH   5   6
ATOM      6  C   UNL     1    -103.227  30.524 -34.974  1.00  0.00     0.000 C 
BRANCH   6   7
ATOM      7  C   UNL     1    -104.606  31.187 -34.836  1.00  0.00     0.006 C 
BRANCH   7   8
ATOM      8  C   UNL     1    -104.514  32.705 -34.634  1.00  0.00     0.053 C 
BRANCH   8   9
ATOM      9  C   UNL     1    -105.142  33.096 -33.333  1.00  0.00     0.041 C 
ATOM     10  O   UNL     1    -104.464  33.079 -32.272  1.00  0.00    -0.550 OA
ATOM     11  O   UNL     1    -106.489  33.429 -33.284  1.00  0.00    -0.550 OA
ENDBRANCH   8   9
ENDBRANCH   7   8
ENDBRANCH   6   7
ENDBRANCH   5   6
ENDBRANCH   4   5
ENDBRANCH   3   4
ENDBRANCH   2   3
ENDBRANCH   1   2
BRANCH   1  12
ATOM     12  C   UNL     1     -99.357  32.285 -37.391  1.00  0.00     0.000 C 
BRANCH  12  13
ATOM     13  C   UNL     1     -99.651  31.201 -38.439  1.00  0.00    -0.000 C 
BRANCH  13  14
ATOM     14  C   UNL     1    -100.871  30.339 -38.071  1.00  0.00    -0.000 C 
BRANCH  14  15
ATOM     15  C   UNL     1    -101.868  30.202 -39.231  1.00  0.00    -0.000 C 
BRANCH  15  16
ATOM     16  C   UNL     1    -103.332  30.266 -38.761  1.00  0.00    -0.000 C 
BRANCH  16  17
ATOM     17  C   UNL     1    -103.778  31.694 -38.414  1.00  0.00    -0.000 C 
BRANCH  17  18
ATOM     18  C   UNL     1    -105.267  31.937 -38.712  1.00  0.00    -0.000 C 
BRANCH  18  19
ATOM     19  C   UNL     1    -105.802  33.211 -38.041  1.00  0.00    -0.003 C 
ATOM     20  C   UNL     1    -107.130  32.985 -37.318  1.00  0.00     0.004 C 
ENDBRANCH  18  19
ENDBRANCH  17  18
ENDBRANCH  16  17
ENDBRANCH  15  16
ENDBRANCH  14  15
ENDBRANCH  13  14
ENDBRANCH  12  13
ENDBRANCH   1  12
TORSDOF 16
ENDMDL
MODEL 4
REMARK VINA RESULT:    -3.422      2.442      5.274
REMARK INTER + INTRA:          -8.924
REMARK INTER:                  -6.906
REMARK INTRA:                  -2.018
REMARK UNBOUND:                -2.301
REMARK SMILES CCCCCCCCCCCCCCCCCC(=O)[O-]
REMARK SMILES IDX 10 1 11 2 12 3 13 4 14 5 15 6 16 7 17 8 18 9 19 10 20 11
REMARK SMILES IDX 9 12 8 13 7 14 6 15 5 16 4 17 3 18 2 19 1 20
REMARK H PARENT
REMARK Flexibility Score: inf
ROOT
ATOM      1  C   UNL     1    -103.974  31.674 -38.494  1.00  0.00     0.000 C 
ENDROOT
BRANCH   1   2
ATOM      2  C   UNL     1    -105.493  31.904 -38.454  1.00  0.00     0.000 C 
BRANCH   2   3
ATOM      3  C   UNL     1    -105.882  33.150 -37.642  1.00  0.00     0.000 C 
BRANCH   3   4
ATOM      4  C   UNL     1    -107.086  32.905 -36.716  1.00  0.00     0.000 C 
BRANCH   4   5
ATOM      5  C   UNL     1    -106.725  32.154 -35.417  1.00  0.00     0.000 C 
BRANCH   5   6
ATOM      6  C   UNL     1    -105.575  32.835 -34.654  1.00  0.00     0.000 C 
BRANCH   6   7
ATOM      7  C   UNL     1    -105.230  32.117 -33.340  1.00  0.00     0.006 C 
BRANCH   7   8
ATOM      8  C   UNL     1    -104.790  33.086 -32.235  1.00  0.00     0.053 C 
BRANCH   8   9
ATOM      9  C   UNL     1    -105.789  34.188 -32.080  1.00  0.00     0.041 C 
ATOM     10  O   UNL     1    -105.426  35.390 -32.169  1.00  0.00    -0.550 OA
ATOM     11  O   UNL     1    -107.113  33.889 -31.786  1.00  0.00    -0.550 OA
ENDBRANCH   8   9
ENDBRANCH   7   8
ENDBRANCH   6   7
ENDBRANCH   5   6
ENDBRANCH   4   5
ENDBRANCH   3   4
ENDBRANCH   2   3
ENDBRANCH   1   2
BRANCH   1  12
ATOM     12  C   UNL     1    -103.316  31.789 -37.107  1.00  0.00     0.000 C 
BRANCH  12  13
ATOM     13  C   UNL     1    -103.316  30.456 -36.343  1.00  0.00    -0.000 C 
BRANCH  13  14
ATOM     14  C   UNL     1    -102.109  30.317 -35.399  1.00  0.00    -0.000 C 
BRANCH  14  15
ATOM     15  C   UNL     1    -101.306  31.621 -35.272  1.00  0.00    -0.000 C 
BRANCH  15  16
ATOM     16  C   UNL     1     -99.806  31.418 -35.549  1.00  0.00    -0.000 C 
BRANCH  16  17
ATOM     17  C   UNL     1     -99.543  30.725 -36.895  1.00  0.00    -0.000 C 
BRANCH  17  18
ATOM     18  C   UNL     1     -99.619  31.697 -38.085  1.00  0.00    -0.000 C 
BRANCH  18  19
ATOM     19  C   UNL     1     -98.616  32.854 -37.964  1.00  0.00    -0.003 C 
ATOM     20  C   UNL     1     -97.630  32.905 -39.132  1.00  0.00     0.004 C 
ENDBRANCH  18  19
ENDBRANCH  17  18
ENDBRANCH  16  17
ENDBRANCH  15  16
ENDBRANCH  14  15
ENDBRANCH  13  14
ENDBRANCH  12  13
ENDBRANCH   1  12
TORSDOF 16
ENDMDL
MODEL 5
REMARK VINA RESULT:    -3.406      2.780      6.046
REMARK INTER + INTRA:          -8.892
REMARK INTER:                  -7.213
REMARK INTRA:                  -1.679
REMARK UNBOUND:                -2.301
REMARK SMILES CCCCCCCCCCCCCCCCCC(=O)[O-]
REMARK SMILES IDX 10 1 11 2 12 3 13 4 14 5 15 6 16 7 17 8 18 9 19 10 20 11
REMARK SMILES IDX 9 12 8 13 7 14 6 15 5 16 4 17 3 18 2 19 1 20
REMARK H PARENT
REMARK Flexibility Score: inf
ROOT
ATOM      1  C   UNL     1    -102.595  32.210 -35.435  1.00  0.00     0.000 C 
ENDROOT
BRANCH   1   2
ATOM      2  C   UNL     1    -101.717  31.847 -34.227  1.00  0.00     0.000 C 
BRANCH   2   3
ATOM      3  C   UNL     1    -102.438  32.058 -32.886  1.00  0.00     0.000 C 
BRANCH   3   4
ATOM      4  C   UNL     1    -103.401  30.910 -32.539  1.00  0.00     0.000 C 
BRANCH   4   5
ATOM      5  C   UNL     1    -104.827  31.383 -32.185  1.00  0.00     0.000 C 
BRANCH   5   6
ATOM      6  C   UNL     1    -105.402  32.336 -33.247  1.00  0.00     0.000 C 
BRANCH   6   7
ATOM      7  C   UNL     1    -105.998  33.614 -32.636  1.00  0.00     0.006 C 
BRANCH   7   8
ATOM      8  C   UNL     1    -105.127  34.193 -31.513  1.00  0.00     0.053 C 
BRANCH   8   9
ATOM      9  C   UNL     1    -105.292  35.678 -31.439  1.00  0.00     0.041 C 
ATOM     10  O   UNL     1    -106.220  36.244 -32.074  1.00  0.00    -0.550 OA
ATOM     11  O   UNL     1    -104.392  36.442 -30.710  1.00  0.00    -0.550 OA
ENDBRANCH   8   9
ENDBRANCH   7   8
ENDBRANCH   6   7
ENDBRANCH   5   6
ENDBRANCH   4   5
ENDBRANCH   3   4
ENDBRANCH   2   3
ENDBRANCH   1   2
BRANCH   1  12
ATOM     12  C   UNL     1    -102.926  30.994 -36.318  1.00  0.00     0.000 C 
BRANCH  12  13
ATOM     13  C   UNL     1    -103.164  31.380 -37.786  1.00  0.00    -0.000 C 
BRANCH  13  14
ATOM     14  C   UNL     1    -102.093  30.805 -38.729  1.00  0.00    -0.000 C 
BRANCH  14  15
ATOM     15  C   UNL     1    -100.951  30.112 -37.971  1.00  0.00    -0.000 C 
BRANCH  15  16
ATOM     16  C   UNL     1     -99.600  30.824 -38.161  1.00  0.00    -0.000 C 
BRANCH  16  17
ATOM     17  C   UNL     1     -99.371  31.938 -37.129  1.00  0.00    -0.000 C 
BRANCH  17  18
ATOM     18  C   UNL     1     -98.701  33.181 -37.741  1.00  0.00    -0.000 C 
BRANCH  18  19
ATOM     19  C   UNL     1     -97.641  32.820 -38.793  1.00  0.00    -0.003 C 
ATOM     20  C   UNL     1     -97.890  33.500 -40.140  1.00  0.00     0.004 C 
ENDBRANCH  18  19
ENDBRANCH  17  18
ENDBRANCH  16  17
ENDBRANCH  15  16
ENDBRANCH  14  15
ENDBRANCH  13  14
ENDBRANCH  12  13
ENDBRANCH   1  12
TORSDOF 16
ENDMDL
MODEL 6
REMARK VINA RESULT:    -3.366      0.928      4.206
REMARK INTER + INTRA:          -8.815
REMARK INTER:                  -6.545
REMARK INTRA:                  -2.271
REMARK UNBOUND:                -2.301
REMARK SMILES CCCCCCCCCCCCCCCCCC(=O)[O-]
REMARK SMILES IDX 10 1 11 2 12 3 13 4 14 5 15 6 16 7 17 8 18 9 19 10 20 11
REMARK SMILES IDX 9 12 8 13 7 14 6 15 5 16 4 17 3 18 2 19 1 20
REMARK H PARENT
REMARK Flexibility Score: inf
ROOT
ATOM      1  C   UNL     1    -100.828  29.904 -34.354  1.00  0.00     0.000 C 
ENDROOT
BRANCH   1   2
ATOM      2  C   UNL     1    -101.733  30.222 -33.154  1.00  0.00     0.000 C 
BRANCH   2   3
ATOM      3  C   UNL     1    -102.014  31.726 -33.005  1.00  0.00     0.000 C 
BRANCH   3   4
ATOM      4  C   UNL     1    -103.504  32.073 -33.163  1.00  0.00     0.000 C 
BRANCH   4   5
ATOM      5  C   UNL     1    -104.045  31.843 -34.590  1.00  0.00     0.000 C 
BRANCH   5   6
ATOM      6  C   UNL     1    -103.994  33.123 -35.443  1.00  0.00     0.000 C 
BRANCH   6   7
ATOM      7  C   UNL     1    -104.746  32.977 -36.775  1.00  0.00     0.006 C 
BRANCH   7   8
ATOM      8  C   UNL     1    -106.064  32.206 -36.628  1.00  0.00     0.053 C 
BRANCH   8   9
ATOM      9  C   UNL     1    -106.543  31.732 -37.964  1.00  0.00     0.041 C 
ATOM     10  O   UNL     1    -105.823  31.887 -38.985  1.00  0.00    -0.550 OA
ATOM     11  O   UNL     1    -107.804  31.166 -38.090  1.00  0.00    -0.550 OA
ENDBRANCH   8   9
ENDBRANCH   7   8
ENDBRANCH   6   7
ENDBRANCH   5   6
ENDBRANCH   4   5
ENDBRANCH   3   4
ENDBRANCH   2   3
ENDBRANCH   1   2
BRANCH   1  12
ATOM     12  C   UNL     1     -99.353  30.264 -34.101  1.00  0.00     0.000 C 
BRANCH  12  13
ATOM     13  C   UNL     1     -98.830  31.326 -35.081  1.00  0.00    -0.000 C 
BRANCH  13  14
ATOM     14  C   UNL     1     -99.926  31.846 -36.027  1.00  0.00    -0.000 C 
BRANCH  14  15
ATOM     15  C   UNL     1     -99.351  32.504 -37.290  1.00  0.00    -0.000 C 
BRANCH  15  16
ATOM     16  C   UNL     1     -99.223  31.515 -38.464  1.00  0.00    -0.000 C 
BRANCH  16  17
ATOM     17  C   UNL     1    -100.162  30.308 -38.321  1.00  0.00    -0.000 C 
BRANCH  17  18
ATOM     18  C   UNL     1    -101.214  30.243 -39.442  1.00  0.00    -0.000 C 
BRANCH  18  19
ATOM     19  C   UNL     1    -102.649  30.395 -38.912  1.00  0.00    -0.003 C 
ATOM     20  C   UNL     1    -102.794  29.934 -37.462  1.00  0.00     0.004 C 
ENDBRANCH  18  19
ENDBRANCH  17  18
ENDBRANCH  16  17
ENDBRANCH  15  16
ENDBRANCH  14  15
ENDBRANCH  13  14
ENDBRANCH  12  13
ENDBRANCH   1  12
TORSDOF 16
ENDMDL
MODEL 7
REMARK VINA RESULT:    -3.336      2.346      5.084
REMARK INTER + INTRA:          -8.758
REMARK INTER:                  -6.788
REMARK INTRA:                  -1.970
REMARK UNBOUND:                -2.301
REMARK SMILES CCCCCCCCCCCCCCCCCC(=O)[O-]
REMARK SMILES IDX 10 1 11 2 12 3 13 4 14 5 15 6 16 7 17 8 18 9 19 10 20 11
REMARK SMILES IDX 9 12 8 13 7 14 6 15 5 16 4 17 3 18 2 19 1 20
REMARK H PARENT
REMARK Flexibility Score: inf
ROOT
ATOM      1  C   UNL     1    -104.152  33.029 -35.716  1.00  0.00     0.000 C 
ENDROOT
BRANCH   1   2
ATOM      2  C   UNL     1    -104.038  32.061 -36.904  1.00  0.00     0.000 C 
BRANCH   2   3
ATOM      3  C   UNL     1    -104.897  32.491 -38.104  1.00  0.00     0.000 C 
BRANCH   3   4
ATOM      4  C   UNL     1    -106.346  31.978 -38.015  1.00  0.00     0.000 C 
BRANCH   4   5
ATOM      5  C   UNL     1    -107.361  33.062 -37.594  1.00  0.00     0.000 C 
BRANCH   5   6
ATOM      6  C   UNL     1    -108.243  32.605 -36.418  1.00  0.00     0.000 C 
BRANCH   6   7
ATOM      7  C   UNL     1    -107.681  33.038 -35.055  1.00  0.00     0.006 C 
BRANCH   7   8
ATOM      8  C   UNL     1    -107.321  31.846 -34.159  1.00  0.00     0.053 C 
BRANCH   8   9
ATOM      9  C   UNL     1    -107.258  32.272 -32.726  1.00  0.00     0.041 C 
ATOM     10  O   UNL     1    -108.240  32.852 -32.194  1.00  0.00    -0.550 OA
ATOM     11  O   UNL     1    -106.095  32.074 -31.993  1.00  0.00    -0.550 OA
ENDBRANCH   8   9
ENDBRANCH   7   8
ENDBRANCH   6   7
ENDBRANCH   5   6
ENDBRANCH   4   5
ENDBRANCH   3   4
ENDBRANCH   2   3
ENDBRANCH   1   2
BRANCH   1  12
ATOM     12  C   UNL     1    -103.534  32.464 -34.425  1.00  0.00     0.000 C 
BRANCH  12  13
ATOM     13  C   UNL     1    -103.587  30.930 -34.370  1.00  0.00    -0.000 C 
BRANCH  13  14
ATOM     14  C   UNL     1    -102.230  30.305 -34.001  1.00  0.00    -0.000 C 
BRANCH  14  15
ATOM     15  C   UNL     1    -101.061  31.285 -34.183  1.00  0.00    -0.000 C 
BRANCH  15  16
ATOM     16  C   UNL     1    -100.230  30.983 -35.443  1.00  0.00    -0.000 C 
BRANCH  16  17
ATOM     17  C   UNL     1    -100.153  32.182 -36.400  1.00  0.00    -0.000 C 
BRANCH  17  18
ATOM     18  C   UNL     1     -99.218  31.924 -37.595  1.00  0.00    -0.000 C 
BRANCH  18  19
ATOM     19  C   UNL     1     -98.510  33.200 -38.074  1.00  0.00    -0.003 C 
ATOM     20  C   UNL     1     -97.511  32.934 -39.200  1.00  0.00     0.004 C 
ENDBRANCH  18  19
ENDBRANCH  17  18
ENDBRANCH  16  17
ENDBRANCH  15  16
ENDBRANCH  14  15
ENDBRANCH  13  14
ENDBRANCH  12  13
ENDBRANCH   1  12
TORSDOF 16
ENDMDL
MODEL 8
REMARK VINA RESULT:    -3.248      2.965      5.900
REMARK INTER + INTRA:          -8.588
REMARK INTER:                  -6.099
REMARK INTRA:                  -2.489
REMARK UNBOUND:                -2.301
REMARK SMILES CCCCCCCCCCCCCCCCCC(=O)[O-]
REMARK SMILES IDX 10 1 11 2 12 3 13 4 14 5 15 6 16 7 17 8 18 9 19 10 20 11
REMARK SMILES IDX 9 12 8 13 7 14 6 15 5 16 4 17 3 18 2 19 1 20
REMARK H PARENT
REMARK Flexibility Score: inf
ROOT
ATOM      1  C   UNL     1    -105.093  32.915 -37.910  1.00  0.00     0.000 C 
ENDROOT
BRANCH   1   2
ATOM      2  C   UNL     1    -104.433  31.741 -38.650  1.00  0.00     0.000 C 
BRANCH   2   3
ATOM      3  C   UNL     1    -103.075  31.347 -38.046  1.00  0.00     0.000 C 
BRANCH   3   4
ATOM      4  C   UNL     1    -103.120  31.214 -36.514  1.00  0.00     0.000 C 
BRANCH   4   5
ATOM      5  C   UNL     1    -102.152  32.168 -35.782  1.00  0.00     0.000 C 
BRANCH   5   6
ATOM      6  C   UNL     1    -101.080  31.405 -34.983  1.00  0.00     0.000 C 
BRANCH   6   7
ATOM      7  C   UNL     1     -99.693  31.471 -35.641  1.00  0.00     0.006 C 
BRANCH   7   8
ATOM      8  C   UNL     1     -99.646  32.448 -36.823  1.00  0.00     0.053 C 
BRANCH   8   9
ATOM      9  C   UNL     1     -99.190  31.744 -38.062  1.00  0.00     0.041 C 
ATOM     10  O   UNL     1     -98.381  32.304 -38.847  1.00  0.00    -0.550 OA
ATOM     11  O   UNL     1     -99.697  30.490 -38.375  1.00  0.00    -0.550 OA
ENDBRANCH   8   9
ENDBRANCH   7   8
ENDBRANCH   6   7
ENDBRANCH   5   6
ENDBRANCH   4   5
ENDBRANCH   3   4
ENDBRANCH   2   3
ENDBRANCH   1   2
BRANCH   1  12
ATOM     12  C   UNL     1    -106.626  32.919 -38.044  1.00  0.00     0.000 C 
BRANCH  12  13
ATOM     13  C   UNL     1    -107.250  31.561 -37.690  1.00  0.00    -0.000 C 
BRANCH  13  14
ATOM     14  C   UNL     1    -108.325  31.673 -36.595  1.00  0.00    -0.000 C 
BRANCH  14  15
ATOM     15  C   UNL     1    -108.019  30.790 -35.375  1.00  0.00    -0.000 C 
BRANCH  15  16
ATOM     16  C   UNL     1    -106.539  30.370 -35.309  1.00  0.00    -0.000 C 
BRANCH  16  17
ATOM     17  C   UNL     1    -105.791  31.032 -34.142  1.00  0.00    -0.000 C 
BRANCH  17  18
ATOM     18  C   UNL     1    -105.792  32.568 -34.236  1.00  0.00    -0.000 C 
BRANCH  18  19
ATOM     19  C   UNL     1    -104.973  33.227 -33.115  1.00  0.00    -0.003 C 
ATOM     20  C   UNL     1    -104.036  32.245 -32.413  1.00  0.00     0.004 C 
ENDBRANCH  18  19
ENDBRANCH  17  18
ENDBRANCH  16  17
ENDBRANCH  15  16
ENDBRANCH  14  15
ENDBRANCH  13  14
ENDBRANCH  12  13
ENDBRANCH   1  12
TORSDOF 16
ENDMDL
MODEL 9
REMARK VINA RESULT:    -3.242      2.942      6.021
REMARK INTER + INTRA:          -8.577
REMARK INTER:                  -6.439
REMARK INTRA:                  -2.138
REMARK UNBOUND:                -2.301
REMARK SMILES CCCCCCCCCCCCCCCCCC(=O)[O-]
REMARK SMILES IDX 10 1 11 2 12 3 13 4 14 5 15 6 16 7 17 8 18 9 19 10 20 11
REMARK SMILES IDX 9 12 8 13 7 14 6 15 5 16 4 17 3 18 2 19 1 20
REMARK H PARENT
REMARK Flexibility Score: inf
ROOT
ATOM      1  C   UNL     1    -106.731  33.100 -37.440  1.00  0.00     0.000 C 
ENDROOT
BRANCH   1   2
ATOM      2  C   UNL     1    -107.453  31.782 -37.759  1.00  0.00     0.000 C 
BRANCH   2   3
ATOM      3  C   UNL     1    -107.678  30.912 -36.511  1.00  0.00     0.000 C 
BRANCH   3   4
ATOM      4  C   UNL     1    -106.555  29.883 -36.292  1.00  0.00     0.000 C 
BRANCH   4   5
ATOM      5  C   UNL     1    -105.776  30.087 -34.975  1.00  0.00     0.000 C 
BRANCH   5   6
ATOM      6  C   UNL     1    -106.278  31.311 -34.188  1.00  0.00     0.000 C 
BRANCH   6   7
ATOM      7  C   UNL     1    -105.257  32.458 -34.163  1.00  0.00     0.006 C 
BRANCH   7   8
ATOM      8  C   UNL     1    -105.687  33.613 -33.248  1.00  0.00     0.053 C 
BRANCH   8   9
ATOM      9  C   UNL     1    -104.986  33.522 -31.930  1.00  0.00     0.041 C 
ATOM     10  O   UNL     1    -103.921  32.859 -31.824  1.00  0.00    -0.550 OA
ATOM     11  O   UNL     1    -105.535  34.128 -30.808  1.00  0.00    -0.550 OA
ENDBRANCH   8   9
ENDBRANCH   7   8
ENDBRANCH   6   7
ENDBRANCH   5   6
ENDBRANCH   4   5
ENDBRANCH   3   4
ENDBRANCH   2   3
ENDBRANCH   1   2
BRANCH   1  12
ATOM     12  C   UNL     1    -105.290  33.136 -37.980  1.00  0.00     0.000 C 
BRANCH  12  13
ATOM     13  C   UNL     1    -104.945  31.894 -38.817  1.00  0.00    -0.000 C 
BRANCH  13  14
ATOM     14  C   UNL     1    -103.578  31.293 -38.445  1.00  0.00    -0.000 C 
BRANCH  14  15
ATOM     15  C   UNL     1    -103.142  31.658 -37.018  1.00  0.00    -0.000 C 
BRANCH  15  16
ATOM     16  C   UNL     1    -101.658  31.343 -36.757  1.00  0.00    -0.000 C 
BRANCH  16  17
ATOM     17  C   UNL     1    -100.808  31.404 -38.035  1.00  0.00    -0.000 C 
BRANCH  17  18
ATOM     18  C   UNL     1     -99.300  31.474 -37.739  1.00  0.00    -0.000 C 
BRANCH  18  19
ATOM     19  C   UNL     1     -98.727  32.886 -37.931  1.00  0.00    -0.003 C 
ATOM     20  C   UNL     1     -97.676  32.952 -39.039  1.00  0.00     0.004 C 
ENDBRANCH  18  19
ENDBRANCH  17  18
ENDBRANCH  16  17
ENDBRANCH  15  16
ENDBRANCH  14  15
ENDBRANCH  13  14
ENDBRANCH  12  13
ENDBRANCH   1  12
TORSDOF 16
ENDMDL
