MODEL 1
REMARK VINA RESULT:    -4.777      0.000      0.000
REMARK INTER + INTRA:         -12.298
REMARK INTER:                  -9.246
REMARK INTRA:                  -3.052
REMARK UNBOUND:                -3.052
REMARK SMILES CCCCCCCCCCCCCCCCCC(=O)[O-]
REMARK SMILES IDX 10 1 11 2 12 3 13 4 14 5 15 6 16 7 17 8 18 9 19 10 20 11
REMARK SMILES IDX 9 12 8 13 7 14 6 15 5 16 4 17 3 18 2 19 1 20
REMARK H PARENT
REMARK Flexibility Score: inf
ROOT
ATOM      1  C   UNL     1      23.928  40.563 147.550  1.00  0.00     0.000 C 
ENDROOT
BRANCH   1   2
ATOM      2  C   UNL     1      23.825  39.033 147.430  1.00  0.00     0.000 C 
BRANCH   2   3
ATOM      3  C   UNL     1      23.057  38.402 148.604  1.00  0.00     0.000 C 
BRANCH   3   4
ATOM      4  C   UNL     1      23.550  36.983 148.935  1.00  0.00     0.000 C 
BRANCH   4   5
ATOM      5  C   UNL     1      24.120  36.252 147.709  1.00  0.00     0.000 C 
BRANCH   5   6
ATOM      6  C   UNL     1      24.194  34.738 147.961  1.00  0.00     0.000 C 
BRANCH   6   7
ATOM      7  C   UNL     1      25.091  34.378 149.155  1.00  0.00     0.006 C 
BRANCH   7   8
ATOM      8  C   UNL     1      26.412  33.724 148.727  1.00  0.00     0.053 C 
BRANCH   8   9
ATOM      9  C   UNL     1      27.574  34.474 149.298  1.00  0.00     0.041 C 
ATOM     10  O   UNL     1      27.560  34.847 150.501  1.00  0.00    -0.550 OA
ATOM     11  O   UNL     1      28.652  34.805 148.487  1.00  0.00    -0.550 OA
ENDBRANCH   8   9
ENDBRANCH   7   8
ENDBRANCH   6   7
ENDBRANCH   5   6
ENDBRANCH   4   5
ENDBRANCH   3   4
ENDBRANCH   2   3
ENDBRANCH   1   2
BRANCH   1  12
ATOM     12  C   UNL     1      25.377  41.070 147.440  1.00  0.00     0.000 C 
BRANCH  12  13
ATOM     13  C   UNL     1      25.805  41.905 148.666  1.00  0.00    -0.000 C 
BRANCH  13  14
ATOM     14  C   UNL     1      24.781  41.893 149.817  1.00  0.00    -0.000 C 
BRANCH  14  15
ATOM     15  C   UNL     1      25.274  41.245 151.125  1.00  0.00    -0.000 C 
BRANCH  15  16
ATOM     16  C   UNL     1      25.379  39.710 151.087  1.00  0.00    -0.000 C 
BRANCH  16  17
ATOM     17  C   UNL     1      26.802  39.214 150.777  1.00  0.00    -0.000 C 
BRANCH  17  18
ATOM     18  C   UNL     1      26.831  38.118 149.697  1.00  0.00    -0.000 C 
BRANCH  18  19
ATOM     19  C   UNL     1      27.821  38.373 148.547  1.00  0.00    -0.003 C 
ATOM     20  C   UNL     1      27.346  37.803 147.210  1.00  0.00     0.004 C 
ENDBRANCH  18  19
ENDBRANCH  17  18
ENDBRANCH  16  17
ENDBRANCH  15  16
ENDBRANCH  14  15
ENDBRANCH  13  14
ENDBRANCH  12  13
ENDBRANCH   1  12
TORSDOF 16
ENDMDL
MODEL 2
REMARK VINA RESULT:    -4.722      1.594      2.778
REMARK INTER + INTRA:         -12.192
REMARK INTER:                  -9.461
REMARK INTRA:                  -2.730
REMARK UNBOUND:                -3.052
REMARK SMILES CCCCCCCCCCCCCCCCCC(=O)[O-]
REMARK SMILES IDX 10 1 11 2 12 3 13 4 14 5 15 6 16 7 17 8 18 9 19 10 20 11
REMARK SMILES IDX 9 12 8 13 7 14 6 15 5 16 4 17 3 18 2 19 1 20
REMARK H PARENT
REMARK Flexibility Score: inf
ROOT
ATOM      1  C   UNL     1      24.439  42.103 147.705  1.00  0.00     0.000 C 
ENDROOT
BRANCH   1   2
ATOM      2  C   UNL     1      25.552  41.205 147.139  1.00  0.00     0.000 C 
BRANCH   2   3
ATOM      3  C   UNL     1      25.297  39.713 147.407  1.00  0.00     0.000 C 
BRANCH   3   4
ATOM      4  C   UNL     1      23.826  39.418 147.743  1.00  0.00     0.000 C 
BRANCH   4   5
ATOM      5  C   UNL     1      23.660  38.672 149.077  1.00  0.00     0.000 C 
BRANCH   5   6
ATOM      6  C   UNL     1      23.245  37.212 148.841  1.00  0.00     0.000 C 
BRANCH   6   7
ATOM      7  C   UNL     1      23.633  36.703 147.445  1.00  0.00     0.006 C 
BRANCH   7   8
ATOM      8  C   UNL     1      23.359  35.204 147.264  1.00  0.00     0.053 C 
BRANCH   8   9
ATOM      9  C   UNL     1      24.392  34.395 147.983  1.00  0.00     0.041 C 
ATOM     10  O   UNL     1      25.510  34.173 147.448  1.00  0.00    -0.550 OA
ATOM     11  O   UNL     1      24.101  33.843 149.225  1.00  0.00    -0.550 OA
ENDBRANCH   8   9
ENDBRANCH   7   8
ENDBRANCH   6   7
ENDBRANCH   5   6
ENDBRANCH   4   5
ENDBRANCH   3   4
ENDBRANCH   2   3
ENDBRANCH   1   2
BRANCH   1  12
ATOM     12  C   UNL     1      24.891  42.903 148.939  1.00  0.00     0.000 C 
BRANCH  12  13
ATOM     13  C   UNL     1      24.364  42.301 150.259  1.00  0.00    -0.000 C 
BRANCH  13  14
ATOM     14  C   UNL     1      25.347  41.329 150.938  1.00  0.00    -0.000 C 
BRANCH  14  15
ATOM     15  C   UNL     1      26.831  41.549 150.588  1.00  0.00    -0.000 C 
BRANCH  15  16
ATOM     16  C   UNL     1      27.732  40.316 150.784  1.00  0.00    -0.000 C 
BRANCH  16  17
ATOM     17  C   UNL     1      26.978  38.989 150.600  1.00  0.00    -0.000 C 
BRANCH  17  18
ATOM     18  C   UNL     1      27.709  38.011 149.663  1.00  0.00    -0.000 C 
BRANCH  18  19
ATOM     19  C   UNL     1      26.933  36.721 149.344  1.00  0.00    -0.003 C 
ATOM     20  C   UNL     1      27.367  35.533 150.201  1.00  0.00     0.004 C 
ENDBRANCH  18  19
ENDBRANCH  17  18
ENDBRANCH  16  17
ENDBRANCH  15  16
ENDBRANCH  14  15
ENDBRANCH  13  14
ENDBRANCH  12  13
ENDBRANCH   1  12
TORSDOF 16
ENDMDL
MODEL 3
REMARK VINA RESULT:    -4.686      3.247      6.066
REMARK INTER + INTRA:         -12.120
REMARK INTER:                  -9.766
REMARK INTRA:                  -2.354
REMARK UNBOUND:                -3.052
REMARK SMILES CCCCCCCCCCCCCCCCCC(=O)[O-]
REMARK SMILES IDX 10 1 11 2 12 3 13 4 14 5 15 6 16 7 17 8 18 9 19 10 20 11
REMARK SMILES IDX 9 12 8 13 7 14 6 15 5 16 4 17 3 18 2 19 1 20
REMARK H PARENT
REMARK Flexibility Score: inf
ROOT
ATOM      1  C   UNL     1      24.380  34.188 147.214  1.00  0.00     0.000 C 
ENDROOT
BRANCH   1   2
ATOM      2  C   UNL     1      23.278  35.255 147.095  1.00  0.00     0.000 C 
BRANCH   2   3
ATOM      3  C   UNL     1      23.803  36.675 147.365  1.00  0.00     0.000 C 
BRANCH   3   4
ATOM      4  C   UNL     1      23.496  37.155 148.793  1.00  0.00     0.000 C 
BRANCH   4   5
ATOM      5  C   UNL     1      23.696  38.669 148.966  1.00  0.00     0.000 C 
BRANCH   5   6
ATOM      6  C   UNL     1      23.616  39.391 147.613  1.00  0.00     0.000 C 
BRANCH   6   7
ATOM      7  C   UNL     1      24.015  40.871 147.705  1.00  0.00     0.006 C 
BRANCH   7   8
ATOM      8  C   UNL     1      24.420  41.287 149.125  1.00  0.00     0.053 C 
BRANCH   8   9
ATOM      9  C   UNL     1      24.107  42.732 149.355  1.00  0.00     0.041 C 
ATOM     10  O   UNL     1      23.841  43.486 148.382  1.00  0.00    -0.550 OA
ATOM     11  O   UNL     1      24.159  43.258 150.640  1.00  0.00    -0.550 OA
ENDBRANCH   8   9
ENDBRANCH   7   8
ENDBRANCH   6   7
ENDBRANCH   5   6
ENDBRANCH   4   5
ENDBRANCH   3   4
ENDBRANCH   2   3
ENDBRANCH   1   2
BRANCH   1  12
ATOM     12  C   UNL     1      24.290  33.386 148.524  1.00  0.00     0.000 C 
BRANCH  12  13
ATOM     13  C   UNL     1      25.175  33.980 149.642  1.00  0.00    -0.000 C 
BRANCH  13  14
ATOM     14  C   UNL     1      26.640  34.207 149.223  1.00  0.00    -0.000 C 
BRANCH  14  15
ATOM     15  C   UNL     1      27.391  35.284 150.029  1.00  0.00    -0.000 C 
BRANCH  15  16
ATOM     16  C   UNL     1      27.013  36.735 149.678  1.00  0.00    -0.000 C 
BRANCH  16  17
ATOM     17  C   UNL     1      27.900  37.334 148.574  1.00  0.00    -0.000 C 
BRANCH  17  18
ATOM     18  C   UNL     1      27.087  38.022 147.462  1.00  0.00    -0.000 C 
BRANCH  18  19
ATOM     19  C   UNL     1      27.843  39.126 146.701  1.00  0.00    -0.003 C 
ATOM     20  C   UNL     1      27.685  40.507 147.337  1.00  0.00     0.004 C 
ENDBRANCH  18  19
ENDBRANCH  17  18
ENDBRANCH  16  17
ENDBRANCH  15  16
ENDBRANCH  14  15
ENDBRANCH  13  14
ENDBRANCH  12  13
ENDBRANCH   1  12
TORSDOF 16
ENDMDL
MODEL 4
REMARK VINA RESULT:    -4.666      1.472      2.347
REMARK INTER + INTRA:         -12.082
REMARK INTER:                  -9.318
REMARK INTRA:                  -2.765
REMARK UNBOUND:                -3.052
REMARK SMILES CCCCCCCCCCCCCCCCCC(=O)[O-]
REMARK SMILES IDX 10 1 11 2 12 3 13 4 14 5 15 6 16 7 17 8 18 9 19 10 20 11
REMARK SMILES IDX 9 12 8 13 7 14 6 15 5 16 4 17 3 18 2 19 1 20
REMARK H PARENT
REMARK Flexibility Score: inf
ROOT
ATOM      1  C   UNL     1      25.249  41.617 147.864  1.00  0.00     0.000 C 
ENDROOT
BRANCH   1   2
ATOM      2  C   UNL     1      23.913  40.900 147.605  1.00  0.00     0.000 C 
BRANCH   2   3
ATOM      3  C   UNL     1      24.066  39.370 147.562  1.00  0.00     0.000 C 
BRANCH   3   4
ATOM      4  C   UNL     1      23.383  38.676 148.752  1.00  0.00     0.000 C 
BRANCH   4   5
ATOM      5  C   UNL     1      23.618  37.158 148.769  1.00  0.00     0.000 C 
BRANCH   5   6
ATOM      6  C   UNL     1      23.880  36.628 147.351  1.00  0.00     0.000 C 
BRANCH   6   7
ATOM      7  C   UNL     1      23.611  35.121 147.221  1.00  0.00     0.006 C 
BRANCH   7   8
ATOM      8  C   UNL     1      24.870  34.274 147.448  1.00  0.00     0.053 C 
BRANCH   8   9
ATOM      9  C   UNL     1      24.706  33.409 148.658  1.00  0.00     0.041 C 
ATOM     10  O   UNL     1      24.282  32.229 148.541  1.00  0.00    -0.550 OA
ATOM     11  O   UNL     1      24.974  33.923 149.920  1.00  0.00    -0.550 OA
ENDBRANCH   8   9
ENDBRANCH   7   8
ENDBRANCH   6   7
ENDBRANCH   5   6
ENDBRANCH   4   5
ENDBRANCH   3   4
ENDBRANCH   2   3
ENDBRANCH   1   2
BRANCH   1  12
ATOM     12  C   UNL     1      25.188  42.564 149.075  1.00  0.00     0.000 C 
BRANCH  12  13
ATOM     13  C   UNL     1      24.931  41.813 150.399  1.00  0.00    -0.000 C 
BRANCH  13  14
ATOM     14  C   UNL     1      26.170  41.082 150.952  1.00  0.00    -0.000 C 
BRANCH  14  15
ATOM     15  C   UNL     1      26.114  39.545 150.865  1.00  0.00    -0.000 C 
BRANCH  15  16
ATOM     16  C   UNL     1      27.144  38.913 149.911  1.00  0.00    -0.000 C 
BRANCH  16  17
ATOM     17  C   UNL     1      27.156  37.376 149.976  1.00  0.00    -0.000 C 
BRANCH  17  18
ATOM     18  C   UNL     1      27.470  36.724 148.617  1.00  0.00    -0.000 C 
BRANCH  18  19
ATOM     19  C   UNL     1      27.400  37.679 147.412  1.00  0.00    -0.003 C 
ATOM     20  C   UNL     1      28.285  37.238 146.247  1.00  0.00     0.004 C 
ENDBRANCH  18  19
ENDBRANCH  17  18
ENDBRANCH  16  17
ENDBRANCH  15  16
ENDBRANCH  14  15
ENDBRANCH  13  14
ENDBRANCH  12  13
ENDBRANCH   1  12
TORSDOF 16
ENDMDL
MODEL 5
REMARK VINA RESULT:    -4.645      1.353      4.925
REMARK INTER + INTRA:         -12.041
REMARK INTER:                  -9.483
REMARK INTRA:                  -2.559
REMARK UNBOUND:                -3.052
REMARK SMILES CCCCCCCCCCCCCCCCCC(=O)[O-]
REMARK SMILES IDX 10 1 11 2 12 3 13 4 14 5 15 6 16 7 17 8 18 9 19 10 20 11
REMARK SMILES IDX 9 12 8 13 7 14 6 15 5 16 4 17 3 18 2 19 1 20
REMARK H PARENT
REMARK Flexibility Score: inf
ROOT
ATOM      1  C   UNL     1      23.202  39.250 147.597  1.00  0.00     0.000 C 
ENDROOT
BRANCH   1   2
ATOM      2  C   UNL     1      24.454  40.137 147.698  1.00  0.00     0.000 C 
BRANCH   2   3
ATOM      3  C   UNL     1      24.628  40.752 149.097  1.00  0.00     0.000 C 
BRANCH   3   4
ATOM      4  C   UNL     1      26.099  40.797 149.542  1.00  0.00     0.000 C 
BRANCH   4   5
ATOM      5  C   UNL     1      26.426  39.750 150.618  1.00  0.00     0.000 C 
BRANCH   5   6
ATOM      6  C   UNL     1      27.150  38.542 150.004  1.00  0.00     0.000 C 
BRANCH   6   7
ATOM      7  C   UNL     1      27.918  38.898 148.722  1.00  0.00     0.006 C 
BRANCH   7   8
ATOM      8  C   UNL     1      27.504  38.031 147.525  1.00  0.00     0.053 C 
BRANCH   8   9
ATOM      9  C   UNL     1      28.705  37.383 146.910  1.00  0.00     0.041 C 
ATOM     10  O   UNL     1      28.940  37.520 145.681  1.00  0.00    -0.550 OA
ATOM     11  O   UNL     1      29.538  36.587 147.686  1.00  0.00    -0.550 OA
ENDBRANCH   8   9
ENDBRANCH   7   8
ENDBRANCH   6   7
ENDBRANCH   5   6
ENDBRANCH   4   5
ENDBRANCH   3   4
ENDBRANCH   2   3
ENDBRANCH   1   2
BRANCH   1  12
ATOM     12  C   UNL     1      23.032  38.322 148.812  1.00  0.00     0.000 C 
BRANCH  12  13
ATOM     13  C   UNL     1      24.065  37.174 148.827  1.00  0.00    -0.000 C 
BRANCH  13  14
ATOM     14  C   UNL     1      24.289  36.519 147.451  1.00  0.00    -0.000 C 
BRANCH  14  15
ATOM     15  C   UNL     1      23.456  35.250 147.187  1.00  0.00    -0.000 C 
BRANCH  15  16
ATOM     16  C   UNL     1      24.277  33.955 147.051  1.00  0.00    -0.000 C 
BRANCH  16  17
ATOM     17  C   UNL     1      24.167  33.044 148.286  1.00  0.00    -0.000 C 
BRANCH  17  18
ATOM     18  C   UNL     1      25.011  33.543 149.473  1.00  0.00    -0.000 C 
BRANCH  18  19
ATOM     19  C   UNL     1      26.474  33.875 149.129  1.00  0.00    -0.003 C 
ATOM     20  C   UNL     1      27.136  34.796 150.153  1.00  0.00     0.004 C 
ENDBRANCH  18  19
ENDBRANCH  17  18
ENDBRANCH  16  17
ENDBRANCH  15  16
ENDBRANCH  14  15
ENDBRANCH  13  14
ENDBRANCH  12  13
ENDBRANCH   1  12
TORSDOF 16
ENDMDL
MODEL 6
REMARK VINA RESULT:    -4.635      2.922      5.939
REMARK INTER + INTRA:         -12.022
REMARK INTER:                  -9.300
REMARK INTRA:                  -2.722
REMARK UNBOUND:                -3.052
REMARK SMILES CCCCCCCCCCCCCCCCCC(=O)[O-]
REMARK SMILES IDX 10 1 11 2 12 3 13 4 14 5 15 6 16 7 17 8 18 9 19 10 20 11
REMARK SMILES IDX 9 12 8 13 7 14 6 15 5 16 4 17 3 18 2 19 1 20
REMARK H PARENT
REMARK Flexibility Score: inf
ROOT
ATOM      1  C   UNL     1      24.454  35.157 147.384  1.00  0.00     0.000 C 
ENDROOT
BRANCH   1   2
ATOM      2  C   UNL     1      23.732  36.514 147.419  1.00  0.00     0.000 C 
BRANCH   2   3
ATOM      3  C   UNL     1      23.380  36.957 148.849  1.00  0.00     0.000 C 
BRANCH   3   4
ATOM      4  C   UNL     1      23.697  38.439 149.102  1.00  0.00     0.000 C 
BRANCH   4   5
ATOM      5  C   UNL     1      23.649  39.285 147.819  1.00  0.00     0.000 C 
BRANCH   5   6
ATOM      6  C   UNL     1      24.280  40.666 148.049  1.00  0.00     0.000 C 
BRANCH   6   7
ATOM      7  C   UNL     1      24.540  40.961 149.534  1.00  0.00     0.006 C 
BRANCH   7   8
ATOM      8  C   UNL     1      26.006  41.310 149.820  1.00  0.00     0.053 C 
BRANCH   8   9
ATOM      9  C   UNL     1      26.117  42.707 150.344  1.00  0.00     0.041 C 
ATOM     10  O   UNL     1      25.123  43.479 150.308  1.00  0.00    -0.550 OA
ATOM     11  O   UNL     1      27.334  43.173 150.827  1.00  0.00    -0.550 OA
ENDBRANCH   8   9
ENDBRANCH   7   8
ENDBRANCH   6   7
ENDBRANCH   5   6
ENDBRANCH   4   5
ENDBRANCH   3   4
ENDBRANCH   2   3
ENDBRANCH   1   2
BRANCH   1  12
ATOM     12  C   UNL     1      24.042  34.236 148.545  1.00  0.00     0.000 C 
BRANCH  12  13
ATOM     13  C   UNL     1      25.258  33.656 149.300  1.00  0.00    -0.000 C 
BRANCH  13  14
ATOM     14  C   UNL     1      26.565  33.674 148.483  1.00  0.00    -0.000 C 
BRANCH  14  15
ATOM     15  C   UNL     1      27.778  34.294 149.203  1.00  0.00    -0.000 C 
BRANCH  15  16
ATOM     16  C   UNL     1      27.427  35.336 150.280  1.00  0.00    -0.000 C 
BRANCH  16  17
ATOM     17  C   UNL     1      27.064  36.708 149.688  1.00  0.00    -0.000 C 
BRANCH  17  18
ATOM     18  C   UNL     1      27.862  37.040 148.414  1.00  0.00    -0.000 C 
BRANCH  18  19
ATOM     19  C   UNL     1      27.080  37.832 147.351  1.00  0.00    -0.003 C 
ATOM     20  C   UNL     1      27.638  39.235 147.118  1.00  0.00     0.004 C 
ENDBRANCH  18  19
ENDBRANCH  17  18
ENDBRANCH  16  17
ENDBRANCH  15  16
ENDBRANCH  14  15
ENDBRANCH  13  14
ENDBRANCH  12  13
ENDBRANCH   1  12
TORSDOF 16
ENDMDL
MODEL 7
REMARK VINA RESULT:    -4.612      1.864      3.476
REMARK INTER + INTRA:         -11.977
REMARK INTER:                  -9.278
REMARK INTRA:                  -2.699
REMARK UNBOUND:                -3.052
REMARK SMILES CCCCCCCCCCCCCCCCCC(=O)[O-]
REMARK SMILES IDX 10 1 11 2 12 3 13 4 14 5 15 6 16 7 17 8 18 9 19 10 20 11
REMARK SMILES IDX 9 12 8 13 7 14 6 15 5 16 4 17 3 18 2 19 1 20
REMARK H PARENT
REMARK Flexibility Score: inf
ROOT
ATOM      1  C   UNL     1      25.802  40.887 150.108  1.00  0.00     0.000 C 
ENDROOT
BRANCH   1   2
ATOM      2  C   UNL     1      24.428  40.398 149.622  1.00  0.00     0.000 C 
BRANCH   2   3
ATOM      3  C   UNL     1      23.957  39.135 150.363  1.00  0.00     0.000 C 
BRANCH   3   4
ATOM      4  C   UNL     1      23.047  38.248 149.498  1.00  0.00     0.000 C 
BRANCH   4   5
ATOM      5  C   UNL     1      23.249  38.481 147.992  1.00  0.00     0.000 C 
BRANCH   5   6
ATOM      6  C   UNL     1      24.063  37.338 147.365  1.00  0.00     0.000 C 
BRANCH   6   7
ATOM      7  C   UNL     1      24.033  36.056 148.210  1.00  0.00     0.006 C 
BRANCH   7   8
ATOM      8  C   UNL     1      23.904  34.788 147.355  1.00  0.00     0.053 C 
BRANCH   8   9
ATOM      9  C   UNL     1      23.976  33.567 148.218  1.00  0.00     0.041 C 
ATOM     10  O   UNL     1      23.976  32.421 147.696  1.00  0.00    -0.550 OA
ATOM     11  O   UNL     1      23.993  33.695 149.601  1.00  0.00    -0.550 OA
ENDBRANCH   8   9
ENDBRANCH   7   8
ENDBRANCH   6   7
ENDBRANCH   5   6
ENDBRANCH   4   5
ENDBRANCH   3   4
ENDBRANCH   2   3
ENDBRANCH   1   2
BRANCH   1  12
ATOM     12  C   UNL     1      26.881  40.808 149.014  1.00  0.00     0.000 C 
BRANCH  12  13
ATOM     13  C   UNL     1      26.305  40.388 147.645  1.00  0.00    -0.000 C 
BRANCH  13  14
ATOM     14  C   UNL     1      27.292  39.592 146.770  1.00  0.00    -0.000 C 
BRANCH  14  15
ATOM     15  C   UNL     1      28.269  38.687 147.544  1.00  0.00    -0.000 C 
BRANCH  15  16
ATOM     16  C   UNL     1      27.729  37.283 147.871  1.00  0.00    -0.000 C 
BRANCH  16  17
ATOM     17  C   UNL     1      27.263  37.147 149.331  1.00  0.00    -0.000 C 
BRANCH  17  18
ATOM     18  C   UNL     1      27.316  35.695 149.841  1.00  0.00    -0.000 C 
BRANCH  18  19
ATOM     19  C   UNL     1      28.211  34.754 149.015  1.00  0.00    -0.003 C 
ATOM     20  C   UNL     1      27.452  33.559 148.440  1.00  0.00     0.004 C 
ENDBRANCH  18  19
ENDBRANCH  17  18
ENDBRANCH  16  17
ENDBRANCH  15  16
ENDBRANCH  14  15
ENDBRANCH  13  14
ENDBRANCH  12  13
ENDBRANCH   1  12
TORSDOF 16
ENDMDL
MODEL 8
REMARK VINA RESULT:    -4.609      3.161      6.055
REMARK INTER + INTRA:         -11.971
REMARK INTER:                  -9.396
REMARK INTRA:                  -2.575
REMARK UNBOUND:                -3.052
REMARK SMILES CCCCCCCCCCCCCCCCCC(=O)[O-]
REMARK SMILES IDX 10 1 11 2 12 3 13 4 14 5 15 6 16 7 17 8 18 9 19 10 20 11
REMARK SMILES IDX 9 12 8 13 7 14 6 15 5 16 4 17 3 18 2 19 1 20
REMARK H PARENT
REMARK Flexibility Score: inf
ROOT
ATOM      1  C   UNL     1      24.063  34.295 148.571  1.00  0.00     0.000 C 
ENDROOT
BRANCH   1   2
ATOM      2  C   UNL     1      23.716  35.014 147.257  1.00  0.00     0.000 C 
BRANCH   2   3
ATOM      3  C   UNL     1      23.618  36.540 147.429  1.00  0.00     0.000 C 
BRANCH   3   4
ATOM      4  C   UNL     1      23.710  36.974 148.901  1.00  0.00     0.000 C 
BRANCH   4   5
ATOM      5  C   UNL     1      23.486  38.482 149.090  1.00  0.00     0.000 C 
BRANCH   5   6
ATOM      6  C   UNL     1      23.303  39.183 147.736  1.00  0.00     0.000 C 
BRANCH   6   7
ATOM      7  C   UNL     1      24.000  40.550 147.676  1.00  0.00     0.006 C 
BRANCH   7   8
ATOM      8  C   UNL     1      24.425  41.059 149.060  1.00  0.00     0.053 C 
BRANCH   8   9
ATOM      9  C   UNL     1      24.108  42.514 149.201  1.00  0.00     0.041 C 
ATOM     10  O   UNL     1      23.858  43.002 150.335  1.00  0.00    -0.550 OA
ATOM     11  O   UNL     1      24.041  43.323 148.073  1.00  0.00    -0.550 OA
ENDBRANCH   8   9
ENDBRANCH   7   8
ENDBRANCH   6   7
ENDBRANCH   5   6
ENDBRANCH   4   5
ENDBRANCH   3   4
ENDBRANCH   2   3
ENDBRANCH   1   2
BRANCH   1  12
ATOM     12  C   UNL     1      25.296  33.384 148.441  1.00  0.00     0.000 C 
BRANCH  12  13
ATOM     13  C   UNL     1      26.566  34.019 149.050  1.00  0.00    -0.000 C 
BRANCH  13  14
ATOM     14  C   UNL     1      27.634  34.401 148.008  1.00  0.00    -0.000 C 
BRANCH  14  15
ATOM     15  C   UNL     1      27.375  35.723 147.261  1.00  0.00    -0.000 C 
BRANCH  15  16
ATOM     16  C   UNL     1      27.245  36.962 148.165  1.00  0.00    -0.000 C 
BRANCH  16  17
ATOM     17  C   UNL     1      26.920  38.244 147.380  1.00  0.00    -0.000 C 
BRANCH  17  18
ATOM     18  C   UNL     1      27.636  39.486 147.942  1.00  0.00    -0.000 C 
BRANCH  18  19
ATOM     19  C   UNL     1      28.313  39.276 149.308  1.00  0.00    -0.003 C 
ATOM     20  C   UNL     1      27.381  39.553 150.487  1.00  0.00     0.004 C 
ENDBRANCH  18  19
ENDBRANCH  17  18
ENDBRANCH  16  17
ENDBRANCH  15  16
ENDBRANCH  14  15
ENDBRANCH  13  14
ENDBRANCH  12  13
ENDBRANCH   1  12
TORSDOF 16
ENDMDL
MODEL 9
REMARK VINA RESULT:    -4.541      2.132      3.337
REMARK INTER + INTRA:         -11.841
REMARK INTER:                  -8.995
REMARK INTRA:                  -2.846
REMARK UNBOUND:                -3.052
REMARK SMILES CCCCCCCCCCCCCCCCCC(=O)[O-]
REMARK SMILES IDX 10 1 11 2 12 3 13 4 14 5 15 6 16 7 17 8 18 9 19 10 20 11
REMARK SMILES IDX 9 12 8 13 7 14 6 15 5 16 4 17 3 18 2 19 1 20
REMARK H PARENT
REMARK Flexibility Score: inf
ROOT
ATOM      1  C   UNL     1      24.271  37.772 147.400  1.00  0.00     0.000 C 
ENDROOT
BRANCH   1   2
ATOM      2  C   UNL     1      25.604  37.006 147.377  1.00  0.00     0.000 C 
BRANCH   2   3
ATOM      3  C   UNL     1      26.807  37.909 147.699  1.00  0.00     0.000 C 
BRANCH   3   4
ATOM      4  C   UNL     1      27.757  37.279 148.730  1.00  0.00     0.000 C 
BRANCH   4   5
ATOM      5  C   UNL     1      27.011  36.521 149.839  1.00  0.00     0.000 C 
BRANCH   5   6
ATOM      6  C   UNL     1      27.543  35.086 149.976  1.00  0.00     0.000 C 
BRANCH   6   7
ATOM      7  C   UNL     1      26.686  34.061 149.218  1.00  0.00     0.006 C 
BRANCH   7   8
ATOM      8  C   UNL     1      25.205  34.118 149.616  1.00  0.00     0.053 C 
BRANCH   8   9
ATOM      9  C   UNL     1      24.372  33.355 148.635  1.00  0.00     0.041 C 
ATOM     10  O   UNL     1      24.361  32.096 148.656  1.00  0.00    -0.550 OA
ATOM     11  O   UNL     1      23.645  34.035 147.666  1.00  0.00    -0.550 OA
ENDBRANCH   8   9
ENDBRANCH   7   8
ENDBRANCH   6   7
ENDBRANCH   5   6
ENDBRANCH   4   5
ENDBRANCH   3   4
ENDBRANCH   2   3
ENDBRANCH   1   2
BRANCH   1  12
ATOM     12  C   UNL     1      23.423  37.452 148.644  1.00  0.00     0.000 C 
BRANCH  12  13
ATOM     13  C   UNL     1      23.601  38.498 149.765  1.00  0.00    -0.000 C 
BRANCH  13  14
ATOM     14  C   UNL     1      24.111  39.864 149.269  1.00  0.00    -0.000 C 
BRANCH  14  15
ATOM     15  C   UNL     1      25.024  40.618 150.254  1.00  0.00    -0.000 C 
BRANCH  15  16
ATOM     16  C   UNL     1      25.919  39.718 151.125  1.00  0.00    -0.000 C 
BRANCH  16  17
ATOM     17  C   UNL     1      27.400  40.129 151.086  1.00  0.00    -0.000 C 
BRANCH  17  18
ATOM     18  C   UNL     1      27.768  40.918 149.816  1.00  0.00    -0.000 C 
BRANCH  18  19
ATOM     19  C   UNL     1      29.266  41.239 149.668  1.00  0.00    -0.003 C 
ATOM     20  C   UNL     1      30.128  39.994 149.462  1.00  0.00     0.004 C 
ENDBRANCH  18  19
ENDBRANCH  17  18
ENDBRANCH  16  17
ENDBRANCH  15  16
ENDBRANCH  14  15
ENDBRANCH  13  14
ENDBRANCH  12  13
ENDBRANCH   1  12
TORSDOF 16
ENDMDL
