MODEL 1
REMARK VINA RESULT:    -8.090      0.000      0.000
REMARK INTER + INTRA:          -9.817
REMARK INTER:                  -9.509
REMARK INTRA:                  -0.308
REMARK UNBOUND:                -0.308
REMARK SMILES O=c1cc(-c2ccc(O)c(O)c2)oc2cc(O)cc(O)c12
REMARK SMILES IDX 4 1 3 2 2 3 1 4 21 5 19 6 18 7 16 8 15 9 14 10 13 11 5 12
REMARK SMILES IDX 6 13 7 14 8 15 12 16 10 17 9 18 11 20 20 22 17 24
REMARK H PARENT 9 19 11 21 20 23 17 25
REMARK Flexibility Score: inf
ROOT
ATOM      1  C   UNL     1     -28.920  57.463   1.655  1.00  0.00     0.138 A 
ATOM      2  C   UNL     1     -27.529  57.310   1.534  1.00  0.00     0.100 A 
ATOM      3  C   UNL     1     -26.960  57.182   0.266  1.00  0.00     0.197 A 
ATOM      4  O   UNL     1     -25.711  57.044   0.168  1.00  0.00    -0.289 OA
ATOM      5  C   UNL     1     -27.788  57.205  -0.874  1.00  0.00     0.107 A 
ATOM      6  C   UNL     1     -27.294  57.083  -2.194  1.00  0.00     0.134 A 
ATOM      7  C   UNL     1     -28.187  57.110  -3.276  1.00  0.00     0.093 A 
ATOM      8  C   UNL     1     -29.562  57.256  -3.061  1.00  0.00     0.123 A 
ATOM      9  C   UNL     1     -30.055  57.376  -1.761  1.00  0.00     0.094 A 
ATOM     10  C   UNL     1     -29.181  57.352  -0.669  1.00  0.00     0.146 A 
ATOM     11  O   UNL     1     -29.676  57.471   0.559  1.00  0.00    -0.456 OA
ENDROOT
BRANCH   1  12
ATOM     12  C   UNL     1     -29.580  57.602   2.978  1.00  0.00     0.021 A 
ATOM     13  C   UNL     1     -28.921  58.187   4.076  1.00  0.00     0.016 A 
ATOM     14  C   UNL     1     -29.571  58.314   5.306  1.00  0.00     0.051 A 
ATOM     15  C   UNL     1     -30.889  57.867   5.460  1.00  0.00     0.157 A 
ATOM     16  C   UNL     1     -30.908  57.168   3.137  1.00  0.00     0.062 A 
ATOM     17  C   UNL     1     -31.560  57.293   4.369  1.00  0.00     0.158 A 
BRANCH  15  18
ATOM     18  O   UNL     1     -31.533  57.994   6.691  1.00  0.00    -0.504 OA
ATOM     19  H   UNL     1     -31.190  57.524   7.520  1.00  0.00     0.293 HD
ENDBRANCH  15  18
BRANCH  17  20
ATOM     20  O   UNL     1     -32.875  56.841   4.488  1.00  0.00    -0.504 OA
ATOM     21  H   UNL     1     -33.102  55.957   4.927  1.00  0.00     0.293 HD
ENDBRANCH  17  20
ENDBRANCH   1  12
BRANCH   6  22
ATOM     22  O   UNL     1     -25.927  56.936  -2.438  1.00  0.00    -0.507 OA
ATOM     23  H   UNL     1     -25.556  56.124  -2.915  1.00  0.00     0.293 HD
ENDBRANCH   6  22
BRANCH   8  24
ATOM     24  O   UNL     1     -30.449  57.283  -4.136  1.00  0.00    -0.508 OA
ATOM     25  H   UNL     1     -30.129  57.158  -5.090  1.00  0.00     0.293 HD
ENDBRANCH   8  24
TORSDOF 5
ENDMDL
MODEL 2
REMARK VINA RESULT:    -7.925     10.189     11.684
REMARK INTER + INTRA:          -9.622
REMARK INTER:                  -9.349
REMARK INTRA:                  -0.274
REMARK UNBOUND:                -0.308
REMARK SMILES O=c1cc(-c2ccc(O)c(O)c2)oc2cc(O)cc(O)c12
REMARK SMILES IDX 4 1 3 2 2 3 1 4 21 5 19 6 18 7 16 8 15 9 14 10 13 11 5 12
REMARK SMILES IDX 6 13 7 14 8 15 12 16 10 17 9 18 11 20 20 22 17 24
REMARK H PARENT 9 19 11 21 20 23 17 25
REMARK Flexibility Score: inf
ROOT
ATOM      1  C   UNL     1     -18.136  59.348  -1.748  1.00  0.00     0.138 A 
ATOM      2  C   UNL     1     -17.046  59.886  -2.452  1.00  0.00     0.100 A 
ATOM      3  C   UNL     1     -17.020  59.804  -3.845  1.00  0.00     0.197 A 
ATOM      4  O   UNL     1     -16.036  60.288  -4.468  1.00  0.00    -0.289 OA
ATOM      5  C   UNL     1     -18.086  59.181  -4.525  1.00  0.00     0.107 A 
ATOM      6  C   UNL     1     -18.140  59.056  -5.934  1.00  0.00     0.134 A 
ATOM      7  C   UNL     1     -19.234  58.417  -6.533  1.00  0.00     0.093 A 
ATOM      8  C   UNL     1     -20.274  57.900  -5.752  1.00  0.00     0.123 A 
ATOM      9  C   UNL     1     -20.225  58.020  -4.361  1.00  0.00     0.094 A 
ATOM     10  C   UNL     1     -19.143  58.655  -3.744  1.00  0.00     0.146 A 
ATOM     11  O   UNL     1     -19.122  58.758  -2.419  1.00  0.00    -0.456 OA
ENDROOT
BRANCH   1  12
ATOM     12  C   UNL     1     -18.215  59.406  -0.266  1.00  0.00     0.021 A 
ATOM     13  C   UNL     1     -19.383  59.831   0.396  1.00  0.00     0.016 A 
ATOM     14  C   UNL     1     -19.432  59.865   1.792  1.00  0.00     0.051 A 
ATOM     15  C   UNL     1     -18.322  59.471   2.550  1.00  0.00     0.157 A 
ATOM     16  C   UNL     1     -17.110  58.998   0.502  1.00  0.00     0.062 A 
ATOM     17  C   UNL     1     -17.157  59.034   1.900  1.00  0.00     0.158 A 
BRANCH  15  18
ATOM     18  O   UNL     1     -18.376  59.509   3.943  1.00  0.00    -0.504 OA
ATOM     19  H   UNL     1     -18.679  58.708   4.485  1.00  0.00     0.293 HD
ENDBRANCH  15  18
BRANCH  17  20
ATOM     20  O   UNL     1     -16.036  58.630   2.626  1.00  0.00    -0.504 OA
ATOM     21  H   UNL     1     -15.116  58.574   2.206  1.00  0.00     0.293 HD
ENDBRANCH  17  20
ENDBRANCH   1  12
BRANCH   6  22
ATOM     22  O   UNL     1     -17.117  59.562  -6.738  1.00  0.00    -0.507 OA
ATOM     23  H   UNL     1     -17.250  59.725  -7.728  1.00  0.00     0.293 HD
ENDBRANCH   6  22
BRANCH   8  24
ATOM     24  O   UNL     1     -21.362  57.265  -6.347  1.00  0.00    -0.508 OA
ATOM     25  H   UNL     1     -22.036  57.779  -6.902  1.00  0.00     0.293 HD
ENDBRANCH   8  24
TORSDOF 5
ENDMDL
MODEL 3
REMARK VINA RESULT:    -7.910      4.232      6.957
REMARK INTER + INTRA:          -9.605
REMARK INTER:                  -9.335
REMARK INTRA:                  -0.270
REMARK UNBOUND:                -0.308
REMARK SMILES O=c1cc(-c2ccc(O)c(O)c2)oc2cc(O)cc(O)c12
REMARK SMILES IDX 4 1 3 2 2 3 1 4 21 5 19 6 18 7 16 8 15 9 14 10 13 11 5 12
REMARK SMILES IDX 6 13 7 14 8 15 12 16 10 17 9 18 11 20 20 22 17 24
REMARK H PARENT 9 19 11 21 20 23 17 25
REMARK Flexibility Score: inf
ROOT
ATOM      1  C   UNL     1     -24.799  58.057   2.622  1.00  0.00     0.138 A 
ATOM      2  C   UNL     1     -25.008  57.452   1.371  1.00  0.00     0.100 A 
ATOM      3  C   UNL     1     -26.307  57.147   0.964  1.00  0.00     0.197 A 
ATOM      4  O   UNL     1     -26.483  56.603  -0.160  1.00  0.00    -0.289 OA
ATOM      5  C   UNL     1     -27.391  57.445   1.814  1.00  0.00     0.107 A 
ATOM      6  C   UNL     1     -28.738  57.171   1.478  1.00  0.00     0.134 A 
ATOM      7  C   UNL     1     -29.759  57.495   2.383  1.00  0.00     0.093 A 
ATOM      8  C   UNL     1     -29.459  58.087   3.615  1.00  0.00     0.123 A 
ATOM      9  C   UNL     1     -28.132  58.360   3.951  1.00  0.00     0.094 A 
ATOM     10  C   UNL     1     -27.099  58.046   3.063  1.00  0.00     0.146 A 
ATOM     11  O   UNL     1     -25.844  58.317   3.405  1.00  0.00    -0.456 OA
ENDROOT
BRANCH   1  12
ATOM     12  C   UNL     1     -23.439  58.403   3.107  1.00  0.00     0.021 A 
ATOM     13  C   UNL     1     -22.724  59.497   2.585  1.00  0.00     0.016 A 
ATOM     14  C   UNL     1     -21.449  59.805   3.069  1.00  0.00     0.051 A 
ATOM     15  C   UNL     1     -20.871  59.033   4.084  1.00  0.00     0.157 A 
ATOM     16  C   UNL     1     -22.858  57.641   4.136  1.00  0.00     0.062 A 
ATOM     17  C   UNL     1     -21.581  57.947   4.621  1.00  0.00     0.158 A 
BRANCH  15  18
ATOM     18  O   UNL     1     -19.598  59.343   4.562  1.00  0.00    -0.504 OA
ATOM     19  H   UNL     1     -19.369  60.271   4.898  1.00  0.00     0.293 HD
ENDBRANCH  15  18
BRANCH  17  20
ATOM     20  O   UNL     1     -21.035  57.161   5.636  1.00  0.00    -0.504 OA
ATOM     21  H   UNL     1     -21.550  56.399   6.061  1.00  0.00     0.293 HD
ENDBRANCH  17  20
ENDBRANCH   1  12
BRANCH   6  22
ATOM     22  O   UNL     1     -29.066  56.581   0.257  1.00  0.00    -0.507 OA
ATOM     23  H   UNL     1     -29.521  57.104  -0.482  1.00  0.00     0.293 HD
ENDBRANCH   6  22
BRANCH   8  24
ATOM     24  O   UNL     1     -30.474  58.409   4.514  1.00  0.00    -0.508 OA
ATOM     25  H   UNL     1     -31.449  58.239   4.296  1.00  0.00     0.293 HD
ENDBRANCH   8  24
TORSDOF 5
ENDMDL
MODEL 4
REMARK VINA RESULT:    -7.845      9.854     13.257
REMARK INTER + INTRA:          -9.528
REMARK INTER:                  -9.264
REMARK INTRA:                  -0.265
REMARK UNBOUND:                -0.308
REMARK SMILES O=c1cc(-c2ccc(O)c(O)c2)oc2cc(O)cc(O)c12
REMARK SMILES IDX 4 1 3 2 2 3 1 4 21 5 19 6 18 7 16 8 15 9 14 10 13 11 5 12
REMARK SMILES IDX 6 13 7 14 8 15 12 16 10 17 9 18 11 20 20 22 17 24
REMARK H PARENT 9 19 11 21 20 23 17 25
REMARK Flexibility Score: inf
ROOT
ATOM      1  C   UNL     1     -18.566  58.637  -4.763  1.00  0.00     0.138 A 
ATOM      2  C   UNL     1     -17.723  58.486  -5.876  1.00  0.00     0.100 A 
ATOM      3  C   UNL     1     -16.445  59.047  -5.851  1.00  0.00     0.197 A 
ATOM      4  O   UNL     1     -15.696  58.907  -6.856  1.00  0.00    -0.289 OA
ATOM      5  C   UNL     1     -16.019  59.758  -4.711  1.00  0.00     0.107 A 
ATOM      6  C   UNL     1     -14.741  60.356  -4.602  1.00  0.00     0.134 A 
ATOM      7  C   UNL     1     -14.397  61.052  -3.435  1.00  0.00     0.093 A 
ATOM      8  C   UNL     1     -15.306  61.162  -2.376  1.00  0.00     0.123 A 
ATOM      9  C   UNL     1     -16.568  60.574  -2.478  1.00  0.00     0.094 A 
ATOM     10  C   UNL     1     -16.931  59.875  -3.634  1.00  0.00     0.146 A 
ATOM     11  O   UNL     1     -18.137  59.323  -3.705  1.00  0.00    -0.456 OA
ENDROOT
BRANCH   1  12
ATOM     12  C   UNL     1     -19.935  58.063  -4.734  1.00  0.00     0.021 A 
ATOM     13  C   UNL     1     -21.042  58.763  -5.251  1.00  0.00     0.016 A 
ATOM     14  C   UNL     1     -22.317  58.193  -5.220  1.00  0.00     0.051 A 
ATOM     15  C   UNL     1     -22.509  56.915  -4.680  1.00  0.00     0.157 A 
ATOM     16  C   UNL     1     -20.134  56.775  -4.207  1.00  0.00     0.062 A 
ATOM     17  C   UNL     1     -21.411  56.203  -4.173  1.00  0.00     0.158 A 
BRANCH  15  18
ATOM     18  O   UNL     1     -23.784  56.352  -4.649  1.00  0.00    -0.504 OA
ATOM     19  H   UNL     1     -24.547  56.733  -5.198  1.00  0.00     0.293 HD
ENDBRANCH  15  18
BRANCH  17  20
ATOM     20  O   UNL     1     -21.567  54.927  -3.633  1.00  0.00    -0.504 OA
ATOM     21  H   UNL     1     -21.674  54.773  -2.637  1.00  0.00     0.293 HD
ENDBRANCH  17  20
ENDBRANCH   1  12
BRANCH   6  22
ATOM     22  O   UNL     1     -13.816  60.262  -5.643  1.00  0.00    -0.507 OA
ATOM     23  H   UNL     1     -13.384  61.085  -6.046  1.00  0.00     0.293 HD
ENDBRANCH   6  22
BRANCH   8  24
ATOM     24  O   UNL     1     -14.964  61.853  -1.215  1.00  0.00    -0.508 OA
ATOM     25  H   UNL     1     -14.329  61.458  -0.531  1.00  0.00     0.293 HD
ENDBRANCH   8  24
TORSDOF 5
ENDMDL
MODEL 5
REMARK VINA RESULT:    -7.735      7.986     11.178
REMARK INTER + INTRA:          -9.399
REMARK INTER:                  -9.108
REMARK INTRA:                  -0.291
REMARK UNBOUND:                -0.308
REMARK SMILES O=c1cc(-c2ccc(O)c(O)c2)oc2cc(O)cc(O)c12
REMARK SMILES IDX 4 1 3 2 2 3 1 4 21 5 19 6 18 7 16 8 15 9 14 10 13 11 5 12
REMARK SMILES IDX 6 13 7 14 8 15 12 16 10 17 9 18 11 20 20 22 17 24
REMARK H PARENT 9 19 11 21 20 23 17 25
REMARK Flexibility Score: inf
ROOT
ATOM      1  C   UNL     1     -20.545  58.726   4.662  1.00  0.00     0.138 A 
ATOM      2  C   UNL     1     -19.716  59.056   5.747  1.00  0.00     0.100 A 
ATOM      3  C   UNL     1     -19.993  58.529   7.009  1.00  0.00     0.197 A 
ATOM      4  O   UNL     1     -19.245  58.833   7.977  1.00  0.00    -0.289 OA
ATOM      5  C   UNL     1     -21.101  57.674   7.178  1.00  0.00     0.107 A 
ATOM      6  C   UNL     1     -21.452  57.095   8.421  1.00  0.00     0.134 A 
ATOM      7  C   UNL     1     -22.574  56.259   8.506  1.00  0.00     0.093 A 
ATOM      8  C   UNL     1     -23.351  55.991   7.373  1.00  0.00     0.123 A 
ATOM      9  C   UNL     1     -23.010  56.560   6.145  1.00  0.00     0.094 A 
ATOM     10  C   UNL     1     -21.894  57.396   6.038  1.00  0.00     0.146 A 
ATOM     11  O   UNL     1     -21.589  57.923   4.857  1.00  0.00    -0.456 OA
ENDROOT
BRANCH   1  12
ATOM     12  C   UNL     1     -20.299  59.258   3.298  1.00  0.00     0.021 A 
ATOM     13  C   UNL     1     -19.022  59.216   2.707  1.00  0.00     0.016 A 
ATOM     14  C   UNL     1     -18.823  59.716   1.417  1.00  0.00     0.051 A 
ATOM     15  C   UNL     1     -19.893  60.259   0.695  1.00  0.00     0.157 A 
ATOM     16  C   UNL     1     -21.371  59.793   2.561  1.00  0.00     0.062 A 
ATOM     17  C   UNL     1     -21.172  60.296   1.270  1.00  0.00     0.158 A 
BRANCH  15  18
ATOM     18  O   UNL     1     -19.688  60.759  -0.591  1.00  0.00    -0.504 OA
ATOM     19  H   UNL     1     -18.759  60.846  -0.986  1.00  0.00     0.293 HD
ENDBRANCH  15  18
BRANCH  17  20
ATOM     20  O   UNL     1     -22.260  60.826   0.576  1.00  0.00    -0.504 OA
ATOM     21  H   UNL     1     -22.833  61.568   0.960  1.00  0.00     0.293 HD
ENDBRANCH  17  20
ENDBRANCH   1  12
BRANCH   6  22
ATOM     22  O   UNL     1     -20.695  57.345   9.567  1.00  0.00    -0.507 OA
ATOM     23  H   UNL     1     -20.701  58.250  10.021  1.00  0.00     0.293 HD
ENDBRANCH   6  22
BRANCH   8  24
ATOM     24  O   UNL     1     -24.466  55.160   7.457  1.00  0.00    -0.508 OA
ATOM     25  H   UNL     1     -24.672  54.475   6.739  1.00  0.00     0.293 HD
ENDBRANCH   8  24
TORSDOF 5
ENDMDL
MODEL 6
REMARK VINA RESULT:    -7.711     10.815     12.373
REMARK INTER + INTRA:          -9.371
REMARK INTER:                  -9.053
REMARK INTRA:                  -0.318
REMARK UNBOUND:                -0.308
REMARK SMILES O=c1cc(-c2ccc(O)c(O)c2)oc2cc(O)cc(O)c12
REMARK SMILES IDX 4 1 3 2 2 3 1 4 21 5 19 6 18 7 16 8 15 9 14 10 13 11 5 12
REMARK SMILES IDX 6 13 7 14 8 15 12 16 10 17 9 18 11 20 20 22 17 24
REMARK H PARENT 9 19 11 21 20 23 17 25
REMARK Flexibility Score: inf
ROOT
ATOM      1  C   UNL     1     -17.242  59.843  -2.084  1.00  0.00     0.138 A 
ATOM      2  C   UNL     1     -16.356  60.249  -3.095  1.00  0.00     0.100 A 
ATOM      3  C   UNL     1     -16.615  59.895  -4.420  1.00  0.00     0.197 A 
ATOM      4  O   UNL     1     -15.812  60.263  -5.319  1.00  0.00    -0.289 OA
ATOM      5  C   UNL     1     -17.760  59.132  -4.725  1.00  0.00     0.107 A 
ATOM      6  C   UNL     1     -18.097  58.731  -6.039  1.00  0.00     0.134 A 
ATOM      7  C   UNL     1     -19.253  57.968  -6.258  1.00  0.00     0.093 A 
ATOM      8  C   UNL     1     -20.075  57.597  -5.188  1.00  0.00     0.123 A 
ATOM      9  C   UNL     1     -19.747  57.990  -3.889  1.00  0.00     0.094 A 
ATOM     10  C   UNL     1     -18.600  58.752  -3.650  1.00  0.00     0.146 A 
ATOM     11  O   UNL     1     -18.310  59.115  -2.404  1.00  0.00    -0.456 OA
ENDROOT
BRANCH   1  12
ATOM     12  C   UNL     1     -17.017  60.190  -0.658  1.00  0.00     0.021 A 
ATOM     13  C   UNL     1     -15.847  60.848  -0.233  1.00  0.00     0.016 A 
ATOM     14  C   UNL     1     -15.667  61.171   1.114  1.00  0.00     0.051 A 
ATOM     15  C   UNL     1     -16.651  60.851   2.057  1.00  0.00     0.157 A 
ATOM     16  C   UNL     1     -18.006  59.884   0.293  1.00  0.00     0.062 A 
ATOM     17  C   UNL     1     -17.826  60.205   1.643  1.00  0.00     0.158 A 
BRANCH  15  18
ATOM     18  O   UNL     1     -16.465  61.174   3.401  1.00  0.00    -0.504 OA
ATOM     19  H   UNL     1     -15.685  61.742   3.708  1.00  0.00     0.293 HD
ENDBRANCH  15  18
BRANCH  17  20
ATOM     20  O   UNL     1     -18.828  59.876   2.556  1.00  0.00    -0.504 OA
ATOM     21  H   UNL     1     -19.658  60.444   2.673  1.00  0.00     0.293 HD
ENDBRANCH  17  20
ENDBRANCH   1  12
BRANCH   6  22
ATOM     22  O   UNL     1     -17.295  59.086  -7.125  1.00  0.00    -0.507 OA
ATOM     23  H   UNL     1     -17.219  58.497  -7.946  1.00  0.00     0.293 HD
ENDBRANCH   6  22
BRANCH   8  24
ATOM     24  O   UNL     1     -21.224  56.838  -5.405  1.00  0.00    -0.508 OA
ATOM     25  H   UNL     1     -21.247  56.098  -6.097  1.00  0.00     0.293 HD
ENDBRANCH   8  24
TORSDOF 5
ENDMDL
MODEL 7
REMARK VINA RESULT:    -7.646      1.450      6.772
REMARK INTER + INTRA:          -9.294
REMARK INTER:                  -8.989
REMARK INTRA:                  -0.305
REMARK UNBOUND:                -0.308
REMARK SMILES O=c1cc(-c2ccc(O)c(O)c2)oc2cc(O)cc(O)c12
REMARK SMILES IDX 4 1 3 2 2 3 1 4 21 5 19 6 18 7 16 8 15 9 14 10 13 11 5 12
REMARK SMILES IDX 6 13 7 14 8 15 12 16 10 17 9 18 11 20 20 22 17 24
REMARK H PARENT 9 19 11 21 20 23 17 25
REMARK Flexibility Score: inf
ROOT
ATOM      1  C   UNL     1     -28.408  57.575   0.998  1.00  0.00     0.138 A 
ATOM      2  C   UNL     1     -27.521  58.154   1.921  1.00  0.00     0.100 A 
ATOM      3  C   UNL     1     -27.926  58.332   3.244  1.00  0.00     0.197 A 
ATOM      4  O   UNL     1     -27.123  58.854   4.064  1.00  0.00    -0.289 OA
ATOM      5  C   UNL     1     -29.219  57.931   3.637  1.00  0.00     0.107 A 
ATOM      6  C   UNL     1     -29.708  58.073   4.957  1.00  0.00     0.134 A 
ATOM      7  C   UNL     1     -31.010  57.653   5.264  1.00  0.00     0.093 A 
ATOM      8  C   UNL     1     -31.831  57.095   4.278  1.00  0.00     0.123 A 
ATOM      9  C   UNL     1     -31.353  56.952   2.974  1.00  0.00     0.094 A 
ATOM     10  C   UNL     1     -30.058  57.364   2.646  1.00  0.00     0.146 A 
ATOM     11  O   UNL     1     -29.626  57.215   1.398  1.00  0.00    -0.456 OA
ENDROOT
BRANCH   1  12
ATOM     12  C   UNL     1     -28.032  57.362  -0.422  1.00  0.00     0.021 A 
ATOM     13  C   UNL     1     -26.711  57.057  -0.800  1.00  0.00     0.016 A 
ATOM     14  C   UNL     1     -26.388  56.852  -2.145  1.00  0.00     0.051 A 
ATOM     15  C   UNL     1     -27.377  56.942  -3.132  1.00  0.00     0.157 A 
ATOM     16  C   UNL     1     -29.022  57.436  -1.418  1.00  0.00     0.062 A 
ATOM     17  C   UNL     1     -28.701  57.234  -2.765  1.00  0.00     0.158 A 
BRANCH  15  18
ATOM     18  O   UNL     1     -27.050  56.739  -4.472  1.00  0.00    -0.504 OA
ATOM     19  H   UNL     1     -27.691  56.285  -5.113  1.00  0.00     0.293 HD
ENDBRANCH  15  18
BRANCH  17  20
ATOM     20  O   UNL     1     -29.710  57.326  -3.723  1.00  0.00    -0.504 OA
ATOM     21  H   UNL     1     -29.957  58.205  -4.162  1.00  0.00     0.293 HD
ENDBRANCH  17  20
ENDBRANCH   1  12
BRANCH   6  22
ATOM     22  O   UNL     1     -28.912  58.627   5.960  1.00  0.00    -0.507 OA
ATOM     23  H   UNL     1     -28.519  58.059   6.701  1.00  0.00     0.293 HD
ENDBRANCH   6  22
BRANCH   8  24
ATOM     24  O   UNL     1     -33.125  56.677   4.583  1.00  0.00    -0.508 OA
ATOM     25  H   UNL     1     -33.704  56.203   3.899  1.00  0.00     0.293 HD
ENDBRANCH   8  24
TORSDOF 5
ENDMDL
MODEL 8
REMARK VINA RESULT:    -7.623      7.843      9.088
REMARK INTER + INTRA:          -9.268
REMARK INTER:                  -8.972
REMARK INTRA:                  -0.296
REMARK UNBOUND:                -0.308
REMARK SMILES O=c1cc(-c2ccc(O)c(O)c2)oc2cc(O)cc(O)c12
REMARK SMILES IDX 4 1 3 2 2 3 1 4 21 5 19 6 18 7 16 8 15 9 14 10 13 11 5 12
REMARK SMILES IDX 6 13 7 14 8 15 12 16 10 17 9 18 11 20 20 22 17 24
REMARK H PARENT 9 19 11 21 20 23 17 25
REMARK Flexibility Score: inf
ROOT
ATOM      1  C   UNL     1     -20.537  58.603   4.347  1.00  0.00     0.138 A 
ATOM      2  C   UNL     1     -19.157  58.639   4.088  1.00  0.00     0.100 A 
ATOM      3  C   UNL     1     -18.695  59.221   2.906  1.00  0.00     0.197 A 
ATOM      4  O   UNL     1     -17.454  59.247   2.682  1.00  0.00    -0.289 OA
ATOM      5  C   UNL     1     -19.618  59.761   1.989  1.00  0.00     0.107 A 
ATOM      6  C   UNL     1     -19.235  60.369   0.770  1.00  0.00     0.134 A 
ATOM      7  C   UNL     1     -20.218  60.878  -0.091  1.00  0.00     0.093 A 
ATOM      8  C   UNL     1     -21.574  60.789   0.243  1.00  0.00     0.123 A 
ATOM      9  C   UNL     1     -21.957  60.190   1.444  1.00  0.00     0.094 A 
ATOM     10  C   UNL     1     -20.993  59.677   2.317  1.00  0.00     0.146 A 
ATOM     11  O   UNL     1     -21.384  59.113   3.456  1.00  0.00    -0.456 OA
ENDROOT
BRANCH   1  12
ATOM     12  C   UNL     1     -21.085  57.996   5.586  1.00  0.00     0.021 A 
ATOM     13  C   UNL     1     -20.499  58.227   6.845  1.00  0.00     0.016 A 
ATOM     14  C   UNL     1     -21.043  57.650   7.996  1.00  0.00     0.051 A 
ATOM     15  C   UNL     1     -22.183  56.841   7.912  1.00  0.00     0.157 A 
ATOM     16  C   UNL     1     -22.238  57.194   5.512  1.00  0.00     0.062 A 
ATOM     17  C   UNL     1     -22.783  56.614   6.663  1.00  0.00     0.158 A 
BRANCH  15  18
ATOM     18  O   UNL     1     -22.721  56.266   9.063  1.00  0.00    -0.504 OA
ATOM     19  H   UNL     1     -22.533  56.645   9.984  1.00  0.00     0.293 HD
ENDBRANCH  15  18
BRANCH  17  20
ATOM     20  O   UNL     1     -23.922  55.817   6.545  1.00  0.00    -0.504 OA
ATOM     21  H   UNL     1     -24.256  55.240   7.308  1.00  0.00     0.293 HD
ENDBRANCH  17  20
ENDBRANCH   1  12
BRANCH   6  22
ATOM     22  O   UNL     1     -17.891  60.471   0.411  1.00  0.00    -0.507 OA
ATOM     23  H   UNL     1     -17.287  59.658   0.372  1.00  0.00     0.293 HD
ENDBRANCH   6  22
BRANCH   8  24
ATOM     24  O   UNL     1     -22.551  61.295  -0.613  1.00  0.00    -0.508 OA
ATOM     25  H   UNL     1     -22.838  62.266  -0.574  1.00  0.00     0.293 HD
ENDBRANCH   8  24
TORSDOF 5
ENDMDL
MODEL 9
REMARK VINA RESULT:    -7.474      8.060     11.519
REMARK INTER + INTRA:          -9.093
REMARK INTER:                  -8.816
REMARK INTRA:                  -0.277
REMARK UNBOUND:                -0.308
REMARK SMILES O=c1cc(-c2ccc(O)c(O)c2)oc2cc(O)cc(O)c12
REMARK SMILES IDX 4 1 3 2 2 3 1 4 21 5 19 6 18 7 16 8 15 9 14 10 13 11 5 12
REMARK SMILES IDX 6 13 7 14 8 15 12 16 10 17 9 18 11 20 20 22 17 24
REMARK H PARENT 9 19 11 21 20 23 17 25
REMARK Flexibility Score: inf
ROOT
ATOM      1  C   UNL     1     -21.136  58.441   4.620  1.00  0.00     0.138 A 
ATOM      2  C   UNL     1     -22.209  57.541   4.732  1.00  0.00     0.100 A 
ATOM      3  C   UNL     1     -22.482  56.946   5.965  1.00  0.00     0.197 A 
ATOM      4  O   UNL     1     -23.446  56.139   6.054  1.00  0.00    -0.289 OA
ATOM      5  C   UNL     1     -21.675  57.253   7.079  1.00  0.00     0.107 A 
ATOM      6  C   UNL     1     -21.882  56.697   8.363  1.00  0.00     0.134 A 
ATOM      7  C   UNL     1     -21.030  57.051   9.419  1.00  0.00     0.093 A 
ATOM      8  C   UNL     1     -19.977  57.949   9.215  1.00  0.00     0.123 A 
ATOM      9  C   UNL     1     -19.768  58.501   7.950  1.00  0.00     0.094 A 
ATOM     10  C   UNL     1     -20.606  58.162   6.884  1.00  0.00     0.146 A 
ATOM     11  O   UNL     1     -20.387  58.702   5.690  1.00  0.00    -0.456 OA
ENDROOT
BRANCH   1  12
ATOM     12  C   UNL     1     -20.799  59.102   3.334  1.00  0.00     0.021 A 
ATOM     13  C   UNL     1     -19.472  59.194   2.874  1.00  0.00     0.016 A 
ATOM     14  C   UNL     1     -19.187  59.814   1.655  1.00  0.00     0.051 A 
ATOM     15  C   UNL     1     -20.219  60.345   0.871  1.00  0.00     0.157 A 
ATOM     16  C   UNL     1     -21.832  59.625   2.535  1.00  0.00     0.062 A 
ATOM     17  C   UNL     1     -21.548  60.247   1.314  1.00  0.00     0.158 A 
BRANCH  15  18
ATOM     18  O   UNL     1     -19.929  60.964  -0.344  1.00  0.00    -0.504 OA
ATOM     19  H   UNL     1     -19.771  60.427  -1.189  1.00  0.00     0.293 HD
ENDBRANCH  15  18
BRANCH  17  20
ATOM     20  O   UNL     1     -22.599  60.762   0.556  1.00  0.00    -0.504 OA
ATOM     21  H   UNL     1     -23.071  61.623   0.805  1.00  0.00     0.293 HD
ENDBRANCH  17  20
ENDBRANCH   1  12
BRANCH   6  22
ATOM     22  O   UNL     1     -22.925  55.799   8.595  1.00  0.00    -0.507 OA
ATOM     23  H   UNL     1     -23.308  55.225   7.854  1.00  0.00     0.293 HD
ENDBRANCH   6  22
BRANCH   8  24
ATOM     24  O   UNL     1     -19.130  58.301  10.265  1.00  0.00    -0.508 OA
ATOM     25  H   UNL     1     -18.156  58.021  10.276  1.00  0.00     0.293 HD
ENDBRANCH   8  24
TORSDOF 5
ENDMDL
