MODEL 1
REMARK VINA RESULT:    -4.032      0.000      0.000
REMARK INTER + INTRA:          -9.702
REMARK INTER:                  -7.331
REMARK INTRA:                  -2.370
REMARK UNBOUND:                -2.370
REMARK SMILES CCCCCCCCCCCCCCCC(=O)[O-]
REMARK SMILES IDX 9 1 10 2 11 3 12 4 13 5 14 6 15 7 16 8 17 9 18 10 8 11 7 12
REMARK SMILES IDX 6 13 5 14 4 15 3 16 2 17 1 18
REMARK H PARENT
REMARK Flexibility Score: inf
ROOT
ATOM      1  C   UNL     1      -4.359  -7.231 -18.785  1.00  0.00     0.000 C 
ENDROOT
BRANCH   1   2
ATOM      2  C   UNL     1      -4.409  -6.886 -17.286  1.00  0.00     0.000 C 
BRANCH   2   3
ATOM      3  C   UNL     1      -5.045  -8.005 -16.445  1.00  0.00     0.000 C 
BRANCH   3   4
ATOM      4  C   UNL     1      -4.730  -9.407 -16.996  1.00  0.00     0.000 C 
BRANCH   4   5
ATOM      5  C   UNL     1      -4.022 -10.309 -15.968  1.00  0.00     0.000 C 
BRANCH   5   6
ATOM      6  C   UNL     1      -4.433 -10.076 -14.503  1.00  0.00     0.006 C 
BRANCH   6   7
ATOM      7  C   UNL     1      -5.361 -11.170 -13.960  1.00  0.00     0.053 C 
BRANCH   7   8
ATOM      8  C   UNL     1      -6.676 -10.584 -13.555  1.00  0.00     0.041 C 
ATOM      9  O   UNL     1      -7.119 -10.763 -12.390  1.00  0.00    -0.550 OA
ATOM     10  O   UNL     1      -7.437  -9.880 -14.480  1.00  0.00    -0.550 OA
ENDBRANCH   7   8
ENDBRANCH   6   7
ENDBRANCH   5   6
ENDBRANCH   4   5
ENDBRANCH   3   4
ENDBRANCH   2   3
ENDBRANCH   1   2
BRANCH   1  11
ATOM     11  C   UNL     1      -2.923  -7.419 -19.300  1.00  0.00     0.000 C 
BRANCH  11  12
ATOM     12  C   UNL     1      -1.869  -7.249 -18.194  1.00  0.00    -0.000 C 
BRANCH  12  13
ATOM     13  C   UNL     1      -1.114  -8.562 -17.950  1.00  0.00    -0.000 C 
BRANCH  13  14
ATOM     14  C   UNL     1      -0.596  -8.639 -16.506  1.00  0.00    -0.000 C 
BRANCH  14  15
ATOM     15  C   UNL     1      -1.361  -7.711 -15.545  1.00  0.00    -0.000 C 
BRANCH  15  16
ATOM     16  C   UNL     1      -1.283  -8.105 -14.056  1.00  0.00    -0.000 C 
BRANCH  16  17
ATOM     17  C   UNL     1      -0.348  -9.286 -13.744  1.00  0.00    -0.003 C 
ATOM     18  C   UNL     1      -1.058 -10.436 -13.031  1.00  0.00     0.004 C 
ENDBRANCH  16  17
ENDBRANCH  15  16
ENDBRANCH  14  15
ENDBRANCH  13  14
ENDBRANCH  12  13
ENDBRANCH  11  12
ENDBRANCH   1  11
TORSDOF 14
ENDMDL
MODEL 2
REMARK VINA RESULT:    -4.011      1.685      2.357
REMARK INTER + INTRA:          -9.664
REMARK INTER:                  -7.136
REMARK INTRA:                  -2.527
REMARK UNBOUND:                -2.370
REMARK SMILES CCCCCCCCCCCCCCCC(=O)[O-]
REMARK SMILES IDX 9 1 10 2 11 3 12 4 13 5 14 6 15 7 16 8 17 9 18 10 8 11 7 12
REMARK SMILES IDX 6 13 5 14 4 15 3 16 2 17 1 18
REMARK H PARENT
REMARK Flexibility Score: inf
ROOT
ATOM      1  C   UNL     1      -3.649  -7.275 -18.962  1.00  0.00     0.000 C 
ENDROOT
BRANCH   1   2
ATOM      2  C   UNL     1      -4.535  -8.055 -17.976  1.00  0.00     0.000 C 
BRANCH   2   3
ATOM      3  C   UNL     1      -4.906  -7.227 -16.735  1.00  0.00     0.000 C 
BRANCH   3   4
ATOM      4  C   UNL     1      -5.423  -8.099 -15.578  1.00  0.00     0.000 C 
BRANCH   4   5
ATOM      5  C   UNL     1      -4.291  -8.771 -14.780  1.00  0.00     0.000 C 
BRANCH   5   6
ATOM      6  C   UNL     1      -4.358 -10.308 -14.719  1.00  0.00     0.006 C 
BRANCH   6   7
ATOM      7  C   UNL     1      -3.526 -10.988 -15.814  1.00  0.00     0.053 C 
BRANCH   7   8
ATOM      8  C   UNL     1      -4.410 -11.451 -16.929  1.00  0.00     0.041 C 
ATOM      9  O   UNL     1      -3.916 -11.761 -18.045  1.00  0.00    -0.550 OA
ATOM     10  O   UNL     1      -5.788 -11.496 -16.750  1.00  0.00    -0.550 OA
ENDBRANCH   7   8
ENDBRANCH   6   7
ENDBRANCH   5   6
ENDBRANCH   4   5
ENDBRANCH   3   4
ENDBRANCH   2   3
ENDBRANCH   1   2
BRANCH   1  11
ATOM     11  C   UNL     1      -2.165  -7.288 -18.561  1.00  0.00     0.000 C 
BRANCH  11  12
ATOM     12  C   UNL     1      -1.665  -8.690 -18.180  1.00  0.00    -0.000 C 
BRANCH  12  13
ATOM     13  C   UNL     1      -0.774  -8.635 -16.933  1.00  0.00    -0.000 C 
BRANCH  13  14
ATOM     14  C   UNL     1      -1.127  -7.424 -16.057  1.00  0.00    -0.000 C 
BRANCH  14  15
ATOM     15  C   UNL     1      -0.988  -7.712 -14.551  1.00  0.00    -0.000 C 
BRANCH  15  16
ATOM     16  C   UNL     1      -0.421  -9.103 -14.202  1.00  0.00    -0.000 C 
BRANCH  16  17
ATOM     17  C   UNL     1      -0.641  -9.548 -12.746  1.00  0.00    -0.003 C 
ATOM     18  C   UNL     1      -1.072 -11.009 -12.628  1.00  0.00     0.004 C 
ENDBRANCH  16  17
ENDBRANCH  15  16
ENDBRANCH  14  15
ENDBRANCH  13  14
ENDBRANCH  12  13
ENDBRANCH  11  12
ENDBRANCH   1  11
TORSDOF 14
ENDMDL
MODEL 3
REMARK VINA RESULT:    -3.917      3.672      5.789
REMARK INTER + INTRA:          -9.494
REMARK INTER:                  -7.143
REMARK INTRA:                  -2.351
REMARK UNBOUND:                -2.370
REMARK SMILES CCCCCCCCCCCCCCCC(=O)[O-]
REMARK SMILES IDX 9 1 10 2 11 3 12 4 13 5 14 6 15 7 16 8 17 9 18 10 8 11 7 12
REMARK SMILES IDX 6 13 5 14 4 15 3 16 2 17 1 18
REMARK H PARENT
REMARK Flexibility Score: inf
ROOT
ATOM      1  C   UNL     1      -4.323  -6.903 -16.968  1.00  0.00     0.000 C 
ENDROOT
BRANCH   1   2
ATOM      2  C   UNL     1      -4.208  -7.359 -18.433  1.00  0.00     0.000 C 
BRANCH   2   3
ATOM      3  C   UNL     1      -4.529  -8.852 -18.612  1.00  0.00     0.000 C 
BRANCH   3   4
ATOM      4  C   UNL     1      -3.309  -9.665 -19.079  1.00  0.00     0.000 C 
BRANCH   4   5
ATOM      5  C   UNL     1      -1.970  -8.990 -18.730  1.00  0.00     0.000 C 
BRANCH   5   6
ATOM      6  C   UNL     1      -1.066  -8.672 -19.936  1.00  0.00     0.006 C 
BRANCH   6   7
ATOM      7  C   UNL     1      -1.107  -7.194 -20.342  1.00  0.00     0.053 C 
BRANCH   7   8
ATOM      8  C   UNL     1      -1.798  -7.034 -21.659  1.00  0.00     0.041 C 
ATOM      9  O   UNL     1      -2.521  -7.960 -22.113  1.00  0.00    -0.550 OA
ATOM     10  O   UNL     1      -1.606  -5.880 -22.409  1.00  0.00    -0.550 OA
ENDBRANCH   7   8
ENDBRANCH   6   7
ENDBRANCH   5   6
ENDBRANCH   4   5
ENDBRANCH   3   4
ENDBRANCH   2   3
ENDBRANCH   1   2
BRANCH   1  11
ATOM     11  C   UNL     1      -5.506  -7.557 -16.236  1.00  0.00     0.000 C 
BRANCH  11  12
ATOM     12  C   UNL     1      -5.098  -8.185 -14.894  1.00  0.00    -0.000 C 
BRANCH  12  13
ATOM     13  C   UNL     1      -5.305  -9.705 -14.914  1.00  0.00    -0.000 C 
BRANCH  13  14
ATOM     14  C   UNL     1      -4.010 -10.432 -15.303  1.00  0.00    -0.000 C 
BRANCH  14  15
ATOM     15  C   UNL     1      -2.815 -10.046 -14.412  1.00  0.00    -0.000 C 
BRANCH  15  16
ATOM     16  C   UNL     1      -1.661  -9.329 -15.142  1.00  0.00    -0.000 C 
BRANCH  16  17
ATOM     17  C   UNL     1      -1.290  -7.949 -14.572  1.00  0.00    -0.003 C 
ATOM     18  C   UNL     1      -0.828  -6.966 -15.647  1.00  0.00     0.004 C 
ENDBRANCH  16  17
ENDBRANCH  15  16
ENDBRANCH  14  15
ENDBRANCH  13  14
ENDBRANCH  12  13
ENDBRANCH  11  12
ENDBRANCH   1  11
TORSDOF 14
ENDMDL
MODEL 4
REMARK VINA RESULT:    -3.887      2.675      5.165
REMARK INTER + INTRA:          -9.439
REMARK INTER:                  -7.059
REMARK INTRA:                  -2.380
REMARK UNBOUND:                -2.370
REMARK SMILES CCCCCCCCCCCCCCCC(=O)[O-]
REMARK SMILES IDX 9 1 10 2 11 3 12 4 13 5 14 6 15 7 16 8 17 9 18 10 8 11 7 12
REMARK SMILES IDX 6 13 5 14 4 15 3 16 2 17 1 18
REMARK H PARENT
REMARK Flexibility Score: inf
ROOT
ATOM      1  C   UNL     1      -5.164  -7.299 -16.496  1.00  0.00     0.000 C 
ENDROOT
BRANCH   1   2
ATOM      2  C   UNL     1      -3.965  -6.733 -17.278  1.00  0.00     0.000 C 
BRANCH   2   3
ATOM      3  C   UNL     1      -3.749  -7.447 -18.622  1.00  0.00     0.000 C 
BRANCH   3   4
ATOM      4  C   UNL     1      -2.600  -8.469 -18.568  1.00  0.00     0.000 C 
BRANCH   4   5
ATOM      5  C   UNL     1      -1.216  -7.808 -18.432  1.00  0.00     0.000 C 
BRANCH   5   6
ATOM      6  C   UNL     1      -0.355  -8.330 -17.267  1.00  0.00     0.006 C 
BRANCH   6   7
ATOM      7  C   UNL     1      -1.178  -8.660 -16.016  1.00  0.00     0.053 C 
BRANCH   7   8
ATOM      8  C   UNL     1      -1.027  -7.579 -14.992  1.00  0.00     0.041 C 
ATOM      9  O   UNL     1      -1.375  -7.782 -13.799  1.00  0.00    -0.550 OA
ATOM     10  O   UNL     1      -0.546  -6.331 -15.366  1.00  0.00    -0.550 OA
ENDBRANCH   7   8
ENDBRANCH   6   7
ENDBRANCH   5   6
ENDBRANCH   4   5
ENDBRANCH   3   4
ENDBRANCH   2   3
ENDBRANCH   1   2
BRANCH   1  11
ATOM     11  C   UNL     1      -4.735  -8.110 -15.263  1.00  0.00     0.000 C 
BRANCH  11  12
ATOM     12  C   UNL     1      -5.926  -8.746 -14.528  1.00  0.00    -0.000 C 
BRANCH  12  13
ATOM     13  C   UNL     1      -5.674 -10.235 -14.262  1.00  0.00    -0.000 C 
BRANCH  13  14
ATOM     14  C   UNL     1      -4.181 -10.573 -14.389  1.00  0.00    -0.000 C 
BRANCH  14  15
ATOM     15  C   UNL     1      -3.919 -11.811 -15.265  1.00  0.00    -0.000 C 
BRANCH  15  16
ATOM     16  C   UNL     1      -3.270 -11.517 -16.633  1.00  0.00    -0.000 C 
BRANCH  16  17
ATOM     17  C   UNL     1      -4.186 -11.744 -17.848  1.00  0.00    -0.003 C 
ATOM     18  C   UNL     1      -5.367 -10.775 -17.893  1.00  0.00     0.004 C 
ENDBRANCH  16  17
ENDBRANCH  15  16
ENDBRANCH  14  15
ENDBRANCH  13  14
ENDBRANCH  12  13
ENDBRANCH  11  12
ENDBRANCH   1  11
TORSDOF 14
ENDMDL
MODEL 5
REMARK VINA RESULT:    -3.873     14.710     16.972
REMARK INTER + INTRA:          -9.413
REMARK INTER:                  -6.736
REMARK INTRA:                  -2.677
REMARK UNBOUND:                -2.370
REMARK SMILES CCCCCCCCCCCCCCCC(=O)[O-]
REMARK SMILES IDX 9 1 10 2 11 3 12 4 13 5 14 6 15 7 16 8 17 9 18 10 8 11 7 12
REMARK SMILES IDX 6 13 5 14 4 15 3 16 2 17 1 18
REMARK H PARENT
REMARK Flexibility Score: inf
ROOT
ATOM      1  C   UNL     1     -15.506  -2.030 -16.207  1.00  0.00     0.000 C 
ENDROOT
BRANCH   1   2
ATOM      2  C   UNL     1     -15.385  -1.528 -17.656  1.00  0.00     0.000 C 
BRANCH   2   3
ATOM      3  C   UNL     1     -15.424  -2.672 -18.682  1.00  0.00     0.000 C 
BRANCH   3   4
ATOM      4  C   UNL     1     -16.036  -2.238 -20.025  1.00  0.00     0.000 C 
BRANCH   4   5
ATOM      5  C   UNL     1     -16.310  -0.725 -20.098  1.00  0.00     0.000 C 
BRANCH   5   6
ATOM      6  C   UNL     1     -17.560  -0.326 -20.903  1.00  0.00     0.006 C 
BRANCH   6   7
ATOM      7  C   UNL     1     -17.818  -1.245 -22.103  1.00  0.00     0.053 C 
BRANCH   7   8
ATOM      8  C   UNL     1     -17.927  -0.444 -23.361  1.00  0.00     0.041 C 
ATOM      9  O   UNL     1     -17.092   0.467 -23.607  1.00  0.00    -0.550 OA
ATOM     10  O   UNL     1     -18.979  -0.669 -24.240  1.00  0.00    -0.550 OA
ENDBRANCH   7   8
ENDBRANCH   6   7
ENDBRANCH   5   6
ENDBRANCH   4   5
ENDBRANCH   3   4
ENDBRANCH   2   3
ENDBRANCH   1   2
BRANCH   1  11
ATOM     11  C   UNL     1     -16.833  -1.621 -15.548  1.00  0.00     0.000 C 
BRANCH  11  12
ATOM     12  C   UNL     1     -17.705  -0.748 -16.463  1.00  0.00    -0.000 C 
BRANCH  12  13
ATOM     13  C   UNL     1     -19.121  -1.325 -16.586  1.00  0.00    -0.000 C 
BRANCH  13  14
ATOM     14  C   UNL     1     -19.467  -1.626 -18.051  1.00  0.00    -0.000 C 
BRANCH  14  15
ATOM     15  C   UNL     1     -19.117  -3.066 -18.466  1.00  0.00    -0.000 C 
BRANCH  15  16
ATOM     16  C   UNL     1     -19.231  -4.117 -17.343  1.00  0.00    -0.000 C 
BRANCH  16  17
ATOM     17  C   UNL     1     -17.941  -4.903 -17.054  1.00  0.00    -0.003 C 
ATOM     18  C   UNL     1     -17.721  -5.158 -15.563  1.00  0.00     0.004 C 
ENDBRANCH  16  17
ENDBRANCH  15  16
ENDBRANCH  14  15
ENDBRANCH  13  14
ENDBRANCH  12  13
ENDBRANCH  11  12
ENDBRANCH   1  11
TORSDOF 14
ENDMDL
MODEL 6
REMARK VINA RESULT:    -3.815      1.510      3.867
REMARK INTER + INTRA:          -9.308
REMARK INTER:                  -6.864
REMARK INTRA:                  -2.444
REMARK UNBOUND:                -2.370
REMARK SMILES CCCCCCCCCCCCCCCC(=O)[O-]
REMARK SMILES IDX 9 1 10 2 11 3 12 4 13 5 14 6 15 7 16 8 17 9 18 10 8 11 7 12
REMARK SMILES IDX 6 13 5 14 4 15 3 16 2 17 1 18
REMARK H PARENT
REMARK Flexibility Score: inf
ROOT
ATOM      1  C   UNL     1      -0.987  -7.096 -15.715  1.00  0.00     0.000 C 
ENDROOT
BRANCH   1   2
ATOM      2  C   UNL     1      -1.654  -7.827 -16.894  1.00  0.00     0.000 C 
BRANCH   2   3
ATOM      3  C   UNL     1      -2.356  -6.862 -17.863  1.00  0.00     0.000 C 
BRANCH   3   4
ATOM      4  C   UNL     1      -3.846  -7.198 -18.052  1.00  0.00     0.000 C 
BRANCH   4   5
ATOM      5  C   UNL     1      -4.662  -7.055 -16.754  1.00  0.00     0.000 C 
BRANCH   5   6
ATOM      6  C   UNL     1      -5.428  -8.319 -16.322  1.00  0.00     0.006 C 
BRANCH   6   7
ATOM      7  C   UNL     1      -5.573  -8.440 -14.800  1.00  0.00     0.053 C 
BRANCH   7   8
ATOM      8  C   UNL     1      -6.318  -9.687 -14.444  1.00  0.00     0.041 C 
ATOM      9  O   UNL     1      -6.622  -9.925 -13.245  1.00  0.00    -0.550 OA
ATOM     10  O   UNL     1      -6.634 -10.613 -15.431  1.00  0.00    -0.550 OA
ENDBRANCH   7   8
ENDBRANCH   6   7
ENDBRANCH   5   6
ENDBRANCH   4   5
ENDBRANCH   3   4
ENDBRANCH   2   3
ENDBRANCH   1   2
BRANCH   1  11
ATOM     11  C   UNL     1      -1.199  -7.819 -14.375  1.00  0.00     0.000 C 
BRANCH  11  12
ATOM     12  C   UNL     1      -2.103  -9.055 -14.504  1.00  0.00    -0.000 C 
BRANCH  12  13
ATOM     13  C   UNL     1      -1.311 -10.343 -14.247  1.00  0.00    -0.000 C 
BRANCH  13  14
ATOM     14  C   UNL     1      -1.771 -11.469 -15.185  1.00  0.00    -0.000 C 
BRANCH  14  15
ATOM     15  C   UNL     1      -3.207 -11.270 -15.701  1.00  0.00    -0.000 C 
BRANCH  15  16
ATOM     16  C   UNL     1      -3.514 -11.941 -17.056  1.00  0.00    -0.000 C 
BRANCH  16  17
ATOM     17  C   UNL     1      -3.754 -10.968 -18.223  1.00  0.00    -0.003 C 
ATOM     18  C   UNL     1      -2.489 -10.683 -19.031  1.00  0.00     0.004 C 
ENDBRANCH  16  17
ENDBRANCH  15  16
ENDBRANCH  14  15
ENDBRANCH  13  14
ENDBRANCH  12  13
ENDBRANCH  11  12
ENDBRANCH   1  11
TORSDOF 14
ENDMDL
MODEL 7
REMARK VINA RESULT:    -3.795      3.552      5.564
REMARK INTER + INTRA:          -9.271
REMARK INTER:                  -6.990
REMARK INTRA:                  -2.281
REMARK UNBOUND:                -2.370
REMARK SMILES CCCCCCCCCCCCCCCC(=O)[O-]
REMARK SMILES IDX 9 1 10 2 11 3 12 4 13 5 14 6 15 7 16 8 17 9 18 10 8 11 7 12
REMARK SMILES IDX 6 13 5 14 4 15 3 16 2 17 1 18
REMARK H PARENT
REMARK Flexibility Score: inf
ROOT
ATOM      1  C   UNL     1      -6.243  -9.114 -15.242  1.00  0.00     0.000 C 
ENDROOT
BRANCH   1   2
ATOM      2  C   UNL     1      -5.136  -8.045 -15.252  1.00  0.00     0.000 C 
BRANCH   2   3
ATOM      3  C   UNL     1      -5.139  -7.206 -16.541  1.00  0.00     0.000 C 
BRANCH   3   4
ATOM      4  C   UNL     1      -3.719  -6.913 -17.056  1.00  0.00     0.000 C 
BRANCH   4   5
ATOM      5  C   UNL     1      -3.483  -7.426 -18.488  1.00  0.00     0.000 C 
BRANCH   5   6
ATOM      6  C   UNL     1      -2.016  -7.731 -18.839  1.00  0.00     0.006 C 
BRANCH   6   7
ATOM      7  C   UNL     1      -1.612  -7.216 -20.226  1.00  0.00     0.053 C 
BRANCH   7   8
ATOM      8  C   UNL     1      -1.512  -8.351 -21.195  1.00  0.00     0.041 C 
ATOM      9  O   UNL     1      -2.492  -8.645 -21.931  1.00  0.00    -0.550 OA
ATOM     10  O   UNL     1      -0.354  -9.116 -21.253  1.00  0.00    -0.550 OA
ENDBRANCH   7   8
ENDBRANCH   6   7
ENDBRANCH   5   6
ENDBRANCH   4   5
ENDBRANCH   3   4
ENDBRANCH   2   3
ENDBRANCH   1   2
BRANCH   1  11
ATOM     11  C   UNL     1      -5.725 -10.505 -15.639  1.00  0.00     0.000 C 
BRANCH  11  12
ATOM     12  C   UNL     1      -5.430 -10.622 -17.143  1.00  0.00    -0.000 C 
BRANCH  12  13
ATOM     13  C   UNL     1      -3.937 -10.865 -17.392  1.00  0.00    -0.000 C 
BRANCH  13  14
ATOM     14  C   UNL     1      -3.197 -11.146 -16.076  1.00  0.00    -0.000 C 
BRANCH  14  15
ATOM     15  C   UNL     1      -2.110 -10.102 -15.764  1.00  0.00    -0.000 C 
BRANCH  15  16
ATOM     16  C   UNL     1      -2.042  -9.649 -14.291  1.00  0.00    -0.000 C 
BRANCH  16  17
ATOM     17  C   UNL     1      -1.151  -8.424 -14.028  1.00  0.00    -0.003 C 
ATOM     18  C   UNL     1      -0.650  -7.765 -15.313  1.00  0.00     0.004 C 
ENDBRANCH  16  17
ENDBRANCH  15  16
ENDBRANCH  14  15
ENDBRANCH  13  14
ENDBRANCH  12  13
ENDBRANCH  11  12
ENDBRANCH   1  11
TORSDOF 14
ENDMDL
MODEL 8
REMARK VINA RESULT:    -3.774     14.849     17.277
REMARK INTER + INTRA:          -9.233
REMARK INTER:                  -7.246
REMARK INTRA:                  -1.987
REMARK UNBOUND:                -2.370
REMARK SMILES CCCCCCCCCCCCCCCC(=O)[O-]
REMARK SMILES IDX 9 1 10 2 11 3 12 4 13 5 14 6 15 7 16 8 17 9 18 10 8 11 7 12
REMARK SMILES IDX 6 13 5 14 4 15 3 16 2 17 1 18
REMARK H PARENT
REMARK Flexibility Score: inf
ROOT
ATOM      1  C   UNL     1     -15.409  -2.345 -19.495  1.00  0.00     0.000 C 
ENDROOT
BRANCH   1   2
ATOM      2  C   UNL     1     -16.318  -1.980 -20.682  1.00  0.00     0.000 C 
BRANCH   2   3
ATOM      3  C   UNL     1     -17.527  -1.131 -20.258  1.00  0.00     0.000 C 
BRANCH   3   4
ATOM      4  C   UNL     1     -18.861  -1.879 -20.430  1.00  0.00     0.000 C 
BRANCH   4   5
ATOM      5  C   UNL     1     -19.680  -1.376 -21.633  1.00  0.00     0.000 C 
BRANCH   5   6
ATOM      6  C   UNL     1     -18.979  -1.501 -22.998  1.00  0.00     0.006 C 
BRANCH   6   7
ATOM      7  C   UNL     1     -19.189  -0.274 -23.894  1.00  0.00     0.053 C 
BRANCH   7   8
ATOM      8  C   UNL     1     -18.138   0.755 -23.622  1.00  0.00     0.041 C 
ATOM      9  O   UNL     1     -16.929   0.417 -23.521  1.00  0.00    -0.550 OA
ATOM     10  O   UNL     1     -18.499   2.083 -23.433  1.00  0.00    -0.550 OA
ENDBRANCH   7   8
ENDBRANCH   6   7
ENDBRANCH   5   6
ENDBRANCH   4   5
ENDBRANCH   3   4
ENDBRANCH   2   3
ENDBRANCH   1   2
BRANCH   1  11
ATOM     11  C   UNL     1     -15.661  -1.462 -18.263  1.00  0.00     0.000 C 
BRANCH  11  12
ATOM     12  C   UNL     1     -15.171  -2.109 -16.958  1.00  0.00    -0.000 C 
BRANCH  12  13
ATOM     13  C   UNL     1     -16.028  -1.661 -15.768  1.00  0.00    -0.000 C 
BRANCH  13  14
ATOM     14  C   UNL     1     -17.419  -1.205 -16.231  1.00  0.00    -0.000 C 
BRANCH  14  15
ATOM     15  C   UNL     1     -18.548  -2.126 -15.736  1.00  0.00    -0.000 C 
BRANCH  15  16
ATOM     16  C   UNL     1     -19.245  -2.955 -16.835  1.00  0.00    -0.000 C 
BRANCH  16  17
ATOM     17  C   UNL     1     -18.335  -3.952 -17.573  1.00  0.00    -0.003 C 
ATOM     18  C   UNL     1     -17.760  -5.027 -16.651  1.00  0.00     0.004 C 
ENDBRANCH  16  17
ENDBRANCH  15  16
ENDBRANCH  14  15
ENDBRANCH  13  14
ENDBRANCH  12  13
ENDBRANCH  11  12
ENDBRANCH   1  11
TORSDOF 14
ENDMDL
MODEL 9
REMARK VINA RESULT:    -3.753      3.778      5.769
REMARK INTER + INTRA:          -9.195
REMARK INTER:                  -6.625
REMARK INTRA:                  -2.569
REMARK UNBOUND:                -2.370
REMARK SMILES CCCCCCCCCCCCCCCC(=O)[O-]
REMARK SMILES IDX 9 1 10 2 11 3 12 4 13 5 14 6 15 7 16 8 17 9 18 10 8 11 7 12
REMARK SMILES IDX 6 13 5 14 4 15 3 16 2 17 1 18
REMARK H PARENT
REMARK Flexibility Score: inf
ROOT
ATOM      1  C   UNL     1      -4.336  -7.363 -18.616  1.00  0.00     0.000 C 
ENDROOT
BRANCH   1   2
ATOM      2  C   UNL     1      -3.785  -6.878 -17.264  1.00  0.00     0.000 C 
BRANCH   2   3
ATOM      3  C   UNL     1      -2.253  -6.978 -17.182  1.00  0.00     0.000 C 
BRANCH   3   4
ATOM      4  C   UNL     1      -1.783  -8.275 -16.501  1.00  0.00     0.000 C 
BRANCH   4   5
ATOM      5  C   UNL     1      -0.887  -9.139 -17.408  1.00  0.00     0.000 C 
BRANCH   5   6
ATOM      6  C   UNL     1      -0.345  -8.424 -18.660  1.00  0.00     0.006 C 
BRANCH   6   7
ATOM      7  C   UNL     1      -0.741  -9.122 -19.966  1.00  0.00     0.053 C 
BRANCH   7   8
ATOM      8  C   UNL     1      -1.397  -8.153 -20.898  1.00  0.00     0.041 C 
ATOM      9  O   UNL     1      -1.994  -8.566 -21.927  1.00  0.00    -0.550 OA
ATOM     10  O   UNL     1      -1.307  -6.787 -20.656  1.00  0.00    -0.550 OA
ENDBRANCH   7   8
ENDBRANCH   6   7
ENDBRANCH   5   6
ENDBRANCH   4   5
ENDBRANCH   3   4
ENDBRANCH   2   3
ENDBRANCH   1   2
BRANCH   1  11
ATOM     11  C   UNL     1      -4.985  -8.753 -18.526  1.00  0.00     0.000 C 
BRANCH  11  12
ATOM     12  C   UNL     1      -4.072  -9.870 -19.055  1.00  0.00    -0.000 C 
BRANCH  12  13
ATOM     13  C   UNL     1      -4.087 -11.082 -18.116  1.00  0.00    -0.000 C 
BRANCH  13  14
ATOM     14  C   UNL     1      -5.191 -10.946 -17.058  1.00  0.00    -0.000 C 
BRANCH  14  15
ATOM     15  C   UNL     1      -4.648 -10.960 -15.618  1.00  0.00    -0.000 C 
BRANCH  15  16
ATOM     16  C   UNL     1      -4.746  -9.615 -14.870  1.00  0.00    -0.000 C 
BRANCH  16  17
ATOM     17  C   UNL     1      -6.145  -8.976 -14.862  1.00  0.00    -0.003 C 
ATOM     18  C   UNL     1      -7.230  -9.924 -14.355  1.00  0.00     0.004 C 
ENDBRANCH  16  17
ENDBRANCH  15  16
ENDBRANCH  14  15
ENDBRANCH  13  14
ENDBRANCH  12  13
ENDBRANCH  11  12
ENDBRANCH   1  11
TORSDOF 14
ENDMDL
