MODEL 1
REMARK VINA RESULT:    -8.344      0.000      0.000
REMARK INTER + INTRA:         -10.314
REMARK INTER:                 -10.051
REMARK INTRA:                  -0.263
REMARK UNBOUND:                -0.263
REMARK SMILES O=c1c(O)c(-c2ccc(O)c(O)c2)oc2cc(O)cc(O)c12
REMARK SMILES IDX 5 1 3 2 2 3 1 4 22 5 20 6 19 7 17 8 16 9 15 10 14 11 6 12
REMARK SMILES IDX 7 13 8 14 9 15 13 16 11 17 10 18 12 20 4 22 21 24 18 26
REMARK H PARENT 10 19 12 21 4 23 21 25 18 27
REMARK Flexibility Score: inf
ROOT
ATOM      1  C   UNL     1      12.170  13.251  16.133  1.00  0.00     0.180 A 
ATOM      2  C   UNL     1      11.057  13.739  16.847  1.00  0.00     0.208 A 
ATOM      3  C   UNL     1      11.234  14.824  17.720  1.00  0.00     0.238 A 
ATOM      4  O   UNL     1      10.248  15.261  18.373  1.00  0.00    -0.285 OA
ATOM      5  C   UNL     1      12.508  15.414  17.851  1.00  0.00     0.111 A 
ATOM      6  C   UNL     1      12.768  16.512  18.706  1.00  0.00     0.134 A 
ATOM      7  C   UNL     1      14.063  17.049  18.772  1.00  0.00     0.093 A 
ATOM      8  C   UNL     1      15.097  16.512  18.004  1.00  0.00     0.123 A 
ATOM      9  C   UNL     1      14.846  15.427  17.157  1.00  0.00     0.094 A 
ATOM     10  C   UNL     1      13.564  14.876  17.078  1.00  0.00     0.146 A 
ATOM     11  O   UNL     1      13.353  13.843  16.271  1.00  0.00    -0.452 OA
ENDROOT
BRANCH   1  12
ATOM     12  C   UNL     1      12.068  12.100  15.208  1.00  0.00     0.025 A 
ATOM     13  C   UNL     1      12.591  10.840  15.548  1.00  0.00     0.016 A 
ATOM     14  C   UNL     1      12.505   9.774  14.648  1.00  0.00     0.051 A 
ATOM     15  C   UNL     1      11.909   9.954  13.393  1.00  0.00     0.157 A 
ATOM     16  C   UNL     1      11.492  12.281  13.941  1.00  0.00     0.062 A 
ATOM     17  C   UNL     1      11.403  11.215  13.037  1.00  0.00     0.158 A 
BRANCH  15  18
ATOM     18  O   UNL     1      11.824   8.888  12.498  1.00  0.00    -0.504 OA
ATOM     19  H   UNL     1      12.482   8.118  12.526  1.00  0.00     0.293 HD
ENDBRANCH  15  18
BRANCH  17  20
ATOM     20  O   UNL     1      10.812  11.430  11.793  1.00  0.00    -0.504 OA
ATOM     21  H   UNL     1      10.328  10.693  11.293  1.00  0.00     0.293 HD
ENDBRANCH  17  20
ENDBRANCH   1  12
BRANCH   2  22
ATOM     22  O   UNL     1       9.796  13.168  16.662  1.00  0.00    -0.502 OA
ATOM     23  H   UNL     1       9.202  12.901  17.439  1.00  0.00     0.293 HD
ENDBRANCH   2  22
BRANCH   6  24
ATOM     24  O   UNL     1      11.756  17.071  19.486  1.00  0.00    -0.507 OA
ATOM     25  H   UNL     1      10.842  16.640  19.562  1.00  0.00     0.293 HD
ENDBRANCH   6  24
BRANCH   8  26
ATOM     26  O   UNL     1      16.373  17.065  18.088  1.00  0.00    -0.508 OA
ATOM     27  H   UNL     1      17.182  16.592  17.702  1.00  0.00     0.293 HD
ENDBRANCH   8  26
TORSDOF 6
ENDMDL
MODEL 2
REMARK VINA RESULT:    -8.325      2.036      6.614
REMARK INTER + INTRA:         -10.292
REMARK INTER:                  -9.999
REMARK INTRA:                  -0.292
REMARK UNBOUND:                -0.263
REMARK SMILES O=c1c(O)c(-c2ccc(O)c(O)c2)oc2cc(O)cc(O)c12
REMARK SMILES IDX 5 1 3 2 2 3 1 4 22 5 20 6 19 7 17 8 16 9 15 10 14 11 6 12
REMARK SMILES IDX 7 13 8 14 9 15 13 16 11 17 10 18 12 20 4 22 21 24 18 26
REMARK H PARENT 10 19 12 21 4 23 21 25 18 27
REMARK Flexibility Score: inf
ROOT
ATOM      1  C   UNL     1      11.324  13.272  17.089  1.00  0.00     0.180 A 
ATOM      2  C   UNL     1       9.929  13.086  17.026  1.00  0.00     0.208 A 
ATOM      3  C   UNL     1       9.365  12.578  15.845  1.00  0.00     0.238 A 
ATOM      4  O   UNL     1       8.117  12.417  15.773  1.00  0.00    -0.285 OA
ATOM      5  C   UNL     1      10.202  12.247  14.759  1.00  0.00     0.111 A 
ATOM      6  C   UNL     1       9.712  11.727  13.536  1.00  0.00     0.134 A 
ATOM      7  C   UNL     1      10.611  11.413  12.506  1.00  0.00     0.093 A 
ATOM      8  C   UNL     1      11.984  11.609  12.672  1.00  0.00     0.123 A 
ATOM      9  C   UNL     1      12.472  12.123  13.879  1.00  0.00     0.094 A 
ATOM     10  C   UNL     1      11.594  12.443  14.917  1.00  0.00     0.146 A 
ATOM     11  O   UNL     1      12.083  12.935  16.049  1.00  0.00    -0.452 OA
ENDROOT
BRANCH   1  12
ATOM     12  C   UNL     1      11.992  13.820  18.291  1.00  0.00     0.025 A 
ATOM     13  C   UNL     1      12.609  12.978  19.233  1.00  0.00     0.016 A 
ATOM     14  C   UNL     1      13.211  13.516  20.373  1.00  0.00     0.051 A 
ATOM     15  C   UNL     1      13.194  14.899  20.596  1.00  0.00     0.157 A 
ATOM     16  C   UNL     1      11.958  15.203  18.530  1.00  0.00     0.062 A 
ATOM     17  C   UNL     1      12.562  15.745  19.672  1.00  0.00     0.158 A 
BRANCH  15  18
ATOM     18  O   UNL     1      13.798  15.433  21.734  1.00  0.00    -0.504 OA
ATOM     19  H   UNL     1      13.988  16.424  21.819  1.00  0.00     0.293 HD
ENDBRANCH  15  18
BRANCH  17  20
ATOM     20  O   UNL     1      12.520  17.125  19.868  1.00  0.00    -0.504 OA
ATOM     21  H   UNL     1      11.687  17.670  19.677  1.00  0.00     0.293 HD
ENDBRANCH  17  20
ENDBRANCH   1  12
BRANCH   2  22
ATOM     22  O   UNL     1       9.129  13.375  18.133  1.00  0.00    -0.502 OA
ATOM     23  H   UNL     1       9.315  12.991  19.052  1.00  0.00     0.293 HD
ENDBRANCH   2  22
BRANCH   6  24
ATOM     24  O   UNL     1       8.347  11.520  13.338  1.00  0.00    -0.507 OA
ATOM     25  H   UNL     1       7.655  11.868  13.991  1.00  0.00     0.293 HD
ENDBRANCH   6  24
BRANCH   8  26
ATOM     26  O   UNL     1      12.854  11.288  11.633  1.00  0.00    -0.508 OA
ATOM     27  H   UNL     1      13.571  11.935  11.324  1.00  0.00     0.293 HD
ENDBRANCH   8  26
TORSDOF 6
ENDMDL
MODEL 3
REMARK VINA RESULT:    -8.266      1.215      1.695
REMARK INTER + INTRA:         -10.220
REMARK INTER:                 -10.031
REMARK INTRA:                  -0.189
REMARK UNBOUND:                -0.263
REMARK SMILES O=c1c(O)c(-c2ccc(O)c(O)c2)oc2cc(O)cc(O)c12
REMARK SMILES IDX 5 1 3 2 2 3 1 4 22 5 20 6 19 7 17 8 16 9 15 10 14 11 6 12
REMARK SMILES IDX 7 13 8 14 9 15 13 16 11 17 10 18 12 20 4 22 21 24 18 26
REMARK H PARENT 10 19 12 21 4 23 21 25 18 27
REMARK Flexibility Score: inf
ROOT
ATOM      1  C   UNL     1      12.868  13.995  15.995  1.00  0.00     0.180 A 
ATOM      2  C   UNL     1      11.732  14.271  16.781  1.00  0.00     0.208 A 
ATOM      3  C   UNL     1      11.875  15.076  17.922  1.00  0.00     0.238 A 
ATOM      4  O   UNL     1      10.867  15.320  18.639  1.00  0.00    -0.285 OA
ATOM      5  C   UNL     1      13.140  15.606  18.247  1.00  0.00     0.111 A 
ATOM      6  C   UNL     1      13.367  16.429  19.377  1.00  0.00     0.134 A 
ATOM      7  C   UNL     1      14.655  16.926  19.626  1.00  0.00     0.093 A 
ATOM      8  C   UNL     1      15.716  16.618  18.773  1.00  0.00     0.123 A 
ATOM      9  C   UNL     1      15.497  15.805  17.655  1.00  0.00     0.094 A 
ATOM     10  C   UNL     1      14.222  15.299  17.389  1.00  0.00     0.146 A 
ATOM     11  O   UNL     1      14.043  14.525  16.325  1.00  0.00    -0.452 OA
ENDROOT
BRANCH   1  12
ATOM     12  C   UNL     1      12.802  13.140  14.789  1.00  0.00     0.025 A 
ATOM     13  C   UNL     1      12.974  13.678  13.501  1.00  0.00     0.016 A 
ATOM     14  C   UNL     1      12.883  12.855  12.375  1.00  0.00     0.051 A 
ATOM     15  C   UNL     1      12.606  11.490  12.517  1.00  0.00     0.157 A 
ATOM     16  C   UNL     1      12.503  11.775  14.924  1.00  0.00     0.062 A 
ATOM     17  C   UNL     1      12.412  10.948  13.798  1.00  0.00     0.158 A 
BRANCH  15  18
ATOM     18  O   UNL     1      12.518  10.672  11.390  1.00  0.00    -0.504 OA
ATOM     19  H   UNL     1      13.101   9.850  11.285  1.00  0.00     0.293 HD
ENDBRANCH  15  18
BRANCH  17  20
ATOM     20  O   UNL     1      12.126   9.595  13.973  1.00  0.00    -0.504 OA
ATOM     21  H   UNL     1      11.414   9.121  13.431  1.00  0.00     0.293 HD
ENDBRANCH  17  20
ENDBRANCH   1  12
BRANCH   2  22
ATOM     22  O   UNL     1      10.480  13.774  16.409  1.00  0.00    -0.502 OA
ATOM     23  H   UNL     1      10.062  13.976  15.509  1.00  0.00     0.293 HD
ENDBRANCH   2  22
BRANCH   6  24
ATOM     24  O   UNL     1      12.329  16.755  20.249  1.00  0.00    -0.507 OA
ATOM     25  H   UNL     1      11.882  16.056  20.831  1.00  0.00     0.293 HD
ENDBRANCH   6  24
BRANCH   8  26
ATOM     26  O   UNL     1      16.985  17.125  19.044  1.00  0.00    -0.508 OA
ATOM     27  H   UNL     1      17.115  17.948  19.621  1.00  0.00     0.293 HD
ENDBRANCH   8  26
TORSDOF 6
ENDMDL
MODEL 4
REMARK VINA RESULT:    -7.688      2.198      7.117
REMARK INTER + INTRA:          -9.524
REMARK INTER:                  -9.261
REMARK INTRA:                  -0.263
REMARK UNBOUND:                -0.263
REMARK SMILES O=c1c(O)c(-c2ccc(O)c(O)c2)oc2cc(O)cc(O)c12
REMARK SMILES IDX 5 1 3 2 2 3 1 4 22 5 20 6 19 7 17 8 16 9 15 10 14 11 6 12
REMARK SMILES IDX 7 13 8 14 9 15 13 16 11 17 10 18 12 20 4 22 21 24 18 26
REMARK H PARENT 10 19 12 21 4 23 21 25 18 27
REMARK Flexibility Score: inf
ROOT
ATOM      1  C   UNL     1      12.000  13.471  16.916  1.00  0.00     0.180 A 
ATOM      2  C   UNL     1      12.635  13.416  15.659  1.00  0.00     0.208 A 
ATOM      3  C   UNL     1      11.950  12.840  14.578  1.00  0.00     0.238 A 
ATOM      4  O   UNL     1      12.513  12.775  13.451  1.00  0.00    -0.285 OA
ATOM      5  C   UNL     1      10.642  12.349  14.763  1.00  0.00     0.111 A 
ATOM      6  C   UNL     1       9.883  11.758  13.724  1.00  0.00     0.134 A 
ATOM      7  C   UNL     1       8.582  11.303  13.987  1.00  0.00     0.093 A 
ATOM      8  C   UNL     1       8.028  11.425  15.262  1.00  0.00     0.123 A 
ATOM      9  C   UNL     1       8.773  12.008  16.292  1.00  0.00     0.094 A 
ATOM     10  C   UNL     1      10.071  12.467  16.052  1.00  0.00     0.146 A 
ATOM     11  O   UNL     1      10.759  13.011  17.049  1.00  0.00    -0.452 OA
ENDROOT
BRANCH   1  12
ATOM     12  C   UNL     1      12.663  14.046  18.108  1.00  0.00     0.025 A 
ATOM     13  C   UNL     1      13.702  13.366  18.767  1.00  0.00     0.016 A 
ATOM     14  C   UNL     1      14.296  13.917  19.905  1.00  0.00     0.051 A 
ATOM     15  C   UNL     1      13.853  15.147  20.409  1.00  0.00     0.157 A 
ATOM     16  C   UNL     1      12.208  15.268  18.630  1.00  0.00     0.062 A 
ATOM     17  C   UNL     1      12.802  15.823  19.770  1.00  0.00     0.158 A 
BRANCH  15  18
ATOM     18  O   UNL     1      14.450  15.695  21.545  1.00  0.00    -0.504 OA
ATOM     19  H   UNL     1      15.303  15.312  21.933  1.00  0.00     0.293 HD
ENDBRANCH  15  18
BRANCH  17  20
ATOM     20  O   UNL     1      12.331  17.044  20.250  1.00  0.00    -0.504 OA
ATOM     21  H   UNL     1      12.491  17.344  21.205  1.00  0.00     0.293 HD
ENDBRANCH  17  20
ENDBRANCH   1  12
BRANCH   2  22
ATOM     22  O   UNL     1      13.913  13.954  15.491  1.00  0.00    -0.502 OA
ATOM     23  H   UNL     1      14.360  14.019  14.584  1.00  0.00     0.293 HD
ENDBRANCH   2  22
BRANCH   6  24
ATOM     24  O   UNL     1      10.408  11.621  12.439  1.00  0.00    -0.507 OA
ATOM     25  H   UNL     1       9.987  12.079  11.639  1.00  0.00     0.293 HD
ENDBRANCH   6  24
BRANCH   8  26
ATOM     26  O   UNL     1       6.734  10.964  15.495  1.00  0.00    -0.508 OA
ATOM     27  H   UNL     1       6.458  10.592  16.397  1.00  0.00     0.293 HD
ENDBRANCH   8  26
TORSDOF 6
ENDMDL
MODEL 5
REMARK VINA RESULT:    -7.550      2.832      3.394
REMARK INTER + INTRA:          -9.358
REMARK INTER:                  -9.097
REMARK INTRA:                  -0.261
REMARK UNBOUND:                -0.263
REMARK SMILES O=c1c(O)c(-c2ccc(O)c(O)c2)oc2cc(O)cc(O)c12
REMARK SMILES IDX 5 1 3 2 2 3 1 4 22 5 20 6 19 7 17 8 16 9 15 10 14 11 6 12
REMARK SMILES IDX 7 13 8 14 9 15 13 16 11 17 10 18 12 20 4 22 21 24 18 26
REMARK H PARENT 10 19 12 21 4 23 21 25 18 27
REMARK Flexibility Score: inf
ROOT
ATOM      1  C   UNL     1      10.765  12.506  17.185  1.00  0.00     0.180 A 
ATOM      2  C   UNL     1      10.737  11.572  18.239  1.00  0.00     0.208 A 
ATOM      3  C   UNL     1      11.437  11.862  19.420  1.00  0.00     0.238 A 
ATOM      4  O   UNL     1      11.428  11.028  20.366  1.00  0.00    -0.285 OA
ATOM      5  C   UNL     1      12.134  13.082  19.537  1.00  0.00     0.111 A 
ATOM      6  C   UNL     1      12.860  13.451  20.695  1.00  0.00     0.134 A 
ATOM      7  C   UNL     1      13.519  14.689  20.737  1.00  0.00     0.093 A 
ATOM      8  C   UNL     1      13.467  15.561  19.648  1.00  0.00     0.123 A 
ATOM      9  C   UNL     1      12.751  15.201  18.501  1.00  0.00     0.094 A 
ATOM     10  C   UNL     1      12.089  13.973  18.439  1.00  0.00     0.146 A 
ATOM     11  O   UNL     1      11.420  13.654  17.337  1.00  0.00    -0.452 OA
ENDROOT
BRANCH   1  12
ATOM     12  C   UNL     1      10.067  12.266  15.902  1.00  0.00     0.025 A 
ATOM     13  C   UNL     1      10.778  11.948  14.730  1.00  0.00     0.016 A 
ATOM     14  C   UNL     1      10.099  11.750  13.525  1.00  0.00     0.051 A 
ATOM     15  C   UNL     1       8.706  11.878  13.468  1.00  0.00     0.157 A 
ATOM     16  C   UNL     1       8.673  12.415  15.834  1.00  0.00     0.062 A 
ATOM     17  C   UNL     1       7.990  12.216  14.628  1.00  0.00     0.158 A 
BRANCH  15  18
ATOM     18  O   UNL     1       8.032  11.677  12.263  1.00  0.00    -0.504 OA
ATOM     19  H   UNL     1       8.321  12.140  11.411  1.00  0.00     0.293 HD
ENDBRANCH  15  18
BRANCH  17  20
ATOM     20  O   UNL     1       6.603  12.360  14.604  1.00  0.00    -0.504 OA
ATOM     21  H   UNL     1       6.136  13.140  15.051  1.00  0.00     0.293 HD
ENDBRANCH  17  20
ENDBRANCH   1  12
BRANCH   2  22
ATOM     22  O   UNL     1       9.998  10.393  18.116  1.00  0.00    -0.502 OA
ATOM     23  H   UNL     1      10.436   9.492  17.966  1.00  0.00     0.293 HD
ENDBRANCH   2  22
BRANCH   6  24
ATOM     24  O   UNL     1      12.932  12.602  21.799  1.00  0.00    -0.507 OA
ATOM     25  H   UNL     1      13.768  12.537  22.369  1.00  0.00     0.293 HD
ENDBRANCH   6  24
BRANCH   8  26
ATOM     26  O   UNL     1      14.131  16.784  19.716  1.00  0.00    -0.508 OA
ATOM     27  H   UNL     1      13.767  17.610  19.255  1.00  0.00     0.293 HD
ENDBRANCH   8  26
TORSDOF 6
ENDMDL
MODEL 6
REMARK VINA RESULT:    -7.357      2.704      3.263
REMARK INTER + INTRA:          -9.125
REMARK INTER:                  -8.872
REMARK INTRA:                  -0.253
REMARK UNBOUND:                -0.263
REMARK SMILES O=c1c(O)c(-c2ccc(O)c(O)c2)oc2cc(O)cc(O)c12
REMARK SMILES IDX 5 1 3 2 2 3 1 4 22 5 20 6 19 7 17 8 16 9 15 10 14 11 6 12
REMARK SMILES IDX 7 13 8 14 9 15 13 16 11 17 10 18 12 20 4 22 21 24 18 26
REMARK H PARENT 10 19 12 21 4 23 21 25 18 27
REMARK Flexibility Score: inf
ROOT
ATOM      1  C   UNL     1      10.681  12.540  17.117  1.00  0.00     0.180 A 
ATOM      2  C   UNL     1      10.640  11.592  18.158  1.00  0.00     0.208 A 
ATOM      3  C   UNL     1      11.360  11.846  19.336  1.00  0.00     0.238 A 
ATOM      4  O   UNL     1      11.340  11.000  20.270  1.00  0.00    -0.285 OA
ATOM      5  C   UNL     1      12.089  13.047  19.462  1.00  0.00     0.111 A 
ATOM      6  C   UNL     1      12.837  13.380  20.617  1.00  0.00     0.134 A 
ATOM      7  C   UNL     1      13.528  14.600  20.669  1.00  0.00     0.093 A 
ATOM      8  C   UNL     1      13.487  15.489  19.594  1.00  0.00     0.123 A 
ATOM      9  C   UNL     1      12.750  15.164  18.449  1.00  0.00     0.094 A 
ATOM     10  C   UNL     1      12.055  13.954  18.377  1.00  0.00     0.146 A 
ATOM     11  O   UNL     1      11.367  13.668  17.278  1.00  0.00    -0.452 OA
ENDROOT
BRANCH   1  12
ATOM     12  C   UNL     1       9.964  12.336  15.838  1.00  0.00     0.025 A 
ATOM     13  C   UNL     1       8.565  12.459  15.755  1.00  0.00     0.016 A 
ATOM     14  C   UNL     1       7.908  12.237  14.543  1.00  0.00     0.051 A 
ATOM     15  C   UNL     1       8.634  11.877  13.400  1.00  0.00     0.157 A 
ATOM     16  C   UNL     1      10.684  11.952  14.696  1.00  0.00     0.062 A 
ATOM     17  C   UNL     1      10.028  11.730  13.479  1.00  0.00     0.158 A 
BRANCH  15  18
ATOM     18  O   UNL     1       7.974  11.658  12.191  1.00  0.00    -0.504 OA
ATOM     19  H   UNL     1       7.940  12.368  11.469  1.00  0.00     0.293 HD
ENDBRANCH  15  18
BRANCH  17  20
ATOM     20  O   UNL     1      10.779  11.365  12.362  1.00  0.00    -0.504 OA
ATOM     21  H   UNL     1      11.792  11.337  12.381  1.00  0.00     0.293 HD
ENDBRANCH  17  20
ENDBRANCH   1  12
BRANCH   2  22
ATOM     22  O   UNL     1       9.870  10.434  18.027  1.00  0.00    -0.502 OA
ATOM     23  H   UNL     1       8.857  10.451  18.042  1.00  0.00     0.293 HD
ENDBRANCH   2  22
BRANCH   6  24
ATOM     24  O   UNL     1      12.898  12.513  21.708  1.00  0.00    -0.507 OA
ATOM     25  H   UNL     1      12.689  11.525  21.617  1.00  0.00     0.293 HD
ENDBRANCH   6  24
BRANCH   8  26
ATOM     26  O   UNL     1      14.182  16.694  19.672  1.00  0.00    -0.508 OA
ATOM     27  H   UNL     1      14.905  16.844  20.365  1.00  0.00     0.293 HD
ENDBRANCH   8  26
TORSDOF 6
ENDMDL
MODEL 7
REMARK VINA RESULT:    -7.231      1.752      6.644
REMARK INTER + INTRA:          -8.973
REMARK INTER:                  -8.641
REMARK INTRA:                  -0.332
REMARK UNBOUND:                -0.263
REMARK SMILES O=c1c(O)c(-c2ccc(O)c(O)c2)oc2cc(O)cc(O)c12
REMARK SMILES IDX 5 1 3 2 2 3 1 4 22 5 20 6 19 7 17 8 16 9 15 10 14 11 6 12
REMARK SMILES IDX 7 13 8 14 9 15 13 16 11 17 10 18 12 20 4 22 21 24 18 26
REMARK H PARENT 10 19 12 21 4 23 21 25 18 27
REMARK Flexibility Score: inf
ROOT
ATOM      1  C   UNL     1      12.696  13.946  17.385  1.00  0.00     0.180 A 
ATOM      2  C   UNL     1      11.354  14.250  17.685  1.00  0.00     0.208 A 
ATOM      3  C   UNL     1      10.335  13.625  16.948  1.00  0.00     0.238 A 
ATOM      4  O   UNL     1       9.131  13.898  17.200  1.00  0.00    -0.285 OA
ATOM      5  C   UNL     1      10.672  12.695  15.943  1.00  0.00     0.111 A 
ATOM      6  C   UNL     1       9.706  12.020  15.159  1.00  0.00     0.134 A 
ATOM      7  C   UNL     1      10.123  11.101  14.184  1.00  0.00     0.093 A 
ATOM      8  C   UNL     1      11.480  10.845  13.978  1.00  0.00     0.123 A 
ATOM      9  C   UNL     1      12.439  11.511  14.749  1.00  0.00     0.094 A 
ATOM     10  C   UNL     1      12.045  12.431  15.725  1.00  0.00     0.146 A 
ATOM     11  O   UNL     1      12.975  13.053  16.440  1.00  0.00    -0.452 OA
ENDROOT
BRANCH   1  12
ATOM     12  C   UNL     1      13.825  14.577  18.104  1.00  0.00     0.025 A 
ATOM     13  C   UNL     1      14.386  15.790  17.666  1.00  0.00     0.016 A 
ATOM     14  C   UNL     1      15.468  16.354  18.347  1.00  0.00     0.051 A 
ATOM     15  C   UNL     1      16.014  15.711  19.465  1.00  0.00     0.157 A 
ATOM     16  C   UNL     1      14.390  13.925  19.212  1.00  0.00     0.062 A 
ATOM     17  C   UNL     1      15.474  14.488  19.897  1.00  0.00     0.158 A 
BRANCH  15  18
ATOM     18  O   UNL     1      17.092  16.278  20.143  1.00  0.00    -0.504 OA
ATOM     19  H   UNL     1      16.985  17.114  20.705  1.00  0.00     0.293 HD
ENDBRANCH  15  18
BRANCH  17  20
ATOM     20  O   UNL     1      15.999  13.818  21.001  1.00  0.00    -0.504 OA
ATOM     21  H   UNL     1      15.417  13.270  21.624  1.00  0.00     0.293 HD
ENDBRANCH  17  20
ENDBRANCH   1  12
BRANCH   2  22
ATOM     22  O   UNL     1      11.046  15.137  18.719  1.00  0.00    -0.502 OA
ATOM     23  H   UNL     1      11.639  15.249  19.533  1.00  0.00     0.293 HD
ENDBRANCH   2  22
BRANCH   6  24
ATOM     24  O   UNL     1       8.343  12.252  15.340  1.00  0.00    -0.507 OA
ATOM     25  H   UNL     1       8.004  12.978  15.961  1.00  0.00     0.293 HD
ENDBRANCH   6  24
BRANCH   8  26
ATOM     26  O   UNL     1      11.866   9.928  13.003  1.00  0.00    -0.508 OA
ATOM     27  H   UNL     1      11.183   9.394  12.478  1.00  0.00     0.293 HD
ENDBRANCH   8  26
TORSDOF 6
ENDMDL
MODEL 8
REMARK VINA RESULT:    -6.911     12.887     14.902
REMARK INTER + INTRA:          -8.588
REMARK INTER:                  -9.121
REMARK INTRA:                   0.533
REMARK UNBOUND:                -0.263
REMARK SMILES O=c1c(O)c(-c2ccc(O)c(O)c2)oc2cc(O)cc(O)c12
REMARK SMILES IDX 5 1 3 2 2 3 1 4 22 5 20 6 19 7 17 8 16 9 15 10 14 11 6 12
REMARK SMILES IDX 7 13 8 14 9 15 13 16 11 17 10 18 12 20 4 22 21 24 18 26
REMARK H PARENT 10 19 12 21 4 23 21 25 18 27
REMARK Flexibility Score: inf
ROOT
ATOM      1  C   UNL     1       0.465   7.744  19.597  1.00  0.00     0.180 A 
ATOM      2  C   UNL     1      -0.215   6.573  19.211  1.00  0.00     0.208 A 
ATOM      3  C   UNL     1      -0.853   5.803  20.196  1.00  0.00     0.238 A 
ATOM      4  O   UNL     1      -1.456   4.746  19.864  1.00  0.00    -0.285 OA
ATOM      5  C   UNL     1      -0.818   6.224  21.541  1.00  0.00     0.111 A 
ATOM      6  C   UNL     1      -1.440   5.508  22.593  1.00  0.00     0.134 A 
ATOM      7  C   UNL     1      -1.368   5.999  23.905  1.00  0.00     0.093 A 
ATOM      8  C   UNL     1      -0.691   7.187  24.186  1.00  0.00     0.123 A 
ATOM      9  C   UNL     1      -0.076   7.899  23.150  1.00  0.00     0.094 A 
ATOM     10  C   UNL     1      -0.134   7.426  21.837  1.00  0.00     0.146 A 
ATOM     11  O   UNL     1       0.463   8.118  20.873  1.00  0.00    -0.452 OA
ENDROOT
BRANCH   1  12
ATOM     12  C   UNL     1       1.177   8.599  18.620  1.00  0.00     0.025 A 
ATOM     13  C   UNL     1       1.731   9.836  18.996  1.00  0.00     0.016 A 
ATOM     14  C   UNL     1       2.377  10.636  18.051  1.00  0.00     0.051 A 
ATOM     15  C   UNL     1       2.468  10.222  16.716  1.00  0.00     0.157 A 
ATOM     16  C   UNL     1       1.251   8.198  17.277  1.00  0.00     0.062 A 
ATOM     17  C   UNL     1       1.899   8.998  16.327  1.00  0.00     0.158 A 
BRANCH  15  18
ATOM     18  O   UNL     1       3.116  11.023  15.776  1.00  0.00    -0.504 OA
ATOM     19  H   UNL     1       3.619  11.859  16.049  1.00  0.00     0.293 HD
ENDBRANCH  15  18
BRANCH  17  20
ATOM     20  O   UNL     1       1.965   8.560  15.005  1.00  0.00    -0.504 OA
ATOM     21  H   UNL     1       2.693   8.870  14.372  1.00  0.00     0.293 HD
ENDBRANCH  17  20
ENDBRANCH   1  12
BRANCH   2  22
ATOM     22  O   UNL     1      -0.276   6.204  17.865  1.00  0.00    -0.502 OA
ATOM     23  H   UNL     1      -1.154   6.035  17.388  1.00  0.00     0.293 HD
ENDBRANCH   2  22
BRANCH   6  24
ATOM     24  O   UNL     1      -2.124   4.317  22.345  1.00  0.00    -0.507 OA
ATOM     25  H   UNL     1      -2.535   3.773  23.095  1.00  0.00     0.293 HD
ENDBRANCH   6  24
BRANCH   8  26
ATOM     26  O   UNL     1      -0.636   7.653  25.498  1.00  0.00    -0.508 OA
ATOM     27  H   UNL     1      -1.477   7.885  26.013  1.00  0.00     0.293 HD
ENDBRANCH   8  26
TORSDOF 6
ENDMDL
