MODEL 1
REMARK VINA RESULT:    -3.028      0.000      0.000
REMARK INTER + INTRA:          -7.887
REMARK INTER:                  -5.861
REMARK INTRA:                  -2.027
REMARK UNBOUND:                -2.027
REMARK SMILES CCCCCCCCCCCCCCCCCC(=O)[O-]
REMARK SMILES IDX 10 1 11 2 12 3 13 4 14 5 15 6 16 7 17 8 18 9 19 10 20 11
REMARK SMILES IDX 9 12 8 13 7 14 6 15 5 16 4 17 3 18 2 19 1 20
REMARK H PARENT
REMARK Flexibility Score: inf
ROOT
ATOM      1  C   UNL     1      57.376 -14.677   9.153  1.00  0.00     0.000 C 
ENDROOT
BRANCH   1   2
ATOM      2  C   UNL     1      58.063 -14.106   7.901  1.00  0.00     0.000 C 
BRANCH   2   3
ATOM      3  C   UNL     1      58.461 -15.195   6.893  1.00  0.00     0.000 C 
BRANCH   3   4
ATOM      4  C   UNL     1      57.510 -15.199   5.687  1.00  0.00     0.000 C 
BRANCH   4   5
ATOM      5  C   UNL     1      56.395 -16.255   5.802  1.00  0.00     0.000 C 
BRANCH   5   6
ATOM      6  C   UNL     1      54.978 -15.737   5.498  1.00  0.00     0.000 C 
BRANCH   6   7
ATOM      7  C   UNL     1      53.873 -16.664   6.035  1.00  0.00     0.006 C 
BRANCH   7   8
ATOM      8  C   UNL     1      53.018 -15.982   7.110  1.00  0.00     0.053 C 
BRANCH   8   9
ATOM      9  C   UNL     1      51.645 -15.660   6.605  1.00  0.00     0.041 C 
ATOM     10  O   UNL     1      50.942 -14.793   7.186  1.00  0.00    -0.550 OA
ATOM     11  O   UNL     1      51.156 -16.294   5.470  1.00  0.00    -0.550 OA
ENDBRANCH   8   9
ENDBRANCH   7   8
ENDBRANCH   6   7
ENDBRANCH   5   6
ENDBRANCH   4   5
ENDBRANCH   3   4
ENDBRANCH   2   3
ENDBRANCH   1   2
BRANCH   1  12
ATOM     12  C   UNL     1      57.852 -16.102   9.490  1.00  0.00     0.000 C 
BRANCH  12  13
ATOM     13  C   UNL     1      56.705 -17.125   9.479  1.00  0.00    -0.000 C 
BRANCH  13  14
ATOM     14  C   UNL     1      55.348 -16.499   9.833  1.00  0.00    -0.000 C 
BRANCH  14  15
ATOM     15  C   UNL     1      54.783 -17.106  11.125  1.00  0.00    -0.000 C 
BRANCH  15  16
ATOM     16  C   UNL     1      55.076 -16.228  12.361  1.00  0.00    -0.000 C 
BRANCH  16  17
ATOM     17  C   UNL     1      55.724 -17.000  13.524  1.00  0.00    -0.000 C 
BRANCH  17  18
ATOM     18  C   UNL     1      57.074 -16.404  13.957  1.00  0.00    -0.000 C 
BRANCH  18  19
ATOM     19  C   UNL     1      58.259 -17.019  13.198  1.00  0.00    -0.003 C 
ATOM     20  C   UNL     1      59.582 -16.317  13.499  1.00  0.00     0.004 C 
ENDBRANCH  18  19
ENDBRANCH  17  18
ENDBRANCH  16  17
ENDBRANCH  15  16
ENDBRANCH  14  15
ENDBRANCH  13  14
ENDBRANCH  12  13
ENDBRANCH   1  12
TORSDOF 16
ENDMDL
MODEL 2
REMARK VINA RESULT:    -2.792     20.071     22.415
REMARK INTER + INTRA:          -7.430
REMARK INTER:                  -5.102
REMARK INTRA:                  -2.329
REMARK UNBOUND:                -2.027
REMARK SMILES CCCCCCCCCCCCCCCCCC(=O)[O-]
REMARK SMILES IDX 10 1 11 2 12 3 13 4 14 5 15 6 16 7 17 8 18 9 19 10 20 11
REMARK SMILES IDX 9 12 8 13 7 14 6 15 5 16 4 17 3 18 2 19 1 20
REMARK H PARENT
REMARK Flexibility Score: inf
ROOT
ATOM      1  C   UNL     1      54.070   2.936  22.758  1.00  0.00     0.000 C 
ENDROOT
BRANCH   1   2
ATOM      2  C   UNL     1      55.091   3.084  23.898  1.00  0.00     0.000 C 
BRANCH   2   3
ATOM      3  C   UNL     1      56.519   2.714  23.468  1.00  0.00     0.000 C 
BRANCH   3   4
ATOM      4  C   UNL     1      56.530   2.141  22.043  1.00  0.00     0.000 C 
BRANCH   4   5
ATOM      5  C   UNL     1      57.051   0.693  21.980  1.00  0.00     0.000 C 
BRANCH   5   6
ATOM      6  C   UNL     1      56.039  -0.379  22.423  1.00  0.00     0.000 C 
BRANCH   6   7
ATOM      7  C   UNL     1      56.394  -1.016  23.778  1.00  0.00     0.006 C 
BRANCH   7   8
ATOM      8  C   UNL     1      57.829  -0.689  24.212  1.00  0.00     0.053 C 
BRANCH   8   9
ATOM      9  C   UNL     1      58.750  -1.851  24.001  1.00  0.00     0.041 C 
ATOM     10  O   UNL     1      59.535  -2.213  24.917  1.00  0.00    -0.550 OA
ATOM     11  O   UNL     1      58.716  -2.557  22.806  1.00  0.00    -0.550 OA
ENDBRANCH   8   9
ENDBRANCH   7   8
ENDBRANCH   6   7
ENDBRANCH   5   6
ENDBRANCH   4   5
ENDBRANCH   3   4
ENDBRANCH   2   3
ENDBRANCH   1   2
BRANCH   1  12
ATOM     12  C   UNL     1      52.722   2.371  23.242  1.00  0.00     0.000 C 
BRANCH  12  13
ATOM     13  C   UNL     1      52.795   1.819  24.675  1.00  0.00    -0.000 C 
BRANCH  13  14
ATOM     14  C   UNL     1      51.548   1.010  25.063  1.00  0.00    -0.000 C 
BRANCH  14  15
ATOM     15  C   UNL     1      50.729   0.631  23.820  1.00  0.00    -0.000 C 
BRANCH  15  16
ATOM     16  C   UNL     1      50.630  -0.898  23.629  1.00  0.00    -0.000 C 
BRANCH  16  17
ATOM     17  C   UNL     1      50.968  -1.362  22.201  1.00  0.00    -0.000 C 
BRANCH  17  18
ATOM     18  C   UNL     1      52.436  -1.109  21.822  1.00  0.00    -0.000 C 
BRANCH  18  19
ATOM     19  C   UNL     1      52.582  -0.084  20.687  1.00  0.00    -0.003 C 
ATOM     20  C   UNL     1      51.442  -0.162  19.672  1.00  0.00     0.004 C 
ENDBRANCH  18  19
ENDBRANCH  17  18
ENDBRANCH  16  17
ENDBRANCH  15  16
ENDBRANCH  14  15
ENDBRANCH  13  14
ENDBRANCH  12  13
ENDBRANCH   1  12
TORSDOF 16
ENDMDL
MODEL 3
REMARK VINA RESULT:    -2.605     20.111     22.622
REMARK INTER + INTRA:          -7.067
REMARK INTER:                  -5.197
REMARK INTRA:                  -1.871
REMARK UNBOUND:                -2.027
REMARK SMILES CCCCCCCCCCCCCCCCCC(=O)[O-]
REMARK SMILES IDX 10 1 11 2 12 3 13 4 14 5 15 6 16 7 17 8 18 9 19 10 20 11
REMARK SMILES IDX 9 12 8 13 7 14 6 15 5 16 4 17 3 18 2 19 1 20
REMARK H PARENT
REMARK Flexibility Score: inf
ROOT
ATOM      1  C   UNL     1      56.069   2.292  22.704  1.00  0.00     0.000 C 
ENDROOT
BRANCH   1   2
ATOM      2  C   UNL     1      56.988   3.039  23.685  1.00  0.00     0.000 C 
BRANCH   2   3
ATOM      3  C   UNL     1      57.099   2.335  25.047  1.00  0.00     0.000 C 
BRANCH   3   4
ATOM      4  C   UNL     1      56.931   0.816  24.893  1.00  0.00     0.000 C 
BRANCH   4   5
ATOM      5  C   UNL     1      58.239   0.039  25.124  1.00  0.00     0.000 C 
BRANCH   5   6
ATOM      6  C   UNL     1      58.195  -1.443  24.710  1.00  0.00     0.000 C 
BRANCH   6   7
ATOM      7  C   UNL     1      59.028  -1.738  23.450  1.00  0.00     0.006 C 
BRANCH   7   8
ATOM      8  C   UNL     1      58.153  -2.172  22.267  1.00  0.00     0.053 C 
BRANCH   8   9
ATOM      9  C   UNL     1      57.254  -1.065  21.809  1.00  0.00     0.041 C 
ATOM     10  O   UNL     1      57.676  -0.198  20.999  1.00  0.00    -0.550 OA
ATOM     11  O   UNL     1      55.938  -1.011  22.248  1.00  0.00    -0.550 OA
ENDBRANCH   8   9
ENDBRANCH   7   8
ENDBRANCH   6   7
ENDBRANCH   5   6
ENDBRANCH   4   5
ENDBRANCH   3   4
ENDBRANCH   2   3
ENDBRANCH   1   2
BRANCH   1  12
ATOM     12  C   UNL     1      54.642   2.867  22.676  1.00  0.00     0.000 C 
BRANCH  12  13
ATOM     13  C   UNL     1      53.673   2.084  23.576  1.00  0.00    -0.000 C 
BRANCH  13  14
ATOM     14  C   UNL     1      52.407   2.883  23.922  1.00  0.00    -0.000 C 
BRANCH  14  15
ATOM     15  C   UNL     1      51.154   2.001  23.814  1.00  0.00    -0.000 C 
BRANCH  15  16
ATOM     16  C   UNL     1      50.334   2.303  22.541  1.00  0.00    -0.000 C 
BRANCH  16  17
ATOM     17  C   UNL     1      50.456   1.217  21.458  1.00  0.00    -0.000 C 
BRANCH  17  18
ATOM     18  C   UNL     1      51.699   1.397  20.569  1.00  0.00    -0.000 C 
BRANCH  18  19
ATOM     19  C   UNL     1      52.586   0.143  20.540  1.00  0.00    -0.003 C 
ATOM     20  C   UNL     1      52.272  -0.829  21.675  1.00  0.00     0.004 C 
ENDBRANCH  18  19
ENDBRANCH  17  18
ENDBRANCH  16  17
ENDBRANCH  15  16
ENDBRANCH  14  15
ENDBRANCH  13  14
ENDBRANCH  12  13
ENDBRANCH   1  12
TORSDOF 16
ENDMDL
MODEL 4
REMARK VINA RESULT:    -2.583     20.037     22.529
REMARK INTER + INTRA:          -7.026
REMARK INTER:                  -4.928
REMARK INTRA:                  -2.097
REMARK UNBOUND:                -2.027
REMARK SMILES CCCCCCCCCCCCCCCCCC(=O)[O-]
REMARK SMILES IDX 10 1 11 2 12 3 13 4 14 5 15 6 16 7 17 8 18 9 19 10 20 11
REMARK SMILES IDX 9 12 8 13 7 14 6 15 5 16 4 17 3 18 2 19 1 20
REMARK H PARENT
REMARK Flexibility Score: inf
ROOT
ATOM      1  C   UNL     1      53.123   1.088  22.951  1.00  0.00     0.000 C 
ENDROOT
BRANCH   1   2
ATOM      2  C   UNL     1      53.765   1.976  21.872  1.00  0.00     0.000 C 
BRANCH   2   3
ATOM      3  C   UNL     1      54.622   3.105  22.466  1.00  0.00     0.000 C 
BRANCH   3   4
ATOM      4  C   UNL     1      56.076   2.647  22.654  1.00  0.00     0.000 C 
BRANCH   4   5
ATOM      5  C   UNL     1      56.512   2.615  24.130  1.00  0.00     0.000 C 
BRANCH   5   6
ATOM      6  C   UNL     1      56.652   1.207  24.735  1.00  0.00     0.000 C 
BRANCH   6   7
ATOM      7  C   UNL     1      56.789   0.106  23.668  1.00  0.00     0.006 C 
BRANCH   7   8
ATOM      8  C   UNL     1      57.252  -1.227  24.269  1.00  0.00     0.053 C 
BRANCH   8   9
ATOM      9  C   UNL     1      58.479  -1.747  23.585  1.00  0.00     0.041 C 
ATOM     10  O   UNL     1      58.529  -1.805  22.329  1.00  0.00    -0.550 OA
ATOM     11  O   UNL     1      59.582  -2.134  24.336  1.00  0.00    -0.550 OA
ENDBRANCH   8   9
ENDBRANCH   7   8
ENDBRANCH   6   7
ENDBRANCH   5   6
ENDBRANCH   4   5
ENDBRANCH   3   4
ENDBRANCH   2   3
ENDBRANCH   1   2
BRANCH   1  12
ATOM     12  C   UNL     1      51.994   1.807  23.713  1.00  0.00     0.000 C 
BRANCH  12  13
ATOM     13  C   UNL     1      50.649   1.070  23.606  1.00  0.00    -0.000 C 
BRANCH  13  14
ATOM     14  C   UNL     1      50.594  -0.195  24.477  1.00  0.00    -0.000 C 
BRANCH  14  15
ATOM     15  C   UNL     1      50.241  -1.428  23.634  1.00  0.00    -0.000 C 
BRANCH  15  16
ATOM     16  C   UNL     1      49.902  -1.061  22.173  1.00  0.00    -0.000 C 
BRANCH  16  17
ATOM     17  C   UNL     1      51.039  -1.365  21.182  1.00  0.00    -0.000 C 
BRANCH  17  18
ATOM     18  C   UNL     1      50.869  -0.640  19.837  1.00  0.00    -0.000 C 
BRANCH  18  19
ATOM     19  C   UNL     1      49.929   0.572  19.937  1.00  0.00    -0.003 C 
ATOM     20  C   UNL     1      50.678   1.903  19.908  1.00  0.00     0.004 C 
ENDBRANCH  18  19
ENDBRANCH  17  18
ENDBRANCH  16  17
ENDBRANCH  15  16
ENDBRANCH  14  15
ENDBRANCH  13  14
ENDBRANCH  12  13
ENDBRANCH   1  12
TORSDOF 16
ENDMDL
MODEL 5
REMARK VINA RESULT:    -2.536     20.199     22.436
REMARK INTER + INTRA:          -6.935
REMARK INTER:                  -4.915
REMARK INTRA:                  -2.020
REMARK UNBOUND:                -2.027
REMARK SMILES CCCCCCCCCCCCCCCCCC(=O)[O-]
REMARK SMILES IDX 10 1 11 2 12 3 13 4 14 5 15 6 16 7 17 8 18 9 19 10 20 11
REMARK SMILES IDX 9 12 8 13 7 14 6 15 5 16 4 17 3 18 2 19 1 20
REMARK H PARENT
REMARK Flexibility Score: inf
ROOT
ATOM      1  C   UNL     1      53.654   0.894  21.067  1.00  0.00     0.000 C 
ENDROOT
BRANCH   1   2
ATOM      2  C   UNL     1      54.072   0.808  22.544  1.00  0.00     0.000 C 
BRANCH   2   3
ATOM      3  C   UNL     1      54.599   2.143  23.091  1.00  0.00     0.000 C 
BRANCH   3   4
ATOM      4  C   UNL     1      56.092   2.315  22.773  1.00  0.00     0.000 C 
BRANCH   4   5
ATOM      5  C   UNL     1      56.987   2.234  24.023  1.00  0.00     0.000 C 
BRANCH   5   6
ATOM      6  C   UNL     1      56.711   1.030  24.942  1.00  0.00     0.000 C 
BRANCH   6   7
ATOM      7  C   UNL     1      57.625  -0.172  24.646  1.00  0.00     0.006 C 
BRANCH   7   8
ATOM      8  C   UNL     1      56.966  -1.179  23.695  1.00  0.00     0.053 C 
BRANCH   8   9
ATOM      9  C   UNL     1      57.724  -1.305  22.410  1.00  0.00     0.041 C 
ATOM     10  O   UNL     1      58.489  -2.286  22.217  1.00  0.00    -0.550 OA
ATOM     11  O   UNL     1      57.559  -0.355  21.410  1.00  0.00    -0.550 OA
ENDBRANCH   8   9
ENDBRANCH   7   8
ENDBRANCH   6   7
ENDBRANCH   5   6
ENDBRANCH   4   5
ENDBRANCH   3   4
ENDBRANCH   2   3
ENDBRANCH   1   2
BRANCH   1  12
ATOM     12  C   UNL     1      52.452  -0.009  20.739  1.00  0.00     0.000 C 
BRANCH  12  13
ATOM     13  C   UNL     1      51.239   0.786  20.230  1.00  0.00    -0.000 C 
BRANCH  13  14
ATOM     14  C   UNL     1      51.134   2.181  20.865  1.00  0.00    -0.000 C 
BRANCH  14  15
ATOM     15  C   UNL     1      50.105   2.190  22.005  1.00  0.00    -0.000 C 
BRANCH  15  16
ATOM     16  C   UNL     1      50.764   2.007  23.389  1.00  0.00    -0.000 C 
BRANCH  16  17
ATOM     17  C   UNL     1      49.876   1.258  24.398  1.00  0.00    -0.000 C 
BRANCH  17  18
ATOM     18  C   UNL     1      50.416  -0.139  24.748  1.00  0.00    -0.000 C 
BRANCH  18  19
ATOM     19  C   UNL     1      50.617  -1.019  23.504  1.00  0.00    -0.003 C 
ATOM     20  C   UNL     1      49.875  -2.351  23.598  1.00  0.00     0.004 C 
ENDBRANCH  18  19
ENDBRANCH  17  18
ENDBRANCH  16  17
ENDBRANCH  15  16
ENDBRANCH  14  15
ENDBRANCH  13  14
ENDBRANCH  12  13
ENDBRANCH   1  12
TORSDOF 16
ENDMDL
MODEL 6
REMARK VINA RESULT:    -2.417     19.825     22.330
REMARK INTER + INTRA:          -6.705
REMARK INTER:                  -5.353
REMARK INTRA:                  -1.352
REMARK UNBOUND:                -2.027
REMARK SMILES CCCCCCCCCCCCCCCCCC(=O)[O-]
REMARK SMILES IDX 10 1 11 2 12 3 13 4 14 5 15 6 16 7 17 8 18 9 19 10 20 11
REMARK SMILES IDX 9 12 8 13 7 14 6 15 5 16 4 17 3 18 2 19 1 20
REMARK H PARENT
REMARK Flexibility Score: inf
ROOT
ATOM      1  C   UNL     1      55.991   2.290  22.619  1.00  0.00     0.000 C 
ENDROOT
BRANCH   1   2
ATOM      2  C   UNL     1      56.923   3.008  23.608  1.00  0.00     0.000 C 
BRANCH   2   3
ATOM      3  C   UNL     1      56.846   2.423  25.027  1.00  0.00     0.000 C 
BRANCH   3   4
ATOM      4  C   UNL     1      56.838   0.887  24.987  1.00  0.00     0.000 C 
BRANCH   4   5
ATOM      5  C   UNL     1      58.244   0.274  25.122  1.00  0.00     0.000 C 
BRANCH   5   6
ATOM      6  C   UNL     1      58.318  -1.241  24.862  1.00  0.00     0.000 C 
BRANCH   6   7
ATOM      7  C   UNL     1      59.199  -1.599  23.651  1.00  0.00     0.006 C 
BRANCH   7   8
ATOM      8  C   UNL     1      58.381  -2.192  22.497  1.00  0.00     0.053 C 
BRANCH   8   9
ATOM      9  C   UNL     1      57.443  -1.182  21.908  1.00  0.00     0.041 C 
ATOM     10  O   UNL     1      56.225  -1.188  22.224  1.00  0.00    -0.550 OA
ATOM     11  O   UNL     1      57.923  -0.213  21.037  1.00  0.00    -0.550 OA
ENDBRANCH   8   9
ENDBRANCH   7   8
ENDBRANCH   6   7
ENDBRANCH   5   6
ENDBRANCH   4   5
ENDBRANCH   3   4
ENDBRANCH   2   3
ENDBRANCH   1   2
BRANCH   1  12
ATOM     12  C   UNL     1      54.575   2.894  22.596  1.00  0.00     0.000 C 
BRANCH  12  13
ATOM     13  C   UNL     1      53.480   1.824  22.459  1.00  0.00    -0.000 C 
BRANCH  13  14
ATOM     14  C   UNL     1      52.930   1.716  21.029  1.00  0.00    -0.000 C 
BRANCH  14  15
ATOM     15  C   UNL     1      52.650   0.252  20.656  1.00  0.00    -0.000 C 
BRANCH  15  16
ATOM     16  C   UNL     1      51.308  -0.251  21.228  1.00  0.00    -0.000 C 
BRANCH  16  17
ATOM     17  C   UNL     1      51.459  -1.428  22.208  1.00  0.00    -0.000 C 
BRANCH  17  18
ATOM     18  C   UNL     1      50.543  -1.303  23.437  1.00  0.00    -0.000 C 
BRANCH  18  19
ATOM     19  C   UNL     1      50.777   0.001  24.215  1.00  0.00    -0.003 C 
ATOM     20  C   UNL     1      49.875   1.140  23.743  1.00  0.00     0.004 C 
ENDBRANCH  18  19
ENDBRANCH  17  18
ENDBRANCH  16  17
ENDBRANCH  15  16
ENDBRANCH  14  15
ENDBRANCH  13  14
ENDBRANCH  12  13
ENDBRANCH   1  12
TORSDOF 16
ENDMDL
MODEL 7
REMARK VINA RESULT:    -2.398     19.538     21.689
REMARK INTER + INTRA:          -6.667
REMARK INTER:                  -5.319
REMARK INTRA:                  -1.348
REMARK UNBOUND:                -2.027
REMARK SMILES CCCCCCCCCCCCCCCCCC(=O)[O-]
REMARK SMILES IDX 10 1 11 2 12 3 13 4 14 5 15 6 16 7 17 8 18 9 19 10 20 11
REMARK SMILES IDX 9 12 8 13 7 14 6 15 5 16 4 17 3 18 2 19 1 20
REMARK H PARENT
REMARK Flexibility Score: inf
ROOT
ATOM      1  C   UNL     1      56.165   1.099  23.220  1.00  0.00     0.000 C 
ENDROOT
BRANCH   1   2
ATOM      2  C   UNL     1      54.719   1.305  23.698  1.00  0.00     0.000 C 
BRANCH   2   3
ATOM      3  C   UNL     1      54.332   2.789  23.797  1.00  0.00     0.000 C 
BRANCH   3   4
ATOM      4  C   UNL     1      52.880   2.946  24.273  1.00  0.00     0.000 C 
BRANCH   4   5
ATOM      5  C   UNL     1      51.849   2.484  23.227  1.00  0.00     0.000 C 
BRANCH   5   6
ATOM      6  C   UNL     1      52.240   2.762  21.765  1.00  0.00     0.000 C 
BRANCH   6   7
ATOM      7  C   UNL     1      52.137   1.515  20.869  1.00  0.00     0.006 C 
BRANCH   7   8
ATOM      8  C   UNL     1      50.943   0.629  21.247  1.00  0.00     0.053 C 
BRANCH   8   9
ATOM      9  C   UNL     1      51.379  -0.747  21.647  1.00  0.00     0.041 C 
ATOM     10  O   UNL     1      50.529  -1.660  21.813  1.00  0.00    -0.550 OA
ATOM     11  O   UNL     1      52.730  -1.030  21.802  1.00  0.00    -0.550 OA
ENDBRANCH   8   9
ENDBRANCH   7   8
ENDBRANCH   6   7
ENDBRANCH   5   6
ENDBRANCH   4   5
ENDBRANCH   3   4
ENDBRANCH   2   3
ENDBRANCH   1   2
BRANCH   1  12
ATOM     12  C   UNL     1      56.240   0.563  21.778  1.00  0.00     0.000 C 
BRANCH  12  13
ATOM     13  C   UNL     1      57.565  -0.161  21.487  1.00  0.00    -0.000 C 
BRANCH  13  14
ATOM     14  C   UNL     1      57.472  -1.678  21.706  1.00  0.00    -0.000 C 
BRANCH  14  15
ATOM     15  C   UNL     1      58.520  -2.152  22.724  1.00  0.00    -0.000 C 
BRANCH  15  16
ATOM     16  C   UNL     1      58.237  -1.618  24.145  1.00  0.00    -0.000 C 
BRANCH  16  17
ATOM     17  C   UNL     1      59.433  -1.758  25.104  1.00  0.00    -0.000 C 
BRANCH  17  18
ATOM     18  C   UNL     1      60.332  -0.510  25.123  1.00  0.00    -0.000 C 
BRANCH  18  19
ATOM     19  C   UNL     1      61.827  -0.863  25.108  1.00  0.00    -0.003 C 
ATOM     20  C   UNL     1      62.079  -2.357  24.917  1.00  0.00     0.004 C 
ENDBRANCH  18  19
ENDBRANCH  17  18
ENDBRANCH  16  17
ENDBRANCH  15  16
ENDBRANCH  14  15
ENDBRANCH  13  14
ENDBRANCH  12  13
ENDBRANCH   1  12
TORSDOF 16
ENDMDL
MODEL 8
REMARK VINA RESULT:    -2.379     19.594     21.835
REMARK INTER + INTRA:          -6.631
REMARK INTER:                  -5.258
REMARK INTRA:                  -1.373
REMARK UNBOUND:                -2.027
REMARK SMILES CCCCCCCCCCCCCCCCCC(=O)[O-]
REMARK SMILES IDX 10 1 11 2 12 3 13 4 14 5 15 6 16 7 17 8 18 9 19 10 20 11
REMARK SMILES IDX 9 12 8 13 7 14 6 15 5 16 4 17 3 18 2 19 1 20
REMARK H PARENT
REMARK Flexibility Score: inf
ROOT
ATOM      1  C   UNL     1      54.853   0.496  22.356  1.00  0.00     0.000 C 
ENDROOT
BRANCH   1   2
ATOM      2  C   UNL     1      53.682   1.424  22.716  1.00  0.00     0.000 C 
BRANCH   2   3
ATOM      3  C   UNL     1      53.424   1.495  24.230  1.00  0.00     0.000 C 
BRANCH   3   4
ATOM      4  C   UNL     1      51.983   1.080  24.560  1.00  0.00     0.000 C 
BRANCH   4   5
ATOM      5  C   UNL     1      50.957   1.598  23.536  1.00  0.00     0.000 C 
BRANCH   5   6
ATOM      6  C   UNL     1      50.143   0.504  22.823  1.00  0.00     0.000 C 
BRANCH   6   7
ATOM      7  C   UNL     1      50.886  -0.842  22.745  1.00  0.00     0.006 C 
BRANCH   7   8
ATOM      8  C   UNL     1      50.644  -1.559  21.411  1.00  0.00     0.053 C 
BRANCH   8   9
ATOM      9  C   UNL     1      50.886  -0.653  20.243  1.00  0.00     0.041 C 
ATOM     10  O   UNL     1      49.931  -0.302  19.503  1.00  0.00    -0.550 OA
ATOM     11  O   UNL     1      52.164  -0.169  19.993  1.00  0.00    -0.550 OA
ENDBRANCH   8   9
ENDBRANCH   7   8
ENDBRANCH   6   7
ENDBRANCH   5   6
ENDBRANCH   4   5
ENDBRANCH   3   4
ENDBRANCH   2   3
ENDBRANCH   1   2
BRANCH   1  12
ATOM     12  C   UNL     1      56.190   1.251  22.238  1.00  0.00     0.000 C 
BRANCH  12  13
ATOM     13  C   UNL     1      56.164   2.611  22.953  1.00  0.00    -0.000 C 
BRANCH  13  14
ATOM     14  C   UNL     1      57.110   2.665  24.161  1.00  0.00    -0.000 C 
BRANCH  14  15
ATOM     15  C   UNL     1      56.839   1.500  25.124  1.00  0.00    -0.000 C 
BRANCH  15  16
ATOM     16  C   UNL     1      57.981   0.461  25.122  1.00  0.00    -0.000 C 
BRANCH  16  17
ATOM     17  C   UNL     1      57.507  -0.973  24.828  1.00  0.00    -0.000 C 
BRANCH  17  18
ATOM     18  C   UNL     1      58.669  -1.973  24.706  1.00  0.00    -0.000 C 
BRANCH  18  19
ATOM     19  C   UNL     1      59.007  -2.306  23.245  1.00  0.00    -0.003 C 
ATOM     20  C   UNL     1      58.030  -1.674  22.255  1.00  0.00     0.004 C 
ENDBRANCH  18  19
ENDBRANCH  17  18
ENDBRANCH  16  17
ENDBRANCH  15  16
ENDBRANCH  14  15
ENDBRANCH  13  14
ENDBRANCH  12  13
ENDBRANCH   1  12
TORSDOF 16
ENDMDL
MODEL 9
REMARK VINA RESULT:    -2.327     19.468     21.552
REMARK INTER + INTRA:          -6.530
REMARK INTER:                  -5.743
REMARK INTRA:                  -0.786
REMARK UNBOUND:                -2.027
REMARK SMILES CCCCCCCCCCCCCCCCCC(=O)[O-]
REMARK SMILES IDX 10 1 11 2 12 3 13 4 14 5 15 6 16 7 17 8 18 9 19 10 20 11
REMARK SMILES IDX 9 12 8 13 7 14 6 15 5 16 4 17 3 18 2 19 1 20
REMARK H PARENT
REMARK Flexibility Score: inf
ROOT
ATOM      1  C   UNL     1      56.016   2.178  22.679  1.00  0.00     0.000 C 
ENDROOT
BRANCH   1   2
ATOM      2  C   UNL     1      54.512   2.030  22.963  1.00  0.00     0.000 C 
BRANCH   2   3
ATOM      3  C   UNL     1      53.668   3.112  22.273  1.00  0.00     0.000 C 
BRANCH   3   4
ATOM      4  C   UNL     1      52.278   2.571  21.906  1.00  0.00     0.000 C 
BRANCH   4   5
ATOM      5  C   UNL     1      51.910   2.806  20.430  1.00  0.00     0.000 C 
BRANCH   5   6
ATOM      6  C   UNL     1      50.472   2.411  20.049  1.00  0.00     0.000 C 
BRANCH   6   7
ATOM      7  C   UNL     1      50.279   0.888  19.935  1.00  0.00     0.006 C 
BRANCH   7   8
ATOM      8  C   UNL     1      51.608   0.128  20.032  1.00  0.00     0.053 C 
BRANCH   8   9
ATOM      9  C   UNL     1      51.553  -0.952  21.069  1.00  0.00     0.041 C 
ATOM     10  O   UNL     1      50.555  -1.715  21.139  1.00  0.00    -0.550 OA
ATOM     11  O   UNL     1      52.623  -1.139  21.935  1.00  0.00    -0.550 OA
ENDBRANCH   8   9
ENDBRANCH   7   8
ENDBRANCH   6   7
ENDBRANCH   5   6
ENDBRANCH   4   5
ENDBRANCH   3   4
ENDBRANCH   2   3
ENDBRANCH   1   2
BRANCH   1  12
ATOM     12  C   UNL     1      56.852   2.295  23.966  1.00  0.00     0.000 C 
BRANCH  12  13
ATOM     13  C   UNL     1      56.396   1.312  25.057  1.00  0.00    -0.000 C 
BRANCH  13  14
ATOM     14  C   UNL     1      56.662  -0.154  24.683  1.00  0.00    -0.000 C 
BRANCH  14  15
ATOM     15  C   UNL     1      58.067  -0.588  25.125  1.00  0.00    -0.000 C 
BRANCH  15  16
ATOM     16  C   UNL     1      58.523  -1.890  24.431  1.00  0.00    -0.000 C 
BRANCH  16  17
ATOM     17  C   UNL     1      58.988  -1.682  22.979  1.00  0.00    -0.000 C 
BRANCH  17  18
ATOM     18  C   UNL     1      57.917  -2.075  21.947  1.00  0.00    -0.000 C 
BRANCH  18  19
ATOM     19  C   UNL     1      57.047  -0.882  21.520  1.00  0.00    -0.003 C 
ATOM     20  C   UNL     1      57.809   0.126  20.662  1.00  0.00     0.004 C 
ENDBRANCH  18  19
ENDBRANCH  17  18
ENDBRANCH  16  17
ENDBRANCH  15  16
ENDBRANCH  14  15
ENDBRANCH  13  14
ENDBRANCH  12  13
ENDBRANCH   1  12
TORSDOF 16
ENDMDL
