MODEL 1
REMARK VINA RESULT:    -6.156      0.000      0.000
REMARK INTER + INTRA:          -6.516
REMARK INTER:                  -6.516
REMARK INTRA:                   0.000
REMARK UNBOUND:                 0.000
REMARK SMILES O=c1ccc2cc(O)c(O)cc2o1
REMARK SMILES IDX 4 1 3 2 2 3 1 4 13 5 12 6 11 7 9 8 7 9 6 10 5 11 8 12 10 14
REMARK H PARENT 8 13 10 15
REMARK Flexibility Score: inf
ROOT
ATOM      1  C   UNL     1      11.366  10.862  15.463  1.00  0.00     0.019 A 
ATOM      2  C   UNL     1      12.688  10.931  15.024  1.00  0.00     0.094 A 
ATOM      3  C   UNL     1      13.008  10.440  13.754  1.00  0.00     0.336 A 
ATOM      4  O   UNL     1      14.195  10.493  13.340  1.00  0.00    -0.246 OA
ATOM      5  O   UNL     1      12.062   9.914  12.978  1.00  0.00    -0.423 OA
ATOM      6  C   UNL     1      10.790   9.829  13.358  1.00  0.00     0.142 A 
ATOM      7  C   UNL     1       9.840   9.266  12.500  1.00  0.00     0.098 A 
ATOM      8  C   UNL     1       8.497   9.174  12.894  1.00  0.00     0.161 A 
ATOM      9  C   UNL     1       8.104   9.649  14.158  1.00  0.00     0.158 A 
ATOM     10  C   UNL     1       9.052  10.212  15.020  1.00  0.00     0.062 A 
ATOM     11  C   UNL     1      10.394  10.305  14.626  1.00  0.00     0.022 A 
ENDROOT
BRANCH   9  12
ATOM     12  O   UNL     1       6.775   9.569  14.576  1.00  0.00    -0.504 OA
ATOM     13  H   UNL     1       6.106   8.953  14.127  1.00  0.00     0.293 HD
ENDBRANCH   9  12
BRANCH   8  14
ATOM     14  O   UNL     1       7.554   8.613  12.034  1.00  0.00    -0.504 OA
ATOM     15  H   UNL     1       7.276   9.075  11.177  1.00  0.00     0.293 HD
ENDBRANCH   8  14
TORSDOF 2
ENDMDL
MODEL 2
REMARK VINA RESULT:    -5.932      1.446      4.419
REMARK INTER + INTRA:          -6.278
REMARK INTER:                  -6.278
REMARK INTRA:                   0.000
REMARK UNBOUND:                 0.000
REMARK SMILES O=c1ccc2cc(O)c(O)cc2o1
REMARK SMILES IDX 4 1 3 2 2 3 1 4 13 5 12 6 11 7 9 8 7 9 6 10 5 11 8 12 10 14
REMARK H PARENT 8 13 10 15
REMARK Flexibility Score: inf
ROOT
ATOM      1  C   UNL     1       8.504  10.051  14.505  1.00  0.00     0.019 A 
ATOM      2  C   UNL     1       7.929   9.341  13.451  1.00  0.00     0.094 A 
ATOM      3  C   UNL     1       8.755   8.842  12.439  1.00  0.00     0.336 A 
ATOM      4  O   UNL     1       8.255   8.199  11.479  1.00  0.00    -0.246 OA
ATOM      5  O   UNL     1      10.070   9.042  12.483  1.00  0.00    -0.423 OA
ATOM      6  C   UNL     1      10.659   9.713  13.469  1.00  0.00     0.142 A 
ATOM      7  C   UNL     1      12.046   9.893  13.463  1.00  0.00     0.098 A 
ATOM      8  C   UNL     1      12.673  10.599  14.500  1.00  0.00     0.161 A 
ATOM      9  C   UNL     1      11.904  11.129  15.552  1.00  0.00     0.158 A 
ATOM     10  C   UNL     1      10.515  10.952  15.561  1.00  0.00     0.062 A 
ATOM     11  C   UNL     1       9.889  10.246  14.525  1.00  0.00     0.022 A 
ENDROOT
BRANCH   9  12
ATOM     12  O   UNL     1      12.501  11.836  16.595  1.00  0.00    -0.504 OA
ATOM     13  H   UNL     1      12.941  11.368  17.380  1.00  0.00     0.293 HD
ENDBRANCH   9  12
BRANCH   8  14
ATOM     14  O   UNL     1      14.056  10.774  14.489  1.00  0.00    -0.504 OA
ATOM     15  H   UNL     1      14.637  10.364  13.767  1.00  0.00     0.293 HD
ENDBRANCH   8  14
TORSDOF 2
ENDMDL
MODEL 3
REMARK VINA RESULT:    -5.894      1.910      4.299
REMARK INTER + INTRA:          -6.239
REMARK INTER:                  -6.239
REMARK INTRA:                   0.000
REMARK UNBOUND:                 0.000
REMARK SMILES O=c1ccc2cc(O)c(O)cc2o1
REMARK SMILES IDX 4 1 3 2 2 3 1 4 13 5 12 6 11 7 9 8 7 9 6 10 5 11 8 12 10 14
REMARK H PARENT 8 13 10 15
REMARK Flexibility Score: inf
ROOT
ATOM      1  C   UNL     1      11.118   9.711  11.795  1.00  0.00     0.019 A 
ATOM      2  C   UNL     1      10.231   9.043  10.952  1.00  0.00     0.094 A 
ATOM      3  C   UNL     1       9.060   8.500  11.491  1.00  0.00     0.336 A 
ATOM      4  O   UNL     1       8.247   7.894  10.747  1.00  0.00    -0.246 OA
ATOM      5  O   UNL     1       8.798   8.622  12.791  1.00  0.00    -0.423 OA
ATOM      6  C   UNL     1       9.617   9.251  13.630  1.00  0.00     0.142 A 
ATOM      7  C   UNL     1       9.290   9.348  14.986  1.00  0.00     0.098 A 
ATOM      8  C   UNL     1      10.149  10.010  15.876  1.00  0.00     0.161 A 
ATOM      9  C   UNL     1      11.344  10.580  15.402  1.00  0.00     0.158 A 
ATOM     10  C   UNL     1      11.675  10.485  14.045  1.00  0.00     0.062 A 
ATOM     11  C   UNL     1      10.817   9.824  13.156  1.00  0.00     0.022 A 
ENDROOT
BRANCH   9  12
ATOM     12  O   UNL     1      12.217  11.244  16.265  1.00  0.00    -0.504 OA
ATOM     13  H   UNL     1      13.160  11.492  15.990  1.00  0.00     0.293 HD
ENDBRANCH   9  12
BRANCH   8  14
ATOM     14  O   UNL     1       9.818  10.104  17.226  1.00  0.00    -0.504 OA
ATOM     15  H   UNL     1       8.953   9.720  17.589  1.00  0.00     0.293 HD
ENDBRANCH   8  14
TORSDOF 2
ENDMDL
MODEL 4
REMARK VINA RESULT:    -5.882      1.482      5.059
REMARK INTER + INTRA:          -6.225
REMARK INTER:                  -6.225
REMARK INTRA:                   0.000
REMARK UNBOUND:                 0.000
REMARK SMILES O=c1ccc2cc(O)c(O)cc2o1
REMARK SMILES IDX 4 1 3 2 2 3 1 4 13 5 12 6 11 7 9 8 7 9 6 10 5 11 8 12 10 14
REMARK H PARENT 8 13 10 15
REMARK Flexibility Score: inf
ROOT
ATOM      1  C   UNL     1       9.811   8.811  13.348  1.00  0.00     0.019 A 
ATOM      2  C   UNL     1       8.422   8.777  13.464  1.00  0.00     0.094 A 
ATOM      3  C   UNL     1       7.785   9.723  14.273  1.00  0.00     0.336 A 
ATOM      4  O   UNL     1       6.532   9.709  14.391  1.00  0.00    -0.246 OA
ATOM      5  O   UNL     1       8.497  10.643  14.922  1.00  0.00    -0.423 OA
ATOM      6  C   UNL     1       9.823  10.711  14.839  1.00  0.00     0.142 A 
ATOM      7  C   UNL     1      10.518  11.698  15.544  1.00  0.00     0.098 A 
ATOM      8  C   UNL     1      11.916  11.776  15.461  1.00  0.00     0.161 A 
ATOM      9  C   UNL     1      12.622  10.856  14.665  1.00  0.00     0.158 A 
ATOM     10  C   UNL     1      11.930   9.865  13.958  1.00  0.00     0.062 A 
ATOM     11  C   UNL     1      10.533   9.788  14.041  1.00  0.00     0.022 A 
ENDROOT
BRANCH   9  12
ATOM     12  O   UNL     1      14.013  10.909  14.565  1.00  0.00    -0.504 OA
ATOM     13  H   UNL     1      14.556  11.645  15.002  1.00  0.00     0.293 HD
ENDBRANCH   9  12
BRANCH   8  14
ATOM     14  O   UNL     1      12.604  12.762  16.165  1.00  0.00    -0.504 OA
ATOM     15  H   UNL     1      12.158  13.632  16.434  1.00  0.00     0.293 HD
ENDBRANCH   8  14
TORSDOF 2
ENDMDL
MODEL 5
REMARK VINA RESULT:    -5.768      1.720      2.830
REMARK INTER + INTRA:          -6.105
REMARK INTER:                  -6.105
REMARK INTRA:                   0.000
REMARK UNBOUND:                 0.000
REMARK SMILES O=c1ccc2cc(O)c(O)cc2o1
REMARK SMILES IDX 4 1 3 2 2 3 1 4 13 5 12 6 11 7 9 8 7 9 6 10 5 11 8 12 10 14
REMARK H PARENT 8 13 10 15
REMARK Flexibility Score: inf
ROOT
ATOM      1  C   UNL     1      11.133   9.759  11.616  1.00  0.00     0.019 A 
ATOM      2  C   UNL     1      12.378  10.246  11.221  1.00  0.00     0.094 A 
ATOM      3  C   UNL     1      13.223  10.809  12.183  1.00  0.00     0.336 A 
ATOM      4  O   UNL     1      14.351  11.254  11.846  1.00  0.00    -0.246 OA
ATOM      5  O   UNL     1      12.841  10.877  13.457  1.00  0.00    -0.423 OA
ATOM      6  C   UNL     1      11.663  10.425  13.876  1.00  0.00     0.142 A 
ATOM      7  C   UNL     1      11.316  10.524  15.227  1.00  0.00     0.098 A 
ATOM      8  C   UNL     1      10.074  10.048  15.675  1.00  0.00     0.161 A 
ATOM      9  C   UNL     1       9.174   9.469  14.762  1.00  0.00     0.158 A 
ATOM     10  C   UNL     1       9.518   9.369  13.409  1.00  0.00     0.062 A 
ATOM     11  C   UNL     1      10.758   9.844  12.961  1.00  0.00     0.022 A 
ENDROOT
BRANCH   9  12
ATOM     12  O   UNL     1       7.933   8.990  15.181  1.00  0.00    -0.504 OA
ATOM     13  H   UNL     1       7.667   8.018  15.070  1.00  0.00     0.293 HD
ENDBRANCH   9  12
BRANCH   8  14
ATOM     14  O   UNL     1       9.734  10.149  17.023  1.00  0.00    -0.504 OA
ATOM     15  H   UNL     1       9.875  11.007  17.544  1.00  0.00     0.293 HD
ENDBRANCH   8  14
TORSDOF 2
ENDMDL
MODEL 6
REMARK VINA RESULT:    -5.709      1.842      2.392
REMARK INTER + INTRA:          -6.043
REMARK INTER:                  -6.043
REMARK INTRA:                   0.000
REMARK UNBOUND:                 0.000
REMARK SMILES O=c1ccc2cc(O)c(O)cc2o1
REMARK SMILES IDX 4 1 3 2 2 3 1 4 13 5 12 6 11 7 9 8 7 9 6 10 5 11 8 12 10 14
REMARK H PARENT 8 13 10 15
REMARK Flexibility Score: inf
ROOT
ATOM      1  C   UNL     1      12.446  12.194  13.137  1.00  0.00     0.019 A 
ATOM      2  C   UNL     1      13.192  11.706  12.065  1.00  0.00     0.094 A 
ATOM      3  C   UNL     1      12.900  10.435  11.558  1.00  0.00     0.336 A 
ATOM      4  O   UNL     1      13.561   9.977  10.590  1.00  0.00    -0.246 OA
ATOM      5  O   UNL     1      11.923   9.705  12.093  1.00  0.00    -0.423 OA
ATOM      6  C   UNL     1      11.189  10.132  13.116  1.00  0.00     0.142 A 
ATOM      7  C   UNL     1      10.177   9.321  13.638  1.00  0.00     0.098 A 
ATOM      8  C   UNL     1       9.398   9.766  14.716  1.00  0.00     0.161 A 
ATOM      9  C   UNL     1       9.636  11.034  15.276  1.00  0.00     0.158 A 
ATOM     10  C   UNL     1      10.649  11.849  14.757  1.00  0.00     0.062 A 
ATOM     11  C   UNL     1      11.427  11.405  13.680  1.00  0.00     0.022 A 
ENDROOT
BRANCH   9  12
ATOM     12  O   UNL     1       8.877  11.501  16.349  1.00  0.00    -0.504 OA
ATOM     13  H   UNL     1       8.140  10.946  16.769  1.00  0.00     0.293 HD
ENDBRANCH   9  12
BRANCH   8  14
ATOM     14  O   UNL     1       8.390   8.953  15.232  1.00  0.00    -0.504 OA
ATOM     15  H   UNL     1       7.412   9.213  15.167  1.00  0.00     0.293 HD
ENDBRANCH   8  14
TORSDOF 2
ENDMDL
MODEL 7
REMARK VINA RESULT:    -5.670      1.261      2.409
REMARK INTER + INTRA:          -6.002
REMARK INTER:                  -6.002
REMARK INTRA:                   0.000
REMARK UNBOUND:                 0.000
REMARK SMILES O=c1ccc2cc(O)c(O)cc2o1
REMARK SMILES IDX 4 1 3 2 2 3 1 4 13 5 12 6 11 7 9 8 7 9 6 10 5 11 8 12 10 14
REMARK H PARENT 8 13 10 15
REMARK Flexibility Score: inf
ROOT
ATOM      1  C   UNL     1      12.444   9.826  11.756  1.00  0.00     0.019 A 
ATOM      2  C   UNL     1      13.716  10.049  12.281  1.00  0.00     0.094 A 
ATOM      3  C   UNL     1      13.883  10.069  13.670  1.00  0.00     0.336 A 
ATOM      4  O   UNL     1      15.024  10.268  14.163  1.00  0.00    -0.246 OA
ATOM      5  O   UNL     1      12.841   9.877  14.476  1.00  0.00    -0.423 OA
ATOM      6  C   UNL     1      11.611   9.662  14.017  1.00  0.00     0.142 A 
ATOM      7  C   UNL     1      10.555   9.468  14.911  1.00  0.00     0.098 A 
ATOM      8  C   UNL     1       9.255   9.240  14.434  1.00  0.00     0.161 A 
ATOM      9  C   UNL     1       9.014   9.207  13.048  1.00  0.00     0.158 A 
ATOM     10  C   UNL     1      10.069   9.401  12.149  1.00  0.00     0.062 A 
ATOM     11  C   UNL     1      11.367   9.629  12.626  1.00  0.00     0.022 A 
ENDROOT
BRANCH   9  12
ATOM     12  O   UNL     1       7.732   8.983  12.546  1.00  0.00    -0.504 OA
ATOM     13  H   UNL     1       6.907   9.038  13.133  1.00  0.00     0.293 HD
ENDBRANCH   9  12
BRANCH   8  14
ATOM     14  O   UNL     1       8.206   9.047  15.330  1.00  0.00    -0.504 OA
ATOM     15  H   UNL     1       7.295   8.727  15.021  1.00  0.00     0.293 HD
ENDBRANCH   8  14
TORSDOF 2
ENDMDL
MODEL 8
REMARK VINA RESULT:    -5.277      2.306      3.856
REMARK INTER + INTRA:          -5.586
REMARK INTER:                  -5.586
REMARK INTRA:                   0.000
REMARK UNBOUND:                 0.000
REMARK SMILES O=c1ccc2cc(O)c(O)cc2o1
REMARK SMILES IDX 4 1 3 2 2 3 1 4 13 5 12 6 11 7 9 8 7 9 6 10 5 11 8 12 10 14
REMARK H PARENT 8 13 10 15
REMARK Flexibility Score: inf
ROOT
ATOM      1  C   UNL     1      11.186   9.649  11.588  1.00  0.00     0.019 A 
ATOM      2  C   UNL     1      12.223   9.495  10.668  1.00  0.00     0.094 A 
ATOM      3  C   UNL     1      13.479  10.035  10.964  1.00  0.00     0.336 A 
ATOM      4  O   UNL     1      14.427   9.906  10.147  1.00  0.00    -0.246 OA
ATOM      5  O   UNL     1      13.678  10.686  12.108  1.00  0.00    -0.423 OA
ATOM      6  C   UNL     1      12.717  10.856  13.012  1.00  0.00     0.142 A 
ATOM      7  C   UNL     1      12.986  11.550  14.196  1.00  0.00     0.098 A 
ATOM      8  C   UNL     1      11.977  11.732  15.154  1.00  0.00     0.161 A 
ATOM      9  C   UNL     1      10.689  11.215  14.922  1.00  0.00     0.158 A 
ATOM     10  C   UNL     1      10.417  10.521  13.738  1.00  0.00     0.062 A 
ATOM     11  C   UNL     1      11.425  10.338  12.781  1.00  0.00     0.022 A 
ENDROOT
BRANCH   9  12
ATOM     12  O   UNL     1       9.667  11.382  15.857  1.00  0.00    -0.504 OA
ATOM     13  H   UNL     1       9.854  11.662  16.813  1.00  0.00     0.293 HD
ENDBRANCH   9  12
BRANCH   8  14
ATOM     14  O   UNL     1      12.250  12.424  16.333  1.00  0.00    -0.504 OA
ATOM     15  H   UNL     1      11.511  12.700  16.970  1.00  0.00     0.293 HD
ENDBRANCH   8  14
TORSDOF 2
ENDMDL
MODEL 9
REMARK VINA RESULT:    -5.129      1.403      4.473
REMARK INTER + INTRA:          -5.429
REMARK INTER:                  -5.429
REMARK INTRA:                   0.000
REMARK UNBOUND:                 0.000
REMARK SMILES O=c1ccc2cc(O)c(O)cc2o1
REMARK SMILES IDX 4 1 3 2 2 3 1 4 13 5 12 6 11 7 9 8 7 9 6 10 5 11 8 12 10 14
REMARK H PARENT 8 13 10 15
REMARK Flexibility Score: inf
ROOT
ATOM      1  C   UNL     1      10.632   9.726  15.459  1.00  0.00     0.019 A 
ATOM      2  C   UNL     1       9.240   9.655  15.506  1.00  0.00     0.094 A 
ATOM      3  C   UNL     1       8.521   9.631  14.307  1.00  0.00     0.336 A 
ATOM      4  O   UNL     1       7.265   9.567  14.329  1.00  0.00    -0.246 OA
ATOM      5  O   UNL     1       9.158   9.675  13.139  1.00  0.00    -0.423 OA
ATOM      6  C   UNL     1      10.484   9.744  13.049  1.00  0.00     0.142 A 
ATOM      7  C   UNL     1      11.098   9.788  11.794  1.00  0.00     0.098 A 
ATOM      8  C   UNL     1      12.496   9.860  11.692  1.00  0.00     0.161 A 
ATOM      9  C   UNL     1      13.282   9.887  12.858  1.00  0.00     0.158 A 
ATOM     10  C   UNL     1      12.671   9.844  14.116  1.00  0.00     0.062 A 
ATOM     11  C   UNL     1      11.275   9.772  14.218  1.00  0.00     0.022 A 
ENDROOT
BRANCH   9  12
ATOM     12  O   UNL     1      14.674   9.960  12.786  1.00  0.00    -0.504 OA
ATOM     13  H   UNL     1      15.164  10.844  12.718  1.00  0.00     0.293 HD
ENDBRANCH   9  12
BRANCH   8  14
ATOM     14  O   UNL     1      13.103   9.903  10.439  1.00  0.00    -0.504 OA
ATOM     15  H   UNL     1      13.754  10.639  10.189  1.00  0.00     0.293 HD
ENDBRANCH   8  14
TORSDOF 2
ENDMDL
