MODEL 1
REMARK VINA RESULT:    82.936      0.000      0.000
REMARK INTER + INTRA:          90.261
REMARK INTER:                  90.208
REMARK INTRA:                   0.053
REMARK UNBOUND:                 0.053
REMARK SMILES C[C@H]1[C@H](C)CC[C@@]2(C(=O)[O-])CC[C@@]3(C)C(=CC[C@H]4[C@]5(C)CC[C@H](O)C(C)(C)[C@@H]5CC[C@]43C)[C@@H]12
REMARK SMILES IDX 7 1 6 2 11 3 33 4 5 5 12 6 15 7 2 8 3 9 13 10 16 11 1 12
REMARK SMILES IDX 4 13 14 14 31 15 17 16 18 17 30 18 32 19 19 20 29 21 28 22
REMARK SMILES IDX 21 23 20 24 25 25 22 26 23 27 26 28 27 29 8 30 9 31 10 32
REMARK SMILES IDX 24 33
REMARK H PARENT 24 34
REMARK Flexibility Score: inf
ROOT
ATOM      1  C   UNL     1      -3.878  60.267  -6.804  1.00  0.00     0.017 C 
ATOM      2  C   UNL     1      -3.721  61.374  -7.890  1.00  0.00     0.014 C 
ATOM      3  C   UNL     1      -2.743  59.203  -6.969  1.00  0.00     0.014 C 
ATOM      4  C   UNL     1      -3.829  60.961  -5.399  1.00  0.00     0.030 C 
ATOM      5  C   UNL     1      -4.795  62.470  -7.794  1.00  0.00     0.004 C 
ATOM      6  C   UNL     1      -1.877  58.990  -5.715  1.00  0.00     0.013 C 
ATOM      7  C   UNL     1      -2.373  61.357  -5.033  1.00  0.00    -0.063 C 
ATOM      8  C   UNL     1      -4.961  62.050  -5.297  1.00  0.00    -0.003 C 
ATOM      9  C   UNL     1      -4.828  63.135  -6.403  1.00  0.00    -0.011 C 
ATOM     10  C   UNL     1      -1.257  60.317  -5.144  1.00  0.00    -0.006 C 
ATOM     11  C   UNL     1      -2.081  62.514  -4.420  1.00  0.00    -0.027 C 
ATOM     12  C   UNL     1      -5.181  62.596  -3.865  1.00  0.00     0.008 C 
ATOM     13  C   UNL     1      -5.983  64.150  -6.355  1.00  0.00     0.008 C 
ATOM     14  C   UNL     1      -0.216  60.825  -6.190  1.00  0.00     0.017 C 
ATOM     15  C   UNL     1      -0.555  60.137  -3.702  1.00  0.00    -0.020 C 
ATOM     16  C   UNL     1      -0.861  62.741  -3.576  1.00  0.00     0.032 C 
ATOM     17  C   UNL     1       0.078  61.518  -3.233  1.00  0.00     0.006 C 
ATOM     18  C   UNL     1      -1.608  59.729  -2.629  1.00  0.00     0.008 C 
ATOM     19  C   UNL     1       0.549  59.028  -3.808  1.00  0.00     0.012 C 
ATOM     20  C   UNL     1       0.621  61.611  -1.718  1.00  0.00    -0.025 C 
ATOM     21  C   UNL     1      -1.089  59.741  -1.186  1.00  0.00     0.005 C 
ATOM     22  C   UNL     1      -0.481  61.097  -0.707  1.00  0.00     0.003 C 
ATOM     23  C   UNL     1       1.934  60.788  -1.501  1.00  0.00     0.010 C 
ATOM     24  C   UNL     1       1.009  63.117  -1.468  1.00  0.00     0.012 C 
ATOM     25  C   UNL     1       0.005  61.010   0.814  1.00  0.00    -0.006 C 
ATOM     26  C   UNL     1       2.440  60.768  -0.045  1.00  0.00     0.033 C 
ATOM     27  C   UNL     1       1.376  60.263   0.946  1.00  0.00     0.120 C 
ATOM     28  C   UNL     1       0.126  62.428   1.446  1.00  0.00     0.014 C 
ATOM     29  C   UNL     1      -1.046  60.278   1.701  1.00  0.00     0.014 C 
ENDROOT
BRANCH   1  30
ATOM     30  C   UNL     1      -5.202  59.527  -7.002  1.00  0.00     0.048 C 
ATOM     31  O   UNL     1      -5.777  59.531  -8.123  1.00  0.00    -0.550 OA
ATOM     32  O   UNL     1      -5.855  58.947  -5.919  1.00  0.00    -0.550 OA
ENDBRANCH   1  30
BRANCH  27  33
ATOM     33  O   UNL     1       1.211  58.875   0.776  1.00  0.00    -0.393 OA
ATOM     34  H   UNL     1       0.444  58.598   1.344  1.00  0.00     0.210 HD
ENDBRANCH  27  33
TORSDOF 2
ENDMDL
MODEL 2
REMARK VINA RESULT:    84.202      1.895      4.047
REMARK INTER + INTRA:          91.639
REMARK INTER:                  91.669
REMARK INTRA:                  -0.030
REMARK UNBOUND:                 0.053
REMARK SMILES C[C@H]1[C@H](C)CC[C@@]2(C(=O)[O-])CC[C@@]3(C)C(=CC[C@H]4[C@]5(C)CC[C@H](O)C(C)(C)[C@@H]5CC[C@]43C)[C@@H]12
REMARK SMILES IDX 7 1 6 2 11 3 33 4 5 5 12 6 15 7 2 8 3 9 13 10 16 11 1 12
REMARK SMILES IDX 4 13 14 14 31 15 17 16 18 17 30 18 32 19 19 20 29 21 28 22
REMARK SMILES IDX 21 23 20 24 25 25 22 26 23 27 26 28 27 29 8 30 9 31 10 32
REMARK SMILES IDX 24 33
REMARK H PARENT 24 34
REMARK Flexibility Score: inf
ROOT
ATOM      1  C   UNL     1      -2.881  60.549  -5.491  1.00  0.00     0.017 C 
ATOM      2  C   UNL     1      -2.927  59.096  -6.054  1.00  0.00     0.014 C 
ATOM      3  C   UNL     1      -3.878  60.680  -4.291  1.00  0.00     0.014 C 
ATOM      4  C   UNL     1      -1.404  60.852  -5.060  1.00  0.00     0.030 C 
ATOM      5  C   UNL     1      -1.967  58.877  -7.235  1.00  0.00     0.004 C 
ATOM      6  C   UNL     1      -3.237  61.156  -2.976  1.00  0.00     0.013 C 
ATOM      7  C   UNL     1      -1.065  60.137  -3.723  1.00  0.00    -0.063 C 
ATOM      8  C   UNL     1      -0.437  60.667  -6.287  1.00  0.00    -0.003 C 
ATOM      9  C   UNL     1      -0.508  59.228  -6.874  1.00  0.00    -0.011 C 
ATOM     10  C   UNL     1      -2.004  60.291  -2.526  1.00  0.00    -0.006 C 
ATOM     11  C   UNL     1       0.125  59.560  -3.505  1.00  0.00    -0.027 C 
ATOM     12  C   UNL     1       0.994  61.207  -6.047  1.00  0.00     0.008 C 
ATOM     13  C   UNL     1       0.373  59.073  -8.125  1.00  0.00     0.008 C 
ATOM     14  C   UNL     1      -2.548  58.878  -2.144  1.00  0.00     0.017 C 
ATOM     15  C   UNL     1      -1.184  60.925  -1.288  1.00  0.00    -0.020 C 
ATOM     16  C   UNL     1       0.724  59.341  -2.146  1.00  0.00     0.032 C 
ATOM     17  C   UNL     1       0.011  59.959  -0.880  1.00  0.00     0.006 C 
ATOM     18  C   UNL     1      -0.552  62.289  -1.693  1.00  0.00     0.008 C 
ATOM     19  C   UNL     1      -2.165  61.134  -0.082  1.00  0.00     0.012 C 
ATOM     20  C   UNL     1       1.090  60.517   0.179  1.00  0.00    -0.025 C 
ATOM     21  C   UNL     1       0.424  62.873  -0.664  1.00  0.00     0.005 C 
ATOM     22  C   UNL     1       1.613  61.941  -0.269  1.00  0.00     0.003 C 
ATOM     23  C   UNL     1       0.509  60.621   1.628  1.00  0.00     0.010 C 
ATOM     24  C   UNL     1       2.245  59.450   0.252  1.00  0.00     0.012 C 
ATOM     25  C   UNL     1       2.581  62.653   0.786  1.00  0.00    -0.006 C 
ATOM     26  C   UNL     1       1.474  61.240   2.659  1.00  0.00     0.033 C 
ATOM     27  C   UNL     1       1.983  62.629   2.235  1.00  0.00     0.120 C 
ATOM     28  C   UNL     1       3.987  61.984   0.797  1.00  0.00     0.014 C 
ATOM     29  C   UNL     1       2.859  64.133   0.388  1.00  0.00     0.014 C 
ENDROOT
BRANCH   1  30
ATOM     30  C   UNL     1      -3.352  61.537  -6.559  1.00  0.00     0.048 C 
ATOM     31  O   UNL     1      -2.820  62.675  -6.658  1.00  0.00    -0.550 OA
ATOM     32  O   UNL     1      -4.457  61.246  -7.353  1.00  0.00    -0.550 OA
ENDBRANCH   1  30
BRANCH  27  33
ATOM     33  O   UNL     1       0.936  63.562   2.361  1.00  0.00    -0.393 OA
ATOM     34  H   UNL     1       1.241  64.263   2.996  1.00  0.00     0.210 HD
ENDBRANCH  27  33
TORSDOF 2
ENDMDL
