MODEL 1
REMARK VINA RESULT:    -5.166      0.000      0.000
REMARK INTER + INTRA:          -6.553
REMARK INTER:                  -6.222
REMARK INTRA:                  -0.331
REMARK UNBOUND:                -0.331
REMARK SMILES O=c1c(O)c(-c2ccc(O)c(O)c2)oc2cc(O)cc(O)c12
REMARK SMILES IDX 5 1 3 2 2 3 1 4 22 5 20 6 19 7 17 8 16 9 15 10 14 11 6 12
REMARK SMILES IDX 7 13 8 14 9 15 13 16 11 17 10 18 12 20 4 22 21 24 18 26
REMARK H PARENT 10 19 12 21 4 23 21 25 18 27
REMARK Flexibility Score: inf
ROOT
ATOM      1  C   UNL     1      48.136  15.387  67.377  1.00  0.00     0.180 A 
ATOM      2  C   UNL     1      49.156  15.881  66.546  1.00  0.00     0.208 A 
ATOM      3  C   UNL     1      49.197  15.476  65.203  1.00  0.00     0.238 A 
ATOM      4  O   UNL     1      50.068  15.980  64.447  1.00  0.00    -0.285 OA
ATOM      5  C   UNL     1      48.252  14.538  64.720  1.00  0.00     0.111 A 
ATOM      6  C   UNL     1      48.227  14.022  63.389  1.00  0.00     0.134 A 
ATOM      7  C   UNL     1      47.180  13.180  62.995  1.00  0.00     0.093 A 
ATOM      8  C   UNL     1      46.195  12.783  63.898  1.00  0.00     0.123 A 
ATOM      9  C   UNL     1      46.241  13.237  65.216  1.00  0.00     0.094 A 
ATOM     10  C   UNL     1      47.251  14.109  65.630  1.00  0.00     0.146 A 
ATOM     11  O   UNL     1      47.244  14.534  66.887  1.00  0.00    -0.452 OA
ENDROOT
BRANCH   1  12
ATOM     12  C   UNL     1      48.018  15.780  68.800  1.00  0.00     0.025 A 
ATOM     13  C   UNL     1      48.612  14.980  69.788  1.00  0.00     0.016 A 
ATOM     14  C   UNL     1      48.496  15.319  71.138  1.00  0.00     0.051 A 
ATOM     15  C   UNL     1      47.771  16.456  71.521  1.00  0.00     0.157 A 
ATOM     16  C   UNL     1      47.273  16.908  69.189  1.00  0.00     0.062 A 
ATOM     17  C   UNL     1      47.153  17.250  70.542  1.00  0.00     0.158 A 
BRANCH  15  18
ATOM     18  O   UNL     1      47.658  16.793  72.870  1.00  0.00    -0.504 OA
ATOM     19  H   UNL     1      48.411  17.255  73.365  1.00  0.00     0.293 HD
ENDBRANCH  15  18
BRANCH  17  20
ATOM     20  O   UNL     1      46.413  18.378  70.891  1.00  0.00    -0.504 OA
ATOM     21  H   UNL     1      45.436  18.322  71.153  1.00  0.00     0.293 HD
ENDBRANCH  17  20
ENDBRANCH   1  12
BRANCH   2  22
ATOM     22  O   UNL     1      50.125  16.748  67.061  1.00  0.00    -0.502 OA
ATOM     23  H   UNL     1      50.867  17.135  66.491  1.00  0.00     0.293 HD
ENDBRANCH   2  22
BRANCH   6  24
ATOM     24  O   UNL     1      49.209  14.282  62.429  1.00  0.00    -0.507 OA
ATOM     25  H   UNL     1      49.126  14.960  61.686  1.00  0.00     0.293 HD
ENDBRANCH   6  24
BRANCH   8  26
ATOM     26  O   UNL     1      45.179  11.929  63.476  1.00  0.00    -0.508 OA
ATOM     27  H   UNL     1      44.252  11.964  63.886  1.00  0.00     0.293 HD
ENDBRANCH   8  26
TORSDOF 6
ENDMDL
MODEL 2
REMARK VINA RESULT:    -4.775      1.911      2.886
REMARK INTER + INTRA:          -6.083
REMARK INTER:                  -6.036
REMARK INTRA:                  -0.047
REMARK UNBOUND:                -0.331
REMARK SMILES O=c1c(O)c(-c2ccc(O)c(O)c2)oc2cc(O)cc(O)c12
REMARK SMILES IDX 5 1 3 2 2 3 1 4 22 5 20 6 19 7 17 8 16 9 15 10 14 11 6 12
REMARK SMILES IDX 7 13 8 14 9 15 13 16 11 17 10 18 12 20 4 22 21 24 18 26
REMARK H PARENT 10 19 12 21 4 23 21 25 18 27
REMARK Flexibility Score: inf
ROOT
ATOM      1  C   UNL     1      47.950  15.176  67.193  1.00  0.00     0.180 A 
ATOM      2  C   UNL     1      46.618  15.227  66.745  1.00  0.00     0.208 A 
ATOM      3  C   UNL     1      46.218  14.379  65.701  1.00  0.00     0.238 A 
ATOM      4  O   UNL     1      45.008  14.377  65.355  1.00  0.00    -0.285 OA
ATOM      5  C   UNL     1      47.166  13.530  65.079  1.00  0.00     0.111 A 
ATOM      6  C   UNL     1      46.882  12.661  63.982  1.00  0.00     0.134 A 
ATOM      7  C   UNL     1      47.875  11.789  63.518  1.00  0.00     0.093 A 
ATOM      8  C   UNL     1      49.157  11.798  64.066  1.00  0.00     0.123 A 
ATOM      9  C   UNL     1      49.461  12.682  65.101  1.00  0.00     0.094 A 
ATOM     10  C   UNL     1      48.482  13.537  65.612  1.00  0.00     0.146 A 
ATOM     11  O   UNL     1      48.808  14.346  66.612  1.00  0.00    -0.452 OA
ENDROOT
BRANCH   1  12
ATOM     12  C   UNL     1      48.443  16.029  68.299  1.00  0.00     0.025 A 
ATOM     13  C   UNL     1      49.619  16.773  68.124  1.00  0.00     0.016 A 
ATOM     14  C   UNL     1      50.115  17.568  69.160  1.00  0.00     0.051 A 
ATOM     15  C   UNL     1      49.449  17.618  70.393  1.00  0.00     0.157 A 
ATOM     16  C   UNL     1      47.789  16.065  69.543  1.00  0.00     0.062 A 
ATOM     17  C   UNL     1      48.284  16.859  70.585  1.00  0.00     0.158 A 
BRANCH  15  18
ATOM     18  O   UNL     1      49.945  18.414  71.425  1.00  0.00    -0.504 OA
ATOM     19  H   UNL     1      50.776  18.153  71.943  1.00  0.00     0.293 HD
ENDBRANCH  15  18
BRANCH  17  20
ATOM     20  O   UNL     1      47.607  16.876  71.804  1.00  0.00    -0.504 OA
ATOM     21  H   UNL     1      46.858  16.227  72.014  1.00  0.00     0.293 HD
ENDBRANCH  17  20
ENDBRANCH   1  12
BRANCH   2  22
ATOM     22  O   UNL     1      45.716  16.126  67.321  1.00  0.00    -0.502 OA
ATOM     23  H   UNL     1      45.598  17.073  66.978  1.00  0.00     0.293 HD
ENDBRANCH   2  22
BRANCH   6  24
ATOM     24  O   UNL     1      45.662  12.631  63.301  1.00  0.00    -0.507 OA
ATOM     25  H   UNL     1      45.557  12.692  62.299  1.00  0.00     0.293 HD
ENDBRANCH   6  24
BRANCH   8  26
ATOM     26  O   UNL     1      50.124  10.929  63.566  1.00  0.00    -0.508 OA
ATOM     27  H   UNL     1      50.900  10.614  64.137  1.00  0.00     0.293 HD
ENDBRANCH   8  26
TORSDOF 6
ENDMDL
MODEL 3
REMARK VINA RESULT:    -4.765      2.033      6.925
REMARK INTER + INTRA:          -6.070
REMARK INTER:                  -5.792
REMARK INTRA:                  -0.278
REMARK UNBOUND:                -0.331
REMARK SMILES O=c1c(O)c(-c2ccc(O)c(O)c2)oc2cc(O)cc(O)c12
REMARK SMILES IDX 5 1 3 2 2 3 1 4 22 5 20 6 19 7 17 8 16 9 15 10 14 11 6 12
REMARK SMILES IDX 7 13 8 14 9 15 13 16 11 17 10 18 12 20 4 22 21 24 18 26
REMARK H PARENT 10 19 12 21 4 23 21 25 18 27
REMARK Flexibility Score: inf
ROOT
ATOM      1  C   UNL     1      48.138  15.447  68.667  1.00  0.00     0.180 A 
ATOM      2  C   UNL     1      48.904  16.621  68.769  1.00  0.00     0.208 A 
ATOM      3  C   UNL     1      49.375  17.019  70.030  1.00  0.00     0.238 A 
ATOM      4  O   UNL     1      50.122  18.029  70.103  1.00  0.00    -0.285 OA
ATOM      5  C   UNL     1      49.027  16.272  71.181  1.00  0.00     0.111 A 
ATOM      6  C   UNL     1      49.411  16.608  72.515  1.00  0.00     0.134 A 
ATOM      7  C   UNL     1      49.098  15.735  73.564  1.00  0.00     0.093 A 
ATOM      8  C   UNL     1      48.362  14.572  73.340  1.00  0.00     0.123 A 
ATOM      9  C   UNL     1      47.934  14.262  72.049  1.00  0.00     0.094 A 
ATOM     10  C   UNL     1      48.264  15.093  70.975  1.00  0.00     0.146 A 
ATOM     11  O   UNL     1      47.855  14.748  69.760  1.00  0.00    -0.452 OA
ENDROOT
BRANCH   1  12
ATOM     12  C   UNL     1      47.619  14.954  67.371  1.00  0.00     0.025 A 
ATOM     13  C   UNL     1      48.488  14.305  66.481  1.00  0.00     0.016 A 
ATOM     14  C   UNL     1      48.026  13.851  65.244  1.00  0.00     0.051 A 
ATOM     15  C   UNL     1      46.690  14.053  64.870  1.00  0.00     0.157 A 
ATOM     16  C   UNL     1      46.284  15.174  66.985  1.00  0.00     0.062 A 
ATOM     17  C   UNL     1      45.818  14.723  65.744  1.00  0.00     0.158 A 
BRANCH  15  18
ATOM     18  O   UNL     1      46.231  13.597  63.635  1.00  0.00    -0.504 OA
ATOM     19  H   UNL     1      45.274  13.291  63.505  1.00  0.00     0.293 HD
ENDBRANCH  15  18
BRANCH  17  20
ATOM     20  O   UNL     1      44.487  14.952  65.396  1.00  0.00    -0.504 OA
ATOM     21  H   UNL     1      44.148  14.828  64.450  1.00  0.00     0.293 HD
ENDBRANCH  17  20
ENDBRANCH   1  12
BRANCH   2  22
ATOM     22  O   UNL     1      49.173  17.386  67.631  1.00  0.00    -0.502 OA
ATOM     23  H   UNL     1      49.144  18.399  67.637  1.00  0.00     0.293 HD
ENDBRANCH   2  22
BRANCH   6  24
ATOM     24  O   UNL     1      50.073  17.788  72.866  1.00  0.00    -0.507 OA
ATOM     25  H   UNL     1      50.170  18.595  72.269  1.00  0.00     0.293 HD
ENDBRANCH   6  24
BRANCH   8  26
ATOM     26  O   UNL     1      48.053  13.737  74.411  1.00  0.00    -0.508 OA
ATOM     27  H   UNL     1      48.761  13.439  75.072  1.00  0.00     0.293 HD
ENDBRANCH   8  26
TORSDOF 6
ENDMDL
MODEL 4
REMARK VINA RESULT:    -4.522      1.982      7.123
REMARK INTER + INTRA:          -5.779
REMARK INTER:                  -5.452
REMARK INTRA:                  -0.327
REMARK UNBOUND:                -0.331
REMARK SMILES O=c1c(O)c(-c2ccc(O)c(O)c2)oc2cc(O)cc(O)c12
REMARK SMILES IDX 5 1 3 2 2 3 1 4 22 5 20 6 19 7 17 8 16 9 15 10 14 11 6 12
REMARK SMILES IDX 7 13 8 14 9 15 13 16 11 17 10 18 12 20 4 22 21 24 18 26
REMARK H PARENT 10 19 12 21 4 23 21 25 18 27
REMARK Flexibility Score: inf
ROOT
ATOM      1  C   UNL     1      48.694  15.582  68.605  1.00  0.00     0.180 A 
ATOM      2  C   UNL     1      49.267  16.827  68.918  1.00  0.00     0.208 A 
ATOM      3  C   UNL     1      49.543  17.131  70.261  1.00  0.00     0.238 A 
ATOM      4  O   UNL     1      50.124  18.215  70.525  1.00  0.00    -0.285 OA
ATOM      5  C   UNL     1      49.192  16.212  71.279  1.00  0.00     0.111 A 
ATOM      6  C   UNL     1      49.384  16.435  72.676  1.00  0.00     0.134 A 
ATOM      7  C   UNL     1      49.096  15.409  73.585  1.00  0.00     0.093 A 
ATOM      8  C   UNL     1      48.564  14.194  73.156  1.00  0.00     0.123 A 
ATOM      9  C   UNL     1      48.320  13.985  71.798  1.00  0.00     0.094 A 
ATOM     10  C   UNL     1      48.633  14.975  70.863  1.00  0.00     0.146 A 
ATOM     11  O   UNL     1      48.406  14.726  69.579  1.00  0.00    -0.452 OA
ENDROOT
BRANCH   1  12
ATOM     12  C   UNL     1      48.388  15.182  67.212  1.00  0.00     0.025 A 
ATOM     13  C   UNL     1      47.081  15.334  66.723  1.00  0.00     0.016 A 
ATOM     14  C   UNL     1      46.764  14.945  65.419  1.00  0.00     0.051 A 
ATOM     15  C   UNL     1      47.745  14.384  64.591  1.00  0.00     0.157 A 
ATOM     16  C   UNL     1      49.365  14.600  66.385  1.00  0.00     0.062 A 
ATOM     17  C   UNL     1      49.050  14.206  65.079  1.00  0.00     0.158 A 
BRANCH  15  18
ATOM     18  O   UNL     1      47.426  13.998  63.290  1.00  0.00    -0.504 OA
ATOM     19  H   UNL     1      46.514  13.620  63.057  1.00  0.00     0.293 HD
ENDBRANCH  15  18
BRANCH  17  20
ATOM     20  O   UNL     1      50.045  13.638  64.285  1.00  0.00    -0.504 OA
ATOM     21  H   UNL     1      50.641  14.197  63.687  1.00  0.00     0.293 HD
ENDBRANCH  17  20
ENDBRANCH   1  12
BRANCH   2  22
ATOM     22  O   UNL     1      49.536  17.751  67.905  1.00  0.00    -0.502 OA
ATOM     23  H   UNL     1      50.440  18.198  67.803  1.00  0.00     0.293 HD
ENDBRANCH   2  22
BRANCH   6  24
ATOM     24  O   UNL     1      49.828  17.642  73.223  1.00  0.00    -0.507 OA
ATOM     25  H   UNL     1      50.517  18.248  72.804  1.00  0.00     0.293 HD
ENDBRANCH   6  24
BRANCH   8  26
ATOM     26  O   UNL     1      48.272  13.203  74.090  1.00  0.00    -0.508 OA
ATOM     27  H   UNL     1      48.723  13.181  74.998  1.00  0.00     0.293 HD
ENDBRANCH   8  26
TORSDOF 6
ENDMDL
MODEL 5
REMARK VINA RESULT:    -4.258      2.016      6.866
REMARK INTER + INTRA:          -5.460
REMARK INTER:                  -5.233
REMARK INTRA:                  -0.227
REMARK UNBOUND:                -0.331
REMARK SMILES O=c1c(O)c(-c2ccc(O)c(O)c2)oc2cc(O)cc(O)c12
REMARK SMILES IDX 5 1 3 2 2 3 1 4 22 5 20 6 19 7 17 8 16 9 15 10 14 11 6 12
REMARK SMILES IDX 7 13 8 14 9 15 13 16 11 17 10 18 12 20 4 22 21 24 18 26
REMARK H PARENT 10 19 12 21 4 23 21 25 18 27
REMARK Flexibility Score: inf
ROOT
ATOM      1  C   UNL     1      48.805  14.831  67.947  1.00  0.00     0.180 A 
ATOM      2  C   UNL     1      49.301  16.118  67.678  1.00  0.00     0.208 A 
ATOM      3  C   UNL     1      49.612  16.967  68.752  1.00  0.00     0.238 A 
ATOM      4  O   UNL     1      50.125  18.089  68.504  1.00  0.00    -0.285 OA
ATOM      5  C   UNL     1      49.370  16.541  70.080  1.00  0.00     0.111 A 
ATOM      6  C   UNL     1      49.605  17.335  71.244  1.00  0.00     0.134 A 
ATOM      7  C   UNL     1      49.429  16.769  72.512  1.00  0.00     0.093 A 
ATOM      8  C   UNL     1      48.967  15.462  72.661  1.00  0.00     0.123 A 
ATOM      9  C   UNL     1      48.682  14.695  71.532  1.00  0.00     0.094 A 
ATOM     10  C   UNL     1      48.884  15.218  70.252  1.00  0.00     0.146 A 
ATOM     11  O   UNL     1      48.620  14.447  69.204  1.00  0.00    -0.452 OA
ENDROOT
BRANCH   1  12
ATOM     12  C   UNL     1      48.469  13.874  66.868  1.00  0.00     0.025 A 
ATOM     13  C   UNL     1      49.310  12.774  66.635  1.00  0.00     0.016 A 
ATOM     14  C   UNL     1      49.024  11.870  65.609  1.00  0.00     0.051 A 
ATOM     15  C   UNL     1      47.902  12.060  64.791  1.00  0.00     0.157 A 
ATOM     16  C   UNL     1      47.356  14.073  66.032  1.00  0.00     0.062 A 
ATOM     17  C   UNL     1      47.068  13.170  65.002  1.00  0.00     0.158 A 
BRANCH  15  18
ATOM     18  O   UNL     1      47.619  11.155  63.769  1.00  0.00    -0.504 OA
ATOM     19  H   UNL     1      46.987  11.390  63.013  1.00  0.00     0.293 HD
ENDBRANCH  15  18
BRANCH  17  20
ATOM     20  O   UNL     1      45.952  13.395  64.196  1.00  0.00    -0.504 OA
ATOM     21  H   UNL     1      46.030  13.782  63.263  1.00  0.00     0.293 HD
ENDBRANCH  17  20
ENDBRANCH   1  12
BRANCH   2  22
ATOM     22  O   UNL     1      49.461  16.548  66.357  1.00  0.00    -0.502 OA
ATOM     23  H   UNL     1      49.510  15.903  65.577  1.00  0.00     0.293 HD
ENDBRANCH   2  22
BRANCH   6  24
ATOM     24  O   UNL     1      49.985  18.680  71.211  1.00  0.00    -0.507 OA
ATOM     25  H   UNL     1      49.384  19.443  70.938  1.00  0.00     0.293 HD
ENDBRANCH   6  24
BRANCH   8  26
ATOM     26  O   UNL     1      48.786  14.938  73.940  1.00  0.00    -0.508 OA
ATOM     27  H   UNL     1      49.322  14.142  74.267  1.00  0.00     0.293 HD
ENDBRANCH   8  26
TORSDOF 6
ENDMDL
MODEL 6
REMARK VINA RESULT:    -4.240      4.222      6.333
REMARK INTER + INTRA:          -5.439
REMARK INTER:                  -5.239
REMARK INTRA:                  -0.200
REMARK UNBOUND:                -0.331
REMARK SMILES O=c1c(O)c(-c2ccc(O)c(O)c2)oc2cc(O)cc(O)c12
REMARK SMILES IDX 5 1 3 2 2 3 1 4 22 5 20 6 19 7 17 8 16 9 15 10 14 11 6 12
REMARK SMILES IDX 7 13 8 14 9 15 13 16 11 17 10 18 12 20 4 22 21 24 18 26
REMARK H PARENT 10 19 12 21 4 23 21 25 18 27
REMARK Flexibility Score: inf
ROOT
ATOM      1  C   UNL     1      49.269  17.633  70.183  1.00  0.00     0.180 A 
ATOM      2  C   UNL     1      49.665  16.768  69.148  1.00  0.00     0.208 A 
ATOM      3  C   UNL     1      49.621  15.382  69.366  1.00  0.00     0.238 A 
ATOM      4  O   UNL     1      49.906  14.613  68.411  1.00  0.00    -0.285 OA
ATOM      5  C   UNL     1      49.237  14.878  70.632  1.00  0.00     0.111 A 
ATOM      6  C   UNL     1      49.199  13.493  70.978  1.00  0.00     0.134 A 
ATOM      7  C   UNL     1      48.700  13.108  72.228  1.00  0.00     0.093 A 
ATOM      8  C   UNL     1      48.297  14.056  73.168  1.00  0.00     0.123 A 
ATOM      9  C   UNL     1      48.381  15.414  72.860  1.00  0.00     0.094 A 
ATOM     10  C   UNL     1      48.839  15.829  71.607  1.00  0.00     0.146 A 
ATOM     11  O   UNL     1      48.881  17.131  71.349  1.00  0.00    -0.452 OA
ENDROOT
BRANCH   1  12
ATOM     12  C   UNL     1      49.274  19.106  70.025  1.00  0.00     0.025 A 
ATOM     13  C   UNL     1      50.118  19.883  70.831  1.00  0.00     0.016 A 
ATOM     14  C   UNL     1      50.125  21.275  70.714  1.00  0.00     0.051 A 
ATOM     15  C   UNL     1      49.275  21.912  69.800  1.00  0.00     0.157 A 
ATOM     16  C   UNL     1      48.407  19.748  69.123  1.00  0.00     0.062 A 
ATOM     17  C   UNL     1      48.408  21.144  69.005  1.00  0.00     0.158 A 
BRANCH  15  18
ATOM     18  O   UNL     1      49.284  23.301  69.685  1.00  0.00    -0.504 OA
ATOM     19  H   UNL     1      48.470  23.812  69.364  1.00  0.00     0.293 HD
ENDBRANCH  15  18
BRANCH  17  20
ATOM     20  O   UNL     1      47.540  21.747  68.096  1.00  0.00    -0.504 OA
ATOM     21  H   UNL     1      46.543  21.811  68.264  1.00  0.00     0.293 HD
ENDBRANCH  17  20
ENDBRANCH   1  12
BRANCH   2  22
ATOM     22  O   UNL     1      50.114  17.287  67.931  1.00  0.00    -0.502 OA
ATOM     23  H   UNL     1      49.876  18.221  67.617  1.00  0.00     0.293 HD
ENDBRANCH   2  22
BRANCH   6  24
ATOM     24  O   UNL     1      49.659  12.466  70.149  1.00  0.00    -0.507 OA
ATOM     25  H   UNL     1      49.466  11.485  70.285  1.00  0.00     0.293 HD
ENDBRANCH   6  24
BRANCH   8  26
ATOM     26  O   UNL     1      47.823  13.636  74.408  1.00  0.00    -0.508 OA
ATOM     27  H   UNL     1      46.853  13.759  74.674  1.00  0.00     0.293 HD
ENDBRANCH   8  26
TORSDOF 6
ENDMDL
MODEL 7
REMARK VINA RESULT:    -4.205      3.912      6.724
REMARK INTER + INTRA:          -5.397
REMARK INTER:                  -5.074
REMARK INTRA:                  -0.322
REMARK UNBOUND:                -0.331
REMARK SMILES O=c1c(O)c(-c2ccc(O)c(O)c2)oc2cc(O)cc(O)c12
REMARK SMILES IDX 5 1 3 2 2 3 1 4 22 5 20 6 19 7 17 8 16 9 15 10 14 11 6 12
REMARK SMILES IDX 7 13 8 14 9 15 13 16 11 17 10 18 12 20 4 22 21 24 18 26
REMARK H PARENT 10 19 12 21 4 23 21 25 18 27
REMARK Flexibility Score: inf
ROOT
ATOM      1  C   UNL     1      48.876  13.865  72.829  1.00  0.00     0.180 A 
ATOM      2  C   UNL     1      49.460  13.194  71.741  1.00  0.00     0.208 A 
ATOM      3  C   UNL     1      49.364  13.760  70.460  1.00  0.00     0.238 A 
ATOM      4  O   UNL     1      49.952  13.191  69.504  1.00  0.00    -0.285 OA
ATOM      5  C   UNL     1      48.637  14.960  70.272  1.00  0.00     0.111 A 
ATOM      6  C   UNL     1      48.436  15.600  69.011  1.00  0.00     0.134 A 
ATOM      7  C   UNL     1      47.790  16.841  68.962  1.00  0.00     0.093 A 
ATOM      8  C   UNL     1      47.281  17.436  70.116  1.00  0.00     0.123 A 
ATOM      9  C   UNL     1      47.423  16.794  71.346  1.00  0.00     0.094 A 
ATOM     10  C   UNL     1      48.097  15.573  71.433  1.00  0.00     0.146 A 
ATOM     11  O   UNL     1      48.229  15.007  72.627  1.00  0.00    -0.452 OA
ENDROOT
BRANCH   1  12
ATOM     12  C   UNL     1      48.948  13.339  74.211  1.00  0.00     0.025 A 
ATOM     13  C   UNL     1      50.022  13.708  75.034  1.00  0.00     0.016 A 
ATOM     14  C   UNL     1      50.123  13.208  76.335  1.00  0.00     0.051 A 
ATOM     15  C   UNL     1      49.158  12.318  76.826  1.00  0.00     0.157 A 
ATOM     16  C   UNL     1      47.993  12.430  74.700  1.00  0.00     0.062 A 
ATOM     17  C   UNL     1      48.091  11.924  76.002  1.00  0.00     0.158 A 
BRANCH  15  18
ATOM     18  O   UNL     1      49.260  11.822  78.125  1.00  0.00    -0.504 OA
ATOM     19  H   UNL     1      48.774  10.980  78.411  1.00  0.00     0.293 HD
ENDBRANCH  15  18
BRANCH  17  20
ATOM     20  O   UNL     1      47.123  11.030  76.456  1.00  0.00    -0.504 OA
ATOM     21  H   UNL     1      46.174  11.320  76.658  1.00  0.00     0.293 HD
ENDBRANCH  17  20
ENDBRANCH   1  12
BRANCH   2  22
ATOM     22  O   UNL     1      50.108  11.971  71.935  1.00  0.00    -0.502 OA
ATOM     23  H   UNL     1      49.606  11.118  72.155  1.00  0.00     0.293 HD
ENDBRANCH   2  22
BRANCH   6  24
ATOM     24  O   UNL     1      48.825  15.053  67.785  1.00  0.00    -0.507 OA
ATOM     25  H   UNL     1      48.662  14.100  67.499  1.00  0.00     0.293 HD
ENDBRANCH   6  24
BRANCH   8  26
ATOM     26  O   UNL     1      46.628  18.663  70.026  1.00  0.00    -0.508 OA
ATOM     27  H   UNL     1      45.741  18.757  69.543  1.00  0.00     0.293 HD
ENDBRANCH   8  26
TORSDOF 6
ENDMDL
