MODEL 1
REMARK VINA RESULT:    -7.890      0.000      0.000
REMARK INTER + INTRA:         -10.067
REMARK INTER:                  -9.735
REMARK INTRA:                  -0.332
REMARK UNBOUND:                -0.332
REMARK SMILES Oc1cc(O)c2cc(O)c(-c3cc(O)c(O)c(O)c3)[o+]c2c1.[Cl-]
REMARK SMILES IDX 10 1 20 2 21 3 22 4 2 5 3 6 4 7 6 8 7 9 8 10 11 11 12 12
REMARK SMILES IDX 13 13 19 14 15 15 17 16 14 17 16 19 18 21 9 23 1 25 5 27
REMARK H PARENT 14 18 16 20 18 22 9 24 1 26 5 28
REMARK Flexibility Score: inf
ROOT
ATOM      1  C   UNL     1      22.958  19.865 -15.835  1.00  0.00     0.402 A 
ATOM      2  O   UNL     1      23.666  20.942 -15.505  1.00  0.00    -0.202 OA
ATOM      3  C   UNL     1      23.235  22.185 -15.694  1.00  0.00     0.368 A 
ATOM      4  C   UNL     1      24.052  23.252 -15.312  1.00  0.00     0.162 A 
ATOM      5  C   UNL     1      23.624  24.568 -15.494  1.00  0.00     0.128 A 
ATOM      6  C   UNL     1      22.370  24.820 -16.062  1.00  0.00     0.093 A 
ATOM      7  C   UNL     1      21.533  23.767 -16.453  1.00  0.00     0.136 A 
ATOM      8  C   UNL     1      21.966  22.428 -16.271  1.00  0.00     0.125 A 
ATOM      9  C   UNL     1      21.200  21.312 -16.644  1.00  0.00     0.078 A 
ATOM     10  C   UNL     1      21.696  20.021 -16.439  1.00  0.00     0.223 A 
ENDROOT
BRANCH   1  11
ATOM     11  C   UNL     1      23.544  18.532 -15.566  1.00  0.00     0.091 A 
ATOM     12  C   UNL     1      23.484  18.001 -14.268  1.00  0.00     0.068 A 
ATOM     13  C   UNL     1      24.011  16.736 -13.989  1.00  0.00     0.162 A 
ATOM     14  C   UNL     1      24.111  17.761 -16.594  1.00  0.00     0.068 A 
ATOM     15  C   UNL     1      24.597  15.977 -15.017  1.00  0.00     0.200 A 
ATOM     16  C   UNL     1      24.641  16.492 -16.324  1.00  0.00     0.162 A 
BRANCH  13  17
ATOM     17  O   UNL     1      23.944  16.250 -12.684  1.00  0.00    -0.504 OA
ATOM     18  H   UNL     1      23.188  15.656 -12.368  1.00  0.00     0.293 HD
ENDBRANCH  13  17
BRANCH  15  19
ATOM     19  O   UNL     1      25.124  14.717 -14.729  1.00  0.00    -0.502 OA
ATOM     20  H   UNL     1      25.205  13.993 -15.432  1.00  0.00     0.293 HD
ENDBRANCH  15  19
BRANCH  16  21
ATOM     21  O   UNL     1      25.208  15.737 -17.351  1.00  0.00    -0.504 OA
ATOM     22  H   UNL     1      24.695  14.993 -17.808  1.00  0.00     0.293 HD
ENDBRANCH  16  21
ENDBRANCH   1  11
BRANCH  10  23
ATOM     23  O   UNL     1      20.957  18.913 -16.855  1.00  0.00    -0.500 OA
ATOM     24  H   UNL     1      21.244  18.348 -17.644  1.00  0.00     0.294 HD
ENDBRANCH  10  23
BRANCH   5  25
ATOM     25  O   UNL     1      24.453  25.618 -15.108  1.00  0.00    -0.507 OA
ATOM     26  H   UNL     1      24.736  25.743 -14.142  1.00  0.00     0.293 HD
ENDBRANCH   5  25
BRANCH   7  27
ATOM     27  O   UNL     1      20.295  24.103 -17.008  1.00  0.00    -0.507 OA
ATOM     28  H   UNL     1      19.849  23.592 -17.756  1.00  0.00     0.293 HD
ENDBRANCH   7  27
TORSDOF 7
ENDMDL
MODEL 2
REMARK VINA RESULT:    -7.855      0.078      1.795
REMARK INTER + INTRA:         -10.024
REMARK INTER:                  -9.689
REMARK INTRA:                  -0.335
REMARK UNBOUND:                -0.332
REMARK SMILES Oc1cc(O)c2cc(O)c(-c3cc(O)c(O)c(O)c3)[o+]c2c1.[Cl-]
REMARK SMILES IDX 10 1 20 2 21 3 22 4 2 5 3 6 4 7 6 8 7 9 8 10 11 11 12 12
REMARK SMILES IDX 13 13 19 14 15 15 17 16 14 17 16 19 18 21 9 23 1 25 5 27
REMARK H PARENT 14 18 16 20 18 22 9 24 1 26 5 28
REMARK Flexibility Score: inf
ROOT
ATOM      1  C   UNL     1      22.900  19.807 -15.789  1.00  0.00     0.402 A 
ATOM      2  O   UNL     1      23.620  20.881 -15.472  1.00  0.00    -0.202 OA
ATOM      3  C   UNL     1      23.203  22.126 -15.680  1.00  0.00     0.368 A 
ATOM      4  C   UNL     1      24.030  23.189 -15.311  1.00  0.00     0.162 A 
ATOM      5  C   UNL     1      23.617  24.507 -15.513  1.00  0.00     0.128 A 
ATOM      6  C   UNL     1      22.368  24.764 -16.089  1.00  0.00     0.093 A 
ATOM      7  C   UNL     1      21.521  23.716 -16.467  1.00  0.00     0.136 A 
ATOM      8  C   UNL     1      21.938  22.374 -16.265  1.00  0.00     0.125 A 
ATOM      9  C   UNL     1      21.161  21.261 -16.625  1.00  0.00     0.078 A 
ATOM     10  C   UNL     1      21.642  19.969 -16.399  1.00  0.00     0.223 A 
ENDROOT
BRANCH   1  11
ATOM     11  C   UNL     1      23.471  18.472 -15.499  1.00  0.00     0.091 A 
ATOM     12  C   UNL     1      24.056  17.731 -16.536  1.00  0.00     0.068 A 
ATOM     13  C   UNL     1      24.620  16.475 -16.287  1.00  0.00     0.162 A 
ATOM     14  C   UNL     1      23.488  17.952 -14.193  1.00  0.00     0.068 A 
ATOM     15  C   UNL     1      24.616  15.950 -14.984  1.00  0.00     0.200 A 
ATOM     16  C   UNL     1      24.052  16.695 -13.934  1.00  0.00     0.162 A 
BRANCH  13  17
ATOM     17  O   UNL     1      25.180  15.764 -17.348  1.00  0.00    -0.504 OA
ATOM     18  H   UNL     1      24.753  14.925 -17.720  1.00  0.00     0.293 HD
ENDBRANCH  13  17
BRANCH  15  19
ATOM     19  O   UNL     1      25.179  14.695 -14.744  1.00  0.00    -0.502 OA
ATOM     20  H   UNL     1      25.868  14.287 -15.363  1.00  0.00     0.293 HD
ENDBRANCH  15  19
BRANCH  16  21
ATOM     21  O   UNL     1      24.058  16.186 -12.636  1.00  0.00    -0.504 OA
ATOM     22  H   UNL     1      24.576  16.638 -11.891  1.00  0.00     0.293 HD
ENDBRANCH  16  21
ENDBRANCH   1  11
BRANCH  10  23
ATOM     23  O   UNL     1      20.892  18.863 -16.802  1.00  0.00    -0.500 OA
ATOM     24  H   UNL     1      20.747  18.067 -16.192  1.00  0.00     0.294 HD
ENDBRANCH  10  23
BRANCH   5  25
ATOM     25  O   UNL     1      24.456  25.554 -15.139  1.00  0.00    -0.507 OA
ATOM     26  H   UNL     1      24.241  26.149 -14.347  1.00  0.00     0.293 HD
ENDBRANCH   5  25
BRANCH   7  27
ATOM     27  O   UNL     1      20.287  24.056 -17.032  1.00  0.00    -0.507 OA
ATOM     28  H   UNL     1      19.984  25.002 -17.209  1.00  0.00     0.293 HD
ENDBRANCH   7  27
TORSDOF 7
ENDMDL
MODEL 3
REMARK VINA RESULT:    -7.722      2.395      2.653
REMARK INTER + INTRA:          -9.861
REMARK INTER:                  -9.615
REMARK INTRA:                  -0.245
REMARK UNBOUND:                -0.332
REMARK SMILES Oc1cc(O)c2cc(O)c(-c3cc(O)c(O)c(O)c3)[o+]c2c1.[Cl-]
REMARK SMILES IDX 10 1 20 2 21 3 22 4 2 5 3 6 4 7 6 8 7 9 8 10 11 11 12 12
REMARK SMILES IDX 13 13 19 14 15 15 17 16 14 17 16 19 18 21 9 23 1 25 5 27
REMARK H PARENT 14 18 16 20 18 22 9 24 1 26 5 28
REMARK Flexibility Score: inf
ROOT
ATOM      1  C   UNL     1      24.905  20.440 -16.550  1.00  0.00     0.402 A 
ATOM      2  O   UNL     1      24.371  21.069 -15.507  1.00  0.00    -0.202 OA
ATOM      3  C   UNL     1      23.756  22.245 -15.599  1.00  0.00     0.368 A 
ATOM      4  C   UNL     1      23.225  22.826 -14.445  1.00  0.00     0.162 A 
ATOM      5  C   UNL     1      22.571  24.056 -14.513  1.00  0.00     0.128 A 
ATOM      6  C   UNL     1      22.447  24.712 -15.743  1.00  0.00     0.093 A 
ATOM      7  C   UNL     1      22.971  24.151 -16.913  1.00  0.00     0.136 A 
ATOM      8  C   UNL     1      23.638  22.900 -16.848  1.00  0.00     0.125 A 
ATOM      9  C   UNL     1      24.205  22.268 -17.967  1.00  0.00     0.078 A 
ATOM     10  C   UNL     1      24.852  21.038 -17.824  1.00  0.00     0.223 A 
ENDROOT
BRANCH   1  11
ATOM     11  C   UNL     1      25.555  19.130 -16.320  1.00  0.00     0.091 A 
ATOM     12  C   UNL     1      26.653  19.047 -15.451  1.00  0.00     0.068 A 
ATOM     13  C   UNL     1      27.275  17.820 -15.200  1.00  0.00     0.162 A 
ATOM     14  C   UNL     1      25.060  17.954 -16.910  1.00  0.00     0.068 A 
ATOM     15  C   UNL     1      26.790  16.650 -15.810  1.00  0.00     0.200 A 
ATOM     16  C   UNL     1      25.676  16.719 -16.663  1.00  0.00     0.162 A 
BRANCH  13  17
ATOM     17  O   UNL     1      28.373  17.783 -14.341  1.00  0.00    -0.504 OA
ATOM     18  H   UNL     1      28.425  18.354 -13.507  1.00  0.00     0.293 HD
ENDBRANCH  13  17
BRANCH  15  19
ATOM     19  O   UNL     1      27.417  15.429 -15.555  1.00  0.00    -0.502 OA
ATOM     20  H   UNL     1      28.062  15.007 -16.212  1.00  0.00     0.293 HD
ENDBRANCH  15  19
BRANCH  16  21
ATOM     21  O   UNL     1      25.181  15.560 -17.259  1.00  0.00    -0.504 OA
ATOM     22  H   UNL     1      24.853  14.777 -16.706  1.00  0.00     0.293 HD
ENDBRANCH  16  21
ENDBRANCH   1  11
BRANCH  10  23
ATOM     23  O   UNL     1      25.459  20.434 -18.925  1.00  0.00    -0.500 OA
ATOM     24  H   UNL     1      25.275  19.469 -19.172  1.00  0.00     0.294 HD
ENDBRANCH  10  23
BRANCH   5  25
ATOM     25  O   UNL     1      22.049  24.620 -13.351  1.00  0.00    -0.507 OA
ATOM     26  H   UNL     1      21.273  25.273 -13.381  1.00  0.00     0.293 HD
ENDBRANCH   5  25
BRANCH   7  27
ATOM     27  O   UNL     1      22.801  24.866 -18.102  1.00  0.00    -0.507 OA
ATOM     28  H   UNL     1      22.163  25.641 -18.215  1.00  0.00     0.293 HD
ENDBRANCH   7  27
TORSDOF 7
ENDMDL
MODEL 4
REMARK VINA RESULT:    -7.693      1.225      7.221
REMARK INTER + INTRA:          -9.825
REMARK INTER:                  -9.445
REMARK INTRA:                  -0.379
REMARK UNBOUND:                -0.332
REMARK SMILES Oc1cc(O)c2cc(O)c(-c3cc(O)c(O)c(O)c3)[o+]c2c1.[Cl-]
REMARK SMILES IDX 10 1 20 2 21 3 22 4 2 5 3 6 4 7 6 8 7 9 8 10 11 11 12 12
REMARK SMILES IDX 13 13 19 14 15 15 17 16 14 17 16 19 18 21 9 23 1 25 5 27
REMARK H PARENT 14 18 16 20 18 22 9 24 1 26 5 28
REMARK Flexibility Score: inf
ROOT
ATOM      1  C   UNL     1      23.285  20.255 -14.854  1.00  0.00     0.402 A 
ATOM      2  O   UNL     1      23.903  19.443 -15.708  1.00  0.00    -0.202 OA
ATOM      3  C   UNL     1      24.237  18.190 -15.412  1.00  0.00     0.368 A 
ATOM      4  C   UNL     1      24.883  17.414 -16.378  1.00  0.00     0.162 A 
ATOM      5  C   UNL     1      25.241  16.095 -16.098  1.00  0.00     0.128 A 
ATOM      6  C   UNL     1      24.953  15.547 -14.843  1.00  0.00     0.093 A 
ATOM      7  C   UNL     1      24.306  16.304 -13.859  1.00  0.00     0.136 A 
ATOM      8  C   UNL     1      23.942  17.647 -14.140  1.00  0.00     0.125 A 
ATOM      9  C   UNL     1      23.303  18.484 -13.210  1.00  0.00     0.078 A 
ATOM     10  C   UNL     1      22.979  19.798 -13.558  1.00  0.00     0.223 A 
ENDROOT
BRANCH   1  11
ATOM     11  C   UNL     1      22.957  21.626 -15.305  1.00  0.00     0.091 A 
ATOM     12  C   UNL     1      21.687  21.892 -15.840  1.00  0.00     0.068 A 
ATOM     13  C   UNL     1      21.344  23.182 -16.256  1.00  0.00     0.162 A 
ATOM     14  C   UNL     1      23.871  22.683 -15.158  1.00  0.00     0.068 A 
ATOM     15  C   UNL     1      22.269  24.232 -16.127  1.00  0.00     0.200 A 
ATOM     16  C   UNL     1      23.535  23.979 -15.571  1.00  0.00     0.162 A 
BRANCH  13  17
ATOM     17  O   UNL     1      20.077  23.402 -16.796  1.00  0.00    -0.504 OA
ATOM     18  H   UNL     1      19.873  24.198 -17.387  1.00  0.00     0.293 HD
ENDBRANCH  13  17
BRANCH  15  19
ATOM     19  O   UNL     1      21.919  25.516 -16.547  1.00  0.00    -0.502 OA
ATOM     20  H   UNL     1      21.516  26.198 -15.917  1.00  0.00     0.293 HD
ENDBRANCH  15  19
BRANCH  16  21
ATOM     21  O   UNL     1      24.453  25.019 -15.426  1.00  0.00    -0.504 OA
ATOM     22  H   UNL     1      24.289  25.786 -14.785  1.00  0.00     0.293 HD
ENDBRANCH  16  21
ENDBRANCH   1  11
BRANCH  10  23
ATOM     23  O   UNL     1      22.390  20.645 -12.619  1.00  0.00    -0.500 OA
ATOM     24  H   UNL     1      21.493  20.434 -12.200  1.00  0.00     0.294 HD
ENDBRANCH  10  23
BRANCH   5  25
ATOM     25  O   UNL     1      25.885  15.337 -17.073  1.00  0.00    -0.507 OA
ATOM     26  H   UNL     1      25.405  14.597 -17.572  1.00  0.00     0.293 HD
ENDBRANCH   5  25
BRANCH   7  27
ATOM     27  O   UNL     1      24.050  15.682 -12.633  1.00  0.00    -0.507 OA
ATOM     28  H   UNL     1      24.636  15.769 -11.816  1.00  0.00     0.293 HD
ENDBRANCH   7  27
TORSDOF 7
ENDMDL
MODEL 5
REMARK VINA RESULT:    -7.659      1.256      2.012
REMARK INTER + INTRA:          -9.782
REMARK INTER:                  -9.886
REMARK INTRA:                   0.104
REMARK UNBOUND:                -0.332
REMARK SMILES Oc1cc(O)c2cc(O)c(-c3cc(O)c(O)c(O)c3)[o+]c2c1.[Cl-]
REMARK SMILES IDX 10 1 20 2 21 3 22 4 2 5 3 6 4 7 6 8 7 9 8 10 11 11 12 12
REMARK SMILES IDX 13 13 19 14 15 15 17 16 14 17 16 19 18 21 9 23 1 25 5 27
REMARK H PARENT 14 18 16 20 18 22 9 24 1 26 5 28
REMARK Flexibility Score: inf
ROOT
ATOM      1  C   UNL     1      23.823  19.884 -15.753  1.00  0.00     0.402 A 
ATOM      2  O   UNL     1      24.369  21.067 -15.484  1.00  0.00    -0.202 OA
ATOM      3  C   UNL     1      23.721  22.219 -15.626  1.00  0.00     0.368 A 
ATOM      4  C   UNL     1      24.380  23.411 -15.316  1.00  0.00     0.162 A 
ATOM      5  C   UNL     1      23.724  24.635 -15.451  1.00  0.00     0.128 A 
ATOM      6  C   UNL     1      22.399  24.669 -15.901  1.00  0.00     0.093 A 
ATOM      7  C   UNL     1      21.717  23.488 -16.219  1.00  0.00     0.136 A 
ATOM      8  C   UNL     1      22.382  22.242 -16.083  1.00  0.00     0.125 A 
ATOM      9  C   UNL     1      21.782  21.010 -16.391  1.00  0.00     0.078 A 
ATOM     10  C   UNL     1      22.502  19.822 -16.238  1.00  0.00     0.223 A 
ENDROOT
BRANCH   1  11
ATOM     11  C   UNL     1      24.644  18.670 -15.545  1.00  0.00     0.091 A 
ATOM     12  C   UNL     1      24.611  17.642 -16.499  1.00  0.00     0.068 A 
ATOM     13  C   UNL     1      25.391  16.493 -16.338  1.00  0.00     0.162 A 
ATOM     14  C   UNL     1      25.501  18.548 -14.438  1.00  0.00     0.068 A 
ATOM     15  C   UNL     1      26.231  16.365 -15.218  1.00  0.00     0.200 A 
ATOM     16  C   UNL     1      26.288  17.400 -14.269  1.00  0.00     0.162 A 
BRANCH  13  17
ATOM     17  O   UNL     1      25.319  15.487 -17.301  1.00  0.00    -0.504 OA
ATOM     18  H   UNL     1      26.065  14.816 -17.438  1.00  0.00     0.293 HD
ENDBRANCH  13  17
BRANCH  15  19
ATOM     19  O   UNL     1      27.005  15.214 -15.064  1.00  0.00    -0.502 OA
ATOM     20  H   UNL     1      27.589  15.062 -14.251  1.00  0.00     0.293 HD
ENDBRANCH  15  19
BRANCH  16  21
ATOM     21  O   UNL     1      27.130  17.286 -13.163  1.00  0.00    -0.504 OA
ATOM     22  H   UNL     1      27.587  18.095 -12.758  1.00  0.00     0.293 HD
ENDBRANCH  16  21
ENDBRANCH   1  11
BRANCH  10  23
ATOM     23  O   UNL     1      21.924  18.602 -16.589  1.00  0.00    -0.500 OA
ATOM     24  H   UNL     1      22.482  17.770 -16.736  1.00  0.00     0.294 HD
ENDBRANCH  10  23
BRANCH   5  25
ATOM     25  O   UNL     1      24.398  25.813 -15.137  1.00  0.00    -0.507 OA
ATOM     26  H   UNL     1      23.898  26.668 -14.919  1.00  0.00     0.293 HD
ENDBRANCH   5  25
BRANCH   7  27
ATOM     27  O   UNL     1      20.395  23.607 -16.657  1.00  0.00    -0.507 OA
ATOM     28  H   UNL     1      20.089  23.425 -17.601  1.00  0.00     0.293 HD
ENDBRANCH   7  27
TORSDOF 7
ENDMDL
MODEL 6
REMARK VINA RESULT:    -7.631      1.233      7.211
REMARK INTER + INTRA:          -9.747
REMARK INTER:                  -9.379
REMARK INTRA:                  -0.368
REMARK UNBOUND:                -0.332
REMARK SMILES Oc1cc(O)c2cc(O)c(-c3cc(O)c(O)c(O)c3)[o+]c2c1.[Cl-]
REMARK SMILES IDX 10 1 20 2 21 3 22 4 2 5 3 6 4 7 6 8 7 9 8 10 11 11 12 12
REMARK SMILES IDX 13 13 19 14 15 15 17 16 14 17 16 19 18 21 9 23 1 25 5 27
REMARK H PARENT 14 18 16 20 18 22 9 24 1 26 5 28
REMARK Flexibility Score: inf
ROOT
ATOM      1  C   UNL     1      23.184  20.292 -14.969  1.00  0.00     0.402 A 
ATOM      2  O   UNL     1      23.792  19.462 -15.812  1.00  0.00    -0.202 OA
ATOM      3  C   UNL     1      24.165  18.229 -15.481  1.00  0.00     0.368 A 
ATOM      4  C   UNL     1      24.797  17.431 -16.438  1.00  0.00     0.162 A 
ATOM      5  C   UNL     1      25.196  16.132 -16.121  1.00  0.00     0.128 A 
ATOM      6  C   UNL     1      24.963  15.627 -14.837  1.00  0.00     0.093 A 
ATOM      7  C   UNL     1      24.332  16.407 -13.860  1.00  0.00     0.136 A 
ATOM      8  C   UNL     1      23.926  17.729 -14.180  1.00  0.00     0.125 A 
ATOM      9  C   UNL     1      23.299  18.587 -13.261  1.00  0.00     0.078 A 
ATOM     10  C   UNL     1      22.933  19.879 -13.647  1.00  0.00     0.223 A 
ENDROOT
BRANCH   1  11
ATOM     11  C   UNL     1      22.808  21.637 -15.460  1.00  0.00     0.091 A 
ATOM     12  C   UNL     1      23.796  22.625 -15.592  1.00  0.00     0.068 A 
ATOM     13  C   UNL     1      23.474  23.898 -16.071  1.00  0.00     0.162 A 
ATOM     14  C   UNL     1      21.491  21.932 -15.852  1.00  0.00     0.068 A 
ATOM     15  C   UNL     1      22.151  24.195 -16.441  1.00  0.00     0.200 A 
ATOM     16  C   UNL     1      21.159  23.205 -16.335  1.00  0.00     0.162 A 
BRANCH  13  17
ATOM     17  O   UNL     1      24.482  24.856 -16.173  1.00  0.00    -0.504 OA
ATOM     18  H   UNL     1      24.502  25.683 -15.589  1.00  0.00     0.293 HD
ENDBRANCH  13  17
BRANCH  15  19
ATOM     19  O   UNL     1      21.838  25.469 -16.917  1.00  0.00    -0.502 OA
ATOM     20  H   UNL     1      21.596  25.639 -17.885  1.00  0.00     0.293 HD
ENDBRANCH  15  19
BRANCH  16  21
ATOM     21  O   UNL     1      19.848  23.489 -16.714  1.00  0.00    -0.504 OA
ATOM     22  H   UNL     1      19.109  23.597 -16.030  1.00  0.00     0.293 HD
ENDBRANCH  16  21
ENDBRANCH   1  11
BRANCH  10  23
ATOM     23  O   UNL     1      22.355  20.749 -12.721  1.00  0.00    -0.500 OA
ATOM     24  H   UNL     1      21.467  20.545 -12.281  1.00  0.00     0.294 HD
ENDBRANCH  10  23
BRANCH   5  25
ATOM     25  O   UNL     1      25.825  15.352 -17.088  1.00  0.00    -0.507 OA
ATOM     26  H   UNL     1      26.103  14.395 -16.899  1.00  0.00     0.293 HD
ENDBRANCH   5  25
BRANCH   7  27
ATOM     27  O   UNL     1      24.132  15.827 -12.604  1.00  0.00    -0.507 OA
ATOM     28  H   UNL     1      23.278  15.373 -12.316  1.00  0.00     0.293 HD
ENDBRANCH   7  27
TORSDOF 7
ENDMDL
MODEL 7
REMARK VINA RESULT:    -7.464      2.125      7.234
REMARK INTER + INTRA:          -9.542
REMARK INTER:                  -9.164
REMARK INTRA:                  -0.378
REMARK UNBOUND:                -0.332
REMARK SMILES Oc1cc(O)c2cc(O)c(-c3cc(O)c(O)c(O)c3)[o+]c2c1.[Cl-]
REMARK SMILES IDX 10 1 20 2 21 3 22 4 2 5 3 6 4 7 6 8 7 9 8 10 11 11 12 12
REMARK SMILES IDX 13 13 19 14 15 15 17 16 14 17 16 19 18 21 9 23 1 25 5 27
REMARK H PARENT 14 18 16 20 18 22 9 24 1 26 5 28
REMARK Flexibility Score: inf
ROOT
ATOM      1  C   UNL     1      24.437  20.817 -15.065  1.00  0.00     0.402 A 
ATOM      2  O   UNL     1      24.343  20.343 -13.825  1.00  0.00    -0.202 OA
ATOM      3  C   UNL     1      24.953  19.234 -13.419  1.00  0.00     0.368 A 
ATOM      4  C   UNL     1      24.795  18.818 -12.095  1.00  0.00     0.162 A 
ATOM      5  C   UNL     1      25.427  17.660 -11.640  1.00  0.00     0.128 A 
ATOM      6  C   UNL     1      26.224  16.912 -12.514  1.00  0.00     0.093 A 
ATOM      7  C   UNL     1      26.398  17.308 -13.845  1.00  0.00     0.136 A 
ATOM      8  C   UNL     1      25.755  18.484 -14.312  1.00  0.00     0.125 A 
ATOM      9  C   UNL     1      25.862  18.950 -15.633  1.00  0.00     0.078 A 
ATOM     10  C   UNL     1      25.195  20.115 -16.022  1.00  0.00     0.223 A 
ENDROOT
BRANCH   1  11
ATOM     11  C   UNL     1      23.717  22.068 -15.393  1.00  0.00     0.091 A 
ATOM     12  C   UNL     1      24.364  23.302 -15.224  1.00  0.00     0.068 A 
ATOM     13  C   UNL     1      23.715  24.498 -15.543  1.00  0.00     0.162 A 
ATOM     14  C   UNL     1      22.416  22.046 -15.923  1.00  0.00     0.068 A 
ATOM     15  C   UNL     1      22.406  24.473 -16.054  1.00  0.00     0.200 A 
ATOM     16  C   UNL     1      21.758  23.241 -16.248  1.00  0.00     0.162 A 
BRANCH  13  17
ATOM     17  O   UNL     1      24.388  25.704 -15.347  1.00  0.00    -0.504 OA
ATOM     18  H   UNL     1      24.479  26.129 -14.433  1.00  0.00     0.293 HD
ENDBRANCH  13  17
BRANCH  15  19
ATOM     19  O   UNL     1      21.765  25.672 -16.368  1.00  0.00    -0.502 OA
ATOM     20  H   UNL     1      21.926  26.157 -17.242  1.00  0.00     0.293 HD
ENDBRANCH  15  19
BRANCH  16  21
ATOM     21  O   UNL     1      20.465  23.208 -16.767  1.00  0.00    -0.504 OA
ATOM     22  H   UNL     1      19.797  23.946 -16.578  1.00  0.00     0.293 HD
ENDBRANCH  16  21
ENDBRANCH   1  11
BRANCH  10  23
ATOM     23  O   UNL     1      25.260  20.551 -17.345  1.00  0.00    -0.500 OA
ATOM     24  H   UNL     1      24.789  21.392 -17.653  1.00  0.00     0.294 HD
ENDBRANCH  10  23
BRANCH   5  25
ATOM     25  O   UNL     1      25.257  17.261 -10.316  1.00  0.00    -0.507 OA
ATOM     26  H   UNL     1      25.236  16.281 -10.057  1.00  0.00     0.293 HD
ENDBRANCH   5  25
BRANCH   7  27
ATOM     27  O   UNL     1      27.213  16.509 -14.653  1.00  0.00    -0.507 OA
ATOM     28  H   UNL     1      27.848  16.867 -15.351  1.00  0.00     0.293 HD
ENDBRANCH   7  27
TORSDOF 7
ENDMDL
MODEL 8
REMARK VINA RESULT:    -7.455      1.605      7.054
REMARK INTER + INTRA:          -9.531
REMARK INTER:                  -9.300
REMARK INTRA:                  -0.230
REMARK UNBOUND:                -0.332
REMARK SMILES Oc1cc(O)c2cc(O)c(-c3cc(O)c(O)c(O)c3)[o+]c2c1.[Cl-]
REMARK SMILES IDX 10 1 20 2 21 3 22 4 2 5 3 6 4 7 6 8 7 9 8 10 11 11 12 12
REMARK SMILES IDX 13 13 19 14 15 15 17 16 14 17 16 19 18 21 9 23 1 25 5 27
REMARK H PARENT 14 18 16 20 18 22 9 24 1 26 5 28
REMARK Flexibility Score: inf
ROOT
ATOM      1  C   UNL     1      23.873  20.068 -16.404  1.00  0.00     0.402 A 
ATOM      2  O   UNL     1      24.536  19.663 -15.323  1.00  0.00    -0.202 OA
ATOM      3  C   UNL     1      25.101  18.464 -15.220  1.00  0.00     0.368 A 
ATOM      4  C   UNL     1      25.778  18.132 -14.044  1.00  0.00     0.162 A 
ATOM      5  C   UNL     1      26.385  16.883 -13.909  1.00  0.00     0.128 A 
ATOM      6  C   UNL     1      26.314  15.957 -14.956  1.00  0.00     0.093 A 
ATOM      7  C   UNL     1      25.641  16.267 -16.145  1.00  0.00     0.136 A 
ATOM      8  C   UNL     1      25.022  17.536 -16.285  1.00  0.00     0.125 A 
ATOM      9  C   UNL     1      24.315  17.928 -17.434  1.00  0.00     0.078 A 
ATOM     10  C   UNL     1      23.727  19.194 -17.497  1.00  0.00     0.223 A 
ENDROOT
BRANCH   1  11
ATOM     11  C   UNL     1      23.297  21.432 -16.401  1.00  0.00     0.091 A 
ATOM     12  C   UNL     1      24.153  22.543 -16.426  1.00  0.00     0.068 A 
ATOM     13  C   UNL     1      23.636  23.842 -16.443  1.00  0.00     0.162 A 
ATOM     14  C   UNL     1      21.907  21.638 -16.431  1.00  0.00     0.068 A 
ATOM     15  C   UNL     1      22.245  24.045 -16.452  1.00  0.00     0.200 A 
ATOM     16  C   UNL     1      21.380  22.937 -16.450  1.00  0.00     0.162 A 
BRANCH  13  17
ATOM     17  O   UNL     1      24.520  24.921 -16.453  1.00  0.00    -0.504 OA
ATOM     18  H   UNL     1      25.336  24.955 -15.854  1.00  0.00     0.293 HD
ENDBRANCH  13  17
BRANCH  15  19
ATOM     19  O   UNL     1      21.737  25.345 -16.467  1.00  0.00    -0.502 OA
ATOM     20  H   UNL     1      21.970  26.006 -17.198  1.00  0.00     0.293 HD
ENDBRANCH  15  19
BRANCH  16  21
ATOM     21  O   UNL     1      19.999  23.131 -16.473  1.00  0.00    -0.504 OA
ATOM     22  H   UNL     1      19.407  22.652 -17.142  1.00  0.00     0.293 HD
ENDBRANCH  16  21
ENDBRANCH   1  11
BRANCH  10  23
ATOM     23  O   UNL     1      22.983  19.565 -18.618  1.00  0.00    -0.500 OA
ATOM     24  H   UNL     1      23.283  19.333 -19.557  1.00  0.00     0.294 HD
ENDBRANCH  10  23
BRANCH   5  25
ATOM     25  O   UNL     1      27.055  16.569 -12.729  1.00  0.00    -0.507 OA
ATOM     26  H   UNL     1      26.706  15.860 -12.093  1.00  0.00     0.293 HD
ENDBRANCH   5  25
BRANCH   7  27
ATOM     27  O   UNL     1      25.620  15.290 -17.145  1.00  0.00    -0.507 OA
ATOM     28  H   UNL     1      26.324  15.193 -17.862  1.00  0.00     0.293 HD
ENDBRANCH   7  27
TORSDOF 7
ENDMDL
MODEL 9
REMARK VINA RESULT:    -7.376      1.622      7.017
REMARK INTER + INTRA:          -9.434
REMARK INTER:                  -9.200
REMARK INTRA:                  -0.234
REMARK UNBOUND:                -0.332
REMARK SMILES Oc1cc(O)c2cc(O)c(-c3cc(O)c(O)c(O)c3)[o+]c2c1.[Cl-]
REMARK SMILES IDX 10 1 20 2 21 3 22 4 2 5 3 6 4 7 6 8 7 9 8 10 11 11 12 12
REMARK SMILES IDX 13 13 19 14 15 15 17 16 14 17 16 19 18 21 9 23 1 25 5 27
REMARK H PARENT 14 18 16 20 18 22 9 24 1 26 5 28
REMARK Flexibility Score: inf
ROOT
ATOM      1  C   UNL     1      23.927  20.076 -16.486  1.00  0.00     0.402 A 
ATOM      2  O   UNL     1      24.569  19.664 -15.396  1.00  0.00    -0.202 OA
ATOM      3  C   UNL     1      25.117  18.457 -15.284  1.00  0.00     0.368 A 
ATOM      4  C   UNL     1      25.773  18.117 -14.098  1.00  0.00     0.162 A 
ATOM      5  C   UNL     1      26.361  16.860 -13.953  1.00  0.00     0.128 A 
ATOM      6  C   UNL     1      26.292  15.934 -15.001  1.00  0.00     0.093 A 
ATOM      7  C   UNL     1      25.640  16.251 -16.198  1.00  0.00     0.136 A 
ATOM      8  C   UNL     1      25.040  17.529 -16.348  1.00  0.00     0.125 A 
ATOM      9  C   UNL     1      24.354  17.928 -17.508  1.00  0.00     0.078 A 
ATOM     10  C   UNL     1      23.783  19.202 -17.580  1.00  0.00     0.223 A 
ENDROOT
BRANCH   1  11
ATOM     11  C   UNL     1      23.368  21.447 -16.493  1.00  0.00     0.091 A 
ATOM     12  C   UNL     1      21.977  21.625 -16.496  1.00  0.00     0.068 A 
ATOM     13  C   UNL     1      21.421  22.909 -16.484  1.00  0.00     0.162 A 
ATOM     14  C   UNL     1      24.202  22.576 -16.440  1.00  0.00     0.068 A 
ATOM     15  C   UNL     1      22.260  24.036 -16.452  1.00  0.00     0.200 A 
ATOM     16  C   UNL     1      23.654  23.866 -16.425  1.00  0.00     0.162 A 
BRANCH  13  17
ATOM     17  O   UNL     1      20.033  23.044 -16.502  1.00  0.00    -0.504 OA
ATOM     18  H   UNL     1      19.437  22.578 -15.830  1.00  0.00     0.293 HD
ENDBRANCH  13  17
BRANCH  15  19
ATOM     19  O   UNL     1      21.697  25.313 -16.442  1.00  0.00    -0.502 OA
ATOM     20  H   UNL     1      21.882  25.978 -15.701  1.00  0.00     0.293 HD
ENDBRANCH  15  19
BRANCH  16  21
ATOM     21  O   UNL     1      24.491  24.981 -16.379  1.00  0.00    -0.504 OA
ATOM     22  H   UNL     1      24.123  25.917 -16.260  1.00  0.00     0.293 HD
ENDBRANCH  16  21
ENDBRANCH   1  11
BRANCH  10  23
ATOM     23  O   UNL     1      23.060  19.581 -18.711  1.00  0.00    -0.500 OA
ATOM     24  H   UNL     1      23.410  19.416 -19.647  1.00  0.00     0.294 HD
ENDBRANCH  10  23
BRANCH   5  25
ATOM     25  O   UNL     1      27.011  16.539 -12.764  1.00  0.00    -0.507 OA
ATOM     26  H   UNL     1      27.956  16.853 -12.575  1.00  0.00     0.293 HD
ENDBRANCH   5  25
BRANCH   7  27
ATOM     27  O   UNL     1      25.619  15.274 -17.198  1.00  0.00    -0.507 OA
ATOM     28  H   UNL     1      25.637  15.471 -18.188  1.00  0.00     0.293 HD
ENDBRANCH   7  27
TORSDOF 7
ENDMDL
