MODEL 1
REMARK VINA RESULT:    10.206      0.000      0.000
REMARK INTER + INTRA:          25.193
REMARK INTER:                  26.911
REMARK INTRA:                  -1.718
REMARK UNBOUND:                -1.718
REMARK SMILES CCCCCCCCCCCCCCCCCCCCCCCCCCCCCC(=O)[O-]
REMARK SMILES IDX 16 1 17 2 18 3 19 4 20 5 21 6 22 7 23 8 24 9 25 10 26 11
REMARK SMILES IDX 27 12 28 13 29 14 30 15 31 16 32 17 15 18 14 19 13 20 12 21
REMARK SMILES IDX 11 22 10 23 9 24 8 25 7 26 6 27 5 28 4 29 3 30 2 31 1 32
REMARK H PARENT
REMARK Flexibility Score: inf
ROOT
ATOM      1  C   UNL     1      14.437  17.488  -6.830  1.00  0.00     0.000 C 
ENDROOT
BRANCH   1   2
ATOM      2  C   UNL     1      13.586  17.621  -5.556  1.00  0.00     0.000 C 
BRANCH   2   3
ATOM      3  C   UNL     1      12.078  17.493  -5.835  1.00  0.00     0.000 C 
BRANCH   3   4
ATOM      4  C   UNL     1      11.573  16.048  -5.696  1.00  0.00     0.000 C 
BRANCH   4   5
ATOM      5  C   UNL     1      11.644  15.538  -4.247  1.00  0.00     0.000 C 
BRANCH   5   6
ATOM      6  C   UNL     1      10.713  14.337  -3.989  1.00  0.00     0.000 C 
BRANCH   6   7
ATOM      7  C   UNL     1      11.031  13.517  -2.724  1.00  0.00     0.000 C 
BRANCH   7   8
ATOM      8  C   UNL     1      10.037  13.685  -1.557  1.00  0.00     0.000 C 
BRANCH   8   9
ATOM      9  C   UNL     1      10.543  13.119  -0.214  1.00  0.00     0.000 C 
BRANCH   9  10
ATOM     10  C   UNL     1      12.074  13.170  -0.084  1.00  0.00     0.000 C 
BRANCH  10  11
ATOM     11  C   UNL     1      12.490  13.733   1.280  1.00  0.00     0.000 C 
BRANCH  11  12
ATOM     12  C   UNL     1      12.101  15.210   1.410  1.00  0.00     0.000 C 
BRANCH  12  13
ATOM     13  C   UNL     1      10.752  15.362   2.125  1.00  0.00     0.006 C 
BRANCH  13  14
ATOM     14  C   UNL     1       9.929  16.503   1.514  1.00  0.00     0.053 C 
BRANCH  14  15
ATOM     15  C   UNL     1       8.464  16.325   1.770  1.00  0.00     0.041 C 
ATOM     16  O   UNL     1       7.699  17.325   1.836  1.00  0.00    -0.550 OA
ATOM     17  O   UNL     1       7.949  15.054   1.987  1.00  0.00    -0.550 OA
ENDBRANCH  14  15
ENDBRANCH  13  14
ENDBRANCH  12  13
ENDBRANCH  11  12
ENDBRANCH  10  11
ENDBRANCH   9  10
ENDBRANCH   8   9
ENDBRANCH   7   8
ENDBRANCH   6   7
ENDBRANCH   5   6
ENDBRANCH   4   5
ENDBRANCH   3   4
ENDBRANCH   2   3
ENDBRANCH   1   2
BRANCH   1  18
ATOM     18  C   UNL     1      14.322  16.133  -7.555  1.00  0.00     0.000 C 
BRANCH  18  19
ATOM     19  C   UNL     1      15.296  15.972  -8.741  1.00  0.00     0.000 C 
BRANCH  19  20
ATOM     20  C   UNL     1      14.590  15.492 -10.020  1.00  0.00     0.000 C 
BRANCH  20  21
ATOM     21  C   UNL     1      15.559  14.795 -10.991  1.00  0.00     0.000 C 
BRANCH  21  22
ATOM     22  C   UNL     1      15.175  14.980 -12.479  1.00  0.00     0.000 C 
BRANCH  22  23
ATOM     23  C   UNL     1      16.067  14.178 -13.445  1.00  0.00     0.000 C 
BRANCH  23  24
ATOM     24  C   UNL     1      17.579  14.339 -13.199  1.00  0.00    -0.000 C 
BRANCH  24  25
ATOM     25  C   UNL     1      18.165  15.701 -13.628  1.00  0.00    -0.000 C 
BRANCH  25  26
ATOM     26  C   UNL     1      19.001  16.424 -12.555  1.00  0.00    -0.000 C 
BRANCH  26  27
ATOM     27  C   UNL     1      18.141  17.009 -11.420  1.00  0.00    -0.000 C 
BRANCH  27  28
ATOM     28  C   UNL     1      18.353  18.520 -11.233  1.00  0.00    -0.000 C 
BRANCH  28  29
ATOM     29  C   UNL     1      17.836  19.340 -12.428  1.00  0.00    -0.000 C 
BRANCH  29  30
ATOM     30  C   UNL     1      18.877  20.340 -12.964  1.00  0.00    -0.000 C 
BRANCH  30  31
ATOM     31  C   UNL     1      19.519  21.247 -11.896  1.00  0.00    -0.003 C 
ATOM     32  C   UNL     1      21.031  21.390 -12.061  1.00  0.00     0.004 C 
ENDBRANCH  30  31
ENDBRANCH  29  30
ENDBRANCH  28  29
ENDBRANCH  27  28
ENDBRANCH  26  27
ENDBRANCH  25  26
ENDBRANCH  24  25
ENDBRANCH  23  24
ENDBRANCH  22  23
ENDBRANCH  21  22
ENDBRANCH  20  21
ENDBRANCH  19  20
ENDBRANCH  18  19
ENDBRANCH   1  18
TORSDOF 28
ENDMDL
MODEL 2
REMARK VINA RESULT:    10.401      4.925     13.691
REMARK INTER + INTRA:          25.709
REMARK INTER:                  26.092
REMARK INTRA:                  -0.383
REMARK UNBOUND:                -1.718
REMARK SMILES CCCCCCCCCCCCCCCCCCCCCCCCCCCCCC(=O)[O-]
REMARK SMILES IDX 16 1 17 2 18 3 19 4 20 5 21 6 22 7 23 8 24 9 25 10 26 11
REMARK SMILES IDX 27 12 28 13 29 14 30 15 31 16 32 17 15 18 14 19 13 20 12 21
REMARK SMILES IDX 11 22 10 23 9 24 8 25 7 26 6 27 5 28 4 29 3 30 2 31 1 32
REMARK H PARENT
REMARK Flexibility Score: inf
ROOT
ATOM      1  C   UNL     1      13.005  17.415  -6.108  1.00  0.00     0.000 C 
ENDROOT
BRANCH   1   2
ATOM      2  C   UNL     1      14.327  17.163  -6.852  1.00  0.00     0.000 C 
BRANCH   2   3
ATOM      3  C   UNL     1      14.516  15.685  -7.239  1.00  0.00     0.000 C 
BRANCH   3   4
ATOM      4  C   UNL     1      15.211  15.517  -8.599  1.00  0.00     0.000 C 
BRANCH   4   5
ATOM      5  C   UNL     1      14.215  15.499  -9.771  1.00  0.00     0.000 C 
BRANCH   5   6
ATOM      6  C   UNL     1      14.616  14.511 -10.883  1.00  0.00     0.000 C 
BRANCH   6   7
ATOM      7  C   UNL     1      15.266  15.146 -12.126  1.00  0.00     0.000 C 
BRANCH   7   8
ATOM      8  C   UNL     1      16.637  14.566 -12.529  1.00  0.00     0.000 C 
BRANCH   8   9
ATOM      9  C   UNL     1      17.474  15.497 -13.431  1.00  0.00     0.000 C 
BRANCH   9  10
ATOM     10  C   UNL     1      18.530  16.293 -12.648  1.00  0.00     0.000 C 
BRANCH  10  11
ATOM     11  C   UNL     1      17.900  17.004 -11.445  1.00  0.00     0.000 C 
BRANCH  11  12
ATOM     12  C   UNL     1      18.504  18.399 -11.250  1.00  0.00     0.000 C 
BRANCH  12  13
ATOM     13  C   UNL     1      17.858  19.416 -12.198  1.00  0.00     0.006 C 
BRANCH  13  14
ATOM     14  C   UNL     1      18.895  20.010 -13.160  1.00  0.00     0.053 C 
BRANCH  14  15
ATOM     15  C   UNL     1      19.619  21.168 -12.544  1.00  0.00     0.041 C 
ATOM     16  O   UNL     1      19.090  22.313 -12.514  1.00  0.00    -0.550 OA
ATOM     17  O   UNL     1      20.905  20.995 -12.048  1.00  0.00    -0.550 OA
ENDBRANCH  14  15
ENDBRANCH  13  14
ENDBRANCH  12  13
ENDBRANCH  11  12
ENDBRANCH  10  11
ENDBRANCH   9  10
ENDBRANCH   8   9
ENDBRANCH   7   8
ENDBRANCH   6   7
ENDBRANCH   5   6
ENDBRANCH   4   5
ENDBRANCH   3   4
ENDBRANCH   2   3
ENDBRANCH   1   2
BRANCH   1  18
ATOM     18  C   UNL     1      12.713  16.446  -4.946  1.00  0.00     0.000 C 
BRANCH  18  19
ATOM     19  C   UNL     1      11.424  15.617  -5.131  1.00  0.00     0.000 C 
BRANCH  19  20
ATOM     20  C   UNL     1      11.644  14.120  -4.859  1.00  0.00     0.000 C 
BRANCH  20  21
ATOM     21  C   UNL     1      10.838  13.625  -3.646  1.00  0.00     0.000 C 
BRANCH  21  22
ATOM     22  C   UNL     1      10.868  14.604  -2.448  1.00  0.00     0.000 C 
BRANCH  22  23
ATOM     23  C   UNL     1      11.759  14.123  -1.287  1.00  0.00     0.000 C 
BRANCH  23  24
ATOM     24  C   UNL     1      11.145  12.993  -0.438  1.00  0.00    -0.000 C 
BRANCH  24  25
ATOM     25  C   UNL     1      11.648  12.928   1.019  1.00  0.00    -0.000 C 
BRANCH  25  26
ATOM     26  C   UNL     1      11.859  14.292   1.704  1.00  0.00    -0.000 C 
BRANCH  26  27
ATOM     27  C   UNL     1      11.591  15.481   0.763  1.00  0.00    -0.000 C 
BRANCH  27  28
ATOM     28  C   UNL     1      10.860  16.638   1.464  1.00  0.00    -0.000 C 
BRANCH  28  29
ATOM     29  C   UNL     1       9.539  16.192   2.114  1.00  0.00    -0.000 C 
BRANCH  29  30
ATOM     30  C   UNL     1       8.793  15.128   1.288  1.00  0.00    -0.000 C 
BRANCH  30  31
ATOM     31  C   UNL     1       8.038  14.072   2.117  1.00  0.00    -0.003 C 
ATOM     32  C   UNL     1       6.528  14.089   1.878  1.00  0.00     0.004 C 
ENDBRANCH  30  31
ENDBRANCH  29  30
ENDBRANCH  28  29
ENDBRANCH  27  28
ENDBRANCH  26  27
ENDBRANCH  25  26
ENDBRANCH  24  25
ENDBRANCH  23  24
ENDBRANCH  22  23
ENDBRANCH  21  22
ENDBRANCH  20  21
ENDBRANCH  19  20
ENDBRANCH  18  19
ENDBRANCH   1  18
TORSDOF 28
ENDMDL
MODEL 3
REMARK VINA RESULT:    10.408      1.535      2.533
REMARK INTER + INTRA:          25.727
REMARK INTER:                  26.731
REMARK INTRA:                  -1.004
REMARK UNBOUND:                -1.718
REMARK SMILES CCCCCCCCCCCCCCCCCCCCCCCCCCCCCC(=O)[O-]
REMARK SMILES IDX 16 1 17 2 18 3 19 4 20 5 21 6 22 7 23 8 24 9 25 10 26 11
REMARK SMILES IDX 27 12 28 13 29 14 30 15 31 16 32 17 15 18 14 19 13 20 12 21
REMARK SMILES IDX 11 22 10 23 9 24 8 25 7 26 6 27 5 28 4 29 3 30 2 31 1 32
REMARK H PARENT
REMARK Flexibility Score: inf
ROOT
ATOM      1  C   UNL     1      13.022  17.439  -5.603  1.00  0.00     0.000 C 
ENDROOT
BRANCH   1   2
ATOM      2  C   UNL     1      12.166  16.164  -5.677  1.00  0.00     0.000 C 
BRANCH   2   3
ATOM      3  C   UNL     1      11.421  15.872  -4.361  1.00  0.00     0.000 C 
BRANCH   3   4
ATOM      4  C   UNL     1      11.074  14.384  -4.198  1.00  0.00     0.000 C 
BRANCH   4   5
ATOM      5  C   UNL     1      10.411  14.080  -2.844  1.00  0.00     0.000 C 
BRANCH   5   6
ATOM      6  C   UNL     1      11.425  13.678  -1.756  1.00  0.00     0.000 C 
BRANCH   6   7
ATOM      7  C   UNL     1      10.819  13.042  -0.493  1.00  0.00     0.000 C 
BRANCH   7   8
ATOM      8  C   UNL     1      11.616  13.259   0.809  1.00  0.00     0.000 C 
BRANCH   8   9
ATOM      9  C   UNL     1      10.782  13.082   2.095  1.00  0.00     0.000 C 
BRANCH   9  10
ATOM     10  C   UNL     1       9.271  13.217   1.849  1.00  0.00     0.000 C 
BRANCH  10  11
ATOM     11  C   UNL     1       8.798  14.651   2.119  1.00  0.00     0.000 C 
BRANCH  11  12
ATOM     12  C   UNL     1       8.448  15.372   0.813  1.00  0.00     0.000 C 
BRANCH  12  13
ATOM     13  C   UNL     1       9.128  16.745   0.743  1.00  0.00     0.006 C 
BRANCH  13  14
ATOM     14  C   UNL     1      10.054  16.964   1.947  1.00  0.00     0.053 C 
BRANCH  14  15
ATOM     15  C   UNL     1      11.491  16.748   1.584  1.00  0.00     0.041 C 
ATOM     16  O   UNL     1      11.829  15.780   0.851  1.00  0.00    -0.550 OA
ATOM     17  O   UNL     1      12.469  17.591   2.099  1.00  0.00    -0.550 OA
ENDBRANCH  14  15
ENDBRANCH  13  14
ENDBRANCH  12  13
ENDBRANCH  11  12
ENDBRANCH  10  11
ENDBRANCH   9  10
ENDBRANCH   8   9
ENDBRANCH   7   8
ENDBRANCH   6   7
ENDBRANCH   5   6
ENDBRANCH   4   5
ENDBRANCH   3   4
ENDBRANCH   2   3
ENDBRANCH   1   2
BRANCH   1  18
ATOM     18  C   UNL     1      14.198  17.495  -6.597  1.00  0.00     0.000 C 
BRANCH  18  19
ATOM     19  C   UNL     1      14.029  16.569  -7.820  1.00  0.00     0.000 C 
BRANCH  19  20
ATOM     20  C   UNL     1      15.218  15.610  -7.999  1.00  0.00     0.000 C 
BRANCH  20  21
ATOM     21  C   UNL     1      15.792  15.657  -9.425  1.00  0.00     0.000 C 
BRANCH  21  22
ATOM     22  C   UNL     1      14.738  15.374 -10.522  1.00  0.00     0.000 C 
BRANCH  22  23
ATOM     23  C   UNL     1      14.788  13.932 -11.060  1.00  0.00     0.000 C 
BRANCH  23  24
ATOM     24  C   UNL     1      15.616  13.760 -12.347  1.00  0.00    -0.000 C 
BRANCH  24  25
ATOM     25  C   UNL     1      16.068  15.079 -13.010  1.00  0.00    -0.000 C 
BRANCH  25  26
ATOM     26  C   UNL     1      17.480  15.056 -13.625  1.00  0.00    -0.000 C 
BRANCH  26  27
ATOM     27  C   UNL     1      18.532  15.741 -12.734  1.00  0.00    -0.000 C 
BRANCH  27  28
ATOM     28  C   UNL     1      18.073  17.118 -12.227  1.00  0.00    -0.000 C 
BRANCH  28  29
ATOM     29  C   UNL     1      18.952  18.264 -12.756  1.00  0.00    -0.000 C 
BRANCH  29  30
ATOM     30  C   UNL     1      18.154  19.551 -13.037  1.00  0.00    -0.000 C 
BRANCH  30  31
ATOM     31  C   UNL     1      18.604  20.784 -12.230  1.00  0.00    -0.003 C 
ATOM     32  C   UNL     1      20.123  20.908 -12.121  1.00  0.00     0.004 C 
ENDBRANCH  30  31
ENDBRANCH  29  30
ENDBRANCH  28  29
ENDBRANCH  27  28
ENDBRANCH  26  27
ENDBRANCH  25  26
ENDBRANCH  24  25
ENDBRANCH  23  24
ENDBRANCH  22  23
ENDBRANCH  21  22
ENDBRANCH  20  21
ENDBRANCH  19  20
ENDBRANCH  18  19
ENDBRANCH   1  18
TORSDOF 28
ENDMDL
MODEL 4
REMARK VINA RESULT:    11.773      4.766     13.399
REMARK INTER + INTRA:          29.327
REMARK INTER:                  29.964
REMARK INTRA:                  -0.637
REMARK UNBOUND:                -1.718
REMARK SMILES CCCCCCCCCCCCCCCCCCCCCCCCCCCCCC(=O)[O-]
REMARK SMILES IDX 16 1 17 2 18 3 19 4 20 5 21 6 22 7 23 8 24 9 25 10 26 11
REMARK SMILES IDX 27 12 28 13 29 14 30 15 31 16 32 17 15 18 14 19 13 20 12 21
REMARK SMILES IDX 11 22 10 23 9 24 8 25 7 26 6 27 5 28 4 29 3 30 2 31 1 32
REMARK H PARENT
REMARK Flexibility Score: inf
ROOT
ATOM      1  C   UNL     1      13.567  18.165  -5.790  1.00  0.00     0.000 C 
ENDROOT
BRANCH   1   2
ATOM      2  C   UNL     1      14.574  17.497  -6.740  1.00  0.00     0.000 C 
BRANCH   2   3
ATOM      3  C   UNL     1      14.020  16.213  -7.385  1.00  0.00     0.000 C 
BRANCH   3   4
ATOM      4  C   UNL     1      15.128  15.318  -7.963  1.00  0.00     0.000 C 
BRANCH   4   5
ATOM      5  C   UNL     1      15.587  15.778  -9.356  1.00  0.00     0.000 C 
BRANCH   5   6
ATOM      6  C   UNL     1      14.914  14.993 -10.499  1.00  0.00     0.000 C 
BRANCH   6   7
ATOM      7  C   UNL     1      15.329  15.413 -11.921  1.00  0.00     0.000 C 
BRANCH   7   8
ATOM      8  C   UNL     1      15.890  14.285 -12.809  1.00  0.00     0.000 C 
BRANCH   8   9
ATOM      9  C   UNL     1      16.742  14.783 -13.996  1.00  0.00     0.000 C 
BRANCH   9  10
ATOM     10  C   UNL     1      18.247  14.792 -13.686  1.00  0.00     0.000 C 
BRANCH  10  11
ATOM     11  C   UNL     1      18.536  15.571 -12.397  1.00  0.00     0.000 C 
BRANCH  11  12
ATOM     12  C   UNL     1      18.891  17.031 -12.701  1.00  0.00     0.000 C 
BRANCH  12  13
ATOM     13  C   UNL     1      18.203  17.981 -11.713  1.00  0.00     0.006 C 
BRANCH  13  14
ATOM     14  C   UNL     1      19.046  19.242 -11.482  1.00  0.00     0.053 C 
BRANCH  14  15
ATOM     15  C   UNL     1      18.683  20.333 -12.443  1.00  0.00     0.041 C 
ATOM     16  O   UNL     1      17.838  20.128 -13.355  1.00  0.00    -0.550 OA
ATOM     17  O   UNL     1      19.319  21.565 -12.363  1.00  0.00    -0.550 OA
ENDBRANCH  14  15
ENDBRANCH  13  14
ENDBRANCH  12  13
ENDBRANCH  11  12
ENDBRANCH  10  11
ENDBRANCH   9  10
ENDBRANCH   8   9
ENDBRANCH   7   8
ENDBRANCH   6   7
ENDBRANCH   5   6
ENDBRANCH   4   5
ENDBRANCH   3   4
ENDBRANCH   2   3
ENDBRANCH   1   2
BRANCH   1  18
ATOM     18  C   UNL     1      12.708  17.192  -4.960  1.00  0.00     0.000 C 
BRANCH  18  19
ATOM     19  C   UNL     1      11.811  16.266  -5.809  1.00  0.00     0.000 C 
BRANCH  19  20
ATOM     20  C   UNL     1      11.877  14.801  -5.348  1.00  0.00     0.000 C 
BRANCH  20  21
ATOM     21  C   UNL     1      10.738  14.445  -4.377  1.00  0.00     0.000 C 
BRANCH  21  22
ATOM     22  C   UNL     1      11.145  14.553  -2.888  1.00  0.00     0.000 C 
BRANCH  22  23
ATOM     23  C   UNL     1      10.953  13.241  -2.105  1.00  0.00     0.000 C 
BRANCH  23  24
ATOM     24  C   UNL     1      10.697  13.429  -0.598  1.00  0.00    -0.000 C 
BRANCH  24  25
ATOM     25  C   UNL     1      11.918  13.157   0.307  1.00  0.00    -0.000 C 
BRANCH  25  26
ATOM     26  C   UNL     1      11.930  13.925   1.642  1.00  0.00    -0.000 C 
BRANCH  26  27
ATOM     27  C   UNL     1      12.171  15.435   1.462  1.00  0.00    -0.000 C 
BRANCH  27  28
ATOM     28  C   UNL     1      10.865  16.226   1.281  1.00  0.00    -0.000 C 
BRANCH  28  29
ATOM     29  C   UNL     1       9.710  15.656   2.123  1.00  0.00    -0.000 C 
BRANCH  29  30
ATOM     30  C   UNL     1       8.348  15.740   1.408  1.00  0.00    -0.000 C 
BRANCH  30  31
ATOM     31  C   UNL     1       7.473  16.941   1.815  1.00  0.00    -0.003 C 
ATOM     32  C   UNL     1       7.761  18.198   0.995  1.00  0.00     0.004 C 
ENDBRANCH  30  31
ENDBRANCH  29  30
ENDBRANCH  28  29
ENDBRANCH  27  28
ENDBRANCH  26  27
ENDBRANCH  25  26
ENDBRANCH  24  25
ENDBRANCH  23  24
ENDBRANCH  22  23
ENDBRANCH  21  22
ENDBRANCH  20  21
ENDBRANCH  19  20
ENDBRANCH  18  19
ENDBRANCH   1  18
TORSDOF 28
ENDMDL
MODEL 5
REMARK VINA RESULT:    12.846      1.385      2.530
REMARK INTER + INTRA:          32.157
REMARK INTER:                  30.816
REMARK INTRA:                   1.341
REMARK UNBOUND:                -1.718
REMARK SMILES CCCCCCCCCCCCCCCCCCCCCCCCCCCCCC(=O)[O-]
REMARK SMILES IDX 16 1 17 2 18 3 19 4 20 5 21 6 22 7 23 8 24 9 25 10 26 11
REMARK SMILES IDX 27 12 28 13 29 14 30 15 31 16 32 17 15 18 14 19 13 20 12 21
REMARK SMILES IDX 11 22 10 23 9 24 8 25 7 26 6 27 5 28 4 29 3 30 2 31 1 32
REMARK H PARENT
REMARK Flexibility Score: inf
ROOT
ATOM      1  C   UNL     1      15.296  16.059  -9.003  1.00  0.00     0.000 C 
ENDROOT
BRANCH   1   2
ATOM      2  C   UNL     1      14.944  15.599  -7.579  1.00  0.00     0.000 C 
BRANCH   2   3
ATOM      3  C   UNL     1      13.998  16.577  -6.858  1.00  0.00     0.000 C 
BRANCH   3   4
ATOM      4  C   UNL     1      13.096  15.875  -5.831  1.00  0.00     0.000 C 
BRANCH   4   5
ATOM      5  C   UNL     1      11.750  16.595  -5.641  1.00  0.00     0.000 C 
BRANCH   5   6
ATOM      6  C   UNL     1      10.700  15.722  -4.928  1.00  0.00     0.000 C 
BRANCH   6   7
ATOM      7  C   UNL     1      11.193  14.336  -4.473  1.00  0.00     0.000 C 
BRANCH   7   8
ATOM      8  C   UNL     1      10.778  13.918  -3.048  1.00  0.00     0.000 C 
BRANCH   8   9
ATOM      9  C   UNL     1      11.940  13.907  -2.032  1.00  0.00     0.000 C 
BRANCH   9  10
ATOM     10  C   UNL     1      11.457  13.968  -0.574  1.00  0.00     0.000 C 
BRANCH  10  11
ATOM     11  C   UNL     1      10.103  14.681  -0.474  1.00  0.00     0.000 C 
BRANCH  11  12
ATOM     12  C   UNL     1       9.183  13.982   0.532  1.00  0.00     0.000 C 
BRANCH  12  13
ATOM     13  C   UNL     1       8.871  14.899   1.721  1.00  0.00     0.006 C 
BRANCH  13  14
ATOM     14  C   UNL     1       9.697  16.190   1.654  1.00  0.00     0.053 C 
BRANCH  14  15
ATOM     15  C   UNL     1      11.151  15.929   1.902  1.00  0.00     0.041 C 
ATOM     16  O   UNL     1      11.564  14.759   2.125  1.00  0.00    -0.550 OA
ATOM     17  O   UNL     1      12.048  16.990   1.939  1.00  0.00    -0.550 OA
ENDBRANCH  14  15
ENDBRANCH  13  14
ENDBRANCH  12  13
ENDBRANCH  11  12
ENDBRANCH  10  11
ENDBRANCH   9  10
ENDBRANCH   8   9
ENDBRANCH   7   8
ENDBRANCH   6   7
ENDBRANCH   5   6
ENDBRANCH   4   5
ENDBRANCH   3   4
ENDBRANCH   2   3
ENDBRANCH   1   2
BRANCH   1  18
ATOM     18  C   UNL     1      14.765  15.153 -10.132  1.00  0.00     0.000 C 
BRANCH  18  19
ATOM     19  C   UNL     1      15.416  15.419 -11.506  1.00  0.00     0.000 C 
BRANCH  19  20
ATOM     20  C   UNL     1      15.310  14.209 -12.450  1.00  0.00     0.000 C 
BRANCH  20  21
ATOM     21  C   UNL     1      16.263  14.325 -13.652  1.00  0.00     0.000 C 
BRANCH  21  22
ATOM     22  C   UNL     1      17.670  13.742 -13.378  1.00  0.00     0.000 C 
BRANCH  22  23
ATOM     23  C   UNL     1      18.759  14.821 -13.227  1.00  0.00     0.000 C 
BRANCH  23  24
ATOM     24  C   UNL     1      18.220  16.259 -13.109  1.00  0.00    -0.000 C 
BRANCH  24  25
ATOM     25  C   UNL     1      18.339  16.886 -11.704  1.00  0.00    -0.000 C 
BRANCH  25  26
ATOM     26  C   UNL     1      18.854  18.337 -11.673  1.00  0.00    -0.000 C 
BRANCH  26  27
ATOM     27  C   UNL     1      18.930  18.976 -13.071  1.00  0.00    -0.000 C 
BRANCH  27  28
ATOM     28  C   UNL     1      17.764  19.939 -13.347  1.00  0.00    -0.000 C 
BRANCH  28  29
ATOM     29  C   UNL     1      18.118  21.401 -13.025  1.00  0.00    -0.000 C 
BRANCH  29  30
ATOM     30  C   UNL     1      19.248  21.530 -11.987  1.00  0.00    -0.000 C 
BRANCH  30  31
ATOM     31  C   UNL     1      20.672  21.362 -12.552  1.00  0.00    -0.003 C 
ATOM     32  C   UNL     1      21.662  20.810 -11.528  1.00  0.00     0.004 C 
ENDBRANCH  30  31
ENDBRANCH  29  30
ENDBRANCH  28  29
ENDBRANCH  27  28
ENDBRANCH  26  27
ENDBRANCH  25  26
ENDBRANCH  24  25
ENDBRANCH  23  24
ENDBRANCH  22  23
ENDBRANCH  21  22
ENDBRANCH  20  21
ENDBRANCH  19  20
ENDBRANCH  18  19
ENDBRANCH   1  18
TORSDOF 28
ENDMDL
