MODEL 1
REMARK VINA RESULT:     1.630      0.000      0.000
REMARK INTER + INTRA:           1.677
REMARK INTER:                   1.964
REMARK INTRA:                  -0.287
REMARK UNBOUND:                -0.287
REMARK SMILES O=c1c(O)c(-c2ccc(O)c(O)c2)oc2cc(O)cc(O)c12
REMARK SMILES IDX 5 1 3 2 2 3 1 4 22 5 20 6 19 7 17 8 16 9 15 10 14 11 6 12
REMARK SMILES IDX 7 13 8 14 9 15 13 16 11 17 10 18 12 20 4 22 21 24 18 26
REMARK H PARENT 10 19 12 21 4 23 21 25 18 27
REMARK Flexibility Score: inf
ROOT
ATOM      1  C   UNL     1      75.538  40.672  24.067  1.00  0.00     0.180 A 
ATOM      2  C   UNL     1      76.266  41.717  23.470  1.00  0.00     0.208 A 
ATOM      3  C   UNL     1      75.904  42.154  22.186  1.00  0.00     0.238 A 
ATOM      4  O   UNL     1      76.524  43.125  21.681  1.00  0.00    -0.285 OA
ATOM      5  C   UNL     1      74.828  41.530  21.508  1.00  0.00     0.111 A 
ATOM      6  C   UNL     1      74.400  41.866  20.188  1.00  0.00     0.134 A 
ATOM      7  C   UNL     1      73.243  41.273  19.666  1.00  0.00     0.093 A 
ATOM      8  C   UNL     1      72.537  40.313  20.389  1.00  0.00     0.123 A 
ATOM      9  C   UNL     1      72.981  39.934  21.657  1.00  0.00     0.094 A 
ATOM     10  C   UNL     1      74.111  40.534  22.219  1.00  0.00     0.146 A 
ATOM     11  O   UNL     1      74.494  40.152  23.431  1.00  0.00    -0.452 OA
ENDROOT
BRANCH   1  12
ATOM     12  C   UNL     1      75.877  40.140  25.407  1.00  0.00     0.025 A 
ATOM     13  C   UNL     1      76.569  38.929  25.559  1.00  0.00     0.016 A 
ATOM     14  C   UNL     1      76.856  38.436  26.833  1.00  0.00     0.051 A 
ATOM     15  C   UNL     1      76.450  39.131  27.977  1.00  0.00     0.157 A 
ATOM     16  C   UNL     1      75.449  40.829  26.552  1.00  0.00     0.062 A 
ATOM     17  C   UNL     1      75.733  40.343  27.835  1.00  0.00     0.158 A 
BRANCH  15  18
ATOM     18  O   UNL     1      76.772  38.587  29.221  1.00  0.00    -0.504 OA
ATOM     19  H   UNL     1      76.786  39.114  30.082  1.00  0.00     0.293 HD
ENDBRANCH  15  18
BRANCH  17  20
ATOM     20  O   UNL     1      75.286  41.088  28.928  1.00  0.00    -0.504 OA
ATOM     21  H   UNL     1      74.559  41.787  28.875  1.00  0.00     0.293 HD
ENDBRANCH  17  20
ENDBRANCH   1  12
BRANCH   2  22
ATOM     22  O   UNL     1      77.310  42.332  24.167  1.00  0.00    -0.502 OA
ATOM     23  H   UNL     1      77.314  42.419  25.176  1.00  0.00     0.293 HD
ENDBRANCH   2  22
BRANCH   6  24
ATOM     24  O   UNL     1      75.085  42.744  19.345  1.00  0.00    -0.507 OA
ATOM     25  H   UNL     1      75.100  43.748  19.450  1.00  0.00     0.293 HD
ENDBRANCH   6  24
BRANCH   8  26
ATOM     26  O   UNL     1      71.399  39.733  19.832  1.00  0.00    -0.508 OA
ATOM     27  H   UNL     1      70.677  39.320  20.412  1.00  0.00     0.293 HD
ENDBRANCH   8  26
TORSDOF 6
ENDMDL
MODEL 2
REMARK VINA RESULT:     3.390      0.661      1.479
REMARK INTER + INTRA:           3.796
REMARK INTER:                   4.109
REMARK INTRA:                  -0.313
REMARK UNBOUND:                -0.287
REMARK SMILES O=c1c(O)c(-c2ccc(O)c(O)c2)oc2cc(O)cc(O)c12
REMARK SMILES IDX 5 1 3 2 2 3 1 4 22 5 20 6 19 7 17 8 16 9 15 10 14 11 6 12
REMARK SMILES IDX 7 13 8 14 9 15 13 16 11 17 10 18 12 20 4 22 21 24 18 26
REMARK H PARENT 10 19 12 21 4 23 21 25 18 27
REMARK Flexibility Score: inf
ROOT
ATOM      1  C   UNL     1      75.442  40.605  24.152  1.00  0.00     0.180 A 
ATOM      2  C   UNL     1      76.198  41.625  23.548  1.00  0.00     0.208 A 
ATOM      3  C   UNL     1      75.836  42.075  22.268  1.00  0.00     0.238 A 
ATOM      4  O   UNL     1      76.482  43.026  21.756  1.00  0.00    -0.285 OA
ATOM      5  C   UNL     1      74.733  41.488  21.602  1.00  0.00     0.111 A 
ATOM      6  C   UNL     1      74.301  41.839  20.288  1.00  0.00     0.134 A 
ATOM      7  C   UNL     1      73.119  41.285  19.778  1.00  0.00     0.093 A 
ATOM      8  C   UNL     1      72.390  40.349  20.508  1.00  0.00     0.123 A 
ATOM      9  C   UNL     1      72.835  39.954  21.771  1.00  0.00     0.094 A 
ATOM     10  C   UNL     1      73.991  40.515  22.320  1.00  0.00     0.146 A 
ATOM     11  O   UNL     1      74.375  40.121  23.529  1.00  0.00    -0.452 OA
ENDROOT
BRANCH   1  12
ATOM     12  C   UNL     1      75.778  40.061  25.488  1.00  0.00     0.025 A 
ATOM     13  C   UNL     1      75.169  40.554  26.653  1.00  0.00     0.016 A 
ATOM     14  C   UNL     1      75.520  40.041  27.902  1.00  0.00     0.051 A 
ATOM     15  C   UNL     1      76.489  39.039  28.018  1.00  0.00     0.157 A 
ATOM     16  C   UNL     1      76.767  39.071  25.602  1.00  0.00     0.062 A 
ATOM     17  C   UNL     1      77.125  38.550  26.852  1.00  0.00     0.158 A 
BRANCH  15  18
ATOM     18  O   UNL     1      76.791  38.566  29.297  1.00  0.00    -0.504 OA
ATOM     19  H   UNL     1      77.474  37.848  29.487  1.00  0.00     0.293 HD
ENDBRANCH  15  18
BRANCH  17  20
ATOM     20  O   UNL     1      78.109  37.559  26.888  1.00  0.00    -0.504 OA
ATOM     21  H   UNL     1      79.067  37.706  26.606  1.00  0.00     0.293 HD
ENDBRANCH  17  20
ENDBRANCH   1  12
BRANCH   2  22
ATOM     22  O   UNL     1      77.269  42.205  24.233  1.00  0.00    -0.502 OA
ATOM     23  H   UNL     1      77.143  42.764  25.068  1.00  0.00     0.293 HD
ENDBRANCH   2  22
BRANCH   6  24
ATOM     24  O   UNL     1      75.006  42.695  19.437  1.00  0.00    -0.507 OA
ATOM     25  H   UNL     1      74.858  43.692  19.373  1.00  0.00     0.293 HD
ENDBRANCH   6  24
BRANCH   8  26
ATOM     26  O   UNL     1      71.227  39.807  19.964  1.00  0.00    -0.508 OA
ATOM     27  H   UNL     1      71.088  39.750  18.961  1.00  0.00     0.293 HD
ENDBRANCH   8  26
TORSDOF 6
ENDMDL
MODEL 3
REMARK VINA RESULT:     3.419      1.551      2.988
REMARK INTER + INTRA:           3.832
REMARK INTER:                   4.125
REMARK INTRA:                  -0.293
REMARK UNBOUND:                -0.287
REMARK SMILES O=c1c(O)c(-c2ccc(O)c(O)c2)oc2cc(O)cc(O)c12
REMARK SMILES IDX 5 1 3 2 2 3 1 4 22 5 20 6 19 7 17 8 16 9 15 10 14 11 6 12
REMARK SMILES IDX 7 13 8 14 9 15 13 16 11 17 10 18 12 20 4 22 21 24 18 26
REMARK H PARENT 10 19 12 21 4 23 21 25 18 27
REMARK Flexibility Score: inf
ROOT
ATOM      1  C   UNL     1      75.422  40.961  23.579  1.00  0.00     0.180 A 
ATOM      2  C   UNL     1      74.110  41.025  23.078  1.00  0.00     0.208 A 
ATOM      3  C   UNL     1      73.894  41.564  21.799  1.00  0.00     0.238 A 
ATOM      4  O   UNL     1      72.726  41.568  21.334  1.00  0.00    -0.285 OA
ATOM      5  C   UNL     1      74.991  42.048  21.045  1.00  0.00     0.111 A 
ATOM      6  C   UNL     1      74.884  42.650  19.755  1.00  0.00     0.134 A 
ATOM      7  C   UNL     1      76.048  42.974  19.046  1.00  0.00     0.093 A 
ATOM      8  C   UNL     1      77.310  42.776  19.603  1.00  0.00     0.123 A 
ATOM      9  C   UNL     1      77.425  42.243  20.888  1.00  0.00     0.094 A 
ATOM     10  C   UNL     1      76.283  41.877  21.606  1.00  0.00     0.146 A 
ATOM     11  O   UNL     1      76.436  41.363  22.821  1.00  0.00    -0.452 OA
ENDROOT
BRANCH   1  12
ATOM     12  C   UNL     1      75.726  40.430  24.928  1.00  0.00     0.025 A 
ATOM     13  C   UNL     1      76.173  39.112  25.111  1.00  0.00     0.016 A 
ATOM     14  C   UNL     1      76.430  38.628  26.394  1.00  0.00     0.051 A 
ATOM     15  C   UNL     1      76.235  39.439  27.518  1.00  0.00     0.157 A 
ATOM     16  C   UNL     1      75.510  41.240  26.054  1.00  0.00     0.062 A 
ATOM     17  C   UNL     1      75.765  40.762  27.346  1.00  0.00     0.158 A 
BRANCH  15  18
ATOM     18  O   UNL     1      76.515  38.895  28.773  1.00  0.00    -0.504 OA
ATOM     19  H   UNL     1      76.935  37.988  28.914  1.00  0.00     0.293 HD
ENDBRANCH  15  18
BRANCH  17  20
ATOM     20  O   UNL     1      75.538  41.628  28.417  1.00  0.00    -0.504 OA
ATOM     21  H   UNL     1      74.726  41.583  29.016  1.00  0.00     0.293 HD
ENDBRANCH  17  20
ENDBRANCH   1  12
BRANCH   2  22
ATOM     22  O   UNL     1      73.046  40.522  23.830  1.00  0.00    -0.502 OA
ATOM     23  H   UNL     1      72.100  40.473  23.470  1.00  0.00     0.293 HD
ENDBRANCH   2  22
BRANCH   6  24
ATOM     24  O   UNL     1      73.670  42.975  19.144  1.00  0.00    -0.507 OA
ATOM     25  H   UNL     1      73.133  42.349  18.563  1.00  0.00     0.293 HD
ENDBRANCH   6  24
BRANCH   8  26
ATOM     26  O   UNL     1      78.445  43.124  18.875  1.00  0.00    -0.508 OA
ATOM     27  H   UNL     1      78.786  42.545  18.115  1.00  0.00     0.293 HD
ENDBRANCH   8  26
TORSDOF 6
ENDMDL
