MODEL 1
REMARK VINA RESULT:    -7.116      0.000      0.000
REMARK INTER + INTRA:          -8.656
REMARK INTER:                  -8.364
REMARK INTRA:                  -0.292
REMARK UNBOUND:                -0.292
REMARK SMILES O=c1cc(-c2ccc(O)c(O)c2)oc2cc(O)cc(O)c12
REMARK SMILES IDX 4 1 3 2 2 3 1 4 21 5 19 6 18 7 16 8 15 9 14 10 13 11 5 12
REMARK SMILES IDX 6 13 7 14 8 15 12 16 10 17 9 18 11 20 20 22 17 24
REMARK H PARENT 9 19 11 21 20 23 17 25
REMARK Flexibility Score: inf
ROOT
ATOM      1  C   UNL     1     110.398 103.184 136.806  1.00  0.00     0.138 A 
ATOM      2  C   UNL     1     109.030 103.468 136.669  1.00  0.00     0.100 A 
ATOM      3  C   UNL     1     108.087 102.564 137.157  1.00  0.00     0.197 A 
ATOM      4  O   UNL     1     106.860 102.828 137.027  1.00  0.00    -0.289 OA
ATOM      5  C   UNL     1     108.520 101.375 137.778  1.00  0.00     0.107 A 
ATOM      6  C   UNL     1     107.632 100.405 138.301  1.00  0.00     0.134 A 
ATOM      7  C   UNL     1     108.144  99.246 138.900  1.00  0.00     0.093 A 
ATOM      8  C   UNL     1     109.522  99.036 138.986  1.00  0.00     0.123 A 
ATOM      9  C   UNL     1     110.406  99.991 138.470  1.00  0.00     0.094 A 
ATOM     10  C   UNL     1     109.915 101.155 137.871  1.00  0.00     0.146 A 
ATOM     11  O   UNL     1     110.774 102.048 137.390  1.00  0.00    -0.456 OA
ENDROOT
BRANCH   1  12
ATOM     12  C   UNL     1     111.445 104.110 136.305  1.00  0.00     0.021 A 
ATOM     13  C   UNL     1     112.724 103.610 136.010  1.00  0.00     0.016 A 
ATOM     14  C   UNL     1     113.727 104.462 135.543  1.00  0.00     0.051 A 
ATOM     15  C   UNL     1     113.482 105.826 135.370  1.00  0.00     0.157 A 
ATOM     16  C   UNL     1     111.202 105.486 136.144  1.00  0.00     0.062 A 
ATOM     17  C   UNL     1     112.205 106.348 135.680  1.00  0.00     0.158 A 
BRANCH  15  18
ATOM     18  O   UNL     1     114.527 106.622 134.894  1.00  0.00    -0.504 OA
ATOM     19  H   UNL     1     115.194 106.322 134.198  1.00  0.00     0.293 HD
ENDBRANCH  15  18
BRANCH  17  20
ATOM     20  O   UNL     1     111.891 107.702 135.548  1.00  0.00    -0.504 OA
ATOM     21  H   UNL     1     112.386 108.341 134.943  1.00  0.00     0.293 HD
ENDBRANCH  17  20
ENDBRANCH   1  12
BRANCH   6  22
ATOM     22  O   UNL     1     106.250 100.587 138.230  1.00  0.00    -0.507 OA
ATOM     23  H   UNL     1     105.602  99.870 138.534  1.00  0.00     0.293 HD
ENDBRANCH   6  22
BRANCH   8  24
ATOM     24  O   UNL     1     110.005  97.875 139.585  1.00  0.00    -0.508 OA
ATOM     25  H   UNL     1     110.967  97.579 139.470  1.00  0.00     0.293 HD
ENDBRANCH   8  24
TORSDOF 5
ENDMDL
MODEL 2
REMARK VINA RESULT:    -6.597      2.085      6.627
REMARK INTER + INTRA:          -8.045
REMARK INTER:                  -7.779
REMARK INTRA:                  -0.267
REMARK UNBOUND:                -0.292
REMARK SMILES O=c1cc(-c2ccc(O)c(O)c2)oc2cc(O)cc(O)c12
REMARK SMILES IDX 4 1 3 2 2 3 1 4 21 5 19 6 18 7 16 8 15 9 14 10 13 11 5 12
REMARK SMILES IDX 6 13 7 14 8 15 12 16 10 17 9 18 11 20 20 22 17 24
REMARK H PARENT 9 19 11 21 20 23 17 25
REMARK Flexibility Score: inf
ROOT
ATOM      1  C   UNL     1     109.645 102.565 137.773  1.00  0.00     0.138 A 
ATOM      2  C   UNL     1     108.479 102.571 136.990  1.00  0.00     0.100 A 
ATOM      3  C   UNL     1     108.195 103.677 136.189  1.00  0.00     0.197 A 
ATOM      4  O   UNL     1     107.145 103.673 135.490  1.00  0.00    -0.289 OA
ATOM      5  C   UNL     1     109.080 104.774 136.178  1.00  0.00     0.107 A 
ATOM      6  C   UNL     1     108.868 105.934 135.395  1.00  0.00     0.134 A 
ATOM      7  C   UNL     1     109.794 106.984 135.444  1.00  0.00     0.093 A 
ATOM      8  C   UNL     1     110.925 106.901 136.261  1.00  0.00     0.123 A 
ATOM      9  C   UNL     1     111.140 105.758 137.038  1.00  0.00     0.094 A 
ATOM     10  C   UNL     1     110.229 104.698 137.001  1.00  0.00     0.146 A 
ATOM     11  O   UNL     1     110.456 103.621 137.747  1.00  0.00    -0.456 OA
ENDROOT
BRANCH   1  12
ATOM     12  C   UNL     1     109.998 101.416 138.645  1.00  0.00     0.021 A 
ATOM     13  C   UNL     1     109.972 101.574 140.040  1.00  0.00     0.016 A 
ATOM     14  C   UNL     1     110.305 100.511 140.880  1.00  0.00     0.051 A 
ATOM     15  C   UNL     1     110.680  99.273 140.351  1.00  0.00     0.157 A 
ATOM     16  C   UNL     1     110.389 100.174 138.111  1.00  0.00     0.062 A 
ATOM     17  C   UNL     1     110.728  99.103 138.948  1.00  0.00     0.158 A 
BRANCH  15  18
ATOM     18  O   UNL     1     110.995  98.249 141.247  1.00  0.00    -0.504 OA
ATOM     19  H   UNL     1     111.717  97.561 141.088  1.00  0.00     0.293 HD
ENDBRANCH  15  18
BRANCH  17  20
ATOM     20  O   UNL     1     111.109  97.901 138.347  1.00  0.00    -0.504 OA
ATOM     21  H   UNL     1     112.032  97.720 137.982  1.00  0.00     0.293 HD
ENDBRANCH  17  20
ENDBRANCH   1  12
BRANCH   6  22
ATOM     22  O   UNL     1     107.748 106.047 134.570  1.00  0.00    -0.507 OA
ATOM     23  H   UNL     1     106.964 106.640 134.814  1.00  0.00     0.293 HD
ENDBRANCH   6  22
BRANCH   8  24
ATOM     24  O   UNL     1     111.830 107.960 136.293  1.00  0.00    -0.508 OA
ATOM     25  H   UNL     1     112.804 107.818 136.530  1.00  0.00     0.293 HD
ENDBRANCH   8  24
TORSDOF 5
ENDMDL
MODEL 3
REMARK VINA RESULT:    -6.554      1.256      2.675
REMARK INTER + INTRA:          -7.995
REMARK INTER:                  -7.678
REMARK INTRA:                  -0.317
REMARK UNBOUND:                -0.292
REMARK SMILES O=c1cc(-c2ccc(O)c(O)c2)oc2cc(O)cc(O)c12
REMARK SMILES IDX 4 1 3 2 2 3 1 4 21 5 19 6 18 7 16 8 15 9 14 10 13 11 5 12
REMARK SMILES IDX 6 13 7 14 8 15 12 16 10 17 9 18 11 20 20 22 17 24
REMARK H PARENT 9 19 11 21 20 23 17 25
REMARK Flexibility Score: inf
ROOT
ATOM      1  C   UNL     1     110.729 103.036 136.965  1.00  0.00     0.138 A 
ATOM      2  C   UNL     1     111.124 101.718 137.244  1.00  0.00     0.100 A 
ATOM      3  C   UNL     1     110.198 100.820 137.775  1.00  0.00     0.197 A 
ATOM      4  O   UNL     1     110.564  99.638 138.024  1.00  0.00    -0.289 OA
ATOM      5  C   UNL     1     108.880 101.248 138.028  1.00  0.00     0.107 A 
ATOM      6  C   UNL     1     107.879 100.403 138.564  1.00  0.00     0.134 A 
ATOM      7  C   UNL     1     106.591 100.908 138.790  1.00  0.00     0.093 A 
ATOM      8  C   UNL     1     106.284 102.238 138.493  1.00  0.00     0.123 A 
ATOM      9  C   UNL     1     107.269 103.079 137.964  1.00  0.00     0.094 A 
ATOM     10  C   UNL     1     108.559 102.594 137.729  1.00  0.00     0.146 A 
ATOM     11  O   UNL     1     109.477 103.411 137.223  1.00  0.00    -0.456 OA
ENDROOT
BRANCH   1  12
ATOM     12  C   UNL     1     111.671 104.034 136.400  1.00  0.00     0.021 A 
ATOM     13  C   UNL     1     112.939 103.617 135.965  1.00  0.00     0.016 A 
ATOM     14  C   UNL     1     113.846 104.538 135.436  1.00  0.00     0.051 A 
ATOM     15  C   UNL     1     113.513 105.891 135.337  1.00  0.00     0.157 A 
ATOM     16  C   UNL     1     111.340 105.399 136.314  1.00  0.00     0.062 A 
ATOM     17  C   UNL     1     112.246 106.330 135.787  1.00  0.00     0.158 A 
BRANCH  15  18
ATOM     18  O   UNL     1     114.463 106.759 134.793  1.00  0.00    -0.504 OA
ATOM     19  H   UNL     1     115.029 106.542 133.986  1.00  0.00     0.293 HD
ENDBRANCH  15  18
BRANCH  17  20
ATOM     20  O   UNL     1     111.849 107.668 135.735  1.00  0.00    -0.504 OA
ATOM     21  H   UNL     1     111.851 108.289 136.531  1.00  0.00     0.293 HD
ENDBRANCH  17  20
ENDBRANCH   1  12
BRANCH   6  22
ATOM     22  O   UNL     1     108.155  99.070 138.870  1.00  0.00    -0.507 OA
ATOM     23  H   UNL     1     107.461  98.341 138.754  1.00  0.00     0.293 HD
ENDBRANCH   6  22
BRANCH   8  24
ATOM     24  O   UNL     1     104.997 102.716 138.728  1.00  0.00    -0.508 OA
ATOM     25  H   UNL     1     104.537 103.343 138.079  1.00  0.00     0.293 HD
ENDBRANCH   8  24
TORSDOF 5
ENDMDL
MODEL 4
REMARK VINA RESULT:    -6.437      2.896      6.805
REMARK INTER + INTRA:          -7.858
REMARK INTER:                  -7.572
REMARK INTRA:                  -0.285
REMARK UNBOUND:                -0.292
REMARK SMILES O=c1cc(-c2ccc(O)c(O)c2)oc2cc(O)cc(O)c12
REMARK SMILES IDX 4 1 3 2 2 3 1 4 21 5 19 6 18 7 16 8 15 9 14 10 13 11 5 12
REMARK SMILES IDX 6 13 7 14 8 15 12 16 10 17 9 18 11 20 20 22 17 24
REMARK H PARENT 9 19 11 21 20 23 17 25
REMARK Flexibility Score: inf
ROOT
ATOM      1  C   UNL     1     108.894 105.252 136.576  1.00  0.00     0.138 A 
ATOM      2  C   UNL     1     109.105 103.902 136.902  1.00  0.00     0.100 A 
ATOM      3  C   UNL     1     110.382 103.355 136.773  1.00  0.00     0.197 A 
ATOM      4  O   UNL     1     110.560 102.141 137.068  1.00  0.00    -0.289 OA
ATOM      5  C   UNL     1     111.442 104.162 136.315  1.00  0.00     0.107 A 
ATOM      6  C   UNL     1     112.765 103.688 136.157  1.00  0.00     0.134 A 
ATOM      7  C   UNL     1     113.763 104.555 135.690  1.00  0.00     0.093 A 
ATOM      8  C   UNL     1     113.465 105.883 135.377  1.00  0.00     0.123 A 
ATOM      9  C   UNL     1     112.158 106.358 135.531  1.00  0.00     0.094 A 
ATOM     10  C   UNL     1     111.149 105.510 135.997  1.00  0.00     0.146 A 
ATOM     11  O   UNL     1     109.915 105.985 136.137  1.00  0.00    -0.456 OA
ENDROOT
BRANCH   1  12
ATOM     12  C   UNL     1     107.557 105.887 136.693  1.00  0.00     0.021 A 
ATOM     13  C   UNL     1     107.464 107.233 137.082  1.00  0.00     0.016 A 
ATOM     14  C   UNL     1     106.219 107.851 137.204  1.00  0.00     0.051 A 
ATOM     15  C   UNL     1     105.042 107.141 136.952  1.00  0.00     0.157 A 
ATOM     16  C   UNL     1     106.372 105.168 136.452  1.00  0.00     0.062 A 
ATOM     17  C   UNL     1     105.118 105.780 136.577  1.00  0.00     0.158 A 
BRANCH  15  18
ATOM     18  O   UNL     1     103.828 107.821 137.088  1.00  0.00    -0.504 OA
ATOM     19  H   UNL     1     103.300 108.193 136.313  1.00  0.00     0.293 HD
ENDBRANCH  15  18
BRANCH  17  20
ATOM     20  O   UNL     1     103.986 105.003 136.325  1.00  0.00    -0.504 OA
ATOM     21  H   UNL     1     103.052 105.377 136.232  1.00  0.00     0.293 HD
ENDBRANCH  17  20
ENDBRANCH   1  12
BRANCH   6  22
ATOM     22  O   UNL     1     113.094 102.366 136.460  1.00  0.00    -0.507 OA
ATOM     23  H   UNL     1     113.439 101.727 135.754  1.00  0.00     0.293 HD
ENDBRANCH   6  22
BRANCH   8  24
ATOM     24  O   UNL     1     114.474 106.724 134.914  1.00  0.00    -0.508 OA
ATOM     25  H   UNL     1     115.184 107.093 135.536  1.00  0.00     0.293 HD
ENDBRANCH   8  24
TORSDOF 5
ENDMDL
MODEL 5
REMARK VINA RESULT:    -6.348      1.655      6.939
REMARK INTER + INTRA:          -7.753
REMARK INTER:                  -7.488
REMARK INTRA:                  -0.264
REMARK UNBOUND:                -0.292
REMARK SMILES O=c1cc(-c2ccc(O)c(O)c2)oc2cc(O)cc(O)c12
REMARK SMILES IDX 4 1 3 2 2 3 1 4 21 5 19 6 18 7 16 8 15 9 14 10 13 11 5 12
REMARK SMILES IDX 6 13 7 14 8 15 12 16 10 17 9 18 11 20 20 22 17 24
REMARK H PARENT 9 19 11 21 20 23 17 25
REMARK Flexibility Score: inf
ROOT
ATOM      1  C   UNL     1     109.083 102.417 137.628  1.00  0.00     0.138 A 
ATOM      2  C   UNL     1     108.450 103.670 137.589  1.00  0.00     0.100 A 
ATOM      3  C   UNL     1     109.100 104.750 136.990  1.00  0.00     0.197 A 
ATOM      4  O   UNL     1     108.524 105.871 136.961  1.00  0.00    -0.289 OA
ATOM      5  C   UNL     1     110.382 104.569 136.434  1.00  0.00     0.107 A 
ATOM      6  C   UNL     1     111.109 105.609 135.808  1.00  0.00     0.134 A 
ATOM      7  C   UNL     1     112.383 105.347 135.284  1.00  0.00     0.093 A 
ATOM      8  C   UNL     1     112.944 104.071 135.375  1.00  0.00     0.123 A 
ATOM      9  C   UNL     1     112.230 103.039 135.994  1.00  0.00     0.094 A 
ATOM     10  C   UNL     1     110.958 103.278 136.520  1.00  0.00     0.146 A 
ATOM     11  O   UNL     1     110.298 102.281 137.102  1.00  0.00    -0.456 OA
ENDROOT
BRANCH   1  12
ATOM     12  C   UNL     1     108.440 101.233 138.253  1.00  0.00     0.021 A 
ATOM     13  C   UNL     1     108.875 100.797 139.514  1.00  0.00     0.016 A 
ATOM     14  C   UNL     1     108.291  99.683 140.120  1.00  0.00     0.051 A 
ATOM     15  C   UNL     1     107.269  98.977 139.480  1.00  0.00     0.157 A 
ATOM     16  C   UNL     1     107.421 100.514 137.602  1.00  0.00     0.062 A 
ATOM     17  C   UNL     1     106.831  99.393 138.202  1.00  0.00     0.158 A 
BRANCH  15  18
ATOM     18  O   UNL     1     106.723  97.875 140.144  1.00  0.00    -0.504 OA
ATOM     19  H   UNL     1     106.099  97.209 139.713  1.00  0.00     0.293 HD
ENDBRANCH  15  18
BRANCH  17  20
ATOM     20  O   UNL     1     105.828  98.728 137.495  1.00  0.00    -0.504 OA
ATOM     21  H   UNL     1     105.669  97.732 137.541  1.00  0.00     0.293 HD
ENDBRANCH  17  20
ENDBRANCH   1  12
BRANCH   6  22
ATOM     22  O   UNL     1     110.576 106.894 135.702  1.00  0.00    -0.507 OA
ATOM     23  H   UNL     1     111.160 107.699 135.510  1.00  0.00     0.293 HD
ENDBRANCH   6  22
BRANCH   8  24
ATOM     24  O   UNL     1     114.212 103.838 134.847  1.00  0.00    -0.508 OA
ATOM     25  H   UNL     1     114.756 103.026 135.113  1.00  0.00     0.293 HD
ENDBRANCH   8  24
TORSDOF 5
ENDMDL
MODEL 6
REMARK VINA RESULT:    -6.332      2.160      2.980
REMARK INTER + INTRA:          -7.734
REMARK INTER:                  -7.426
REMARK INTRA:                  -0.308
REMARK UNBOUND:                -0.292
REMARK SMILES O=c1cc(-c2ccc(O)c(O)c2)oc2cc(O)cc(O)c12
REMARK SMILES IDX 4 1 3 2 2 3 1 4 21 5 19 6 18 7 16 8 15 9 14 10 13 11 5 12
REMARK SMILES IDX 6 13 7 14 8 15 12 16 10 17 9 18 11 20 20 22 17 24
REMARK H PARENT 9 19 11 21 20 23 17 25
REMARK Flexibility Score: inf
ROOT
ATOM      1  C   UNL     1     109.795 102.591 138.206  1.00  0.00     0.138 A 
ATOM      2  C   UNL     1     109.684 102.854 139.581  1.00  0.00     0.100 A 
ATOM      3  C   UNL     1     108.746 102.156 140.342  1.00  0.00     0.197 A 
ATOM      4  O   UNL     1     108.654 102.402 141.575  1.00  0.00    -0.289 OA
ATOM      5  C   UNL     1     107.920 101.199 139.720  1.00  0.00     0.107 A 
ATOM      6  C   UNL     1     106.944 100.447 140.417  1.00  0.00     0.134 A 
ATOM      7  C   UNL     1     106.158  99.516 139.723  1.00  0.00     0.093 A 
ATOM      8  C   UNL     1     106.326  99.324 138.349  1.00  0.00     0.123 A 
ATOM      9  C   UNL     1     107.289 100.065 137.655  1.00  0.00     0.094 A 
ATOM     10  C   UNL     1     108.084 100.996 138.328  1.00  0.00     0.146 A 
ATOM     11  O   UNL     1     108.993 101.686 137.647  1.00  0.00    -0.456 OA
ENDROOT
BRANCH   1  12
ATOM     12  C   UNL     1     110.774 103.303 137.347  1.00  0.00     0.021 A 
ATOM     13  C   UNL     1     111.181 104.601 137.695  1.00  0.00     0.016 A 
ATOM     14  C   UNL     1     112.096 105.294 136.901  1.00  0.00     0.051 A 
ATOM     15  C   UNL     1     112.618 104.715 135.741  1.00  0.00     0.157 A 
ATOM     16  C   UNL     1     111.287 102.725 136.172  1.00  0.00     0.062 A 
ATOM     17  C   UNL     1     112.204 103.416 135.367  1.00  0.00     0.158 A 
BRANCH  15  18
ATOM     18  O   UNL     1     113.534 105.460 134.994  1.00  0.00    -0.504 OA
ATOM     19  H   UNL     1     113.697 105.328 134.007  1.00  0.00     0.293 HD
ENDBRANCH  15  18
BRANCH  17  20
ATOM     20  O   UNL     1     112.668 102.779 134.215  1.00  0.00    -0.504 OA
ATOM     21  H   UNL     1     112.154 102.736 133.347  1.00  0.00     0.293 HD
ENDBRANCH  17  20
ENDBRANCH   1  12
BRANCH   6  22
ATOM     22  O   UNL     1     106.753 100.617 141.789  1.00  0.00    -0.507 OA
ATOM     23  H   UNL     1     107.202 100.015 142.468  1.00  0.00     0.293 HD
ENDBRANCH   6  22
BRANCH   8  24
ATOM     24  O   UNL     1     105.532  98.393 137.683  1.00  0.00    -0.508 OA
ATOM     25  H   UNL     1     105.541  97.412 137.934  1.00  0.00     0.293 HD
ENDBRANCH   8  24
TORSDOF 5
ENDMDL
MODEL 7
REMARK VINA RESULT:    -6.214      9.946     11.766
REMARK INTER + INTRA:          -7.595
REMARK INTER:                  -7.335
REMARK INTRA:                  -0.261
REMARK UNBOUND:                -0.292
REMARK SMILES O=c1cc(-c2ccc(O)c(O)c2)oc2cc(O)cc(O)c12
REMARK SMILES IDX 4 1 3 2 2 3 1 4 21 5 19 6 18 7 16 8 15 9 14 10 13 11 5 12
REMARK SMILES IDX 6 13 7 14 8 15 12 16 10 17 9 18 11 20 20 22 17 24
REMARK H PARENT 9 19 11 21 20 23 17 25
REMARK Flexibility Score: inf
ROOT
ATOM      1  C   UNL     1     106.717 112.549 138.781  1.00  0.00     0.138 A 
ATOM      2  C   UNL     1     105.853 113.643 138.949  1.00  0.00     0.100 A 
ATOM      3  C   UNL     1     105.087 114.087 137.871  1.00  0.00     0.197 A 
ATOM      4  O   UNL     1     104.315 115.071 138.033  1.00  0.00    -0.289 OA
ATOM      5  C   UNL     1     105.192 113.433 136.627  1.00  0.00     0.107 A 
ATOM      6  C   UNL     1     104.452 113.817 135.484  1.00  0.00     0.134 A 
ATOM      7  C   UNL     1     104.618 113.117 134.281  1.00  0.00     0.093 A 
ATOM      8  C   UNL     1     105.509 112.044 134.197  1.00  0.00     0.123 A 
ATOM      9  C   UNL     1     106.245 111.660 135.323  1.00  0.00     0.094 A 
ATOM     10  C   UNL     1     106.092 112.344 136.533  1.00  0.00     0.146 A 
ATOM     11  O   UNL     1     106.800 111.959 137.590  1.00  0.00    -0.456 OA
ENDROOT
BRANCH   1  12
ATOM     12  C   UNL     1     107.556 112.034 139.892  1.00  0.00     0.021 A 
ATOM     13  C   UNL     1     107.144 110.892 140.597  1.00  0.00     0.016 A 
ATOM     14  C   UNL     1     107.912 110.393 141.650  1.00  0.00     0.051 A 
ATOM     15  C   UNL     1     109.101 111.024 142.028  1.00  0.00     0.157 A 
ATOM     16  C   UNL     1     108.745 112.679 140.282  1.00  0.00     0.062 A 
ATOM     17  C   UNL     1     109.520 112.185 141.340  1.00  0.00     0.158 A 
BRANCH  15  18
ATOM     18  O   UNL     1     109.825 110.470 143.086  1.00  0.00    -0.504 OA
ATOM     19  H   UNL     1     109.909 110.896 143.997  1.00  0.00     0.293 HD
ENDBRANCH  15  18
BRANCH  17  20
ATOM     20  O   UNL     1     110.686 112.878 141.672  1.00  0.00    -0.504 OA
ATOM     21  H   UNL     1     110.722 113.872 141.846  1.00  0.00     0.293 HD
ENDBRANCH  17  20
ENDBRANCH   1  12
BRANCH   6  22
ATOM     22  O   UNL     1     103.554 114.884 135.537  1.00  0.00    -0.507 OA
ATOM     23  H   UNL     1     102.553 114.742 135.478  1.00  0.00     0.293 HD
ENDBRANCH   6  22
BRANCH   8  24
ATOM     24  O   UNL     1     105.657 111.366 132.989  1.00  0.00    -0.508 OA
ATOM     25  H   UNL     1     105.185 111.673 132.147  1.00  0.00     0.293 HD
ENDBRANCH   8  24
TORSDOF 5
ENDMDL
MODEL 8
REMARK VINA RESULT:    -6.188     10.685     13.252
REMARK INTER + INTRA:          -7.564
REMARK INTER:                  -7.247
REMARK INTRA:                  -0.317
REMARK UNBOUND:                -0.292
REMARK SMILES O=c1cc(-c2ccc(O)c(O)c2)oc2cc(O)cc(O)c12
REMARK SMILES IDX 4 1 3 2 2 3 1 4 21 5 19 6 18 7 16 8 15 9 14 10 13 11 5 12
REMARK SMILES IDX 6 13 7 14 8 15 12 16 10 17 9 18 11 20 20 22 17 24
REMARK H PARENT 9 19 11 21 20 23 17 25
REMARK Flexibility Score: inf
ROOT
ATOM      1  C   UNL     1     105.969 113.393 137.654  1.00  0.00     0.138 A 
ATOM      2  C   UNL     1     106.457 113.028 136.389  1.00  0.00     0.100 A 
ATOM      3  C   UNL     1     105.717 113.343 135.249  1.00  0.00     0.197 A 
ATOM      4  O   UNL     1     106.164 113.009 134.117  1.00  0.00    -0.289 OA
ATOM      5  C   UNL     1     104.489 114.020 135.382  1.00  0.00     0.107 A 
ATOM      6  C   UNL     1     103.677 114.379 134.280  1.00  0.00     0.134 A 
ATOM      7  C   UNL     1     102.465 115.048 134.498  1.00  0.00     0.093 A 
ATOM      8  C   UNL     1     102.048 115.364 135.794  1.00  0.00     0.123 A 
ATOM      9  C   UNL     1     102.846 115.012 136.888  1.00  0.00     0.094 A 
ATOM     10  C   UNL     1     104.059 114.346 136.691  1.00  0.00     0.146 A 
ATOM     11  O   UNL     1     104.800 114.024 137.746  1.00  0.00    -0.456 OA
ENDROOT
BRANCH   1  12
ATOM     12  C   UNL     1     106.713 113.082 138.901  1.00  0.00     0.021 A 
ATOM     13  C   UNL     1     107.811 112.208 138.850  1.00  0.00     0.016 A 
ATOM     14  C   UNL     1     108.523 111.896 140.009  1.00  0.00     0.051 A 
ATOM     15  C   UNL     1     108.152 112.439 141.243  1.00  0.00     0.157 A 
ATOM     16  C   UNL     1     106.331 113.618 140.144  1.00  0.00     0.062 A 
ATOM     17  C   UNL     1     107.038 113.307 141.313  1.00  0.00     0.158 A 
BRANCH  15  18
ATOM     18  O   UNL     1     108.910 112.091 142.363  1.00  0.00    -0.504 OA
ATOM     19  H   UNL     1     108.719 111.290 142.947  1.00  0.00     0.293 HD
ENDBRANCH  15  18
BRANCH  17  20
ATOM     20  O   UNL     1     106.599 113.874 142.511  1.00  0.00    -0.504 OA
ATOM     21  H   UNL     1     105.633 114.084 142.716  1.00  0.00     0.293 HD
ENDBRANCH  17  20
ENDBRANCH   1  12
BRANCH   6  22
ATOM     22  O   UNL     1     104.067 114.076 132.975  1.00  0.00    -0.507 OA
ATOM     23  H   UNL     1     104.624 113.257 132.761  1.00  0.00     0.293 HD
ENDBRANCH   6  22
BRANCH   8  24
ATOM     24  O   UNL     1     100.838 116.029 135.984  1.00  0.00    -0.508 OA
ATOM     25  H   UNL     1     100.674 116.951 135.599  1.00  0.00     0.293 HD
ENDBRANCH   8  24
TORSDOF 5
ENDMDL
MODEL 9
REMARK VINA RESULT:    -6.169      2.548      7.084
REMARK INTER + INTRA:          -7.542
REMARK INTER:                  -7.241
REMARK INTRA:                  -0.302
REMARK UNBOUND:                -0.292
REMARK SMILES O=c1cc(-c2ccc(O)c(O)c2)oc2cc(O)cc(O)c12
REMARK SMILES IDX 4 1 3 2 2 3 1 4 21 5 19 6 18 7 16 8 15 9 14 10 13 11 5 12
REMARK SMILES IDX 6 13 7 14 8 15 12 16 10 17 9 18 11 20 20 22 17 24
REMARK H PARENT 9 19 11 21 20 23 17 25
REMARK Flexibility Score: inf
ROOT
ATOM      1  C   UNL     1     108.183 103.913 137.199  1.00  0.00     0.138 A 
ATOM      2  C   UNL     1     108.897 102.711 137.333  1.00  0.00     0.100 A 
ATOM      3  C   UNL     1     110.256 102.680 137.020  1.00  0.00     0.197 A 
ATOM      4  O   UNL     1     110.888 101.596 137.142  1.00  0.00    -0.289 OA
ATOM      5  C   UNL     1     110.893 103.854 136.570  1.00  0.00     0.107 A 
ATOM      6  C   UNL     1     112.266 103.911 136.233  1.00  0.00     0.134 A 
ATOM      7  C   UNL     1     112.823 105.118 135.788  1.00  0.00     0.093 A 
ATOM      8  C   UNL     1     112.037 106.267 135.674  1.00  0.00     0.123 A 
ATOM      9  C   UNL     1     110.678 106.218 136.005  1.00  0.00     0.094 A 
ATOM     10  C   UNL     1     110.104 105.024 136.453  1.00  0.00     0.146 A 
ATOM     11  O   UNL     1     108.812 105.002 136.764  1.00  0.00    -0.456 OA
ENDROOT
BRANCH   1  12
ATOM     12  C   UNL     1     106.735 104.004 137.518  1.00  0.00     0.021 A 
ATOM     13  C   UNL     1     106.213 103.246 138.577  1.00  0.00     0.016 A 
ATOM     14  C   UNL     1     104.854 103.310 138.892  1.00  0.00     0.051 A 
ATOM     15  C   UNL     1     103.988 104.121 138.155  1.00  0.00     0.157 A 
ATOM     16  C   UNL     1     105.861 104.810 136.766  1.00  0.00     0.062 A 
ATOM     17  C   UNL     1     104.496 104.877 137.073  1.00  0.00     0.158 A 
BRANCH  15  18
ATOM     18  O   UNL     1     102.641 104.144 138.526  1.00  0.00    -0.504 OA
ATOM     19  H   UNL     1     102.119 103.327 138.807  1.00  0.00     0.293 HD
ENDBRANCH  15  18
BRANCH  17  20
ATOM     20  O   UNL     1     103.689 105.696 136.281  1.00  0.00    -0.504 OA
ATOM     21  H   UNL     1     103.033 106.370 136.650  1.00  0.00     0.293 HD
ENDBRANCH  17  20
ENDBRANCH   1  12
BRANCH   6  22
ATOM     22  O   UNL     1     113.077 102.780 136.337  1.00  0.00    -0.507 OA
ATOM     23  H   UNL     1     113.500 102.507 137.215  1.00  0.00     0.293 HD
ENDBRANCH   6  22
BRANCH   8  24
ATOM     24  O   UNL     1     112.615 107.454 135.229  1.00  0.00    -0.508 OA
ATOM     25  H   UNL     1     112.204 107.994 134.477  1.00  0.00     0.293 HD
ENDBRANCH   8  24
TORSDOF 5
ENDMDL
