MODEL 1
REMARK VINA RESULT:    -7.092      0.000      0.000
REMARK INTER + INTRA:          -8.669
REMARK INTER:                  -8.751
REMARK INTRA:                   0.082
REMARK UNBOUND:                 0.082
REMARK SMILES Oc1cc(O)c2cc(O)c(-c3cc(O)c(O)c(O)c3)[o+]c2c1
REMARK SMILES IDX 10 1 20 2 21 3 22 4 2 5 3 6 4 7 6 8 7 9 8 10 11 11 12 12
REMARK SMILES IDX 13 13 19 14 15 15 17 16 14 17 16 19 18 21 9 23 1 25 5 27
REMARK H PARENT 14 18 16 20 18 22 9 24 1 26 5 28
REMARK Flexibility Score: inf
ROOT
ATOM      1  C   UNL     1       0.547  20.834 -34.663  1.00  0.00     0.402 A 
ATOM      2  O   UNL     1       1.783  20.696 -35.134  1.00  0.00    -0.202 OA
ATOM      3  C   UNL     1       2.115  20.947 -36.396  1.00  0.00     0.368 A 
ATOM      4  C   UNL     1       3.443  20.775 -36.797  1.00  0.00     0.162 A 
ATOM      5  C   UNL     1       3.821  21.035 -38.115  1.00  0.00     0.128 A 
ATOM      6  C   UNL     1       2.867  21.473 -39.039  1.00  0.00     0.093 A 
ATOM      7  C   UNL     1       1.531  21.653 -38.663  1.00  0.00     0.136 A 
ATOM      8  C   UNL     1       1.141  21.387 -37.324  1.00  0.00     0.125 A 
ATOM      9  C   UNL     1      -0.177  21.527 -36.861  1.00  0.00     0.078 A 
ATOM     10  C   UNL     1      -0.485  21.241 -35.527  1.00  0.00     0.223 A 
ENDROOT
BRANCH   1  11
ATOM     11  C   UNL     1       0.304  20.531 -33.233  1.00  0.00     0.091 A 
ATOM     12  C   UNL     1       1.217  20.984 -32.269  1.00  0.00     0.068 A 
ATOM     13  C   UNL     1       1.004  20.730 -30.910  1.00  0.00     0.162 A 
ATOM     14  C   UNL     1      -0.849  19.847 -32.815  1.00  0.00     0.068 A 
ATOM     15  C   UNL     1      -0.141  20.029 -30.498  1.00  0.00     0.200 A 
ATOM     16  C   UNL     1      -1.072  19.590 -31.455  1.00  0.00     0.162 A 
BRANCH  13  17
ATOM     17  O   UNL     1       1.943  21.186 -29.983  1.00  0.00    -0.504 OA
ATOM     18  H   UNL     1       1.711  21.328 -29.007  1.00  0.00     0.293 HD
ENDBRANCH  13  17
BRANCH  15  19
ATOM     19  O   UNL     1      -0.344  19.777 -29.140  1.00  0.00    -0.502 OA
ATOM     20  H   UNL     1      -1.054  19.133 -28.810  1.00  0.00     0.293 HD
ENDBRANCH  15  19
BRANCH  16  21
ATOM     21  O   UNL     1      -2.218  18.905 -31.052  1.00  0.00    -0.504 OA
ATOM     22  H   UNL     1      -2.301  18.510 -30.123  1.00  0.00     0.293 HD
ENDBRANCH  16  21
ENDBRANCH   1  11
BRANCH  10  23
ATOM     23  O   UNL     1      -1.803  21.333 -35.080  1.00  0.00    -0.500 OA
ATOM     24  H   UNL     1      -2.064  21.939 -34.312  1.00  0.00     0.294 HD
ENDBRANCH  10  23
BRANCH   5  25
ATOM     25  O   UNL     1       5.150  20.857 -38.495  1.00  0.00    -0.507 OA
ATOM     26  H   UNL     1       5.913  21.034 -37.852  1.00  0.00     0.293 HD
ENDBRANCH   5  25
BRANCH   7  27
ATOM     27  O   UNL     1       0.639  22.095 -39.645  1.00  0.00    -0.507 OA
ATOM     28  H   UNL     1      -0.240  21.648 -39.861  1.00  0.00     0.293 HD
ENDBRANCH   7  27
TORSDOF 7
ENDMDL
MODEL 2
REMARK VINA RESULT:    -7.087      1.680      7.102
REMARK INTER + INTRA:          -8.663
REMARK INTER:                  -8.659
REMARK INTRA:                  -0.003
REMARK UNBOUND:                 0.082
REMARK SMILES Oc1cc(O)c2cc(O)c(-c3cc(O)c(O)c(O)c3)[o+]c2c1
REMARK SMILES IDX 10 1 20 2 21 3 22 4 2 5 3 6 4 7 6 8 7 9 8 10 11 11 12 12
REMARK SMILES IDX 13 13 19 14 15 15 17 16 14 17 16 19 18 21 9 23 1 25 5 27
REMARK H PARENT 14 18 16 20 18 22 9 24 1 26 5 28
REMARK Flexibility Score: inf
ROOT
ATOM      1  C   UNL     1       0.036  19.844 -33.708  1.00  0.00     0.402 A 
ATOM      2  O   UNL     1       0.384  20.022 -32.436  1.00  0.00    -0.202 OA
ATOM      3  C   UNL     1      -0.427  19.764 -31.415  1.00  0.00     0.368 A 
ATOM      4  C   UNL     1       0.030  19.982 -30.112  1.00  0.00     0.162 A 
ATOM      5  C   UNL     1      -0.798  19.717 -29.021  1.00  0.00     0.128 A 
ATOM      6  C   UNL     1      -2.092  19.229 -29.231  1.00  0.00     0.093 A 
ATOM      7  C   UNL     1      -2.574  19.003 -30.526  1.00  0.00     0.136 A 
ATOM      8  C   UNL     1      -1.736  19.274 -31.639  1.00  0.00     0.125 A 
ATOM      9  C   UNL     1      -2.138  19.090 -32.972  1.00  0.00     0.078 A 
ATOM     10  C   UNL     1      -1.257  19.384 -34.017  1.00  0.00     0.223 A 
ENDROOT
BRANCH   1  11
ATOM     11  C   UNL     1       1.033  20.158 -34.757  1.00  0.00     0.091 A 
ATOM     12  C   UNL     1       2.334  19.644 -34.648  1.00  0.00     0.068 A 
ATOM     13  C   UNL     1       3.291  19.908 -35.633  1.00  0.00     0.162 A 
ATOM     14  C   UNL     1       0.689  20.915 -35.890  1.00  0.00     0.068 A 
ATOM     15  C   UNL     1       2.948  20.683 -36.755  1.00  0.00     0.200 A 
ATOM     16  C   UNL     1       1.642  21.183 -36.883  1.00  0.00     0.162 A 
BRANCH  13  17
ATOM     17  O   UNL     1       4.577  19.390 -35.480  1.00  0.00    -0.504 OA
ATOM     18  H   UNL     1       4.749  18.499 -35.029  1.00  0.00     0.293 HD
ENDBRANCH  13  17
BRANCH  15  19
ATOM     19  O   UNL     1       3.911  20.944 -37.732  1.00  0.00    -0.502 OA
ATOM     20  H   UNL     1       3.753  20.742 -38.712  1.00  0.00     0.293 HD
ENDBRANCH  15  19
BRANCH  16  21
ATOM     21  O   UNL     1       1.291  21.941 -38.001  1.00  0.00    -0.504 OA
ATOM     22  H   UNL     1       1.956  22.135 -38.740  1.00  0.00     0.293 HD
ENDBRANCH  16  21
ENDBRANCH   1  11
BRANCH  10  23
ATOM     23  O   UNL     1      -1.674  19.248 -35.342  1.00  0.00    -0.500 OA
ATOM     24  H   UNL     1      -1.329  19.858 -36.073  1.00  0.00     0.294 HD
ENDBRANCH  10  23
BRANCH   5  25
ATOM     25  O   UNL     1      -0.324  19.940 -27.730  1.00  0.00    -0.507 OA
ATOM     26  H   UNL     1       0.488  20.522 -27.557  1.00  0.00     0.293 HD
ENDBRANCH   5  25
BRANCH   7  27
ATOM     27  O   UNL     1      -3.876  18.511 -30.652  1.00  0.00    -0.507 OA
ATOM     28  H   UNL     1      -4.528  18.797 -31.369  1.00  0.00     0.293 HD
ENDBRANCH   7  27
TORSDOF 7
ENDMDL
MODEL 3
REMARK VINA RESULT:    -7.005      0.174      1.801
REMARK INTER + INTRA:          -8.561
REMARK INTER:                  -8.614
REMARK INTRA:                   0.053
REMARK UNBOUND:                 0.082
REMARK SMILES Oc1cc(O)c2cc(O)c(-c3cc(O)c(O)c(O)c3)[o+]c2c1
REMARK SMILES IDX 10 1 20 2 21 3 22 4 2 5 3 6 4 7 6 8 7 9 8 10 11 11 12 12
REMARK SMILES IDX 13 13 19 14 15 15 17 16 14 17 16 19 18 21 9 23 1 25 5 27
REMARK H PARENT 14 18 16 20 18 22 9 24 1 26 5 28
REMARK Flexibility Score: inf
ROOT
ATOM      1  C   UNL     1       0.481  20.909 -34.764  1.00  0.00     0.402 A 
ATOM      2  O   UNL     1       1.721  20.756 -35.218  1.00  0.00    -0.202 OA
ATOM      3  C   UNL     1       2.073  21.002 -36.477  1.00  0.00     0.368 A 
ATOM      4  C   UNL     1       3.404  20.813 -36.859  1.00  0.00     0.162 A 
ATOM      5  C   UNL     1       3.803  21.066 -38.172  1.00  0.00     0.128 A 
ATOM      6  C   UNL     1       2.867  21.513 -39.110  1.00  0.00     0.093 A 
ATOM      7  C   UNL     1       1.527  21.710 -38.751  1.00  0.00     0.136 A 
ATOM      8  C   UNL     1       1.117  21.451 -37.418  1.00  0.00     0.125 A 
ATOM      9  C   UNL     1      -0.205  21.608 -36.972  1.00  0.00     0.078 A 
ATOM     10  C   UNL     1      -0.535  21.328 -35.643  1.00  0.00     0.223 A 
ENDROOT
BRANCH   1  11
ATOM     11  C   UNL     1       0.216  20.612 -33.337  1.00  0.00     0.091 A 
ATOM     12  C   UNL     1      -0.903  19.840 -32.991  1.00  0.00     0.068 A 
ATOM     13  C   UNL     1      -1.169  19.527 -31.653  1.00  0.00     0.162 A 
ATOM     14  C   UNL     1       1.091  21.041 -32.325  1.00  0.00     0.068 A 
ATOM     15  C   UNL     1      -0.301  19.975 -30.643  1.00  0.00     0.200 A 
ATOM     16  C   UNL     1       0.834  20.730 -30.982  1.00  0.00     0.162 A 
BRANCH  13  17
ATOM     17  O   UNL     1      -2.300  18.769 -31.349  1.00  0.00    -0.504 OA
ATOM     18  H   UNL     1      -2.964  19.054 -30.640  1.00  0.00     0.293 HD
ENDBRANCH  13  17
BRANCH  15  19
ATOM     19  O   UNL     1      -0.575  19.661 -29.310  1.00  0.00    -0.502 OA
ATOM     20  H   UNL     1      -0.131  20.146 -28.539  1.00  0.00     0.293 HD
ENDBRANCH  15  19
BRANCH  16  21
ATOM     21  O   UNL     1       1.707  21.166 -29.986  1.00  0.00    -0.504 OA
ATOM     22  H   UNL     1       1.670  22.111 -29.624  1.00  0.00     0.293 HD
ENDBRANCH  16  21
ENDBRANCH   1  11
BRANCH  10  23
ATOM     23  O   UNL     1      -1.858  21.436 -35.213  1.00  0.00    -0.500 OA
ATOM     24  H   UNL     1      -2.104  21.939 -34.370  1.00  0.00     0.294 HD
ENDBRANCH  10  23
BRANCH   5  25
ATOM     25  O   UNL     1       5.134  20.872 -38.534  1.00  0.00    -0.507 OA
ATOM     26  H   UNL     1       5.615  20.001 -38.338  1.00  0.00     0.293 HD
ENDBRANCH   5  25
BRANCH   7  27
ATOM     27  O   UNL     1       0.654  22.162 -39.746  1.00  0.00    -0.507 OA
ATOM     28  H   UNL     1      -0.306  22.428 -39.584  1.00  0.00     0.293 HD
ENDBRANCH   7  27
TORSDOF 7
ENDMDL
MODEL 4
REMARK VINA RESULT:    -6.972      1.682      7.216
REMARK INTER + INTRA:          -8.520
REMARK INTER:                  -8.431
REMARK INTRA:                  -0.089
REMARK UNBOUND:                 0.082
REMARK SMILES Oc1cc(O)c2cc(O)c(-c3cc(O)c(O)c(O)c3)[o+]c2c1
REMARK SMILES IDX 10 1 20 2 21 3 22 4 2 5 3 6 4 7 6 8 7 9 8 10 11 11 12 12
REMARK SMILES IDX 13 13 19 14 15 15 17 16 14 17 16 19 18 21 9 23 1 25 5 27
REMARK H PARENT 14 18 16 20 18 22 9 24 1 26 5 28
REMARK Flexibility Score: inf
ROOT
ATOM      1  C   UNL     1      -0.162  19.810 -33.781  1.00  0.00     0.402 A 
ATOM      2  O   UNL     1       0.219  20.009 -32.522  1.00  0.00    -0.202 OA
ATOM      3  C   UNL     1      -0.557  19.746 -31.474  1.00  0.00     0.368 A 
ATOM      4  C   UNL     1      -0.066  19.986 -30.188  1.00  0.00     0.162 A 
ATOM      5  C   UNL     1      -0.857  19.716 -29.071  1.00  0.00     0.128 A 
ATOM      6  C   UNL     1      -2.146  19.200 -29.238  1.00  0.00     0.093 A 
ATOM      7  C   UNL     1      -2.661  18.951 -30.516  1.00  0.00     0.136 A 
ATOM      8  C   UNL     1      -1.861  19.226 -31.656  1.00  0.00     0.125 A 
ATOM      9  C   UNL     1      -2.298  19.021 -32.974  1.00  0.00     0.078 A 
ATOM     10  C   UNL     1      -1.454  19.321 -34.048  1.00  0.00     0.223 A 
ENDROOT
BRANCH   1  11
ATOM     11  C   UNL     1       0.798  20.133 -34.862  1.00  0.00     0.091 A 
ATOM     12  C   UNL     1       0.424  21.040 -35.866  1.00  0.00     0.068 A 
ATOM     13  C   UNL     1       1.316  21.379 -36.889  1.00  0.00     0.162 A 
ATOM     14  C   UNL     1       2.095  19.594 -34.875  1.00  0.00     0.068 A 
ATOM     15  C   UNL     1       2.606  20.821 -36.909  1.00  0.00     0.200 A 
ATOM     16  C   UNL     1       2.996  19.930 -35.895  1.00  0.00     0.162 A 
BRANCH  13  17
ATOM     17  O   UNL     1       0.902  22.273 -37.876  1.00  0.00    -0.504 OA
ATOM     18  H   UNL     1       1.455  23.081 -38.137  1.00  0.00     0.293 HD
ENDBRANCH  13  17
BRANCH  15  19
ATOM     19  O   UNL     1       3.489  21.162 -37.935  1.00  0.00    -0.502 OA
ATOM     20  H   UNL     1       4.304  21.742 -37.775  1.00  0.00     0.293 HD
ENDBRANCH  15  19
BRANCH  16  21
ATOM     21  O   UNL     1       4.279  19.384 -35.901  1.00  0.00    -0.504 OA
ATOM     22  H   UNL     1       5.056  19.850 -35.447  1.00  0.00     0.293 HD
ENDBRANCH  16  21
ENDBRANCH   1  11
BRANCH  10  23
ATOM     23  O   UNL     1      -1.906  19.163 -35.358  1.00  0.00    -0.500 OA
ATOM     24  H   UNL     1      -1.393  18.613 -36.035  1.00  0.00     0.294 HD
ENDBRANCH  10  23
BRANCH   5  25
ATOM     25  O   UNL     1      -0.350  19.962 -27.796  1.00  0.00    -0.507 OA
ATOM     26  H   UNL     1      -0.588  20.804 -27.285  1.00  0.00     0.293 HD
ENDBRANCH   5  25
BRANCH   7  27
ATOM     27  O   UNL     1      -3.956  18.432 -30.599  1.00  0.00    -0.507 OA
ATOM     28  H   UNL     1      -4.724  18.716 -30.008  1.00  0.00     0.293 HD
ENDBRANCH   7  27
TORSDOF 7
ENDMDL
MODEL 5
REMARK VINA RESULT:    -6.954      1.266      2.694
REMARK INTER + INTRA:          -8.498
REMARK INTER:                  -8.504
REMARK INTRA:                   0.006
REMARK UNBOUND:                 0.082
REMARK SMILES Oc1cc(O)c2cc(O)c(-c3cc(O)c(O)c(O)c3)[o+]c2c1
REMARK SMILES IDX 10 1 20 2 21 3 22 4 2 5 3 6 4 7 6 8 7 9 8 10 11 11 12 12
REMARK SMILES IDX 13 13 19 14 15 15 17 16 14 17 16 19 18 21 9 23 1 25 5 27
REMARK H PARENT 14 18 16 20 18 22 9 24 1 26 5 28
REMARK Flexibility Score: inf
ROOT
ATOM      1  C   UNL     1       1.895  20.538 -34.959  1.00  0.00     0.402 A 
ATOM      2  O   UNL     1       1.288  20.958 -36.065  1.00  0.00    -0.202 OA
ATOM      3  C   UNL     1       1.929  21.194 -37.205  1.00  0.00     0.368 A 
ATOM      4  C   UNL     1       1.202  21.632 -38.316  1.00  0.00     0.162 A 
ATOM      5  C   UNL     1       1.848  21.884 -39.526  1.00  0.00     0.128 A 
ATOM      6  C   UNL     1       3.230  21.694 -39.631  1.00  0.00     0.093 A 
ATOM      7  C   UNL     1       3.981  21.256 -38.533  1.00  0.00     0.136 A 
ATOM      8  C   UNL     1       3.328  21.001 -37.299  1.00  0.00     0.125 A 
ATOM      9  C   UNL     1       4.001  20.573 -36.143  1.00  0.00     0.078 A 
ATOM     10  C   UNL     1       3.289  20.347 -34.961  1.00  0.00     0.223 A 
ENDROOT
BRANCH   1  11
ATOM     11  C   UNL     1       1.069  20.301 -33.752  1.00  0.00     0.091 A 
ATOM     12  C   UNL     1       1.469  20.851 -32.525  1.00  0.00     0.068 A 
ATOM     13  C   UNL     1       0.699  20.661 -31.373  1.00  0.00     0.162 A 
ATOM     14  C   UNL     1      -0.137  19.584 -33.820  1.00  0.00     0.068 A 
ATOM     15  C   UNL     1      -0.496  19.926 -31.441  1.00  0.00     0.200 A 
ATOM     16  C   UNL     1      -0.916  19.390 -32.671  1.00  0.00     0.162 A 
BRANCH  13  17
ATOM     17  O   UNL     1       1.139  21.212 -30.169  1.00  0.00    -0.504 OA
ATOM     18  H   UNL     1       0.509  21.384 -29.394  1.00  0.00     0.293 HD
ENDBRANCH  13  17
BRANCH  15  19
ATOM     19  O   UNL     1      -1.257  19.738 -30.286  1.00  0.00    -0.502 OA
ATOM     20  H   UNL     1      -0.836  19.670 -29.367  1.00  0.00     0.293 HD
ENDBRANCH  15  19
BRANCH  16  21
ATOM     21  O   UNL     1      -2.109  18.671 -32.749  1.00  0.00    -0.504 OA
ATOM     22  H   UNL     1      -2.599  18.550 -33.627  1.00  0.00     0.293 HD
ENDBRANCH  16  21
ENDBRANCH   1  11
BRANCH  10  23
ATOM     23  O   UNL     1       3.964  19.969 -33.800  1.00  0.00    -0.500 OA
ATOM     24  H   UNL     1       4.904  19.594 -33.829  1.00  0.00     0.294 HD
ENDBRANCH  10  23
BRANCH   5  25
ATOM     25  O   UNL     1       1.106  22.320 -40.622  1.00  0.00    -0.507 OA
ATOM     26  H   UNL     1       0.675  23.237 -40.639  1.00  0.00     0.293 HD
ENDBRANCH   5  25
BRANCH   7  27
ATOM     27  O   UNL     1       5.356  21.088 -38.719  1.00  0.00    -0.507 OA
ATOM     28  H   UNL     1       5.825  20.194 -38.736  1.00  0.00     0.293 HD
ENDBRANCH   7  27
TORSDOF 7
ENDMDL
MODEL 6
REMARK VINA RESULT:    -6.891      1.797      7.467
REMARK INTER + INTRA:          -8.420
REMARK INTER:                  -8.316
REMARK INTRA:                  -0.104
REMARK UNBOUND:                 0.082
REMARK SMILES Oc1cc(O)c2cc(O)c(-c3cc(O)c(O)c(O)c3)[o+]c2c1
REMARK SMILES IDX 10 1 20 2 21 3 22 4 2 5 3 6 4 7 6 8 7 9 8 10 11 11 12 12
REMARK SMILES IDX 13 13 19 14 15 15 17 16 14 17 16 19 18 21 9 23 1 25 5 27
REMARK H PARENT 14 18 16 20 18 22 9 24 1 26 5 28
REMARK Flexibility Score: inf
ROOT
ATOM      1  C   UNL     1       0.366  20.161 -32.998  1.00  0.00     0.402 A 
ATOM      2  O   UNL     1      -0.860  19.646 -33.021  1.00  0.00    -0.202 OA
ATOM      3  C   UNL     1      -1.567  19.395 -31.924  1.00  0.00     0.368 A 
ATOM      4  C   UNL     1      -2.849  18.854 -32.051  1.00  0.00     0.162 A 
ATOM      5  C   UNL     1      -3.616  18.584 -30.916  1.00  0.00     0.128 A 
ATOM      6  C   UNL     1      -3.099  18.858 -29.645  1.00  0.00     0.093 A 
ATOM      7  C   UNL     1      -1.818  19.401 -29.492  1.00  0.00     0.136 A 
ATOM      8  C   UNL     1      -1.034  19.674 -30.643  1.00  0.00     0.125 A 
ATOM      9  C   UNL     1       0.265  20.205 -30.585  1.00  0.00     0.078 A 
ATOM     10  C   UNL     1       0.979  20.443 -31.763  1.00  0.00     0.223 A 
ENDROOT
BRANCH   1  11
ATOM     11  C   UNL     1       1.049  20.404 -34.290  1.00  0.00     0.091 A 
ATOM     12  C   UNL     1       2.290  19.799 -34.537  1.00  0.00     0.068 A 
ATOM     13  C   UNL     1       2.949  19.995 -35.756  1.00  0.00     0.162 A 
ATOM     14  C   UNL     1       0.455  21.184 -35.297  1.00  0.00     0.068 A 
ATOM     15  C   UNL     1       2.360  20.792 -36.752  1.00  0.00     0.200 A 
ATOM     16  C   UNL     1       1.107  21.384 -36.521  1.00  0.00     0.162 A 
BRANCH  13  17
ATOM     17  O   UNL     1       4.189  19.387 -35.958  1.00  0.00    -0.504 OA
ATOM     18  H   UNL     1       4.758  19.057 -35.187  1.00  0.00     0.293 HD
ENDBRANCH  13  17
BRANCH  15  19
ATOM     19  O   UNL     1       3.026  20.984 -37.964  1.00  0.00    -0.502 OA
ATOM     20  H   UNL     1       3.539  21.834 -38.169  1.00  0.00     0.293 HD
ENDBRANCH  15  19
BRANCH  16  21
ATOM     21  O   UNL     1       0.510  22.164 -37.511  1.00  0.00    -0.504 OA
ATOM     22  H   UNL     1       0.502  21.874 -38.482  1.00  0.00     0.293 HD
ENDBRANCH  16  21
ENDBRANCH   1  11
BRANCH  10  23
ATOM     23  O   UNL     1       2.287  20.924 -31.703  1.00  0.00    -0.500 OA
ATOM     24  H   UNL     1       3.066  20.320 -31.470  1.00  0.00     0.294 HD
ENDBRANCH  10  23
BRANCH   5  25
ATOM     25  O   UNL     1      -4.892  18.044 -31.063  1.00  0.00    -0.507 OA
ATOM     26  H   UNL     1      -5.065  17.053 -30.939  1.00  0.00     0.293 HD
ENDBRANCH   5  25
BRANCH   7  27
ATOM     27  O   UNL     1      -1.375  19.649 -28.189  1.00  0.00    -0.507 OA
ATOM     28  H   UNL     1      -0.588  19.190 -27.756  1.00  0.00     0.293 HD
ENDBRANCH   7  27
TORSDOF 7
ENDMDL
MODEL 7
REMARK VINA RESULT:    -6.592      2.069      7.507
REMARK INTER + INTRA:          -8.051
REMARK INTER:                  -7.740
REMARK INTRA:                  -0.311
REMARK UNBOUND:                 0.082
REMARK SMILES Oc1cc(O)c2cc(O)c(-c3cc(O)c(O)c(O)c3)[o+]c2c1
REMARK SMILES IDX 10 1 20 2 21 3 22 4 2 5 3 6 4 7 6 8 7 9 8 10 11 11 12 12
REMARK SMILES IDX 13 13 19 14 15 15 17 16 14 17 16 19 18 21 9 23 1 25 5 27
REMARK H PARENT 14 18 16 20 18 22 9 24 1 26 5 28
REMARK Flexibility Score: inf
ROOT
ATOM      1  C   UNL     1       0.161  20.516 -34.227  1.00  0.00     0.402 A 
ATOM      2  O   UNL     1      -0.949  20.225 -33.555  1.00  0.00    -0.202 OA
ATOM      3  C   UNL     1      -0.976  20.034 -32.239  1.00  0.00     0.368 A 
ATOM      4  C   UNL     1      -2.194  19.734 -31.621  1.00  0.00     0.162 A 
ATOM      5  C   UNL     1      -2.253  19.533 -30.242  1.00  0.00     0.128 A 
ATOM      6  C   UNL     1      -1.089  19.635 -29.472  1.00  0.00     0.093 A 
ATOM      7  C   UNL     1       0.143  19.934 -30.068  1.00  0.00     0.136 A 
ATOM      8  C   UNL     1       0.208  20.137 -31.471  1.00  0.00     0.125 A 
ATOM      9  C   UNL     1       1.399  20.427 -32.155  1.00  0.00     0.078 A 
ATOM     10  C   UNL     1       1.385  20.609 -33.541  1.00  0.00     0.223 A 
ENDROOT
BRANCH   1  11
ATOM     11  C   UNL     1       0.061  20.715 -35.692  1.00  0.00     0.091 A 
ATOM     12  C   UNL     1      -0.249  19.622 -36.515  1.00  0.00     0.068 A 
ATOM     13  C   UNL     1      -0.369  19.783 -37.900  1.00  0.00     0.162 A 
ATOM     14  C   UNL     1       0.215  21.986 -36.270  1.00  0.00     0.068 A 
ATOM     15  C   UNL     1      -0.195  21.053 -38.476  1.00  0.00     0.200 A 
ATOM     16  C   UNL     1       0.094  22.157 -37.656  1.00  0.00     0.162 A 
BRANCH  13  17
ATOM     17  O   UNL     1      -0.664  18.669 -38.686  1.00  0.00    -0.504 OA
ATOM     18  H   UNL     1      -0.585  18.686 -39.696  1.00  0.00     0.293 HD
ENDBRANCH  13  17
BRANCH  15  19
ATOM     19  O   UNL     1      -0.313  21.205 -39.859  1.00  0.00    -0.502 OA
ATOM     20  H   UNL     1      -0.976  20.668 -40.406  1.00  0.00     0.293 HD
ENDBRANCH  15  19
BRANCH  16  21
ATOM     21  O   UNL     1       0.254  23.423 -38.220  1.00  0.00    -0.504 OA
ATOM     22  H   UNL     1       0.832  24.130 -37.781  1.00  0.00     0.293 HD
ENDBRANCH  16  21
ENDBRANCH   1  11
BRANCH  10  23
ATOM     23  O   UNL     1       2.577  20.849 -34.227  1.00  0.00    -0.500 OA
ATOM     24  H   UNL     1       3.446  21.025 -33.738  1.00  0.00     0.294 HD
ENDBRANCH  10  23
BRANCH   5  25
ATOM     25  O   UNL     1      -3.475  19.235 -29.644  1.00  0.00    -0.507 OA
ATOM     26  H   UNL     1      -4.143  19.962 -29.413  1.00  0.00     0.293 HD
ENDBRANCH   5  25
BRANCH   7  27
ATOM     27  O   UNL     1       1.259  20.021 -29.231  1.00  0.00    -0.507 OA
ATOM     28  H   UNL     1       1.700  19.230 -28.783  1.00  0.00     0.293 HD
ENDBRANCH   7  27
TORSDOF 7
ENDMDL
MODEL 8
REMARK VINA RESULT:    -6.571      2.132      6.790
REMARK INTER + INTRA:          -8.025
REMARK INTER:                  -7.773
REMARK INTRA:                  -0.252
REMARK UNBOUND:                 0.082
REMARK SMILES Oc1cc(O)c2cc(O)c(-c3cc(O)c(O)c(O)c3)[o+]c2c1
REMARK SMILES IDX 10 1 20 2 21 3 22 4 2 5 3 6 4 7 6 8 7 9 8 10 11 11 12 12
REMARK SMILES IDX 13 13 19 14 15 15 17 16 14 17 16 19 18 21 9 23 1 25 5 27
REMARK H PARENT 14 18 16 20 18 22 9 24 1 26 5 28
REMARK Flexibility Score: inf
ROOT
ATOM      1  C   UNL     1      -0.436  20.715 -34.650  1.00  0.00     0.402 A 
ATOM      2  O   UNL     1       0.682  20.830 -33.937  1.00  0.00    -0.202 OA
ATOM      3  C   UNL     1       0.738  20.609 -32.627  1.00  0.00     0.368 A 
ATOM      4  C   UNL     1       1.961  20.754 -31.966  1.00  0.00     0.162 A 
ATOM      5  C   UNL     1       2.050  20.526 -30.592  1.00  0.00     0.128 A 
ATOM      6  C   UNL     1       0.911  20.148 -29.874  1.00  0.00     0.093 A 
ATOM      7  C   UNL     1      -0.325  19.996 -30.513  1.00  0.00     0.136 A 
ATOM      8  C   UNL     1      -0.421  20.230 -31.910  1.00  0.00     0.125 A 
ATOM      9  C   UNL     1      -1.620  20.116 -32.632  1.00  0.00     0.078 A 
ATOM     10  C   UNL     1      -1.638  20.367 -34.007  1.00  0.00     0.223 A 
ENDROOT
BRANCH   1  11
ATOM     11  C   UNL     1      -0.368  20.978 -36.106  1.00  0.00     0.091 A 
ATOM     12  C   UNL     1       0.016  22.249 -36.559  1.00  0.00     0.068 A 
ATOM     13  C   UNL     1       0.107  22.521 -37.928  1.00  0.00     0.162 A 
ATOM     14  C   UNL     1      -0.627  19.966 -37.045  1.00  0.00     0.068 A 
ATOM     15  C   UNL     1      -0.173  21.511 -38.865  1.00  0.00     0.200 A 
ATOM     16  C   UNL     1      -0.537  20.229 -38.419  1.00  0.00     0.162 A 
BRANCH  13  17
ATOM     17  O   UNL     1       0.479  23.802 -38.339  1.00  0.00    -0.504 OA
ATOM     18  H   UNL     1      -0.204  24.500 -38.610  1.00  0.00     0.293 HD
ENDBRANCH  13  17
BRANCH  15  19
ATOM     19  O   UNL     1      -0.082  21.792 -40.229  1.00  0.00    -0.502 OA
ATOM     20  H   UNL     1       0.112  22.723 -40.577  1.00  0.00     0.293 HD
ENDBRANCH  15  19
BRANCH  16  21
ATOM     21  O   UNL     1      -0.802  19.218 -39.343  1.00  0.00    -0.504 OA
ATOM     22  H   UNL     1      -1.593  19.269 -39.973  1.00  0.00     0.293 HD
ENDBRANCH  16  21
ENDBRANCH   1  11
BRANCH  10  23
ATOM     23  O   UNL     1      -2.838  20.302 -34.714  1.00  0.00    -0.500 OA
ATOM     24  H   UNL     1      -2.858  20.239 -35.724  1.00  0.00     0.294 HD
ENDBRANCH  10  23
BRANCH   5  25
ATOM     25  O   UNL     1       3.278  20.675 -29.951  1.00  0.00    -0.507 OA
ATOM     26  H   UNL     1       3.456  20.259 -29.044  1.00  0.00     0.293 HD
ENDBRANCH   5  25
BRANCH   7  27
ATOM     27  O   UNL     1      -1.415  19.613 -29.726  1.00  0.00    -0.507 OA
ATOM     28  H   UNL     1      -2.121  18.951 -30.011  1.00  0.00     0.293 HD
ENDBRANCH   7  27
TORSDOF 7
ENDMDL
MODEL 9
REMARK VINA RESULT:    -6.457      2.291      3.102
REMARK INTER + INTRA:          -7.885
REMARK INTER:                  -7.630
REMARK INTRA:                  -0.255
REMARK UNBOUND:                 0.082
REMARK SMILES Oc1cc(O)c2cc(O)c(-c3cc(O)c(O)c(O)c3)[o+]c2c1
REMARK SMILES IDX 10 1 20 2 21 3 22 4 2 5 3 6 4 7 6 8 7 9 8 10 11 11 12 12
REMARK SMILES IDX 13 13 19 14 15 15 17 16 14 17 16 19 18 21 9 23 1 25 5 27
REMARK H PARENT 14 18 16 20 18 22 9 24 1 26 5 28
REMARK Flexibility Score: inf
ROOT
ATOM      1  C   UNL     1      -0.599  20.303 -34.479  1.00  0.00     0.402 A 
ATOM      2  O   UNL     1       0.650  20.112 -34.063  1.00  0.00    -0.202 OA
ATOM      3  C   UNL     1       1.712  20.272 -34.846  1.00  0.00     0.368 A 
ATOM      4  C   UNL     1       2.987  20.049 -34.317  1.00  0.00     0.162 A 
ATOM      5  C   UNL     1       4.120  20.212 -35.115  1.00  0.00     0.128 A 
ATOM      6  C   UNL     1       3.980  20.605 -36.450  1.00  0.00     0.093 A 
ATOM      7  C   UNL     1       2.715  20.835 -37.004  1.00  0.00     0.136 A 
ATOM      8  C   UNL     1       1.560  20.666 -36.197  1.00  0.00     0.125 A 
ATOM      9  C   UNL     1       0.252  20.861 -36.670  1.00  0.00     0.078 A 
ATOM     10  C   UNL     1      -0.838  20.671 -35.815  1.00  0.00     0.223 A 
ENDROOT
BRANCH   1  11
ATOM     11  C   UNL     1      -1.699  20.102 -33.507  1.00  0.00     0.091 A 
ATOM     12  C   UNL     1      -1.887  18.836 -32.933  1.00  0.00     0.068 A 
ATOM     13  C   UNL     1      -2.906  18.621 -31.998  1.00  0.00     0.162 A 
ATOM     14  C   UNL     1      -2.525  21.166 -33.106  1.00  0.00     0.068 A 
ATOM     15  C   UNL     1      -3.743  19.683 -31.615  1.00  0.00     0.200 A 
ATOM     16  C   UNL     1      -3.547  20.959 -32.169  1.00  0.00     0.162 A 
BRANCH  13  17
ATOM     17  O   UNL     1      -3.069  17.344 -31.461  1.00  0.00    -0.504 OA
ATOM     18  H   UNL     1      -2.742  16.513 -31.938  1.00  0.00     0.293 HD
ENDBRANCH  13  17
BRANCH  15  19
ATOM     19  O   UNL     1      -4.759  19.459 -30.684  1.00  0.00    -0.502 OA
ATOM     20  H   UNL     1      -5.495  20.134 -30.516  1.00  0.00     0.293 HD
ENDBRANCH  15  19
BRANCH  16  21
ATOM     21  O   UNL     1      -4.364  22.021 -31.782  1.00  0.00    -0.504 OA
ATOM     22  H   UNL     1      -4.145  22.978 -32.033  1.00  0.00     0.293 HD
ENDBRANCH  16  21
ENDBRANCH   1  11
BRANCH  10  23
ATOM     23  O   UNL     1      -2.139  20.817 -36.298  1.00  0.00    -0.500 OA
ATOM     24  H   UNL     1      -2.938  20.454 -35.794  1.00  0.00     0.294 HD
ENDBRANCH  10  23
BRANCH   5  25
ATOM     25  O   UNL     1       5.381  19.985 -34.569  1.00  0.00    -0.507 OA
ATOM     26  H   UNL     1       6.150  20.627 -34.727  1.00  0.00     0.293 HD
ENDBRANCH   5  25
BRANCH   7  27
ATOM     27  O   UNL     1       2.660  21.227 -38.345  1.00  0.00    -0.507 OA
ATOM     28  H   UNL     1       3.468  21.443 -38.910  1.00  0.00     0.293 HD
ENDBRANCH   7  27
TORSDOF 7
ENDMDL
