MODEL 1
REMARK VINA RESULT:    -2.107      0.000      0.000
REMARK INTER + INTRA:          -3.891
REMARK INTER:                  -3.831
REMARK INTRA:                  -0.060
REMARK UNBOUND:                -0.060
REMARK SMILES CCCCCCCCCCCCCCCC(=O)[O-]
REMARK SMILES IDX 9 1 10 2 11 3 12 4 13 5 14 6 15 7 16 8 17 9 18 10 8 11 7 12
REMARK SMILES IDX 6 13 5 14 4 15 3 16 2 17 1 18
REMARK H PARENT
REMARK Flexibility Score: inf
ROOT
ATOM      1  C   UNL     1       1.031  61.003  -4.193  1.00  0.00     0.000 C 
ENDROOT
BRANCH   1   2
ATOM      2  C   UNL     1       0.409  60.669  -2.825  1.00  0.00     0.000 C 
BRANCH   2   3
ATOM      3  C   UNL     1      -1.092  60.352  -2.921  1.00  0.00     0.000 C 
BRANCH   3   4
ATOM      4  C   UNL     1      -1.582  60.225  -4.372  1.00  0.00     0.000 C 
BRANCH   4   5
ATOM      5  C   UNL     1      -3.060  60.616  -4.490  1.00  0.00     0.000 C 
BRANCH   5   6
ATOM      6  C   UNL     1      -3.630  60.208  -5.856  1.00  0.00     0.006 C 
BRANCH   6   7
ATOM      7  C   UNL     1      -5.072  60.696  -6.052  1.00  0.00     0.053 C 
BRANCH   7   8
ATOM      8  C   UNL     1      -5.519  60.556  -7.474  1.00  0.00     0.041 C 
ATOM      9  O   UNL     1      -5.971  61.553  -8.097  1.00  0.00    -0.550 OA
ATOM     10  O   UNL     1      -5.407  59.333  -8.123  1.00  0.00    -0.550 OA
ENDBRANCH   7   8
ENDBRANCH   6   7
ENDBRANCH   5   6
ENDBRANCH   4   5
ENDBRANCH   3   4
ENDBRANCH   2   3
ENDBRANCH   1   2
BRANCH   1  11
ATOM     11  C   UNL     1       1.723  59.791  -4.836  1.00  0.00     0.000 C 
BRANCH  11  12
ATOM     12  C   UNL     1       0.867  59.130  -5.930  1.00  0.00    -0.000 C 
BRANCH  12  13
ATOM     13  C   UNL     1       1.253  59.589  -7.345  1.00  0.00    -0.000 C 
BRANCH  13  14
ATOM     14  C   UNL     1       2.509  58.876  -7.874  1.00  0.00    -0.000 C 
BRANCH  14  15
ATOM     15  C   UNL     1       3.816  59.520  -7.378  1.00  0.00    -0.000 C 
BRANCH  15  16
ATOM     16  C   UNL     1       5.108  58.943  -7.991  1.00  0.00    -0.000 C 
BRANCH  16  17
ATOM     17  C   UNL     1       6.268  59.946  -8.125  1.00  0.00    -0.003 C 
ATOM     18  C   UNL     1       7.641  59.289  -7.991  1.00  0.00     0.004 C 
ENDBRANCH  16  17
ENDBRANCH  15  16
ENDBRANCH  14  15
ENDBRANCH  13  14
ENDBRANCH  12  13
ENDBRANCH  11  12
ENDBRANCH   1  11
TORSDOF 14
ENDMDL
MODEL 2
REMARK VINA RESULT:    -1.309      1.734      3.151
REMARK INTER + INTRA:          -2.441
REMARK INTER:                  -3.149
REMARK INTRA:                   0.709
REMARK UNBOUND:                -0.060
REMARK SMILES CCCCCCCCCCCCCCCC(=O)[O-]
REMARK SMILES IDX 9 1 10 2 11 3 12 4 13 5 14 6 15 7 16 8 17 9 18 10 8 11 7 12
REMARK SMILES IDX 6 13 5 14 4 15 3 16 2 17 1 18
REMARK H PARENT
REMARK Flexibility Score: inf
ROOT
ATOM      1  C   UNL     1       0.834  60.665  -3.019  1.00  0.00     0.000 C 
ENDROOT
BRANCH   1   2
ATOM      2  C   UNL     1      -0.693  60.795  -2.876  1.00  0.00     0.000 C 
BRANCH   2   3
ATOM      3  C   UNL     1      -1.457  59.955  -3.912  1.00  0.00     0.000 C 
BRANCH   3   4
ATOM      4  C   UNL     1      -2.773  60.612  -4.357  1.00  0.00     0.000 C 
BRANCH   4   5
ATOM      5  C   UNL     1      -3.947  59.634  -4.228  1.00  0.00     0.000 C 
BRANCH   5   6
ATOM      6  C   UNL     1      -4.257  58.965  -5.575  1.00  0.00     0.006 C 
BRANCH   6   7
ATOM      7  C   UNL     1      -5.388  59.675  -6.329  1.00  0.00     0.053 C 
BRANCH   7   8
ATOM      8  C   UNL     1      -4.871  60.776  -7.203  1.00  0.00     0.041 C 
ATOM      9  O   UNL     1      -3.651  60.816  -7.515  1.00  0.00    -0.550 OA
ATOM     10  O   UNL     1      -5.740  61.739  -7.700  1.00  0.00    -0.550 OA
ENDBRANCH   7   8
ENDBRANCH   6   7
ENDBRANCH   5   6
ENDBRANCH   4   5
ENDBRANCH   3   4
ENDBRANCH   2   3
ENDBRANCH   1   2
BRANCH   1  11
ATOM     11  C   UNL     1       1.276  60.507  -4.483  1.00  0.00     0.000 C 
BRANCH  11  12
ATOM     12  C   UNL     1       2.140  59.253  -4.710  1.00  0.00    -0.000 C 
BRANCH  12  13
ATOM     13  C   UNL     1       3.325  59.512  -5.655  1.00  0.00    -0.000 C 
BRANCH  13  14
ATOM     14  C   UNL     1       3.124  58.875  -7.040  1.00  0.00    -0.000 C 
BRANCH  14  15
ATOM     15  C   UNL     1       2.338  59.781  -8.006  1.00  0.00    -0.000 C 
BRANCH  15  16
ATOM     16  C   UNL     1       0.833  59.468  -8.125  1.00  0.00    -0.000 C 
BRANCH  16  17
ATOM     17  C   UNL     1       0.183  58.910  -6.847  1.00  0.00    -0.003 C 
ATOM     18  C   UNL     1      -1.342  58.875  -6.922  1.00  0.00     0.004 C 
ENDBRANCH  16  17
ENDBRANCH  15  16
ENDBRANCH  14  15
ENDBRANCH  13  14
ENDBRANCH  12  13
ENDBRANCH  11  12
ENDBRANCH   1  11
TORSDOF 14
ENDMDL
