MODEL 1
REMARK VINA RESULT:    -4.398      0.000      0.000
REMARK INTER + INTRA:          -5.584
REMARK INTER:                  -5.298
REMARK INTRA:                  -0.286
REMARK UNBOUND:                -0.286
REMARK SMILES O=c1c(O)c(-c2ccc(O)c(O)c2)oc2cc(O)cc(O)c12
REMARK SMILES IDX 5 1 3 2 2 3 1 4 22 5 20 6 19 7 17 8 16 9 15 10 14 11 6 12
REMARK SMILES IDX 7 13 8 14 9 15 13 16 11 17 10 18 12 20 4 22 21 24 18 26
REMARK H PARENT 10 19 12 21 4 23 21 25 18 27
REMARK Flexibility Score: inf
ROOT
ATOM      1  C   UNL     1      61.790  32.971 129.693  1.00  0.00     0.180 A 
ATOM      2  C   UNL     1      60.607  33.257 128.984  1.00  0.00     0.208 A 
ATOM      3  C   UNL     1      59.706  32.214 128.720  1.00  0.00     0.238 A 
ATOM      4  O   UNL     1      58.638  32.459 128.095  1.00  0.00    -0.285 OA
ATOM      5  C   UNL     1      60.010  30.905 129.147  1.00  0.00     0.111 A 
ATOM      6  C   UNL     1      59.158  29.797 128.917  1.00  0.00     0.134 A 
ATOM      7  C   UNL     1      59.536  28.524 129.367  1.00  0.00     0.093 A 
ATOM      8  C   UNL     1      60.746  28.335 130.038  1.00  0.00     0.123 A 
ATOM      9  C   UNL     1      61.591  29.425 130.269  1.00  0.00     0.094 A 
ATOM     10  C   UNL     1      61.231  30.703 129.831  1.00  0.00     0.146 A 
ATOM     11  O   UNL     1      62.050  31.722 130.068  1.00  0.00    -0.452 OA
ENDROOT
BRANCH   1  12
ATOM     12  C   UNL     1      62.780  34.020 130.027  1.00  0.00     0.025 A 
ATOM     13  C   UNL     1      63.998  34.067 129.331  1.00  0.00     0.016 A 
ATOM     14  C   UNL     1      64.955  35.035 129.644  1.00  0.00     0.051 A 
ATOM     15  C   UNL     1      64.716  35.961 130.667  1.00  0.00     0.157 A 
ATOM     16  C   UNL     1      62.551  34.939 131.067  1.00  0.00     0.062 A 
ATOM     17  C   UNL     1      63.509  35.909 131.385  1.00  0.00     0.158 A 
BRANCH  15  18
ATOM     18  O   UNL     1      65.671  36.928 130.975  1.00  0.00    -0.504 OA
ATOM     19  H   UNL     1      65.803  37.260 131.924  1.00  0.00     0.293 HD
ENDBRANCH  15  18
BRANCH  17  20
ATOM     20  O   UNL     1      63.246  36.808 132.418  1.00  0.00    -0.504 OA
ATOM     21  H   UNL     1      62.385  37.336 132.466  1.00  0.00     0.293 HD
ENDBRANCH  17  20
ENDBRANCH   1  12
BRANCH   2  22
ATOM     22  O   UNL     1      60.353  34.553 128.528  1.00  0.00    -0.502 OA
ATOM     23  H   UNL     1      59.417  34.938 128.482  1.00  0.00     0.293 HD
ENDBRANCH   2  22
BRANCH   6  24
ATOM     24  O   UNL     1      57.943  29.953 128.248  1.00  0.00    -0.507 OA
ATOM     25  H   UNL     1      57.819  30.652 127.524  1.00  0.00     0.293 HD
ENDBRANCH   6  24
BRANCH   8  26
ATOM     26  O   UNL     1      61.098  27.060 130.474  1.00  0.00    -0.508 OA
ATOM     27  H   UNL     1      61.110  26.268 129.842  1.00  0.00     0.293 HD
ENDBRANCH   8  26
TORSDOF 6
ENDMDL
MODEL 2
REMARK VINA RESULT:    -4.397      2.073      6.638
REMARK INTER + INTRA:          -5.582
REMARK INTER:                  -5.268
REMARK INTRA:                  -0.314
REMARK UNBOUND:                -0.286
REMARK SMILES O=c1c(O)c(-c2ccc(O)c(O)c2)oc2cc(O)cc(O)c12
REMARK SMILES IDX 5 1 3 2 2 3 1 4 22 5 20 6 19 7 17 8 16 9 15 10 14 11 6 12
REMARK SMILES IDX 7 13 8 14 9 15 13 16 11 17 10 18 12 20 4 22 21 24 18 26
REMARK H PARENT 10 19 12 21 4 23 21 25 18 27
REMARK Flexibility Score: inf
ROOT
ATOM      1  C   UNL     1      60.970  33.348 130.064  1.00  0.00     0.180 A 
ATOM      2  C   UNL     1      61.348  34.507 129.359  1.00  0.00     0.208 A 
ATOM      3  C   UNL     1      62.575  35.117 129.664  1.00  0.00     0.238 A 
ATOM      4  O   UNL     1      62.930  36.149 129.032  1.00  0.00    -0.285 OA
ATOM      5  C   UNL     1      63.391  34.574 130.678  1.00  0.00     0.111 A 
ATOM      6  C   UNL     1      64.639  35.129 131.050  1.00  0.00     0.134 A 
ATOM      7  C   UNL     1      65.388  34.534 132.075  1.00  0.00     0.093 A 
ATOM      8  C   UNL     1      64.915  33.398 132.736  1.00  0.00     0.123 A 
ATOM      9  C   UNL     1      63.683  32.844 132.373  1.00  0.00     0.094 A 
ATOM     10  C   UNL     1      62.923  33.421 131.352  1.00  0.00     0.146 A 
ATOM     11  O   UNL     1      61.758  32.872 131.024  1.00  0.00    -0.452 OA
ENDROOT
BRANCH   1  12
ATOM     12  C   UNL     1      59.702  32.637 129.786  1.00  0.00     0.025 A 
ATOM     13  C   UNL     1      58.520  33.063 130.414  1.00  0.00     0.016 A 
ATOM     14  C   UNL     1      57.316  32.394 130.184  1.00  0.00     0.051 A 
ATOM     15  C   UNL     1      57.276  31.282 129.334  1.00  0.00     0.157 A 
ATOM     16  C   UNL     1      59.662  31.508 128.948  1.00  0.00     0.062 A 
ATOM     17  C   UNL     1      58.457  30.835 128.717  1.00  0.00     0.158 A 
BRANCH  15  18
ATOM     18  O   UNL     1      56.073  30.618 129.102  1.00  0.00    -0.504 OA
ATOM     19  H   UNL     1      55.240  31.116 128.809  1.00  0.00     0.293 HD
ENDBRANCH  15  18
BRANCH  17  20
ATOM     20  O   UNL     1      58.454  29.722 127.876  1.00  0.00    -0.504 OA
ATOM     21  H   UNL     1      57.841  28.932 128.031  1.00  0.00     0.293 HD
ENDBRANCH  17  20
ENDBRANCH   1  12
BRANCH   2  22
ATOM     22  O   UNL     1      60.500  35.055 128.394  1.00  0.00    -0.502 OA
ATOM     23  H   UNL     1      60.626  35.991 128.028  1.00  0.00     0.293 HD
ENDBRANCH   2  22
BRANCH   6  24
ATOM     24  O   UNL     1      65.139  36.264 130.409  1.00  0.00    -0.507 OA
ATOM     25  H   UNL     1      65.124  36.355 129.400  1.00  0.00     0.293 HD
ENDBRANCH   6  24
BRANCH   8  26
ATOM     26  O   UNL     1      65.677  32.826 133.752  1.00  0.00    -0.508 OA
ATOM     27  H   UNL     1      66.470  33.311 134.157  1.00  0.00     0.293 HD
ENDBRANCH   8  26
TORSDOF 6
ENDMDL
MODEL 3
REMARK VINA RESULT:    -4.389      2.455      6.500
REMARK INTER + INTRA:          -5.573
REMARK INTER:                  -5.266
REMARK INTRA:                  -0.307
REMARK UNBOUND:                -0.286
REMARK SMILES O=c1c(O)c(-c2ccc(O)c(O)c2)oc2cc(O)cc(O)c12
REMARK SMILES IDX 5 1 3 2 2 3 1 4 22 5 20 6 19 7 17 8 16 9 15 10 14 11 6 12
REMARK SMILES IDX 7 13 8 14 9 15 13 16 11 17 10 18 12 20 4 22 21 24 18 26
REMARK H PARENT 10 19 12 21 4 23 21 25 18 27
REMARK Flexibility Score: inf
ROOT
ATOM      1  C   UNL     1      60.901  33.646 130.112  1.00  0.00     0.180 A 
ATOM      2  C   UNL     1      61.316  34.768 129.369  1.00  0.00     0.208 A 
ATOM      3  C   UNL     1      62.572  35.334 129.639  1.00  0.00     0.238 A 
ATOM      4  O   UNL     1      62.959  36.332 128.973  1.00  0.00    -0.285 OA
ATOM      5  C   UNL     1      63.379  34.786 130.657  1.00  0.00     0.111 A 
ATOM      6  C   UNL     1      64.655  35.299 130.994  1.00  0.00     0.134 A 
ATOM      7  C   UNL     1      65.395  34.701 132.025  1.00  0.00     0.093 A 
ATOM      8  C   UNL     1      64.884  33.606 132.725  1.00  0.00     0.123 A 
ATOM      9  C   UNL     1      63.625  33.094 132.396  1.00  0.00     0.094 A 
ATOM     10  C   UNL     1      62.874  33.674 131.370  1.00  0.00     0.146 A 
ATOM     11  O   UNL     1      61.683  33.165 131.074  1.00  0.00    -0.452 OA
ENDROOT
BRANCH   1  12
ATOM     12  C   UNL     1      59.599  32.982 129.873  1.00  0.00     0.025 A 
ATOM     13  C   UNL     1      59.476  32.066 128.816  1.00  0.00     0.016 A 
ATOM     14  C   UNL     1      58.252  31.444 128.558  1.00  0.00     0.051 A 
ATOM     15  C   UNL     1      57.130  31.738 129.343  1.00  0.00     0.157 A 
ATOM     16  C   UNL     1      58.466  33.290 130.647  1.00  0.00     0.062 A 
ATOM     17  C   UNL     1      57.238  32.670 130.390  1.00  0.00     0.158 A 
BRANCH  15  18
ATOM     18  O   UNL     1      55.911  31.113 129.087  1.00  0.00    -0.504 OA
ATOM     19  H   UNL     1      55.222  31.528 128.469  1.00  0.00     0.293 HD
ENDBRANCH  15  18
BRANCH  17  20
ATOM     20  O   UNL     1      56.136  32.995 131.180  1.00  0.00    -0.504 OA
ATOM     21  H   UNL     1      55.624  33.860 131.062  1.00  0.00     0.293 HD
ENDBRANCH  17  20
ENDBRANCH   1  12
BRANCH   2  22
ATOM     22  O   UNL     1      60.476  35.324 128.401  1.00  0.00    -0.502 OA
ATOM     23  H   UNL     1      59.549  35.669 128.618  1.00  0.00     0.293 HD
ENDBRANCH   2  22
BRANCH   6  24
ATOM     24  O   UNL     1      65.192  36.393 130.314  1.00  0.00    -0.507 OA
ATOM     25  H   UNL     1      64.601  37.076 129.854  1.00  0.00     0.293 HD
ENDBRANCH   6  24
BRANCH   8  26
ATOM     26  O   UNL     1      65.638  33.031 133.746  1.00  0.00    -0.508 OA
ATOM     27  H   UNL     1      66.465  33.485 134.115  1.00  0.00     0.293 HD
ENDBRANCH   8  26
TORSDOF 6
ENDMDL
MODEL 4
REMARK VINA RESULT:    -4.379     19.351     20.603
REMARK INTER + INTRA:          -5.561
REMARK INTER:                  -5.263
REMARK INTRA:                  -0.298
REMARK UNBOUND:                -0.286
REMARK SMILES O=c1c(O)c(-c2ccc(O)c(O)c2)oc2cc(O)cc(O)c12
REMARK SMILES IDX 5 1 3 2 2 3 1 4 22 5 20 6 19 7 17 8 16 9 15 10 14 11 6 12
REMARK SMILES IDX 7 13 8 14 9 15 13 16 11 17 10 18 12 20 4 22 21 24 18 26
REMARK H PARENT 10 19 12 21 4 23 21 25 18 27
REMARK Flexibility Score: inf
ROOT
ATOM      1  C   UNL     1      47.315  30.236 144.281  1.00  0.00     0.180 A 
ATOM      2  C   UNL     1      47.094  28.900 144.671  1.00  0.00     0.208 A 
ATOM      3  C   UNL     1      46.838  27.938 143.681  1.00  0.00     0.238 A 
ATOM      4  O   UNL     1      46.651  26.737 144.017  1.00  0.00    -0.285 OA
ATOM      5  C   UNL     1      46.785  28.328 142.327  1.00  0.00     0.111 A 
ATOM      6  C   UNL     1      46.529  27.422 141.269  1.00  0.00     0.134 A 
ATOM      7  C   UNL     1      46.485  27.890 139.948  1.00  0.00     0.093 A 
ATOM      8  C   UNL     1      46.689  29.242 139.664  1.00  0.00     0.123 A 
ATOM      9  C   UNL     1      46.944  30.142 140.704  1.00  0.00     0.094 A 
ATOM     10  C   UNL     1      46.994  29.695 142.027  1.00  0.00     0.146 A 
ATOM     11  O   UNL     1      47.243  30.569 142.996  1.00  0.00    -0.452 OA
ENDROOT
BRANCH   1  12
ATOM     12  C   UNL     1      47.610  31.303 145.264  1.00  0.00     0.025 A 
ATOM     13  C   UNL     1      48.910  31.424 145.782  1.00  0.00     0.016 A 
ATOM     14  C   UNL     1      49.206  32.410 146.726  1.00  0.00     0.051 A 
ATOM     15  C   UNL     1      48.205  33.279 147.178  1.00  0.00     0.157 A 
ATOM     16  C   UNL     1      46.604  32.165 145.735  1.00  0.00     0.062 A 
ATOM     17  C   UNL     1      46.896  33.152 146.682  1.00  0.00     0.158 A 
BRANCH  15  18
ATOM     18  O   UNL     1      48.504  34.265 148.118  1.00  0.00    -0.504 OA
ATOM     19  H   UNL     1      48.709  35.218 147.840  1.00  0.00     0.293 HD
ENDBRANCH  15  18
BRANCH  17  20
ATOM     20  O   UNL     1      45.875  33.993 147.123  1.00  0.00    -0.504 OA
ATOM     21  H   UNL     1      45.334  34.563 146.484  1.00  0.00     0.293 HD
ENDBRANCH  17  20
ENDBRANCH   1  12
BRANCH   2  22
ATOM     22  O   UNL     1      47.103  28.548 146.023  1.00  0.00    -0.502 OA
ATOM     23  H   UNL     1      46.274  28.222 146.504  1.00  0.00     0.293 HD
ENDBRANCH   2  22
BRANCH   6  24
ATOM     24  O   UNL     1      46.319  26.065 141.521  1.00  0.00    -0.507 OA
ATOM     25  H   UNL     1      45.891  25.744 142.381  1.00  0.00     0.293 HD
ENDBRANCH   6  24
BRANCH   8  26
ATOM     26  O   UNL     1      46.639  29.682 138.343  1.00  0.00    -0.508 OA
ATOM     27  H   UNL     1      47.483  29.847 137.807  1.00  0.00     0.293 HD
ENDBRANCH   8  26
TORSDOF 6
ENDMDL
MODEL 5
REMARK VINA RESULT:    -4.361      2.256      3.351
REMARK INTER + INTRA:          -5.539
REMARK INTER:                  -5.215
REMARK INTRA:                  -0.325
REMARK UNBOUND:                -0.286
REMARK SMILES O=c1c(O)c(-c2ccc(O)c(O)c2)oc2cc(O)cc(O)c12
REMARK SMILES IDX 5 1 3 2 2 3 1 4 22 5 20 6 19 7 17 8 16 9 15 10 14 11 6 12
REMARK SMILES IDX 7 13 8 14 9 15 13 16 11 17 10 18 12 20 4 22 21 24 18 26
REMARK H PARENT 10 19 12 21 4 23 21 25 18 27
REMARK Flexibility Score: inf
ROOT
ATOM      1  C   UNL     1      61.314  33.861 129.640  1.00  0.00     0.180 A 
ATOM      2  C   UNL     1      61.233  32.753 128.775  1.00  0.00     0.208 A 
ATOM      3  C   UNL     1      60.024  32.043 128.692  1.00  0.00     0.238 A 
ATOM      4  O   UNL     1      59.936  31.056 127.913  1.00  0.00    -0.285 OA
ATOM      5  C   UNL     1      58.928  32.438 129.486  1.00  0.00     0.111 A 
ATOM      6  C   UNL     1      57.677  31.775 129.465  1.00  0.00     0.134 A 
ATOM      7  C   UNL     1      56.637  32.225 130.292  1.00  0.00     0.093 A 
ATOM      8  C   UNL     1      56.824  33.320 131.139  1.00  0.00     0.123 A 
ATOM      9  C   UNL     1      58.057  33.980 131.164  1.00  0.00     0.094 A 
ATOM     10  C   UNL     1      59.104  33.548 130.345  1.00  0.00     0.146 A 
ATOM     11  O   UNL     1      60.264  34.196 130.384  1.00  0.00    -0.452 OA
ENDROOT
BRANCH   1  12
ATOM     12  C   UNL     1      62.547  34.671 129.768  1.00  0.00     0.025 A 
ATOM     13  C   UNL     1      62.741  35.771 128.918  1.00  0.00     0.016 A 
ATOM     14  C   UNL     1      63.907  36.536 129.006  1.00  0.00     0.051 A 
ATOM     15  C   UNL     1      64.901  36.204 129.935  1.00  0.00     0.157 A 
ATOM     16  C   UNL     1      63.556  34.329 130.686  1.00  0.00     0.062 A 
ATOM     17  C   UNL     1      64.725  35.092 130.775  1.00  0.00     0.158 A 
BRANCH  15  18
ATOM     18  O   UNL     1      66.062  36.971 130.024  1.00  0.00    -0.504 OA
ATOM     19  H   UNL     1      66.582  37.048 130.891  1.00  0.00     0.293 HD
ENDBRANCH  15  18
BRANCH  17  20
ATOM     20  O   UNL     1      65.703  34.728 131.701  1.00  0.00    -0.504 OA
ATOM     21  H   UNL     1      66.045  33.778 131.778  1.00  0.00     0.293 HD
ENDBRANCH  17  20
ENDBRANCH   1  12
BRANCH   2  22
ATOM     22  O   UNL     1      62.348  32.351 128.036  1.00  0.00    -0.502 OA
ATOM     23  H   UNL     1      62.890  31.529 128.274  1.00  0.00     0.293 HD
ENDBRANCH   2  22
BRANCH   6  24
ATOM     24  O   UNL     1      57.461  30.677 128.631  1.00  0.00    -0.507 OA
ATOM     25  H   UNL     1      58.137  29.927 128.552  1.00  0.00     0.293 HD
ENDBRANCH   6  24
BRANCH   8  26
ATOM     26  O   UNL     1      55.775  33.746 131.951  1.00  0.00    -0.508 OA
ATOM     27  H   UNL     1      55.221  34.561 131.717  1.00  0.00     0.293 HD
ENDBRANCH   8  26
TORSDOF 6
ENDMDL
MODEL 6
REMARK VINA RESULT:    -4.318      8.178     11.016
REMARK INTER + INTRA:          -5.487
REMARK INTER:                  -5.177
REMARK INTRA:                  -0.310
REMARK UNBOUND:                -0.286
REMARK SMILES O=c1c(O)c(-c2ccc(O)c(O)c2)oc2cc(O)cc(O)c12
REMARK SMILES IDX 5 1 3 2 2 3 1 4 22 5 20 6 19 7 17 8 16 9 15 10 14 11 6 12
REMARK SMILES IDX 7 13 8 14 9 15 13 16 11 17 10 18 12 20 4 22 21 24 18 26
REMARK H PARENT 10 19 12 21 4 23 21 25 18 27
REMARK Flexibility Score: inf
ROOT
ATOM      1  C   UNL     1      64.594  25.823 134.912  1.00  0.00     0.180 A 
ATOM      2  C   UNL     1      64.661  27.189 135.250  1.00  0.00     0.208 A 
ATOM      3  C   UNL     1      65.022  27.547 136.559  1.00  0.00     0.238 A 
ATOM      4  O   UNL     1      65.097  28.767 136.871  1.00  0.00    -0.285 OA
ATOM      5  C   UNL     1      65.288  26.540 137.509  1.00  0.00     0.111 A 
ATOM      6  C   UNL     1      65.654  26.816 138.849  1.00  0.00     0.134 A 
ATOM      7  C   UNL     1      65.894  25.757 139.737  1.00  0.00     0.093 A 
ATOM      8  C   UNL     1      65.774  24.431 139.313  1.00  0.00     0.123 A 
ATOM      9  C   UNL     1      65.414  24.152 137.991  1.00  0.00     0.094 A 
ATOM     10  C   UNL     1      65.173  25.194 137.090  1.00  0.00     0.146 A 
ATOM     11  O   UNL     1      64.837  24.901 135.839  1.00  0.00    -0.452 OA
ENDROOT
BRANCH   1  12
ATOM     12  C   UNL     1      64.240  25.367 133.549  1.00  0.00     0.025 A 
ATOM     13  C   UNL     1      62.948  24.877 133.300  1.00  0.00     0.016 A 
ATOM     14  C   UNL     1      62.598  24.421 132.026  1.00  0.00     0.051 A 
ATOM     15  C   UNL     1      63.538  24.435 130.988  1.00  0.00     0.157 A 
ATOM     16  C   UNL     1      65.186  25.362 132.509  1.00  0.00     0.062 A 
ATOM     17  C   UNL     1      64.839  24.904 131.233  1.00  0.00     0.158 A 
BRANCH  15  18
ATOM     18  O   UNL     1      63.185  23.983 129.717  1.00  0.00    -0.504 OA
ATOM     19  H   UNL     1      62.747  23.079 129.578  1.00  0.00     0.293 HD
ENDBRANCH  15  18
BRANCH  17  20
ATOM     20  O   UNL     1      65.801  24.918 130.223  1.00  0.00    -0.504 OA
ATOM     21  H   UNL     1      65.578  24.688 129.263  1.00  0.00     0.293 HD
ENDBRANCH  17  20
ENDBRANCH   1  12
BRANCH   2  22
ATOM     22  O   UNL     1      64.345  28.167 134.305  1.00  0.00    -0.502 OA
ATOM     23  H   UNL     1      63.916  27.944 133.415  1.00  0.00     0.293 HD
ENDBRANCH   2  22
BRANCH   6  24
ATOM     24  O   UNL     1      65.781  28.130 139.303  1.00  0.00    -0.507 OA
ATOM     25  H   UNL     1      65.315  28.900 138.838  1.00  0.00     0.293 HD
ENDBRANCH   6  24
BRANCH   8  26
ATOM     26  O   UNL     1      66.018  23.397 140.215  1.00  0.00    -0.508 OA
ATOM     27  H   UNL     1      66.105  22.436 139.908  1.00  0.00     0.293 HD
ENDBRANCH   8  26
TORSDOF 6
ENDMDL
MODEL 7
REMARK VINA RESULT:    -4.311     12.240     16.212
REMARK INTER + INTRA:          -5.479
REMARK INTER:                  -5.166
REMARK INTRA:                  -0.313
REMARK UNBOUND:                -0.286
REMARK SMILES O=c1c(O)c(-c2ccc(O)c(O)c2)oc2cc(O)cc(O)c12
REMARK SMILES IDX 5 1 3 2 2 3 1 4 22 5 20 6 19 7 17 8 16 9 15 10 14 11 6 12
REMARK SMILES IDX 7 13 8 14 9 15 13 16 11 17 10 18 12 20 4 22 21 24 18 26
REMARK H PARENT 10 19 12 21 4 23 21 25 18 27
REMARK Flexibility Score: inf
ROOT
ATOM      1  C   UNL     1      52.101  20.641 130.723  1.00  0.00     0.180 A 
ATOM      2  C   UNL     1      52.083  20.292 132.088  1.00  0.00     0.208 A 
ATOM      3  C   UNL     1      50.874  19.871 132.664  1.00  0.00     0.238 A 
ATOM      4  O   UNL     1      50.847  19.546 133.883  1.00  0.00    -0.285 OA
ATOM      5  C   UNL     1      49.705  19.827 131.878  1.00  0.00     0.111 A 
ATOM      6  C   UNL     1      48.446  19.419 132.383  1.00  0.00     0.134 A 
ATOM      7  C   UNL     1      47.327  19.410 131.537  1.00  0.00     0.093 A 
ATOM      8  C   UNL     1      47.440  19.802 130.202  1.00  0.00     0.123 A 
ATOM      9  C   UNL     1      48.681  20.205 129.696  1.00  0.00     0.094 A 
ATOM     10  C   UNL     1      49.808  20.218 130.522  1.00  0.00     0.146 A 
ATOM     11  O   UNL     1      50.976  20.600 130.016  1.00  0.00    -0.452 OA
ENDROOT
BRANCH   1  12
ATOM     12  C   UNL     1      53.340  21.074 130.039  1.00  0.00     0.025 A 
ATOM     13  C   UNL     1      53.729  22.422 130.103  1.00  0.00     0.016 A 
ATOM     14  C   UNL     1      54.882  22.858 129.447  1.00  0.00     0.051 A 
ATOM     15  C   UNL     1      55.657  21.957 128.706  1.00  0.00     0.157 A 
ATOM     16  C   UNL     1      54.110  20.177 129.278  1.00  0.00     0.062 A 
ATOM     17  C   UNL     1      55.265  20.611 128.618  1.00  0.00     0.158 A 
BRANCH  15  18
ATOM     18  O   UNL     1      56.810  22.394 128.055  1.00  0.00    -0.504 OA
ATOM     19  H   UNL     1      57.548  22.881 128.552  1.00  0.00     0.293 HD
ENDBRANCH  15  18
BRANCH  17  20
ATOM     20  O   UNL     1      56.008  19.692 127.877  1.00  0.00    -0.504 OA
ATOM     21  H   UNL     1      56.230  19.842 126.900  1.00  0.00     0.293 HD
ENDBRANCH  17  20
ENDBRANCH   1  12
BRANCH   2  22
ATOM     22  O   UNL     1      53.244  20.392 132.858  1.00  0.00    -0.502 OA
ATOM     23  H   UNL     1      54.060  20.905 132.547  1.00  0.00     0.293 HD
ENDBRANCH   2  22
BRANCH   6  24
ATOM     24  O   UNL     1      48.301  19.024 133.713  1.00  0.00    -0.507 OA
ATOM     25  H   UNL     1      47.461  19.232 134.242  1.00  0.00     0.293 HD
ENDBRANCH   6  24
BRANCH   8  26
ATOM     26  O   UNL     1      46.313  19.785 129.383  1.00  0.00    -0.508 OA
ATOM     27  H   UNL     1      45.521  20.391 129.559  1.00  0.00     0.293 HD
ENDBRANCH   8  26
TORSDOF 6
ENDMDL
MODEL 8
REMARK VINA RESULT:    -4.248     12.959     16.536
REMARK INTER + INTRA:          -5.402
REMARK INTER:                  -5.070
REMARK INTRA:                  -0.332
REMARK UNBOUND:                -0.286
REMARK SMILES O=c1c(O)c(-c2ccc(O)c(O)c2)oc2cc(O)cc(O)c12
REMARK SMILES IDX 5 1 3 2 2 3 1 4 22 5 20 6 19 7 17 8 16 9 15 10 14 11 6 12
REMARK SMILES IDX 7 13 8 14 9 15 13 16 11 17 10 18 12 20 4 22 21 24 18 26
REMARK H PARENT 10 19 12 21 4 23 21 25 18 27
REMARK Flexibility Score: inf
ROOT
ATOM      1  C   UNL     1      50.760  20.937 131.116  1.00  0.00     0.180 A 
ATOM      2  C   UNL     1      49.755  20.301 130.362  1.00  0.00     0.208 A 
ATOM      3  C   UNL     1      48.473  20.166 130.918  1.00  0.00     0.238 A 
ATOM      4  O   UNL     1      47.561  19.608 130.248  1.00  0.00    -0.285 OA
ATOM      5  C   UNL     1      48.223  20.647 132.220  1.00  0.00     0.111 A 
ATOM      6  C   UNL     1      46.961  20.547 132.854  1.00  0.00     0.134 A 
ATOM      7  C   UNL     1      46.796  21.043 134.156  1.00  0.00     0.093 A 
ATOM      8  C   UNL     1      47.864  21.634 134.834  1.00  0.00     0.123 A 
ATOM      9  C   UNL     1      49.113  21.737 134.213  1.00  0.00     0.094 A 
ATOM     10  C   UNL     1      49.297  21.251 132.915  1.00  0.00     0.146 A 
ATOM     11  O   UNL     1      50.492  21.365 132.346  1.00  0.00    -0.452 OA
ENDROOT
BRANCH   1  12
ATOM     12  C   UNL     1      52.130  21.134 130.591  1.00  0.00     0.025 A 
ATOM     13  C   UNL     1      53.125  20.188 130.884  1.00  0.00     0.016 A 
ATOM     14  C   UNL     1      54.430  20.364 130.418  1.00  0.00     0.051 A 
ATOM     15  C   UNL     1      54.764  21.496 129.663  1.00  0.00     0.157 A 
ATOM     16  C   UNL     1      52.474  22.279 129.850  1.00  0.00     0.062 A 
ATOM     17  C   UNL     1      53.780  22.460 129.383  1.00  0.00     0.158 A 
BRANCH  15  18
ATOM     18  O   UNL     1      56.065  21.669 129.196  1.00  0.00    -0.504 OA
ATOM     19  H   UNL     1      56.691  22.351 129.609  1.00  0.00     0.293 HD
ENDBRANCH  15  18
BRANCH  17  20
ATOM     20  O   UNL     1      54.084  23.605 128.646  1.00  0.00    -0.504 OA
ATOM     21  H   UNL     1      53.432  24.010 127.987  1.00  0.00     0.293 HD
ENDBRANCH  17  20
ENDBRANCH   1  12
BRANCH   2  22
ATOM     22  O   UNL     1      50.040  19.788 129.094  1.00  0.00    -0.502 OA
ATOM     23  H   UNL     1      49.885  18.817 128.854  1.00  0.00     0.293 HD
ENDBRANCH   2  22
BRANCH   6  24
ATOM     24  O   UNL     1      45.875  19.961 132.203  1.00  0.00    -0.507 OA
ATOM     25  H   UNL     1      44.930  20.053 132.557  1.00  0.00     0.293 HD
ENDBRANCH   6  24
BRANCH   8  26
ATOM     26  O   UNL     1      47.674  22.119 136.126  1.00  0.00    -0.508 OA
ATOM     27  H   UNL     1      46.825  21.926 136.645  1.00  0.00     0.293 HD
ENDBRANCH   8  26
TORSDOF 6
ENDMDL
