MODEL 1
REMARK VINA RESULT:    -6.868      0.000      0.000
REMARK INTER + INTRA:         -11.199
REMARK INTER:                 -10.079
REMARK INTRA:                  -1.120
REMARK UNBOUND:                -1.120
REMARK SMILES O=c1c(O[C@H]2O[C@H](CO)[C@H](O)[C@H](O)[C@H]2O)c(-c2ccc(O)c(O)c2)oc2cc(O)cc(O)c12
REMARK SMILES IDX 4 1 3 2 16 3 25 4 2 5 26 6 1 7 33 8 27 9 31 10 28 11 30 12
REMARK SMILES IDX 17 13 18 14 19 15 20 16 24 17 22 18 21 19 23 21 32 23 29 25
REMARK SMILES IDX 5 27 14 28 6 29 12 30 7 31 10 32 15 33 13 35 8 37 9 38 11 40
REMARK H PARENT 21 20 23 22 32 24 29 26 15 34 13 36 9 39 11 41
REMARK Flexibility Score: inf
ROOT
ATOM      1  O   UNL     1     -36.544   4.358  81.323  1.00  0.00    -0.454 OA
ENDROOT
BRANCH   1   2
ATOM      2  C   UNL     1     -36.147   5.376  80.441  1.00  0.00     0.214 A 
ATOM      3  C   UNL     1     -36.706   5.504  79.154  1.00  0.00     0.180 A 
ATOM      4  O   UNL     1     -36.219   6.409  78.312  1.00  0.00    -0.452 OA
ATOM      5  C   UNL     1     -35.167   6.292  80.845  1.00  0.00     0.239 A 
ATOM      6  C   UNL     1     -35.238   7.247  78.627  1.00  0.00     0.146 A 
ATOM      7  O   UNL     1     -34.792   6.279  82.046  1.00  0.00    -0.285 OA
ATOM      8  C   UNL     1     -34.643   7.224  79.915  1.00  0.00     0.111 A 
ATOM      9  C   UNL     1     -34.817   8.172  77.667  1.00  0.00     0.094 A 
ATOM     10  C   UNL     1     -33.582   8.139  80.194  1.00  0.00     0.134 A 
ATOM     11  C   UNL     1     -33.817   9.098  77.970  1.00  0.00     0.123 A 
ATOM     12  C   UNL     1     -33.213   9.082  79.226  1.00  0.00     0.093 A 
BRANCH   3  13
ATOM     13  C   UNL     1     -37.863   4.699  78.707  1.00  0.00     0.025 A 
ATOM     14  C   UNL     1     -39.100   5.307  78.431  1.00  0.00     0.016 A 
ATOM     15  C   UNL     1     -40.176   4.543  77.971  1.00  0.00     0.051 A 
ATOM     16  C   UNL     1     -40.031   3.165  77.774  1.00  0.00     0.157 A 
ATOM     17  C   UNL     1     -37.711   3.320  78.485  1.00  0.00     0.062 A 
ATOM     18  C   UNL     1     -38.793   2.550  78.029  1.00  0.00     0.158 A 
BRANCH  16  19
ATOM     19  O   UNL     1     -41.124   2.428  77.319  1.00  0.00    -0.504 OA
ATOM     20  H   UNL     1     -42.025   2.857  77.136  1.00  0.00     0.293 HD
ENDBRANCH  16  19
BRANCH  18  21
ATOM     21  O   UNL     1     -38.639   1.177  77.827  1.00  0.00    -0.504 OA
ATOM     22  H   UNL     1     -38.910   0.501  78.535  1.00  0.00     0.293 HD
ENDBRANCH  18  21
ENDBRANCH   3  13
BRANCH  10  23
ATOM     23  O   UNL     1     -32.844   8.144  81.383  1.00  0.00    -0.507 OA
ATOM     24  H   UNL     1     -31.959   7.678  81.513  1.00  0.00     0.293 HD
ENDBRANCH  10  23
BRANCH  11  25
ATOM     25  O   UNL     1     -33.408  10.036  77.023  1.00  0.00    -0.508 OA
ATOM     26  H   UNL     1     -33.979  10.256  76.214  1.00  0.00     0.293 HD
ENDBRANCH  11  25
ENDBRANCH   1   2
BRANCH   1  27
ATOM     27  C   UNL     1     -37.272   4.630  82.529  1.00  0.00     0.339 C 
ATOM     28  C   UNL     1     -37.107   3.487  83.556  1.00  0.00     0.214 C 
ATOM     29  O   UNL     1     -38.642   4.894  82.250  1.00  0.00    -0.332 OA
ATOM     30  C   UNL     1     -37.868   2.227  83.105  1.00  0.00     0.180 C 
ATOM     31  C   UNL     1     -39.300   3.749  81.723  1.00  0.00     0.179 C 
ATOM     32  C   UNL     1     -39.319   2.596  82.750  1.00  0.00     0.177 C 
BRANCH  28  33
ATOM     33  O   UNL     1     -35.746   3.180  83.729  1.00  0.00    -0.384 OA
ATOM     34  H   UNL     1     -35.262   3.594  82.967  1.00  0.00     0.211 HD
ENDBRANCH  28  33
BRANCH  30  35
ATOM     35  O   UNL     1     -37.863   1.259  84.123  1.00  0.00    -0.387 OA
ATOM     36  H   UNL     1     -38.550   1.537  84.787  1.00  0.00     0.211 HD
ENDBRANCH  30  35
BRANCH  31  37
ATOM     37  C   UNL     1     -40.714   4.143  81.270  1.00  0.00     0.191 C 
BRANCH  37  38
ATOM     38  O   UNL     1     -41.595   3.061  81.400  1.00  0.00    -0.394 OA
ATOM     39  H   UNL     1     -41.111   2.270  81.049  1.00  0.00     0.210 HD
ENDBRANCH  37  38
ENDBRANCH  31  37
BRANCH  32  40
ATOM     40  O   UNL     1     -40.020   2.990  83.905  1.00  0.00    -0.387 OA
ATOM     41  H   UNL     1     -40.423   3.876  83.711  1.00  0.00     0.211 HD
ENDBRANCH  32  40
ENDBRANCH   1  27
TORSDOF 12
ENDMDL
MODEL 2
REMARK VINA RESULT:    -6.828      2.212      6.609
REMARK INTER + INTRA:         -11.141
REMARK INTER:                 -10.129
REMARK INTRA:                  -1.012
REMARK UNBOUND:                -1.120
REMARK SMILES O=c1c(O[C@H]2O[C@H](CO)[C@H](O)[C@H](O)[C@H]2O)c(-c2ccc(O)c(O)c2)oc2cc(O)cc(O)c12
REMARK SMILES IDX 4 1 3 2 16 3 25 4 2 5 26 6 1 7 33 8 27 9 31 10 28 11 30 12
REMARK SMILES IDX 17 13 18 14 19 15 20 16 24 17 22 18 21 19 23 21 32 23 29 25
REMARK SMILES IDX 5 27 14 28 6 29 12 30 7 31 10 32 15 33 13 35 8 37 9 38 11 40
REMARK H PARENT 21 20 23 22 32 24 29 26 15 34 13 36 9 39 11 41
REMARK Flexibility Score: inf
ROOT
ATOM      1  O   UNL     1     -38.088   6.256  81.314  1.00  0.00    -0.454 OA
ENDROOT
BRANCH   1   2
ATOM      2  C   UNL     1     -38.752   5.476  80.353  1.00  0.00     0.214 A 
ATOM      3  C   UNL     1     -38.327   5.428  79.011  1.00  0.00     0.180 A 
ATOM      4  O   UNL     1     -39.053   4.770  78.114  1.00  0.00    -0.452 OA
ATOM      5  C   UNL     1     -39.872   4.725  80.733  1.00  0.00     0.239 A 
ATOM      6  C   UNL     1     -40.164   4.108  78.415  1.00  0.00     0.146 A 
ATOM      7  O   UNL     1     -40.150   4.637  81.957  1.00  0.00    -0.285 OA
ATOM      8  C   UNL     1     -40.647   4.062  79.750  1.00  0.00     0.111 A 
ATOM      9  C   UNL     1     -40.838   3.435  77.393  1.00  0.00     0.094 A 
ATOM     10  C   UNL     1     -41.854   3.345  80.014  1.00  0.00     0.134 A 
ATOM     11  C   UNL     1     -41.987   2.693  77.673  1.00  0.00     0.123 A 
ATOM     12  C   UNL     1     -42.482   2.646  78.976  1.00  0.00     0.093 A 
BRANCH   3  13
ATOM     13  C   UNL     1     -37.062   6.043  78.556  1.00  0.00     0.025 A 
ATOM     14  C   UNL     1     -35.902   5.266  78.390  1.00  0.00     0.016 A 
ATOM     15  C   UNL     1     -34.722   5.849  77.923  1.00  0.00     0.051 A 
ATOM     16  C   UNL     1     -34.683   7.212  77.608  1.00  0.00     0.157 A 
ATOM     17  C   UNL     1     -37.029   7.406  78.217  1.00  0.00     0.062 A 
ATOM     18  C   UNL     1     -35.842   7.995  77.753  1.00  0.00     0.158 A 
BRANCH  16  19
ATOM     19  O   UNL     1     -33.489   7.767  77.149  1.00  0.00    -0.504 OA
ATOM     20  H   UNL     1     -32.589   7.508  77.539  1.00  0.00     0.293 HD
ENDBRANCH  16  19
BRANCH  18  21
ATOM     21  O   UNL     1     -35.812   9.354  77.433  1.00  0.00    -0.504 OA
ATOM     22  H   UNL     1     -35.478  10.049  78.094  1.00  0.00     0.293 HD
ENDBRANCH  18  21
ENDBRANCH   3  13
BRANCH  10  23
ATOM     23  O   UNL     1     -42.489   3.314  81.261  1.00  0.00    -0.507 OA
ATOM     24  H   UNL     1     -42.013   3.244  82.147  1.00  0.00     0.293 HD
ENDBRANCH  10  23
BRANCH  11  25
ATOM     25  O   UNL     1     -42.651   2.003  76.661  1.00  0.00    -0.508 OA
ATOM     26  H   UNL     1     -42.878   1.018  76.750  1.00  0.00     0.293 HD
ENDBRANCH  11  25
ENDBRANCH   1   2
BRANCH   1  27
ATOM     27  C   UNL     1     -37.649   5.716  82.568  1.00  0.00     0.339 C 
ATOM     28  C   UNL     1     -37.261   6.837  83.559  1.00  0.00     0.214 C 
ATOM     29  O   UNL     1     -36.588   4.786  82.381  1.00  0.00    -0.332 OA
ATOM     30  C   UNL     1     -35.949   7.520  83.130  1.00  0.00     0.180 C 
ATOM     31  C   UNL     1     -35.421   5.418  81.873  1.00  0.00     0.179 C 
ATOM     32  C   UNL     1     -34.868   6.456  82.875  1.00  0.00     0.177 C 
BRANCH  28  33
ATOM     33  O   UNL     1     -38.288   7.793  83.639  1.00  0.00    -0.384 OA
ATOM     34  H   UNL     1     -38.234   8.192  84.547  1.00  0.00     0.211 HD
ENDBRANCH  28  33
BRANCH  30  35
ATOM     35  O   UNL     1     -35.510   8.409  84.125  1.00  0.00    -0.387 OA
ATOM     36  H   UNL     1     -34.810   8.981  83.711  1.00  0.00     0.211 HD
ENDBRANCH  30  35
BRANCH  31  37
ATOM     37  C   UNL     1     -34.380   4.347  81.518  1.00  0.00     0.191 C 
BRANCH  37  38
ATOM     38  O   UNL     1     -34.209   3.449  82.581  1.00  0.00    -0.394 OA
ATOM     39  H   UNL     1     -34.750   3.807  83.331  1.00  0.00     0.210 HD
ENDBRANCH  37  38
ENDBRANCH  31  37
BRANCH  32  40
ATOM     40  O   UNL     1     -34.512   5.821  84.078  1.00  0.00    -0.387 OA
ATOM     41  H   UNL     1     -34.134   4.936  83.839  1.00  0.00     0.211 HD
ENDBRANCH  32  40
ENDBRANCH   1  27
TORSDOF 12
ENDMDL
MODEL 3
REMARK VINA RESULT:    -6.670      2.228      3.713
REMARK INTER + INTRA:         -10.909
REMARK INTER:                  -9.800
REMARK INTRA:                  -1.108
REMARK UNBOUND:                -1.120
REMARK SMILES O=c1c(O[C@H]2O[C@H](CO)[C@H](O)[C@H](O)[C@H]2O)c(-c2ccc(O)c(O)c2)oc2cc(O)cc(O)c12
REMARK SMILES IDX 4 1 3 2 16 3 25 4 2 5 26 6 1 7 33 8 27 9 31 10 28 11 30 12
REMARK SMILES IDX 17 13 18 14 19 15 20 16 24 17 22 18 21 19 23 21 32 23 29 25
REMARK SMILES IDX 5 27 14 28 6 29 12 30 7 31 10 32 15 33 13 35 8 37 9 38 11 40
REMARK H PARENT 21 20 23 22 32 24 29 26 15 34 13 36 9 39 11 41
REMARK Flexibility Score: inf
ROOT
ATOM      1  O   UNL     1     -38.028   5.256  80.571  1.00  0.00    -0.454 OA
ENDROOT
BRANCH   1   2
ATOM      2  C   UNL     1     -38.201   6.067  79.438  1.00  0.00     0.214 A 
ATOM      3  C   UNL     1     -39.126   5.744  78.425  1.00  0.00     0.180 A 
ATOM      4  O   UNL     1     -39.174   6.477  77.319  1.00  0.00    -0.452 OA
ATOM      5  C   UNL     1     -37.433   7.231  79.302  1.00  0.00     0.239 A 
ATOM      6  C   UNL     1     -38.410   7.544  77.114  1.00  0.00     0.146 A 
ATOM      7  O   UNL     1     -36.732   7.605  80.278  1.00  0.00    -0.285 OA
ATOM      8  C   UNL     1     -37.479   7.974  78.097  1.00  0.00     0.111 A 
ATOM      9  C   UNL     1     -38.558   8.252  75.919  1.00  0.00     0.094 A 
ATOM     10  C   UNL     1     -36.674   9.121  77.818  1.00  0.00     0.134 A 
ATOM     11  C   UNL     1     -37.804   9.403  75.681  1.00  0.00     0.123 A 
ATOM     12  C   UNL     1     -36.877   9.833  76.630  1.00  0.00     0.093 A 
BRANCH   3  13
ATOM     13  C   UNL     1     -40.099   4.639  78.563  1.00  0.00     0.025 A 
ATOM     14  C   UNL     1     -40.215   3.655  77.566  1.00  0.00     0.016 A 
ATOM     15  C   UNL     1     -41.109   2.592  77.723  1.00  0.00     0.051 A 
ATOM     16  C   UNL     1     -41.894   2.493  78.878  1.00  0.00     0.157 A 
ATOM     17  C   UNL     1     -40.869   4.526  79.732  1.00  0.00     0.062 A 
ATOM     18  C   UNL     1     -41.773   3.463  79.889  1.00  0.00     0.158 A 
BRANCH  16  19
ATOM     19  O   UNL     1     -42.781   1.425  79.005  1.00  0.00    -0.504 OA
ATOM     20  H   UNL     1     -42.613   0.658  79.647  1.00  0.00     0.293 HD
ENDBRANCH  16  19
BRANCH  18  21
ATOM     21  O   UNL     1     -42.546   3.366  81.047  1.00  0.00    -0.504 OA
ATOM     22  H   UNL     1     -42.396   3.982  81.841  1.00  0.00     0.293 HD
ENDBRANCH  18  21
ENDBRANCH   3  13
BRANCH  10  23
ATOM     23  O   UNL     1     -35.649   9.580  78.653  1.00  0.00    -0.507 OA
ATOM     24  H   UNL     1     -35.539  10.535  78.956  1.00  0.00     0.293 HD
ENDBRANCH  10  23
BRANCH  11  25
ATOM     25  O   UNL     1     -37.963  10.124  74.500  1.00  0.00    -0.508 OA
ATOM     26  H   UNL     1     -38.191  11.112  74.508  1.00  0.00     0.293 HD
ENDBRANCH  11  25
ENDBRANCH   1   2
BRANCH   1  27
ATOM     27  C   UNL     1     -36.927   4.345  80.699  1.00  0.00     0.339 C 
ATOM     28  C   UNL     1     -37.390   2.977  81.250  1.00  0.00     0.214 C 
ATOM     29  O   UNL     1     -35.887   4.908  81.490  1.00  0.00    -0.332 OA
ATOM     30  C   UNL     1     -37.775   3.085  82.736  1.00  0.00     0.180 C 
ATOM     31  C   UNL     1     -36.302   5.109  82.835  1.00  0.00     0.179 C 
ATOM     32  C   UNL     1     -36.639   3.766  83.520  1.00  0.00     0.177 C 
BRANCH  28  33
ATOM     33  O   UNL     1     -38.486   2.500  80.511  1.00  0.00    -0.384 OA
ATOM     34  H   UNL     1     -39.265   3.060  80.763  1.00  0.00     0.211 HD
ENDBRANCH  28  33
BRANCH  30  35
ATOM     35  O   UNL     1     -38.019   1.810  83.274  1.00  0.00    -0.387 OA
ATOM     36  H   UNL     1     -37.361   1.676  84.007  1.00  0.00     0.211 HD
ENDBRANCH  30  35
BRANCH  31  37
ATOM     37  C   UNL     1     -35.212   5.884  83.589  1.00  0.00     0.191 C 
BRANCH  37  38
ATOM     38  O   UNL     1     -33.936   5.480  83.171  1.00  0.00    -0.394 OA
ATOM     39  H   UNL     1     -33.431   6.313  82.990  1.00  0.00     0.210 HD
ENDBRANCH  37  38
ENDBRANCH  31  37
BRANCH  32  40
ATOM     40  O   UNL     1     -35.501   2.940  83.549  1.00  0.00    -0.387 OA
ATOM     41  H   UNL     1     -35.644   2.225  82.876  1.00  0.00     0.211 HD
ENDBRANCH  32  40
ENDBRANCH   1  27
TORSDOF 12
ENDMDL
MODEL 4
REMARK VINA RESULT:    -6.461      2.565      5.665
REMARK INTER + INTRA:         -10.603
REMARK INTER:                 -10.519
REMARK INTRA:                  -0.084
REMARK UNBOUND:                -1.120
REMARK SMILES O=c1c(O[C@H]2O[C@H](CO)[C@H](O)[C@H](O)[C@H]2O)c(-c2ccc(O)c(O)c2)oc2cc(O)cc(O)c12
REMARK SMILES IDX 4 1 3 2 16 3 25 4 2 5 26 6 1 7 33 8 27 9 31 10 28 11 30 12
REMARK SMILES IDX 17 13 18 14 19 15 20 16 24 17 22 18 21 19 23 21 32 23 29 25
REMARK SMILES IDX 5 27 14 28 6 29 12 30 7 31 10 32 15 33 13 35 8 37 9 38 11 40
REMARK H PARENT 21 20 23 22 32 24 29 26 15 34 13 36 9 39 11 41
REMARK Flexibility Score: inf
ROOT
ATOM      1  O   UNL     1     -38.412   5.838  77.306  1.00  0.00    -0.454 OA
ENDROOT
BRANCH   1   2
ATOM      2  C   UNL     1     -37.702   5.249  78.365  1.00  0.00     0.214 A 
ATOM      3  C   UNL     1     -38.325   4.388  79.290  1.00  0.00     0.180 A 
ATOM      4  O   UNL     1     -37.643   3.947  80.341  1.00  0.00    -0.452 OA
ATOM      5  C   UNL     1     -36.336   5.522  78.513  1.00  0.00     0.239 A 
ATOM      6  C   UNL     1     -36.367   4.243  80.563  1.00  0.00     0.146 A 
ATOM      7  O   UNL     1     -35.747   6.152  77.597  1.00  0.00    -0.285 OA
ATOM      8  C   UNL     1     -35.643   5.066  79.661  1.00  0.00     0.111 A 
ATOM      9  C   UNL     1     -35.745   3.706  81.692  1.00  0.00     0.094 A 
ATOM     10  C   UNL     1     -34.277   5.363  79.956  1.00  0.00     0.134 A 
ATOM     11  C   UNL     1     -34.394   3.959  81.941  1.00  0.00     0.123 A 
ATOM     12  C   UNL     1     -33.669   4.775  81.073  1.00  0.00     0.093 A 
BRANCH   3  13
ATOM     13  C   UNL     1     -39.712   3.905  79.116  1.00  0.00     0.025 A 
ATOM     14  C   UNL     1     -40.118   3.302  77.912  1.00  0.00     0.016 A 
ATOM     15  C   UNL     1     -41.419   2.813  77.771  1.00  0.00     0.051 A 
ATOM     16  C   UNL     1     -42.330   2.912  78.829  1.00  0.00     0.157 A 
ATOM     17  C   UNL     1     -40.619   3.982  80.185  1.00  0.00     0.062 A 
ATOM     18  C   UNL     1     -41.929   3.496  80.043  1.00  0.00     0.158 A 
BRANCH  16  19
ATOM     19  O   UNL     1     -43.624   2.419  78.656  1.00  0.00    -0.504 OA
ATOM     20  H   UNL     1     -44.429   2.854  79.094  1.00  0.00     0.293 HD
ENDBRANCH  16  19
BRANCH  18  21
ATOM     21  O   UNL     1     -42.830   3.591  81.105  1.00  0.00    -0.504 OA
ATOM     22  H   UNL     1     -42.659   4.205  81.895  1.00  0.00     0.293 HD
ENDBRANCH  18  21
ENDBRANCH   3  13
BRANCH  10  23
ATOM     23  O   UNL     1     -33.488   6.245  79.209  1.00  0.00    -0.507 OA
ATOM     24  H   UNL     1     -33.518   7.250  79.286  1.00  0.00     0.293 HD
ENDBRANCH  10  23
BRANCH  11  25
ATOM     25  O   UNL     1     -33.762   3.410  83.055  1.00  0.00    -0.508 OA
ATOM     26  H   UNL     1     -32.828   3.019  82.996  1.00  0.00     0.293 HD
ENDBRANCH  11  25
ENDBRANCH   1   2
BRANCH   1  27
ATOM     27  C   UNL     1     -39.360   6.895  77.515  1.00  0.00     0.339 C 
ATOM     28  C   UNL     1     -39.091   8.087  76.569  1.00  0.00     0.214 C 
ATOM     29  O   UNL     1     -39.383   7.299  78.879  1.00  0.00    -0.332 OA
ATOM     30  C   UNL     1     -37.812   8.838  76.981  1.00  0.00     0.180 C 
ATOM     31  C   UNL     1     -38.150   7.885  79.273  1.00  0.00     0.179 C 
ATOM     32  C   UNL     1     -37.870   9.181  78.480  1.00  0.00     0.177 C 
BRANCH  28  33
ATOM     33  O   UNL     1     -38.968   7.638  75.242  1.00  0.00    -0.384 OA
ATOM     34  H   UNL     1     -38.663   6.695  75.288  1.00  0.00     0.211 HD
ENDBRANCH  28  33
BRANCH  30  35
ATOM     35  O   UNL     1     -37.674  10.020  76.233  1.00  0.00    -0.387 OA
ATOM     36  H   UNL     1     -36.703  10.234  76.211  1.00  0.00     0.211 HD
ENDBRANCH  30  35
BRANCH  31  37
ATOM     37  C   UNL     1     -38.168   8.129  80.789  1.00  0.00     0.191 C 
BRANCH  37  38
ATOM     38  O   UNL     1     -39.284   8.893  81.155  1.00  0.00    -0.394 OA
ATOM     39  H   UNL     1     -39.698   9.197  80.307  1.00  0.00     0.210 HD
ENDBRANCH  37  38
ENDBRANCH  31  37
BRANCH  32  40
ATOM     40  O   UNL     1     -38.883  10.125  78.727  1.00  0.00    -0.387 OA
ATOM     41  H   UNL     1     -39.325  10.311  77.858  1.00  0.00     0.211 HD
ENDBRANCH  32  40
ENDBRANCH   1  27
TORSDOF 12
ENDMDL
MODEL 5
REMARK VINA RESULT:    -6.353      2.324      6.984
REMARK INTER + INTRA:         -10.443
REMARK INTER:                  -9.144
REMARK INTRA:                  -1.300
REMARK UNBOUND:                -1.120
REMARK SMILES O=c1c(O[C@H]2O[C@H](CO)[C@H](O)[C@H](O)[C@H]2O)c(-c2ccc(O)c(O)c2)oc2cc(O)cc(O)c12
REMARK SMILES IDX 4 1 3 2 16 3 25 4 2 5 26 6 1 7 33 8 27 9 31 10 28 11 30 12
REMARK SMILES IDX 17 13 18 14 19 15 20 16 24 17 22 18 21 19 23 21 32 23 29 25
REMARK SMILES IDX 5 27 14 28 6 29 12 30 7 31 10 32 15 33 13 35 8 37 9 38 11 40
REMARK H PARENT 21 20 23 22 32 24 29 26 15 34 13 36 9 39 11 41
REMARK Flexibility Score: inf
ROOT
ATOM      1  O   UNL     1     -36.373   6.606  79.876  1.00  0.00    -0.454 OA
ENDROOT
BRANCH   1   2
ATOM      2  C   UNL     1     -37.456   5.823  80.306  1.00  0.00     0.214 A 
ATOM      3  C   UNL     1     -38.783   6.116  79.930  1.00  0.00     0.180 A 
ATOM      4  O   UNL     1     -39.785   5.419  80.453  1.00  0.00    -0.452 OA
ATOM      5  C   UNL     1     -37.220   4.718  81.134  1.00  0.00     0.239 A 
ATOM      6  C   UNL     1     -39.611   4.412  81.302  1.00  0.00     0.146 A 
ATOM      7  O   UNL     1     -36.030   4.360  81.332  1.00  0.00    -0.285 OA
ATOM      8  C   UNL     1     -38.309   4.014  81.705  1.00  0.00     0.111 A 
ATOM      9  C   UNL     1     -40.738   3.736  81.775  1.00  0.00     0.094 A 
ATOM     10  C   UNL     1     -38.182   2.933  82.630  1.00  0.00     0.134 A 
ATOM     11  C   UNL     1     -40.598   2.647  82.637  1.00  0.00     0.123 A 
ATOM     12  C   UNL     1     -39.328   2.248  83.052  1.00  0.00     0.093 A 
BRANCH   3  13
ATOM     13  C   UNL     1     -39.112   7.149  78.924  1.00  0.00     0.025 A 
ATOM     14  C   UNL     1     -39.478   8.447  79.319  1.00  0.00     0.016 A 
ATOM     15  C   UNL     1     -39.749   9.427  78.361  1.00  0.00     0.051 A 
ATOM     16  C   UNL     1     -39.653   9.128  76.997  1.00  0.00     0.157 A 
ATOM     17  C   UNL     1     -38.993   6.856  77.556  1.00  0.00     0.062 A 
ATOM     18  C   UNL     1     -39.271   7.837  76.591  1.00  0.00     0.158 A 
BRANCH  16  19
ATOM     19  O   UNL     1     -39.935  10.125  76.063  1.00  0.00    -0.504 OA
ATOM     20  H   UNL     1     -40.086   9.917  75.082  1.00  0.00     0.293 HD
ENDBRANCH  16  19
BRANCH  18  21
ATOM     21  O   UNL     1     -39.165   7.534  75.232  1.00  0.00    -0.504 OA
ATOM     22  H   UNL     1     -38.393   7.876  74.669  1.00  0.00     0.293 HD
ENDBRANCH  18  21
ENDBRANCH   3  13
BRANCH  10  23
ATOM     23  O   UNL     1     -36.967   2.517  83.186  1.00  0.00    -0.507 OA
ATOM     24  H   UNL     1     -36.057   2.737  82.810  1.00  0.00     0.293 HD
ENDBRANCH  10  23
BRANCH  11  25
ATOM     25  O   UNL     1     -41.719   1.956  83.095  1.00  0.00    -0.508 OA
ATOM     26  H   UNL     1     -41.641   1.029  83.502  1.00  0.00     0.293 HD
ENDBRANCH  11  25
ENDBRANCH   1   2
BRANCH   1  27
ATOM     27  C   UNL     1     -35.854   6.529  78.541  1.00  0.00     0.339 C 
ATOM     28  C   UNL     1     -34.345   6.193  78.542  1.00  0.00     0.214 C 
ATOM     29  O   UNL     1     -36.129   7.722  77.816  1.00  0.00    -0.332 OA
ATOM     30  C   UNL     1     -33.517   7.390  79.044  1.00  0.00     0.180 C 
ATOM     31  C   UNL     1     -35.445   8.839  78.366  1.00  0.00     0.179 C 
ATOM     32  C   UNL     1     -33.914   8.659  78.268  1.00  0.00     0.177 C 
BRANCH  28  33
ATOM     33  O   UNL     1     -34.096   5.073  79.354  1.00  0.00    -0.384 OA
ATOM     34  H   UNL     1     -34.573   4.308  78.938  1.00  0.00     0.211 HD
ENDBRANCH  28  33
BRANCH  30  35
ATOM     35  O   UNL     1     -32.145   7.144  78.871  1.00  0.00    -0.387 OA
ATOM     36  H   UNL     1     -31.996   6.183  79.083  1.00  0.00     0.211 HD
ENDBRANCH  30  35
BRANCH  31  37
ATOM     37  C   UNL     1     -35.921  10.119  77.664  1.00  0.00     0.191 C 
BRANCH  37  38
ATOM     38  O   UNL     1     -36.129   9.887  76.297  1.00  0.00    -0.394 OA
ATOM     39  H   UNL     1     -36.061  10.772  75.856  1.00  0.00     0.210 HD
ENDBRANCH  37  38
ENDBRANCH  31  37
BRANCH  32  40
ATOM     40  O   UNL     1     -33.527   8.550  76.921  1.00  0.00    -0.387 OA
ATOM     41  H   UNL     1     -32.563   8.315  76.914  1.00  0.00     0.211 HD
ENDBRANCH  32  40
ENDBRANCH   1  27
TORSDOF 12
ENDMDL
MODEL 6
REMARK VINA RESULT:    -6.255      2.275      6.849
REMARK INTER + INTRA:         -10.301
REMARK INTER:                  -9.346
REMARK INTRA:                  -0.955
REMARK UNBOUND:                -1.120
REMARK SMILES O=c1c(O[C@H]2O[C@H](CO)[C@H](O)[C@H](O)[C@H]2O)c(-c2ccc(O)c(O)c2)oc2cc(O)cc(O)c12
REMARK SMILES IDX 4 1 3 2 16 3 25 4 2 5 26 6 1 7 33 8 27 9 31 10 28 11 30 12
REMARK SMILES IDX 17 13 18 14 19 15 20 16 24 17 22 18 21 19 23 21 32 23 29 25
REMARK SMILES IDX 5 27 14 28 6 29 12 30 7 31 10 32 15 33 13 35 8 37 9 38 11 40
REMARK H PARENT 21 20 23 22 32 24 29 26 15 34 13 36 9 39 11 41
REMARK Flexibility Score: inf
ROOT
ATOM      1  O   UNL     1     -36.882   6.122  79.238  1.00  0.00    -0.454 OA
ENDROOT
BRANCH   1   2
ATOM      2  C   UNL     1     -37.967   5.455  79.829  1.00  0.00     0.214 A 
ATOM      3  C   UNL     1     -39.299   5.852  79.598  1.00  0.00     0.180 A 
ATOM      4  O   UNL     1     -40.286   5.267  80.267  1.00  0.00    -0.452 OA
ATOM      5  C   UNL     1     -37.726   4.365  80.675  1.00  0.00     0.239 A 
ATOM      6  C   UNL     1     -40.096   4.281  81.137  1.00  0.00     0.146 A 
ATOM      7  O   UNL     1     -36.555   3.909  80.749  1.00  0.00    -0.285 OA
ATOM      8  C   UNL     1     -38.793   3.783  81.402  1.00  0.00     0.111 A 
ATOM      9  C   UNL     1     -41.211   3.727  81.771  1.00  0.00     0.094 A 
ATOM     10  C   UNL     1     -38.647   2.730  82.357  1.00  0.00     0.134 A 
ATOM     11  C   UNL     1     -41.061   2.662  82.661  1.00  0.00     0.123 A 
ATOM     12  C   UNL     1     -39.788   2.167  82.943  1.00  0.00     0.093 A 
BRANCH   3  13
ATOM     13  C   UNL     1     -39.660   6.872  78.590  1.00  0.00     0.025 A 
ATOM     14  C   UNL     1     -40.537   7.922  78.911  1.00  0.00     0.016 A 
ATOM     15  C   UNL     1     -40.841   8.904  77.963  1.00  0.00     0.051 A 
ATOM     16  C   UNL     1     -40.270   8.855  76.687  1.00  0.00     0.157 A 
ATOM     17  C   UNL     1     -39.068   6.837  77.316  1.00  0.00     0.062 A 
ATOM     18  C   UNL     1     -39.376   7.818  76.361  1.00  0.00     0.158 A 
BRANCH  16  19
ATOM     19  O   UNL     1     -40.596   9.845  75.760  1.00  0.00    -0.504 OA
ATOM     20  H   UNL     1     -40.799  10.799  76.041  1.00  0.00     0.293 HD
ENDBRANCH  16  19
BRANCH  18  21
ATOM     21  O   UNL     1     -38.797   7.768  75.092  1.00  0.00    -0.504 OA
ATOM     22  H   UNL     1     -38.792   6.914  74.543  1.00  0.00     0.293 HD
ENDBRANCH  18  21
ENDBRANCH   3  13
BRANCH  10  23
ATOM     23  O   UNL     1     -37.413   2.227  82.785  1.00  0.00    -0.507 OA
ATOM     24  H   UNL     1     -37.242   1.815  83.689  1.00  0.00     0.293 HD
ENDBRANCH  10  23
BRANCH  11  25
ATOM     25  O   UNL     1     -42.171   2.091  83.280  1.00  0.00    -0.508 OA
ATOM     26  H   UNL     1     -43.034   2.610  83.405  1.00  0.00     0.293 HD
ENDBRANCH  11  25
ENDBRANCH   1   2
BRANCH   1  27
ATOM     27  C   UNL     1     -36.327   7.323  79.794  1.00  0.00     0.339 C 
ATOM     28  C   UNL     1     -35.409   8.041  78.779  1.00  0.00     0.214 C 
ATOM     29  O   UNL     1     -35.653   7.056  81.018  1.00  0.00    -0.332 OA
ATOM     30  C   UNL     1     -34.100   7.256  78.571  1.00  0.00     0.180 C 
ATOM     31  C   UNL     1     -34.513   6.233  80.820  1.00  0.00     0.179 C 
ATOM     32  C   UNL     1     -33.462   6.939  79.935  1.00  0.00     0.177 C 
BRANCH  28  33
ATOM     33  O   UNL     1     -36.069   8.193  77.547  1.00  0.00    -0.384 OA
ATOM     34  H   UNL     1     -35.616   8.937  77.071  1.00  0.00     0.211 HD
ENDBRANCH  28  33
BRANCH  30  35
ATOM     35  O   UNL     1     -33.200   8.001  77.791  1.00  0.00    -0.387 OA
ATOM     36  H   UNL     1     -33.548   7.990  76.860  1.00  0.00     0.211 HD
ENDBRANCH  30  35
BRANCH  31  37
ATOM     37  C   UNL     1     -33.938   5.828  82.185  1.00  0.00     0.191 C 
BRANCH  37  38
ATOM     38  O   UNL     1     -33.866   4.433  82.301  1.00  0.00    -0.394 OA
ATOM     39  H   UNL     1     -33.847   4.083  81.373  1.00  0.00     0.210 HD
ENDBRANCH  37  38
ENDBRANCH  31  37
BRANCH  32  40
ATOM     40  O   UNL     1     -33.024   8.122  80.557  1.00  0.00    -0.387 OA
ATOM     41  H   UNL     1     -32.116   7.943  80.914  1.00  0.00     0.211 HD
ENDBRANCH  32  40
ENDBRANCH   1  27
TORSDOF 12
ENDMDL
MODEL 7
REMARK VINA RESULT:    -6.176      2.951      5.815
REMARK INTER + INTRA:         -10.184
REMARK INTER:                  -9.581
REMARK INTRA:                  -0.603
REMARK UNBOUND:                -1.120
REMARK SMILES O=c1c(O[C@H]2O[C@H](CO)[C@H](O)[C@H](O)[C@H]2O)c(-c2ccc(O)c(O)c2)oc2cc(O)cc(O)c12
REMARK SMILES IDX 4 1 3 2 16 3 25 4 2 5 26 6 1 7 33 8 27 9 31 10 28 11 30 12
REMARK SMILES IDX 17 13 18 14 19 15 20 16 24 17 22 18 21 19 23 21 32 23 29 25
REMARK SMILES IDX 5 27 14 28 6 29 12 30 7 31 10 32 15 33 13 35 8 37 9 38 11 40
REMARK H PARENT 21 20 23 22 32 24 29 26 15 34 13 36 9 39 11 41
REMARK Flexibility Score: inf
ROOT
ATOM      1  O   UNL     1     -38.905   7.341  79.157  1.00  0.00    -0.454 OA
ENDROOT
BRANCH   1   2
ATOM      2  C   UNL     1     -38.003   6.469  79.789  1.00  0.00     0.214 A 
ATOM      3  C   UNL     1     -38.290   5.100  79.962  1.00  0.00     0.180 A 
ATOM      4  O   UNL     1     -37.461   4.339  80.667  1.00  0.00    -0.452 OA
ATOM      5  C   UNL     1     -36.784   6.969  80.265  1.00  0.00     0.239 A 
ATOM      6  C   UNL     1     -36.331   4.788  81.203  1.00  0.00     0.146 A 
ATOM      7  O   UNL     1     -36.459   8.146  79.963  1.00  0.00    -0.285 OA
ATOM      8  C   UNL     1     -35.936   6.143  81.042  1.00  0.00     0.111 A 
ATOM      9  C   UNL     1     -35.525   3.892  81.909  1.00  0.00     0.094 A 
ATOM     10  C   UNL     1     -34.717   6.574  81.651  1.00  0.00     0.134 A 
ATOM     11  C   UNL     1     -34.310   4.313  82.453  1.00  0.00     0.123 A 
ATOM     12  C   UNL     1     -33.911   5.642  82.316  1.00  0.00     0.093 A 
BRANCH   3  13
ATOM     13  C   UNL     1     -39.465   4.450  79.343  1.00  0.00     0.025 A 
ATOM     14  C   UNL     1     -39.427   4.021  78.005  1.00  0.00     0.016 A 
ATOM     15  C   UNL     1     -40.529   3.372  77.440  1.00  0.00     0.051 A 
ATOM     16  C   UNL     1     -41.679   3.137  78.203  1.00  0.00     0.157 A 
ATOM     17  C   UNL     1     -40.610   4.193  80.115  1.00  0.00     0.062 A 
ATOM     18  C   UNL     1     -41.719   3.547  79.548  1.00  0.00     0.158 A 
BRANCH  16  19
ATOM     19  O   UNL     1     -42.764   2.492  77.611  1.00  0.00    -0.504 OA
ATOM     20  H   UNL     1     -42.812   1.482  77.531  1.00  0.00     0.293 HD
ENDBRANCH  16  19
BRANCH  18  21
ATOM     21  O   UNL     1     -42.860   3.308  80.317  1.00  0.00    -0.504 OA
ATOM     22  H   UNL     1     -42.874   2.598  81.042  1.00  0.00     0.293 HD
ENDBRANCH  18  21
ENDBRANCH   3  13
BRANCH  10  23
ATOM     23  O   UNL     1     -34.273   7.901  81.658  1.00  0.00    -0.507 OA
ATOM     24  H   UNL     1     -33.430   8.223  82.109  1.00  0.00     0.293 HD
ENDBRANCH  10  23
BRANCH  11  25
ATOM     25  O   UNL     1     -33.492   3.418  83.141  1.00  0.00    -0.508 OA
ATOM     26  H   UNL     1     -33.590   3.270  84.140  1.00  0.00     0.293 HD
ENDBRANCH  11  25
ENDBRANCH   1   2
BRANCH   1  27
ATOM     27  C   UNL     1     -39.263   7.202  77.774  1.00  0.00     0.339 C 
ATOM     28  C   UNL     1     -38.161   7.766  76.848  1.00  0.00     0.214 C 
ATOM     29  O   UNL     1     -40.528   7.796  77.511  1.00  0.00    -0.332 OA
ATOM     30  C   UNL     1     -38.115   9.303  76.922  1.00  0.00     0.180 C 
ATOM     31  C   UNL     1     -40.495   9.205  77.699  1.00  0.00     0.179 C 
ATOM     32  C   UNL     1     -39.526   9.877  76.701  1.00  0.00     0.177 C 
BRANCH  28  33
ATOM     33  O   UNL     1     -36.908   7.238  77.205  1.00  0.00    -0.384 OA
ATOM     34  H   UNL     1     -37.028   6.789  78.082  1.00  0.00     0.211 HD
ENDBRANCH  28  33
BRANCH  30  35
ATOM     35  O   UNL     1     -37.241   9.815  75.950  1.00  0.00    -0.387 OA
ATOM     36  H   UNL     1     -37.756   9.871  75.101  1.00  0.00     0.211 HD
ENDBRANCH  30  35
BRANCH  31  37
ATOM     37  C   UNL     1     -41.921   9.764  77.584  1.00  0.00     0.191 C 
BRANCH  37  38
ATOM     38  O   UNL     1     -42.478   9.449  76.337  1.00  0.00    -0.394 OA
ATOM     39  H   UNL     1     -42.143   8.544  76.108  1.00  0.00     0.210 HD
ENDBRANCH  37  38
ENDBRANCH  31  37
BRANCH  32  40
ATOM     40  O   UNL     1     -39.950   9.638  75.382  1.00  0.00    -0.387 OA
ATOM     41  H   UNL     1     -40.367  10.477  75.054  1.00  0.00     0.211 HD
ENDBRANCH  32  40
ENDBRANCH   1  27
TORSDOF 12
ENDMDL
MODEL 8
REMARK VINA RESULT:    -6.093      2.347      4.363
REMARK INTER + INTRA:         -10.063
REMARK INTER:                  -8.858
REMARK INTRA:                  -1.205
REMARK UNBOUND:                -1.120
REMARK SMILES O=c1c(O[C@H]2O[C@H](CO)[C@H](O)[C@H](O)[C@H]2O)c(-c2ccc(O)c(O)c2)oc2cc(O)cc(O)c12
REMARK SMILES IDX 4 1 3 2 16 3 25 4 2 5 26 6 1 7 33 8 27 9 31 10 28 11 30 12
REMARK SMILES IDX 17 13 18 14 19 15 20 16 24 17 22 18 21 19 23 21 32 23 29 25
REMARK SMILES IDX 5 27 14 28 6 29 12 30 7 31 10 32 15 33 13 35 8 37 9 38 11 40
REMARK H PARENT 21 20 23 22 32 24 29 26 15 34 13 36 9 39 11 41
REMARK Flexibility Score: inf
ROOT
ATOM      1  O   UNL     1     -38.504   4.581  80.145  1.00  0.00    -0.454 OA
ENDROOT
BRANCH   1   2
ATOM      2  C   UNL     1     -37.417   5.340  80.608  1.00  0.00     0.214 A 
ATOM      3  C   UNL     1     -36.961   6.483  79.921  1.00  0.00     0.180 A 
ATOM      4  O   UNL     1     -35.860   7.101  80.330  1.00  0.00    -0.452 OA
ATOM      5  C   UNL     1     -36.761   4.955  81.785  1.00  0.00     0.239 A 
ATOM      6  C   UNL     1     -35.162   6.724  81.396  1.00  0.00     0.146 A 
ATOM      7  O   UNL     1     -37.269   4.040  82.484  1.00  0.00    -0.285 OA
ATOM      8  C   UNL     1     -35.569   5.612  82.179  1.00  0.00     0.111 A 
ATOM      9  C   UNL     1     -34.028   7.462  81.746  1.00  0.00     0.094 A 
ATOM     10  C   UNL     1     -34.774   5.243  83.306  1.00  0.00     0.134 A 
ATOM     11  C   UNL     1     -33.289   7.125  82.882  1.00  0.00     0.123 A 
ATOM     12  C   UNL     1     -33.668   6.028  83.656  1.00  0.00     0.093 A 
BRANCH   3  13
ATOM     13  C   UNL     1     -37.693   7.064  78.775  1.00  0.00     0.025 A 
ATOM     14  C   UNL     1     -37.614   6.480  77.499  1.00  0.00     0.016 A 
ATOM     15  C   UNL     1     -38.341   7.014  76.431  1.00  0.00     0.051 A 
ATOM     16  C   UNL     1     -39.160   8.133  76.623  1.00  0.00     0.157 A 
ATOM     17  C   UNL     1     -38.533   8.173  78.972  1.00  0.00     0.062 A 
ATOM     18  C   UNL     1     -39.259   8.714  77.899  1.00  0.00     0.158 A 
BRANCH  16  19
ATOM     19  O   UNL     1     -39.869   8.646  75.537  1.00  0.00    -0.504 OA
ATOM     20  H   UNL     1     -39.485   8.653  74.598  1.00  0.00     0.293 HD
ENDBRANCH  16  19
BRANCH  18  21
ATOM     21  O   UNL     1     -40.080   9.825  78.099  1.00  0.00    -0.504 OA
ATOM     22  H   UNL     1     -41.043   9.727  78.408  1.00  0.00     0.293 HD
ENDBRANCH  18  21
ENDBRANCH   3  13
BRANCH  10  23
ATOM     23  O   UNL     1     -35.006   4.108  84.091  1.00  0.00    -0.507 OA
ATOM     24  H   UNL     1     -34.790   4.034  85.073  1.00  0.00     0.293 HD
ENDBRANCH  10  23
BRANCH  11  25
ATOM     25  O   UNL     1     -32.169   7.869  83.247  1.00  0.00    -0.508 OA
ATOM     26  H   UNL     1     -31.245   7.646  82.894  1.00  0.00     0.293 HD
ENDBRANCH  11  25
ENDBRANCH   1   2
BRANCH   1  27
ATOM     27  C   UNL     1     -39.850   5.077  80.172  1.00  0.00     0.339 C 
ATOM     28  C   UNL     1     -40.621   4.546  81.403  1.00  0.00     0.214 C 
ATOM     29  O   UNL     1     -40.529   4.780  78.957  1.00  0.00    -0.332 OA
ATOM     30  C   UNL     1     -40.929   3.045  81.253  1.00  0.00     0.180 C 
ATOM     31  C   UNL     1     -40.700   3.381  78.781  1.00  0.00     0.179 C 
ATOM     32  C   UNL     1     -41.595   2.785  79.890  1.00  0.00     0.177 C 
BRANCH  28  33
ATOM     33  O   UNL     1     -39.874   4.760  82.575  1.00  0.00    -0.384 OA
ATOM     34  H   UNL     1     -38.958   5.010  82.286  1.00  0.00     0.211 HD
ENDBRANCH  28  33
BRANCH  30  35
ATOM     35  O   UNL     1     -41.781   2.614  82.283  1.00  0.00    -0.387 OA
ATOM     36  H   UNL     1     -41.675   3.259  83.033  1.00  0.00     0.211 HD
ENDBRANCH  30  35
BRANCH  31  37
ATOM     37  C   UNL     1     -41.266   3.114  77.378  1.00  0.00     0.191 C 
BRANCH  37  38
ATOM     38  O   UNL     1     -42.372   2.255  77.444  1.00  0.00    -0.394 OA
ATOM     39  H   UNL     1     -42.471   1.866  76.538  1.00  0.00     0.210 HD
ENDBRANCH  37  38
ENDBRANCH  31  37
BRANCH  32  40
ATOM     40  O   UNL     1     -42.871   3.374  79.849  1.00  0.00    -0.387 OA
ATOM     41  H   UNL     1     -43.200   3.421  80.784  1.00  0.00     0.211 HD
ENDBRANCH  32  40
ENDBRANCH   1  27
TORSDOF 12
ENDMDL
MODEL 9
REMARK VINA RESULT:    -6.042      2.660      7.606
REMARK INTER + INTRA:          -9.987
REMARK INTER:                  -8.872
REMARK INTRA:                  -1.115
REMARK UNBOUND:                -1.120
REMARK SMILES O=c1c(O[C@H]2O[C@H](CO)[C@H](O)[C@H](O)[C@H]2O)c(-c2ccc(O)c(O)c2)oc2cc(O)cc(O)c12
REMARK SMILES IDX 4 1 3 2 16 3 25 4 2 5 26 6 1 7 33 8 27 9 31 10 28 11 30 12
REMARK SMILES IDX 17 13 18 14 19 15 20 16 24 17 22 18 21 19 23 21 32 23 29 25
REMARK SMILES IDX 5 27 14 28 6 29 12 30 7 31 10 32 15 33 13 35 8 37 9 38 11 40
REMARK H PARENT 21 20 23 22 32 24 29 26 15 34 13 36 9 39 11 41
REMARK Flexibility Score: inf
ROOT
ATOM      1  O   UNL     1     -38.415   6.693  79.218  1.00  0.00    -0.454 OA
ENDROOT
BRANCH   1   2
ATOM      2  C   UNL     1     -38.379   5.618  80.121  1.00  0.00     0.214 A 
ATOM      3  C   UNL     1     -37.169   4.996  80.489  1.00  0.00     0.180 A 
ATOM      4  O   UNL     1     -37.194   3.911  81.254  1.00  0.00    -0.452 OA
ATOM      5  C   UNL     1     -39.576   5.144  80.673  1.00  0.00     0.239 A 
ATOM      6  C   UNL     1     -38.312   3.381  81.737  1.00  0.00     0.146 A 
ATOM      7  O   UNL     1     -40.631   5.802  80.475  1.00  0.00    -0.285 OA
ATOM      8  C   UNL     1     -39.576   3.965  81.458  1.00  0.00     0.111 A 
ATOM      9  C   UNL     1     -38.217   2.247  82.549  1.00  0.00     0.094 A 
ATOM     10  C   UNL     1     -40.747   3.345  81.993  1.00  0.00     0.134 A 
ATOM     11  C   UNL     1     -39.364   1.683  83.110  1.00  0.00     0.123 A 
ATOM     12  C   UNL     1     -40.615   2.236  82.837  1.00  0.00     0.093 A 
BRANCH   3  13
ATOM     13  C   UNL     1     -35.849   5.534  80.098  1.00  0.00     0.025 A 
ATOM     14  C   UNL     1     -34.954   4.763  79.336  1.00  0.00     0.016 A 
ATOM     15  C   UNL     1     -33.725   5.295  78.938  1.00  0.00     0.051 A 
ATOM     16  C   UNL     1     -33.374   6.604  79.289  1.00  0.00     0.157 A 
ATOM     17  C   UNL     1     -35.506   6.856  80.430  1.00  0.00     0.062 A 
ATOM     18  C   UNL     1     -34.269   7.390  80.036  1.00  0.00     0.158 A 
BRANCH  16  19
ATOM     19  O   UNL     1     -32.138   7.106  78.882  1.00  0.00    -0.504 OA
ATOM     20  H   UNL     1     -31.271   6.837  79.336  1.00  0.00     0.293 HD
ENDBRANCH  16  19
BRANCH  18  21
ATOM     21  O   UNL     1     -33.929   8.699  80.383  1.00  0.00    -0.504 OA
ATOM     22  H   UNL     1     -32.961   8.986  80.489  1.00  0.00     0.293 HD
ENDBRANCH  18  21
ENDBRANCH   3  13
BRANCH  10  23
ATOM     23  O   UNL     1     -42.052   3.758  81.703  1.00  0.00    -0.507 OA
ATOM     24  H   UNL     1     -42.832   3.136  81.555  1.00  0.00     0.293 HD
ENDBRANCH  10  23
BRANCH  11  25
ATOM     25  O   UNL     1     -39.274   0.565  83.937  1.00  0.00    -0.508 OA
ATOM     26  H   UNL     1     -39.529   0.608  84.918  1.00  0.00     0.293 HD
ENDBRANCH  11  25
ENDBRANCH   1   2
BRANCH   1  27
ATOM     27  C   UNL     1     -38.945   6.562  77.892  1.00  0.00     0.339 C 
ATOM     28  C   UNL     1     -38.009   7.206  76.844  1.00  0.00     0.214 C 
ATOM     29  O   UNL     1     -40.265   7.088  77.815  1.00  0.00    -0.332 OA
ATOM     30  C   UNL     1     -38.037   8.742  76.954  1.00  0.00     0.180 C 
ATOM     31  C   UNL     1     -40.283   8.492  78.035  1.00  0.00     0.179 C 
ATOM     32  C   UNL     1     -39.494   9.238  76.937  1.00  0.00     0.177 C 
BRANCH  28  33
ATOM     33  O   UNL     1     -36.693   6.744  77.017  1.00  0.00    -0.384 OA
ATOM     34  H   UNL     1     -36.164   7.513  77.355  1.00  0.00     0.211 HD
ENDBRANCH  28  33
BRANCH  30  35
ATOM     35  O   UNL     1     -37.330   9.323  75.888  1.00  0.00    -0.387 OA
ATOM     36  H   UNL     1     -36.489   9.692  76.269  1.00  0.00     0.211 HD
ENDBRANCH  30  35
BRANCH  31  37
ATOM     37  C   UNL     1     -41.740   8.971  78.125  1.00  0.00     0.191 C 
BRANCH  37  38
ATOM     38  O   UNL     1     -41.936  10.114  77.338  1.00  0.00    -0.394 OA
ATOM     39  H   UNL     1     -41.532   9.911  76.455  1.00  0.00     0.210 HD
ENDBRANCH  37  38
ENDBRANCH  31  37
BRANCH  32  40
ATOM     40  O   UNL     1     -40.077   9.001  75.679  1.00  0.00    -0.387 OA
ATOM     41  H   UNL     1     -39.334   8.860  75.036  1.00  0.00     0.211 HD
ENDBRANCH  32  40
ENDBRANCH   1  27
TORSDOF 12
ENDMDL
