MODEL 1
REMARK VINA RESULT:    -6.079      0.000      0.000
REMARK INTER + INTRA:         -20.273
REMARK INTER:                 -16.031
REMARK INTRA:                  -4.243
REMARK UNBOUND:                -4.243
REMARK SMILES CCCCCCCCCCCCCCCCCCCCCCCCCCCCCC(=O)[O-]
REMARK SMILES IDX 16 1 17 2 18 3 19 4 20 5 21 6 22 7 23 8 24 9 25 10 26 11
REMARK SMILES IDX 27 12 28 13 29 14 30 15 31 16 32 17 15 18 14 19 13 20 12 21
REMARK SMILES IDX 11 22 10 23 9 24 8 25 7 26 6 27 5 28 4 29 3 30 2 31 1 32
REMARK H PARENT
REMARK Flexibility Score: inf
ROOT
ATOM      1  C   UNL     1       4.035   9.080   8.272  1.00  0.00     0.000 C 
ENDROOT
BRANCH   1   2
ATOM      2  C   UNL     1       4.136   7.566   8.014  1.00  0.00     0.000 C 
BRANCH   2   3
ATOM      3  C   UNL     1       4.039   6.745   9.318  1.00  0.00     0.000 C 
BRANCH   3   4
ATOM      4  C   UNL     1       3.055   5.565   9.241  1.00  0.00     0.000 C 
BRANCH   4   5
ATOM      5  C   UNL     1       2.440   5.387   7.846  1.00  0.00     0.000 C 
BRANCH   5   6
ATOM      6  C   UNL     1       2.900   4.068   7.211  1.00  0.00     0.000 C 
BRANCH   6   7
ATOM      7  C   UNL     1       4.278   3.648   7.747  1.00  0.00     0.000 C 
BRANCH   7   8
ATOM      8  C   UNL     1       5.441   4.317   6.990  1.00  0.00     0.000 C 
BRANCH   8   9
ATOM      9  C   UNL     1       6.837   4.037   7.577  1.00  0.00     0.000 C 
BRANCH   9  10
ATOM     10  C   UNL     1       7.266   5.085   8.618  1.00  0.00     0.000 C 
BRANCH  10  11
ATOM     11  C   UNL     1       8.767   5.436   8.509  1.00  0.00     0.000 C 
BRANCH  11  12
ATOM     12  C   UNL     1       9.053   6.715   7.699  1.00  0.00     0.000 C 
BRANCH  12  13
ATOM     13  C   UNL     1       7.803   7.456   7.194  1.00  0.00     0.006 C 
BRANCH  13  14
ATOM     14  C   UNL     1       7.941   7.937   5.741  1.00  0.00     0.053 C 
BRANCH  14  15
ATOM     15  C   UNL     1       6.609   7.942   5.060  1.00  0.00     0.041 C 
ATOM     16  O   UNL     1       6.072   6.856   4.713  1.00  0.00    -0.550 OA
ATOM     17  O   UNL     1       5.970   9.145   4.788  1.00  0.00    -0.550 OA
ENDBRANCH  14  15
ENDBRANCH  13  14
ENDBRANCH  12  13
ENDBRANCH  11  12
ENDBRANCH  10  11
ENDBRANCH   9  10
ENDBRANCH   8   9
ENDBRANCH   7   8
ENDBRANCH   6   7
ENDBRANCH   5   6
ENDBRANCH   4   5
ENDBRANCH   3   4
ENDBRANCH   2   3
ENDBRANCH   1   2
BRANCH   1  18
ATOM     18  C   UNL     1       2.586   9.545   8.490  1.00  0.00     0.000 C 
BRANCH  18  19
ATOM     19  C   UNL     1       2.199   9.579   9.980  1.00  0.00     0.000 C 
BRANCH  19  20
ATOM     20  C   UNL     1       0.898   8.799  10.268  1.00  0.00     0.000 C 
BRANCH  20  21
ATOM     21  C   UNL     1       0.352   8.041   9.045  1.00  0.00     0.000 C 
BRANCH  21  22
ATOM     22  C   UNL     1      -0.949   7.258   9.303  1.00  0.00     0.000 C 
BRANCH  22  23
ATOM     23  C   UNL     1      -0.900   5.763   8.921  1.00  0.00     0.000 C 
BRANCH  23  24
ATOM     24  C   UNL     1      -0.676   4.794  10.096  1.00  0.00    -0.000 C 
BRANCH  24  25
ATOM     25  C   UNL     1      -0.944   5.439  11.463  1.00  0.00    -0.000 C 
BRANCH  25  26
ATOM     26  C   UNL     1       0.373   5.769  12.183  1.00  0.00    -0.000 C 
BRANCH  26  27
ATOM     27  C   UNL     1       0.231   6.946  13.161  1.00  0.00    -0.000 C 
BRANCH  27  28
ATOM     28  C   UNL     1       1.513   7.195  13.975  1.00  0.00    -0.000 C 
BRANCH  28  29
ATOM     29  C   UNL     1       2.204   8.514  13.597  1.00  0.00    -0.000 C 
BRANCH  29  30
ATOM     30  C   UNL     1       3.132   9.032  14.711  1.00  0.00    -0.000 C 
BRANCH  30  31
ATOM     31  C   UNL     1       3.739  10.405  14.380  1.00  0.00    -0.003 C 
ATOM     32  C   UNL     1       5.121  10.601  15.003  1.00  0.00     0.004 C 
ENDBRANCH  30  31
ENDBRANCH  29  30
ENDBRANCH  28  29
ENDBRANCH  27  28
ENDBRANCH  26  27
ENDBRANCH  25  26
ENDBRANCH  24  25
ENDBRANCH  23  24
ENDBRANCH  22  23
ENDBRANCH  21  22
ENDBRANCH  20  21
ENDBRANCH  19  20
ENDBRANCH  18  19
ENDBRANCH   1  18
TORSDOF 28
ENDMDL
MODEL 2
REMARK VINA RESULT:    -6.078      2.790      7.939
REMARK INTER + INTRA:         -20.270
REMARK INTER:                 -15.608
REMARK INTRA:                  -4.663
REMARK UNBOUND:                -4.243
REMARK SMILES CCCCCCCCCCCCCCCCCCCCCCCCCCCCCC(=O)[O-]
REMARK SMILES IDX 16 1 17 2 18 3 19 4 20 5 21 6 22 7 23 8 24 9 25 10 26 11
REMARK SMILES IDX 27 12 28 13 29 14 30 15 31 16 32 17 15 18 14 19 13 20 12 21
REMARK SMILES IDX 11 22 10 23 9 24 8 25 7 26 6 27 5 28 4 29 3 30 2 31 1 32
REMARK H PARENT
REMARK Flexibility Score: inf
ROOT
ATOM      1  C   UNL     1       4.581   8.766   8.288  1.00  0.00     0.000 C 
ENDROOT
BRANCH   1   2
ATOM      2  C   UNL     1       3.680   9.487   7.271  1.00  0.00     0.000 C 
BRANCH   2   3
ATOM      3  C   UNL     1       2.379  10.013   7.916  1.00  0.00     0.000 C 
BRANCH   3   4
ATOM      4  C   UNL     1       2.386   9.978   9.454  1.00  0.00     0.000 C 
BRANCH   4   5
ATOM      5  C   UNL     1       1.354   9.004  10.037  1.00  0.00     0.000 C 
BRANCH   5   6
ATOM      6  C   UNL     1       0.814   8.064   8.950  1.00  0.00     0.000 C 
BRANCH   6   7
ATOM      7  C   UNL     1      -0.651   7.687   9.226  1.00  0.00     0.000 C 
BRANCH   7   8
ATOM      8  C   UNL     1      -1.006   6.273   8.727  1.00  0.00     0.000 C 
BRANCH   8   9
ATOM      9  C   UNL     1      -0.255   5.133   9.439  1.00  0.00     0.000 C 
BRANCH   9  10
ATOM     10  C   UNL     1      -1.010   4.598  10.667  1.00  0.00     0.000 C 
BRANCH  10  11
ATOM     11  C   UNL     1      -0.928   5.563  11.870  1.00  0.00     0.000 C 
BRANCH  11  12
ATOM     12  C   UNL     1       0.480   6.139  12.114  1.00  0.00     0.000 C 
BRANCH  12  13
ATOM     13  C   UNL     1       0.585   7.119  13.295  1.00  0.00     0.006 C 
BRANCH  13  14
ATOM     14  C   UNL     1       1.772   8.085  13.165  1.00  0.00     0.053 C 
BRANCH  14  15
ATOM     15  C   UNL     1       2.508   8.192  14.463  1.00  0.00     0.041 C 
ATOM     16  O   UNL     1       3.252   9.184  14.690  1.00  0.00    -0.550 OA
ATOM     17  O   UNL     1       2.390   7.187  15.415  1.00  0.00    -0.550 OA
ENDBRANCH  14  15
ENDBRANCH  13  14
ENDBRANCH  12  13
ENDBRANCH  11  12
ENDBRANCH  10  11
ENDBRANCH   9  10
ENDBRANCH   8   9
ENDBRANCH   7   8
ENDBRANCH   6   7
ENDBRANCH   5   6
ENDBRANCH   4   5
ENDBRANCH   3   4
ENDBRANCH   2   3
ENDBRANCH   1   2
BRANCH   1  18
ATOM     18  C   UNL     1       4.456   7.236   8.207  1.00  0.00     0.000 C 
BRANCH  18  19
ATOM     19  C   UNL     1       3.941   6.620   9.521  1.00  0.00     0.000 C 
BRANCH  19  20
ATOM     20  C   UNL     1       3.194   5.288   9.295  1.00  0.00     0.000 C 
BRANCH  20  21
ATOM     21  C   UNL     1       2.944   4.969   7.810  1.00  0.00     0.000 C 
BRANCH  21  22
ATOM     22  C   UNL     1       3.755   3.779   7.264  1.00  0.00     0.000 C 
BRANCH  22  23
ATOM     23  C   UNL     1       5.069   3.482   8.017  1.00  0.00     0.000 C 
BRANCH  23  24
ATOM     24  C   UNL     1       6.335   4.099   7.395  1.00  0.00    -0.000 C 
BRANCH  24  25
ATOM     25  C   UNL     1       7.048   5.077   8.339  1.00  0.00    -0.000 C 
BRANCH  25  26
ATOM     26  C   UNL     1       8.547   5.161   8.012  1.00  0.00    -0.000 C 
BRANCH  26  27
ATOM     27  C   UNL     1       9.050   6.611   7.918  1.00  0.00    -0.000 C 
BRANCH  27  28
ATOM     28  C   UNL     1       8.014   7.555   7.284  1.00  0.00    -0.000 C 
BRANCH  28  29
ATOM     29  C   UNL     1       8.270   7.790   5.787  1.00  0.00    -0.000 C 
BRANCH  29  30
ATOM     30  C   UNL     1       7.077   8.465   5.086  1.00  0.00    -0.000 C 
BRANCH  30  31
ATOM     31  C   UNL     1       5.839   7.556   5.025  1.00  0.00    -0.003 C 
ATOM     32  C   UNL     1       6.121   6.224   4.331  1.00  0.00     0.004 C 
ENDBRANCH  30  31
ENDBRANCH  29  30
ENDBRANCH  28  29
ENDBRANCH  27  28
ENDBRANCH  26  27
ENDBRANCH  25  26
ENDBRANCH  24  25
ENDBRANCH  23  24
ENDBRANCH  22  23
ENDBRANCH  21  22
ENDBRANCH  20  21
ENDBRANCH  19  20
ENDBRANCH  18  19
ENDBRANCH   1  18
TORSDOF 28
ENDMDL
MODEL 3
REMARK VINA RESULT:    -5.988      1.769      7.270
REMARK INTER + INTRA:         -20.033
REMARK INTER:                 -15.554
REMARK INTRA:                  -4.479
REMARK UNBOUND:                -4.243
REMARK SMILES CCCCCCCCCCCCCCCCCCCCCCCCCCCCCC(=O)[O-]
REMARK SMILES IDX 16 1 17 2 18 3 19 4 20 5 21 6 22 7 23 8 24 9 25 10 26 11
REMARK SMILES IDX 27 12 28 13 29 14 30 15 31 16 32 17 15 18 14 19 13 20 12 21
REMARK SMILES IDX 11 22 10 23 9 24 8 25 7 26 6 27 5 28 4 29 3 30 2 31 1 32
REMARK H PARENT
REMARK Flexibility Score: inf
ROOT
ATOM      1  C   UNL     1       3.052   4.894   9.372  1.00  0.00     0.000 C 
ENDROOT
BRANCH   1   2
ATOM      2  C   UNL     1       1.959   4.902   8.289  1.00  0.00     0.000 C 
BRANCH   2   3
ATOM      3  C   UNL     1       0.544   4.743   8.889  1.00  0.00     0.000 C 
BRANCH   3   4
ATOM      4  C   UNL     1      -0.393   5.927   8.598  1.00  0.00     0.000 C 
BRANCH   4   5
ATOM      5  C   UNL     1      -0.984   6.551   9.870  1.00  0.00     0.000 C 
BRANCH   5   6
ATOM      6  C   UNL     1      -1.298   5.471  10.914  1.00  0.00     0.000 C 
BRANCH   6   7
ATOM      7  C   UNL     1      -0.668   5.818  12.273  1.00  0.00     0.000 C 
BRANCH   7   8
ATOM      8  C   UNL     1       0.747   6.412  12.138  1.00  0.00     0.000 C 
BRANCH   8   9
ATOM      9  C   UNL     1       1.024   7.625  13.046  1.00  0.00     0.000 C 
BRANCH   9  10
ATOM     10  C   UNL     1       1.896   8.693  12.364  1.00  0.00     0.000 C 
BRANCH  10  11
ATOM     11  C   UNL     1       1.141   9.431  11.236  1.00  0.00     0.000 C 
BRANCH  11  12
ATOM     12  C   UNL     1       1.912   9.489   9.903  1.00  0.00     0.000 C 
BRANCH  12  13
ATOM     13  C   UNL     1       2.723   8.225   9.566  1.00  0.00     0.006 C 
BRANCH  13  14
ATOM     14  C   UNL     1       3.956   8.522   8.701  1.00  0.00     0.053 C 
BRANCH  14  15
ATOM     15  C   UNL     1       3.550   9.135   7.398  1.00  0.00     0.041 C 
ATOM     16  O   UNL     1       2.718   8.550   6.655  1.00  0.00    -0.550 OA
ATOM     17  O   UNL     1       4.105  10.343   6.994  1.00  0.00    -0.550 OA
ENDBRANCH  14  15
ENDBRANCH  13  14
ENDBRANCH  12  13
ENDBRANCH  11  12
ENDBRANCH  10  11
ENDBRANCH   9  10
ENDBRANCH   8   9
ENDBRANCH   7   8
ENDBRANCH   6   7
ENDBRANCH   5   6
ENDBRANCH   4   5
ENDBRANCH   3   4
ENDBRANCH   2   3
ENDBRANCH   1   2
BRANCH   1  18
ATOM     18  C   UNL     1       4.470   4.855   8.778  1.00  0.00     0.000 C 
BRANCH  18  19
ATOM     19  C   UNL     1       4.460   4.641   7.253  1.00  0.00     0.000 C 
BRANCH  19  20
ATOM     20  C   UNL     1       5.009   5.862   6.483  1.00  0.00     0.000 C 
BRANCH  20  21
ATOM     21  C   UNL     1       5.803   5.484   5.219  1.00  0.00     0.000 C 
BRANCH  21  22
ATOM     22  C   UNL     1       6.277   6.683   4.377  1.00  0.00     0.000 C 
BRANCH  22  23
ATOM     23  C   UNL     1       6.089   8.064   5.040  1.00  0.00     0.000 C 
BRANCH  23  24
ATOM     24  C   UNL     1       7.382   8.738   5.530  1.00  0.00    -0.000 C 
BRANCH  24  25
ATOM     25  C   UNL     1       8.413   7.735   6.068  1.00  0.00    -0.000 C 
BRANCH  25  26
ATOM     26  C   UNL     1       8.128   7.390   7.538  1.00  0.00    -0.000 C 
BRANCH  26  27
ATOM     27  C   UNL     1       8.952   6.190   8.033  1.00  0.00    -0.000 C 
BRANCH  27  28
ATOM     28  C   UNL     1       8.154   4.875   8.010  1.00  0.00    -0.000 C 
BRANCH  28  29
ATOM     29  C   UNL     1       7.954   4.283   9.414  1.00  0.00    -0.000 C 
BRANCH  29  30
ATOM     30  C   UNL     1       9.078   4.685  10.386  1.00  0.00    -0.000 C 
BRANCH  30  31
ATOM     31  C   UNL     1       8.923   4.031  11.768  1.00  0.00    -0.003 C 
ATOM     32  C   UNL     1       8.640   2.532  11.680  1.00  0.00     0.004 C 
ENDBRANCH  30  31
ENDBRANCH  29  30
ENDBRANCH  28  29
ENDBRANCH  27  28
ENDBRANCH  26  27
ENDBRANCH  25  26
ENDBRANCH  24  25
ENDBRANCH  23  24
ENDBRANCH  22  23
ENDBRANCH  21  22
ENDBRANCH  20  21
ENDBRANCH  19  20
ENDBRANCH  18  19
ENDBRANCH   1  18
TORSDOF 28
ENDMDL
MODEL 4
REMARK VINA RESULT:    -5.966      1.571      3.292
REMARK INTER + INTRA:         -19.974
REMARK INTER:                 -16.343
REMARK INTRA:                  -3.631
REMARK UNBOUND:                -4.243
REMARK SMILES CCCCCCCCCCCCCCCCCCCCCCCCCCCCCC(=O)[O-]
REMARK SMILES IDX 16 1 17 2 18 3 19 4 20 5 21 6 22 7 23 8 24 9 25 10 26 11
REMARK SMILES IDX 27 12 28 13 29 14 30 15 31 16 32 17 15 18 14 19 13 20 12 21
REMARK SMILES IDX 11 22 10 23 9 24 8 25 7 26 6 27 5 28 4 29 3 30 2 31 1 32
REMARK H PARENT
REMARK Flexibility Score: inf
ROOT
ATOM      1  C   UNL     1       2.858   9.447   7.457  1.00  0.00     0.000 C 
ENDROOT
BRANCH   1   2
ATOM      2  C   UNL     1       4.389   9.309   7.416  1.00  0.00     0.000 C 
BRANCH   2   3
ATOM      3  C   UNL     1       4.837   7.848   7.187  1.00  0.00     0.000 C 
BRANCH   3   4
ATOM      4  C   UNL     1       4.688   7.370   5.733  1.00  0.00     0.000 C 
BRANCH   4   5
ATOM      5  C   UNL     1       6.035   7.107   5.047  1.00  0.00     0.000 C 
BRANCH   5   6
ATOM      6  C   UNL     1       6.874   8.391   4.979  1.00  0.00     0.000 C 
BRANCH   6   7
ATOM      7  C   UNL     1       8.221   8.206   5.695  1.00  0.00     0.000 C 
BRANCH   7   8
ATOM      8  C   UNL     1       8.304   6.881   6.477  1.00  0.00     0.000 C 
BRANCH   8   9
ATOM      9  C   UNL     1       8.940   6.997   7.874  1.00  0.00     0.000 C 
BRANCH   9  10
ATOM     10  C   UNL     1       8.778   5.717   8.711  1.00  0.00     0.000 C 
BRANCH  10  11
ATOM     11  C   UNL     1       8.019   4.610   7.946  1.00  0.00     0.000 C 
BRANCH  11  12
ATOM     12  C   UNL     1       6.681   4.206   8.594  1.00  0.00     0.000 C 
BRANCH  12  13
ATOM     13  C   UNL     1       5.479   4.174   7.635  1.00  0.00     0.006 C 
BRANCH  13  14
ATOM     14  C   UNL     1       4.161   4.573   8.317  1.00  0.00     0.053 C 
BRANCH  14  15
ATOM     15  C   UNL     1       2.990   4.131   7.497  1.00  0.00     0.041 C 
ATOM     16  O   UNL     1       2.373   4.961   6.776  1.00  0.00    -0.550 OA
ATOM     17  O   UNL     1       2.565   2.810   7.546  1.00  0.00    -0.550 OA
ENDBRANCH  14  15
ENDBRANCH  13  14
ENDBRANCH  12  13
ENDBRANCH  11  12
ENDBRANCH  10  11
ENDBRANCH   9  10
ENDBRANCH   8   9
ENDBRANCH   7   8
ENDBRANCH   6   7
ENDBRANCH   5   6
ENDBRANCH   4   5
ENDBRANCH   3   4
ENDBRANCH   2   3
ENDBRANCH   1   2
BRANCH   1  18
ATOM     18  C   UNL     1       2.367  10.200   8.704  1.00  0.00     0.000 C 
BRANCH  18  19
ATOM     19  C   UNL     1       2.371   9.314   9.963  1.00  0.00     0.000 C 
BRANCH  19  20
ATOM     20  C   UNL     1       1.694   7.947   9.724  1.00  0.00     0.000 C 
BRANCH  20  21
ATOM     21  C   UNL     1       0.163   8.035   9.589  1.00  0.00     0.000 C 
BRANCH  21  22
ATOM     22  C   UNL     1      -0.479   6.881   8.797  1.00  0.00     0.000 C 
BRANCH  22  23
ATOM     23  C   UNL     1       0.005   5.469   9.190  1.00  0.00     0.000 C 
BRANCH  23  24
ATOM     24  C   UNL     1      -0.913   4.709  10.165  1.00  0.00    -0.000 C 
BRANCH  24  25
ATOM     25  C   UNL     1      -1.147   5.467  11.480  1.00  0.00    -0.000 C 
BRANCH  25  26
ATOM     26  C   UNL     1       0.187   5.815  12.158  1.00  0.00    -0.000 C 
BRANCH  26  27
ATOM     27  C   UNL     1       0.052   6.964  13.170  1.00  0.00    -0.000 C 
BRANCH  27  28
ATOM     28  C   UNL     1       1.339   7.191  13.983  1.00  0.00    -0.000 C 
BRANCH  28  29
ATOM     29  C   UNL     1       2.084   8.467  13.562  1.00  0.00    -0.000 C 
BRANCH  29  30
ATOM     30  C   UNL     1       3.182   8.864  14.565  1.00  0.00    -0.000 C 
BRANCH  30  31
ATOM     31  C   UNL     1       3.712  10.287  14.325  1.00  0.00    -0.003 C 
ATOM     32  C   UNL     1       5.033  10.550  15.046  1.00  0.00     0.004 C 
ENDBRANCH  30  31
ENDBRANCH  29  30
ENDBRANCH  28  29
ENDBRANCH  27  28
ENDBRANCH  26  27
ENDBRANCH  25  26
ENDBRANCH  24  25
ENDBRANCH  23  24
ENDBRANCH  22  23
ENDBRANCH  21  22
ENDBRANCH  20  21
ENDBRANCH  19  20
ENDBRANCH  18  19
ENDBRANCH   1  18
TORSDOF 28
ENDMDL
MODEL 5
REMARK VINA RESULT:    -5.927      2.674      7.852
REMARK INTER + INTRA:         -19.870
REMARK INTER:                 -15.384
REMARK INTRA:                  -4.486
REMARK UNBOUND:                -4.243
REMARK SMILES CCCCCCCCCCCCCCCCCCCCCCCCCCCCCC(=O)[O-]
REMARK SMILES IDX 16 1 17 2 18 3 19 4 20 5 21 6 22 7 23 8 24 9 25 10 26 11
REMARK SMILES IDX 27 12 28 13 29 14 30 15 31 16 32 17 15 18 14 19 13 20 12 21
REMARK SMILES IDX 11 22 10 23 9 24 8 25 7 26 6 27 5 28 4 29 3 30 2 31 1 32
REMARK H PARENT
REMARK Flexibility Score: inf
ROOT
ATOM      1  C   UNL     1       3.105   4.969   9.331  1.00  0.00     0.000 C 
ENDROOT
BRANCH   1   2
ATOM      2  C   UNL     1       2.387   4.167   8.231  1.00  0.00     0.000 C 
BRANCH   2   3
ATOM      3  C   UNL     1       2.119   5.019   6.971  1.00  0.00     0.000 C 
BRANCH   3   4
ATOM      4  C   UNL     1       1.793   6.492   7.271  1.00  0.00     0.000 C 
BRANCH   4   5
ATOM      5  C   UNL     1       2.449   7.465   6.282  1.00  0.00     0.000 C 
BRANCH   5   6
ATOM      6  C   UNL     1       2.825   8.780   6.977  1.00  0.00     0.000 C 
BRANCH   6   7
ATOM      7  C   UNL     1       3.463   8.515   8.351  1.00  0.00     0.000 C 
BRANCH   7   8
ATOM      8  C   UNL     1       2.681   9.165   9.507  1.00  0.00     0.000 C 
BRANCH   8   9
ATOM      9  C   UNL     1       1.953   8.172  10.431  1.00  0.00     0.000 C 
BRANCH   9  10
ATOM     10  C   UNL     1       1.175   8.868  11.560  1.00  0.00     0.000 C 
BRANCH  10  11
ATOM     11  C   UNL     1       1.445   8.226  12.939  1.00  0.00     0.000 C 
BRANCH  11  12
ATOM     12  C   UNL     1       0.768   6.855  13.133  1.00  0.00     0.000 C 
BRANCH  12  13
ATOM     13  C   UNL     1      -0.412   6.574  12.188  1.00  0.00     0.006 C 
BRANCH  13  14
ATOM     14  C   UNL     1      -0.193   5.331  11.313  1.00  0.00     0.053 C 
BRANCH  14  15
ATOM     15  C   UNL     1      -0.801   5.526   9.960  1.00  0.00     0.041 C 
ATOM     16  O   UNL     1      -0.950   4.543   9.186  1.00  0.00    -0.550 OA
ATOM     17  O   UNL     1      -1.182   6.795   9.544  1.00  0.00    -0.550 OA
ENDBRANCH  14  15
ENDBRANCH  13  14
ENDBRANCH  12  13
ENDBRANCH  11  12
ENDBRANCH  10  11
ENDBRANCH   9  10
ENDBRANCH   8   9
ENDBRANCH   7   8
ENDBRANCH   6   7
ENDBRANCH   5   6
ENDBRANCH   4   5
ENDBRANCH   3   4
ENDBRANCH   2   3
ENDBRANCH   1   2
BRANCH   1  18
ATOM     18  C   UNL     1       4.581   5.238   8.998  1.00  0.00     0.000 C 
BRANCH  18  19
ATOM     19  C   UNL     1       5.276   4.008   8.385  1.00  0.00     0.000 C 
BRANCH  19  20
ATOM     20  C   UNL     1       5.891   4.306   7.000  1.00  0.00     0.000 C 
BRANCH  20  21
ATOM     21  C   UNL     1       5.551   5.710   6.467  1.00  0.00     0.000 C 
BRANCH  21  22
ATOM     22  C   UNL     1       5.913   5.941   4.988  1.00  0.00     0.000 C 
BRANCH  22  23
ATOM     23  C   UNL     1       5.712   7.385   4.483  1.00  0.00     0.000 C 
BRANCH  23  24
ATOM     24  C   UNL     1       6.557   8.454   5.199  1.00  0.00    -0.000 C 
BRANCH  24  25
ATOM     25  C   UNL     1       8.001   8.001   5.457  1.00  0.00    -0.000 C 
BRANCH  25  26
ATOM     26  C   UNL     1       8.274   7.867   6.963  1.00  0.00    -0.000 C 
BRANCH  26  27
ATOM     27  C   UNL     1       8.980   6.549   7.320  1.00  0.00    -0.000 C 
BRANCH  27  28
ATOM     28  C   UNL     1       8.999   6.280   8.835  1.00  0.00    -0.000 C 
BRANCH  28  29
ATOM     29  C   UNL     1       8.779   4.797   9.171  1.00  0.00    -0.000 C 
BRANCH  29  30
ATOM     30  C   UNL     1       9.153   4.463  10.627  1.00  0.00    -0.000 C 
BRANCH  30  31
ATOM     31  C   UNL     1       8.393   3.240  11.165  1.00  0.00    -0.003 C 
ATOM     32  C   UNL     1       8.701   2.957  12.635  1.00  0.00     0.004 C 
ENDBRANCH  30  31
ENDBRANCH  29  30
ENDBRANCH  28  29
ENDBRANCH  27  28
ENDBRANCH  26  27
ENDBRANCH  25  26
ENDBRANCH  24  25
ENDBRANCH  23  24
ENDBRANCH  22  23
ENDBRANCH  21  22
ENDBRANCH  20  21
ENDBRANCH  19  20
ENDBRANCH  18  19
ENDBRANCH   1  18
TORSDOF 28
ENDMDL
MODEL 6
REMARK VINA RESULT:    -5.913      2.225      7.307
REMARK INTER + INTRA:         -19.834
REMARK INTER:                 -14.892
REMARK INTRA:                  -4.942
REMARK UNBOUND:                -4.243
REMARK SMILES CCCCCCCCCCCCCCCCCCCCCCCCCCCCCC(=O)[O-]
REMARK SMILES IDX 16 1 17 2 18 3 19 4 20 5 21 6 22 7 23 8 24 9 25 10 26 11
REMARK SMILES IDX 27 12 28 13 29 14 30 15 31 16 32 17 15 18 14 19 13 20 12 21
REMARK SMILES IDX 11 22 10 23 9 24 8 25 7 26 6 27 5 28 4 29 3 30 2 31 1 32
REMARK H PARENT
REMARK Flexibility Score: inf
ROOT
ATOM      1  C   UNL     1       2.442   9.772   7.651  1.00  0.00     0.000 C 
ENDROOT
BRANCH   1   2
ATOM      2  C   UNL     1       2.392   9.975   9.175  1.00  0.00     0.000 C 
BRANCH   2   3
ATOM      3  C   UNL     1       1.249   9.172   9.833  1.00  0.00     0.000 C 
BRANCH   3   4
ATOM      4  C   UNL     1       1.245   9.235  11.369  1.00  0.00     0.000 C 
BRANCH   4   5
ATOM      5  C   UNL     1       1.774   7.951  12.024  1.00  0.00     0.000 C 
BRANCH   5   6
ATOM      6  C   UNL     1       0.900   7.545  13.218  1.00  0.00     0.000 C 
BRANCH   6   7
ATOM      7  C   UNL     1       0.215   6.193  12.964  1.00  0.00     0.000 C 
BRANCH   7   8
ATOM      8  C   UNL     1      -0.704   6.213  11.728  1.00  0.00     0.000 C 
BRANCH   8   9
ATOM      9  C   UNL     1      -1.140   4.823  11.227  1.00  0.00     0.000 C 
BRANCH   9  10
ATOM     10  C   UNL     1      -0.925   4.641   9.715  1.00  0.00     0.000 C 
BRANCH  10  11
ATOM     11  C   UNL     1      -0.582   5.971   9.008  1.00  0.00     0.000 C 
BRANCH  11  12
ATOM     12  C   UNL     1       0.823   5.999   8.376  1.00  0.00     0.000 C 
BRANCH  12  13
ATOM     13  C   UNL     1       1.960   5.531   9.300  1.00  0.00     0.006 C 
BRANCH  13  14
ATOM     14  C   UNL     1       3.092   4.823   8.542  1.00  0.00     0.053 C 
BRANCH  14  15
ATOM     15  C   UNL     1       2.612   3.525   7.973  1.00  0.00     0.041 C 
ATOM     16  O   UNL     1       1.768   2.832   8.602  1.00  0.00    -0.550 OA
ATOM     17  O   UNL     1       3.113   3.069   6.761  1.00  0.00    -0.550 OA
ENDBRANCH  14  15
ENDBRANCH  13  14
ENDBRANCH  12  13
ENDBRANCH  11  12
ENDBRANCH  10  11
ENDBRANCH   9  10
ENDBRANCH   8   9
ENDBRANCH   7   8
ENDBRANCH   6   7
ENDBRANCH   5   6
ENDBRANCH   4   5
ENDBRANCH   3   4
ENDBRANCH   2   3
ENDBRANCH   1   2
BRANCH   1  18
ATOM     18  C   UNL     1       3.300   8.562   7.245  1.00  0.00     0.000 C 
BRANCH  18  19
ATOM     19  C   UNL     1       4.345   8.201   8.316  1.00  0.00     0.000 C 
BRANCH  19  20
ATOM     20  C   UNL     1       5.772   8.640   7.919  1.00  0.00     0.000 C 
BRANCH  20  21
ATOM     21  C   UNL     1       5.879   9.139   6.466  1.00  0.00     0.000 C 
BRANCH  21  22
ATOM     22  C   UNL     1       7.265   8.949   5.823  1.00  0.00     0.000 C 
BRANCH  22  23
ATOM     23  C   UNL     1       7.402   7.704   4.920  1.00  0.00     0.000 C 
BRANCH  23  24
ATOM     24  C   UNL     1       6.074   7.046   4.505  1.00  0.00    -0.000 C 
BRANCH  24  25
ATOM     25  C   UNL     1       5.987   5.568   4.912  1.00  0.00    -0.000 C 
BRANCH  25  26
ATOM     26  C   UNL     1       5.675   5.428   6.410  1.00  0.00    -0.000 C 
BRANCH  26  27
ATOM     27  C   UNL     1       6.527   4.345   7.091  1.00  0.00    -0.000 C 
BRANCH  27  28
ATOM     28  C   UNL     1       6.937   4.729   8.523  1.00  0.00    -0.000 C 
BRANCH  28  29
ATOM     29  C   UNL     1       8.431   5.067   8.637  1.00  0.00    -0.000 C 
BRANCH  29  30
ATOM     30  C   UNL     1       8.768   6.446   8.041  1.00  0.00    -0.000 C 
BRANCH  30  31
ATOM     31  C   UNL     1      10.019   7.073   8.678  1.00  0.00    -0.003 C 
ATOM     32  C   UNL     1      10.198   6.669  10.141  1.00  0.00     0.004 C 
ENDBRANCH  30  31
ENDBRANCH  29  30
ENDBRANCH  28  29
ENDBRANCH  27  28
ENDBRANCH  26  27
ENDBRANCH  25  26
ENDBRANCH  24  25
ENDBRANCH  23  24
ENDBRANCH  22  23
ENDBRANCH  21  22
ENDBRANCH  20  21
ENDBRANCH  19  20
ENDBRANCH  18  19
ENDBRANCH   1  18
TORSDOF 28
ENDMDL
MODEL 7
REMARK VINA RESULT:    -5.862      2.787      8.004
REMARK INTER + INTRA:         -19.700
REMARK INTER:                 -15.439
REMARK INTRA:                  -4.260
REMARK UNBOUND:                -4.243
REMARK SMILES CCCCCCCCCCCCCCCCCCCCCCCCCCCCCC(=O)[O-]
REMARK SMILES IDX 16 1 17 2 18 3 19 4 20 5 21 6 22 7 23 8 24 9 25 10 26 11
REMARK SMILES IDX 27 12 28 13 29 14 30 15 31 16 32 17 15 18 14 19 13 20 12 21
REMARK SMILES IDX 11 22 10 23 9 24 8 25 7 26 6 27 5 28 4 29 3 30 2 31 1 32
REMARK H PARENT
REMARK Flexibility Score: inf
ROOT
ATOM      1  C   UNL     1       3.243   4.220   7.438  1.00  0.00     0.000 C 
ENDROOT
BRANCH   1   2
ATOM      2  C   UNL     1       2.333   4.047   8.667  1.00  0.00     0.000 C 
BRANCH   2   3
ATOM      3  C   UNL     1       2.596   5.124   9.742  1.00  0.00     0.000 C 
BRANCH   3   4
ATOM      4  C   UNL     1       2.314   6.560   9.268  1.00  0.00     0.000 C 
BRANCH   4   5
ATOM      5  C   UNL     1       1.018   6.681   8.456  1.00  0.00     0.000 C 
BRANCH   5   6
ATOM      6  C   UNL     1      -0.089   7.344   9.287  1.00  0.00     0.000 C 
BRANCH   6   7
ATOM      7  C   UNL     1      -1.262   6.378   9.513  1.00  0.00     0.000 C 
BRANCH   7   8
ATOM      8  C   UNL     1      -0.959   5.312  10.583  1.00  0.00     0.000 C 
BRANCH   8   9
ATOM      9  C   UNL     1      -0.831   5.857  12.017  1.00  0.00     0.000 C 
BRANCH   9  10
ATOM     10  C   UNL     1       0.619   6.206  12.395  1.00  0.00     0.000 C 
BRANCH  10  11
ATOM     11  C   UNL     1       0.707   7.480  13.264  1.00  0.00     0.000 C 
BRANCH  11  12
ATOM     12  C   UNL     1       1.252   8.711  12.514  1.00  0.00     0.000 C 
BRANCH  12  13
ATOM     13  C   UNL     1       2.679   9.130  12.905  1.00  0.00     0.006 C 
BRANCH  13  14
ATOM     14  C   UNL     1       2.853   9.310  14.421  1.00  0.00     0.053 C 
BRANCH  14  15
ATOM     15  C   UNL     1       4.112  10.061  14.720  1.00  0.00     0.041 C 
ATOM     16  O   UNL     1       5.099   9.466  15.230  1.00  0.00    -0.550 OA
ATOM     17  O   UNL     1       4.190  11.423  14.456  1.00  0.00    -0.550 OA
ENDBRANCH  14  15
ENDBRANCH  13  14
ENDBRANCH  12  13
ENDBRANCH  11  12
ENDBRANCH  10  11
ENDBRANCH   9  10
ENDBRANCH   8   9
ENDBRANCH   7   8
ENDBRANCH   6   7
ENDBRANCH   5   6
ENDBRANCH   4   5
ENDBRANCH   3   4
ENDBRANCH   2   3
ENDBRANCH   1   2
BRANCH   1  18
ATOM     18  C   UNL     1       4.599   3.515   7.604  1.00  0.00     0.000 C 
BRANCH  18  19
ATOM     19  C   UNL     1       5.774   4.387   7.124  1.00  0.00     0.000 C 
BRANCH  19  20
ATOM     20  C   UNL     1       6.578   4.990   8.297  1.00  0.00     0.000 C 
BRANCH  20  21
ATOM     21  C   UNL     1       8.101   4.830   8.144  1.00  0.00     0.000 C 
BRANCH  21  22
ATOM     22  C   UNL     1       8.904   6.134   8.310  1.00  0.00     0.000 C 
BRANCH  22  23
ATOM     23  C   UNL     1       8.323   7.358   7.569  1.00  0.00     0.000 C 
BRANCH  23  24
ATOM     24  C   UNL     1       8.104   7.167   6.058  1.00  0.00    -0.000 C 
BRANCH  24  25
ATOM     25  C   UNL     1       7.847   8.488   5.319  1.00  0.00    -0.000 C 
BRANCH  25  26
ATOM     26  C   UNL     1       6.346   8.694   5.066  1.00  0.00    -0.000 C 
BRANCH  26  27
ATOM     27  C   UNL     1       5.536   7.399   5.242  1.00  0.00    -0.000 C 
BRANCH  27  28
ATOM     28  C   UNL     1       4.307   7.589   6.148  1.00  0.00    -0.000 C 
BRANCH  28  29
ATOM     29  C   UNL     1       4.617   8.440   7.389  1.00  0.00    -0.000 C 
BRANCH  29  30
ATOM     30  C   UNL     1       4.099   9.884   7.257  1.00  0.00    -0.000 C 
BRANCH  30  31
ATOM     31  C   UNL     1       2.621  10.018   7.656  1.00  0.00    -0.003 C 
ATOM     32  C   UNL     1       2.418  10.006   9.171  1.00  0.00     0.004 C 
ENDBRANCH  30  31
ENDBRANCH  29  30
ENDBRANCH  28  29
ENDBRANCH  27  28
ENDBRANCH  26  27
ENDBRANCH  25  26
ENDBRANCH  24  25
ENDBRANCH  23  24
ENDBRANCH  22  23
ENDBRANCH  21  22
ENDBRANCH  20  21
ENDBRANCH  19  20
ENDBRANCH  18  19
ENDBRANCH   1  18
TORSDOF 28
ENDMDL
MODEL 8
REMARK VINA RESULT:    -5.862      3.043      7.855
REMARK INTER + INTRA:         -19.699
REMARK INTER:                 -15.042
REMARK INTRA:                  -4.657
REMARK UNBOUND:                -4.243
REMARK SMILES CCCCCCCCCCCCCCCCCCCCCCCCCCCCCC(=O)[O-]
REMARK SMILES IDX 16 1 17 2 18 3 19 4 20 5 21 6 22 7 23 8 24 9 25 10 26 11
REMARK SMILES IDX 27 12 28 13 29 14 30 15 31 16 32 17 15 18 14 19 13 20 12 21
REMARK SMILES IDX 11 22 10 23 9 24 8 25 7 26 6 27 5 28 4 29 3 30 2 31 1 32
REMARK H PARENT
REMARK Flexibility Score: inf
ROOT
ATOM      1  C   UNL     1       2.301   4.243   8.233  1.00  0.00     0.000 C 
ENDROOT
BRANCH   1   2
ATOM      2  C   UNL     1       2.974   4.695   9.541  1.00  0.00     0.000 C 
BRANCH   2   3
ATOM      3  C   UNL     1       3.588   6.107   9.422  1.00  0.00     0.000 C 
BRANCH   3   4
ATOM      4  C   UNL     1       2.954   7.144  10.365  1.00  0.00     0.000 C 
BRANCH   4   5
ATOM      5  C   UNL     1       2.613   8.465   9.661  1.00  0.00     0.000 C 
BRANCH   5   6
ATOM      6  C   UNL     1       1.107   8.750   9.732  1.00  0.00     0.000 C 
BRANCH   6   7
ATOM      7  C   UNL     1       0.329   7.846   8.762  1.00  0.00     0.000 C 
BRANCH   7   8
ATOM      8  C   UNL     1      -0.870   7.148   9.431  1.00  0.00     0.000 C 
BRANCH   8   9
ATOM      9  C   UNL     1      -0.957   5.632   9.174  1.00  0.00     0.000 C 
BRANCH   9  10
ATOM     10  C   UNL     1      -0.635   4.796  10.425  1.00  0.00     0.000 C 
BRANCH  10  11
ATOM     11  C   UNL     1      -0.813   5.603  11.730  1.00  0.00     0.000 C 
BRANCH  11  12
ATOM     12  C   UNL     1       0.510   5.929  12.449  1.00  0.00     0.000 C 
BRANCH  12  13
ATOM     13  C   UNL     1       0.424   7.061  13.486  1.00  0.00     0.006 C 
BRANCH  13  14
ATOM     14  C   UNL     1       1.404   8.209  13.199  1.00  0.00     0.053 C 
BRANCH  14  15
ATOM     15  C   UNL     1       2.389   8.351  14.316  1.00  0.00     0.041 C 
ATOM     16  O   UNL     1       2.516   7.432  15.169  1.00  0.00    -0.550 OA
ATOM     17  O   UNL     1       3.151   9.507  14.430  1.00  0.00    -0.550 OA
ENDBRANCH  14  15
ENDBRANCH  13  14
ENDBRANCH  12  13
ENDBRANCH  11  12
ENDBRANCH  10  11
ENDBRANCH   9  10
ENDBRANCH   8   9
ENDBRANCH   7   8
ENDBRANCH   6   7
ENDBRANCH   5   6
ENDBRANCH   4   5
ENDBRANCH   3   4
ENDBRANCH   2   3
ENDBRANCH   1   2
BRANCH   1  18
ATOM     18  C   UNL     1       2.861   4.970   6.999  1.00  0.00     0.000 C 
BRANCH  18  19
ATOM     19  C   UNL     1       1.842   5.945   6.382  1.00  0.00     0.000 C 
BRANCH  19  20
ATOM     20  C   UNL     1       2.454   7.333   6.091  1.00  0.00     0.000 C 
BRANCH  20  21
ATOM     21  C   UNL     1       3.993   7.348   6.144  1.00  0.00     0.000 C 
BRANCH  21  22
ATOM     22  C   UNL     1       4.605   8.665   6.655  1.00  0.00     0.000 C 
BRANCH  22  23
ATOM     23  C   UNL     1       6.018   8.981   6.122  1.00  0.00     0.000 C 
BRANCH  23  24
ATOM     24  C   UNL     1       6.833   7.759   5.660  1.00  0.00    -0.000 C 
BRANCH  24  25
ATOM     25  C   UNL     1       8.264   7.749   6.217  1.00  0.00    -0.000 C 
BRANCH  25  26
ATOM     26  C   UNL     1       8.413   6.701   7.331  1.00  0.00    -0.000 C 
BRANCH  26  27
ATOM     27  C   UNL     1       7.101   5.951   7.613  1.00  0.00    -0.000 C 
BRANCH  27  28
ATOM     28  C   UNL     1       7.252   4.895   8.722  1.00  0.00    -0.000 C 
BRANCH  28  29
ATOM     29  C   UNL     1       8.718   4.674   9.129  1.00  0.00    -0.000 C 
BRANCH  29  30
ATOM     30  C   UNL     1       8.896   4.586  10.656  1.00  0.00    -0.000 C 
BRANCH  30  31
ATOM     31  C   UNL     1       9.022   3.137  11.151  1.00  0.00    -0.003 C 
ATOM     32  C   UNL     1       8.635   2.983  12.622  1.00  0.00     0.004 C 
ENDBRANCH  30  31
ENDBRANCH  29  30
ENDBRANCH  28  29
ENDBRANCH  27  28
ENDBRANCH  26  27
ENDBRANCH  25  26
ENDBRANCH  24  25
ENDBRANCH  23  24
ENDBRANCH  22  23
ENDBRANCH  21  22
ENDBRANCH  20  21
ENDBRANCH  19  20
ENDBRANCH  18  19
ENDBRANCH   1  18
TORSDOF 28
ENDMDL
MODEL 9
REMARK VINA RESULT:    -5.840      2.210      7.584
REMARK INTER + INTRA:         -19.642
REMARK INTER:                 -15.438
REMARK INTRA:                  -4.204
REMARK UNBOUND:                -4.243
REMARK SMILES CCCCCCCCCCCCCCCCCCCCCCCCCCCCCC(=O)[O-]
REMARK SMILES IDX 16 1 17 2 18 3 19 4 20 5 21 6 22 7 23 8 24 9 25 10 26 11
REMARK SMILES IDX 27 12 28 13 29 14 30 15 31 16 32 17 15 18 14 19 13 20 12 21
REMARK SMILES IDX 11 22 10 23 9 24 8 25 7 26 6 27 5 28 4 29 3 30 2 31 1 32
REMARK H PARENT
REMARK Flexibility Score: inf
ROOT
ATOM      1  C   UNL     1       4.061   8.781   7.883  1.00  0.00     0.000 C 
ENDROOT
BRANCH   1   2
ATOM      2  C   UNL     1       2.624   9.315   8.005  1.00  0.00     0.000 C 
BRANCH   2   3
ATOM      3  C   UNL     1       2.352   9.948   9.387  1.00  0.00     0.000 C 
BRANCH   3   4
ATOM      4  C   UNL     1       1.368   9.148  10.257  1.00  0.00     0.000 C 
BRANCH   4   5
ATOM      5  C   UNL     1       2.067   8.299  11.327  1.00  0.00     0.000 C 
BRANCH   5   6
ATOM      6  C   UNL     1       1.379   8.460  12.689  1.00  0.00     0.000 C 
BRANCH   6   7
ATOM      7  C   UNL     1       0.473   7.257  12.995  1.00  0.00     0.000 C 
BRANCH   7   8
ATOM      8  C   UNL     1       0.561   6.157  11.921  1.00  0.00     0.000 C 
BRANCH   8   9
ATOM      9  C   UNL     1      -0.753   5.392  11.672  1.00  0.00     0.000 C 
BRANCH   9  10
ATOM     10  C   UNL     1      -0.953   5.016  10.195  1.00  0.00     0.000 C 
BRANCH  10  11
ATOM     11  C   UNL     1      -1.001   6.257   9.276  1.00  0.00     0.000 C 
BRANCH  11  12
ATOM     12  C   UNL     1      -0.059   6.171   8.060  1.00  0.00     0.000 C 
BRANCH  12  13
ATOM     13  C   UNL     1       1.412   5.872   8.398  1.00  0.00     0.006 C 
BRANCH  13  14
ATOM     14  C   UNL     1       2.095   4.980   7.351  1.00  0.00     0.053 C 
BRANCH  14  15
ATOM     15  C   UNL     1       2.391   3.630   7.924  1.00  0.00     0.041 C 
ATOM     16  O   UNL     1       1.729   3.200   8.906  1.00  0.00    -0.550 OA
ATOM     17  O   UNL     1       3.411   2.855   7.388  1.00  0.00    -0.550 OA
ENDBRANCH  14  15
ENDBRANCH  13  14
ENDBRANCH  12  13
ENDBRANCH  11  12
ENDBRANCH  10  11
ENDBRANCH   9  10
ENDBRANCH   8   9
ENDBRANCH   7   8
ENDBRANCH   6   7
ENDBRANCH   5   6
ENDBRANCH   4   5
ENDBRANCH   3   4
ENDBRANCH   2   3
ENDBRANCH   1   2
BRANCH   1  18
ATOM     18  C   UNL     1       4.310   7.550   8.771  1.00  0.00     0.000 C 
BRANCH  18  19
ATOM     19  C   UNL     1       5.680   6.900   8.499  1.00  0.00     0.000 C 
BRANCH  19  20
ATOM     20  C   UNL     1       5.556   5.418   8.085  1.00  0.00     0.000 C 
BRANCH  20  21
ATOM     21  C   UNL     1       5.968   5.151   6.626  1.00  0.00     0.000 C 
BRANCH  21  22
ATOM     22  C   UNL     1       5.240   6.020   5.584  1.00  0.00     0.000 C 
BRANCH  22  23
ATOM     23  C   UNL     1       6.159   6.743   4.577  1.00  0.00     0.000 C 
BRANCH  23  24
ATOM     24  C   UNL     1       6.760   8.070   5.074  1.00  0.00    -0.000 C 
BRANCH  24  25
ATOM     25  C   UNL     1       8.231   7.940   5.496  1.00  0.00    -0.000 C 
BRANCH  25  26
ATOM     26  C   UNL     1       8.349   7.715   7.011  1.00  0.00    -0.000 C 
BRANCH  26  27
ATOM     27  C   UNL     1       9.169   6.462   7.359  1.00  0.00    -0.000 C 
BRANCH  27  28
ATOM     28  C   UNL     1       9.354   6.279   8.875  1.00  0.00    -0.000 C 
BRANCH  28  29
ATOM     29  C   UNL     1       8.751   4.962   9.387  1.00  0.00    -0.000 C 
BRANCH  29  30
ATOM     30  C   UNL     1       9.356   4.522  10.733  1.00  0.00    -0.000 C 
BRANCH  30  31
ATOM     31  C   UNL     1       8.899   3.116  11.153  1.00  0.00    -0.003 C 
ATOM     32  C   UNL     1       8.587   3.022  12.646  1.00  0.00     0.004 C 
ENDBRANCH  30  31
ENDBRANCH  29  30
ENDBRANCH  28  29
ENDBRANCH  27  28
ENDBRANCH  26  27
ENDBRANCH  25  26
ENDBRANCH  24  25
ENDBRANCH  23  24
ENDBRANCH  22  23
ENDBRANCH  21  22
ENDBRANCH  20  21
ENDBRANCH  19  20
ENDBRANCH  18  19
ENDBRANCH   1  18
TORSDOF 28
ENDMDL
