MODEL 1
REMARK VINA RESULT:    -4.813      0.000      0.000
REMARK INTER + INTRA:         -14.146
REMARK INTER:                 -12.129
REMARK INTRA:                  -2.017
REMARK UNBOUND:                -2.017
REMARK SMILES CCCCCCCCCCCCCCCCCCCCCCCCCCCC(=O)[O-]
REMARK SMILES IDX 15 1 16 2 17 3 18 4 19 5 20 6 21 7 22 8 23 9 24 10 25 11
REMARK SMILES IDX 26 12 27 13 28 14 29 15 30 16 14 17 13 18 12 19 11 20 10 21
REMARK SMILES IDX 9 22 8 23 7 24 6 25 5 26 4 27 3 28 2 29 1 30
REMARK H PARENT
REMARK Flexibility Score: inf
ROOT
ATOM      1  C   UNL     1    -130.149 106.502  39.272  1.00  0.00     0.000 C 
ENDROOT
BRANCH   1   2
ATOM      2  C   UNL     1    -129.678 107.947  39.024  1.00  0.00     0.000 C 
BRANCH   2   3
ATOM      3  C   UNL     1    -130.730 108.992  39.428  1.00  0.00     0.000 C 
BRANCH   3   4
ATOM      4  C   UNL     1    -130.266 110.433  39.169  1.00  0.00     0.000 C 
BRANCH   4   5
ATOM      5  C   UNL     1    -128.753 110.567  39.382  1.00  0.00     0.000 C 
BRANCH   5   6
ATOM      6  C   UNL     1    -128.060 111.079  38.113  1.00  0.00     0.000 C 
BRANCH   6   7
ATOM      7  C   UNL     1    -128.410 112.550  37.854  1.00  0.00     0.000 C 
BRANCH   7   8
ATOM      8  C   UNL     1    -128.379 112.866  36.352  1.00  0.00     0.000 C 
BRANCH   8   9
ATOM      9  C   UNL     1    -129.297 114.039  35.974  1.00  0.00     0.000 C 
BRANCH   9  10
ATOM     10  C   UNL     1    -129.643 114.067  34.476  1.00  0.00     0.000 C 
BRANCH  10  11
ATOM     11  C   UNL     1    -131.167 114.055  34.227  1.00  0.00     0.000 C 
BRANCH  11  12
ATOM     12  C   UNL     1    -131.610 113.007  33.192  1.00  0.00     0.006 C 
BRANCH  12  13
ATOM     13  C   UNL     1    -133.052 112.531  33.406  1.00  0.00     0.053 C 
BRANCH  13  14
ATOM     14  C   UNL     1    -134.013 113.658  33.198  1.00  0.00     0.041 C 
ATOM     15  O   UNL     1    -134.287 114.440  34.147  1.00  0.00    -0.550 OA
ATOM     16  O   UNL     1    -134.640 113.821  31.969  1.00  0.00    -0.550 OA
ENDBRANCH  13  14
ENDBRANCH  12  13
ENDBRANCH  11  12
ENDBRANCH  10  11
ENDBRANCH   9  10
ENDBRANCH   8   9
ENDBRANCH   7   8
ENDBRANCH   6   7
ENDBRANCH   5   6
ENDBRANCH   4   5
ENDBRANCH   3   4
ENDBRANCH   2   3
ENDBRANCH   1   2
BRANCH   1  17
ATOM     17  C   UNL     1    -129.391 105.814  40.427  1.00  0.00     0.000 C 
BRANCH  17  18
ATOM     18  C   UNL     1    -128.008 106.424  40.724  1.00  0.00     0.000 C 
BRANCH  18  19
ATOM     19  C   UNL     1    -127.875 107.141  42.080  1.00  0.00     0.000 C 
BRANCH  19  20
ATOM     20  C   UNL     1    -129.120 107.922  42.539  1.00  0.00     0.000 C 
BRANCH  20  21
ATOM     21  C   UNL     1    -128.773 109.195  43.332  1.00  0.00     0.000 C 
BRANCH  21  22
ATOM     22  C   UNL     1    -129.717 110.368  43.012  1.00  0.00    -0.000 C 
BRANCH  22  23
ATOM     23  C   UNL     1    -129.326 111.705  43.667  1.00  0.00    -0.000 C 
BRANCH  23  24
ATOM     24  C   UNL     1    -129.533 112.929  42.745  1.00  0.00    -0.000 C 
BRANCH  24  25
ATOM     25  C   UNL     1    -129.685 114.261  43.502  1.00  0.00    -0.000 C 
BRANCH  25  26
ATOM     26  C   UNL     1    -129.411 115.524  42.661  1.00  0.00    -0.000 C 
BRANCH  26  27
ATOM     27  C   UNL     1    -129.740 116.829  43.402  1.00  0.00    -0.000 C 
BRANCH  27  28
ATOM     28  C   UNL     1    -130.046 116.559  44.883  1.00  0.00    -0.000 C 
BRANCH  28  29
ATOM     29  C   UNL     1    -130.540 117.811  45.624  1.00  0.00    -0.003 C 
ATOM     30  C   UNL     1    -130.671 117.595  47.133  1.00  0.00     0.004 C 
ENDBRANCH  28  29
ENDBRANCH  27  28
ENDBRANCH  26  27
ENDBRANCH  25  26
ENDBRANCH  24  25
ENDBRANCH  23  24
ENDBRANCH  22  23
ENDBRANCH  21  22
ENDBRANCH  20  21
ENDBRANCH  19  20
ENDBRANCH  18  19
ENDBRANCH  17  18
ENDBRANCH   1  17
TORSDOF 26
ENDMDL
MODEL 2
REMARK VINA RESULT:    -4.773      3.761      8.415
REMARK INTER + INTRA:         -14.045
REMARK INTER:                 -12.300
REMARK INTRA:                  -1.746
REMARK UNBOUND:                -2.017
REMARK SMILES CCCCCCCCCCCCCCCCCCCCCCCCCCCC(=O)[O-]
REMARK SMILES IDX 15 1 16 2 17 3 18 4 19 5 20 6 21 7 22 8 23 9 24 10 25 11
REMARK SMILES IDX 26 12 27 13 28 14 29 15 30 16 14 17 13 18 12 19 11 20 10 21
REMARK SMILES IDX 9 22 8 23 7 24 6 25 5 26 4 27 3 28 2 29 1 30
REMARK H PARENT
REMARK Flexibility Score: inf
ROOT
ATOM      1  C   UNL     1    -129.451 107.704  42.182  1.00  0.00     0.000 C 
ENDROOT
BRANCH   1   2
ATOM      2  C   UNL     1    -128.710 108.953  42.696  1.00  0.00     0.000 C 
BRANCH   2   3
ATOM      3  C   UNL     1    -129.620 109.890  43.505  1.00  0.00     0.000 C 
BRANCH   3   4
ATOM      4  C   UNL     1    -128.995 111.275  43.732  1.00  0.00     0.000 C 
BRANCH   4   5
ATOM      5  C   UNL     1    -129.657 112.328  42.834  1.00  0.00     0.000 C 
BRANCH   5   6
ATOM      6  C   UNL     1    -129.433 113.742  43.383  1.00  0.00     0.000 C 
BRANCH   6   7
ATOM      7  C   UNL     1    -130.120 114.789  42.498  1.00  0.00     0.000 C 
BRANCH   7   8
ATOM      8  C   UNL     1    -129.154 115.928  42.141  1.00  0.00     0.000 C 
BRANCH   8   9
ATOM      9  C   UNL     1    -129.718 117.314  42.490  1.00  0.00     0.000 C 
BRANCH   9  10
ATOM     10  C   UNL     1    -128.697 118.207  43.216  1.00  0.00     0.000 C 
BRANCH  10  11
ATOM     11  C   UNL     1    -128.989 118.317  44.729  1.00  0.00     0.000 C 
BRANCH  11  12
ATOM     12  C   UNL     1    -130.426 117.920  45.107  1.00  0.00     0.006 C 
BRANCH  12  13
ATOM     13  C   UNL     1    -130.575 117.561  46.590  1.00  0.00     0.053 C 
BRANCH  13  14
ATOM     14  C   UNL     1    -130.881 116.106  46.750  1.00  0.00     0.041 C 
ATOM     15  O   UNL     1    -131.906 115.740  47.384  1.00  0.00    -0.550 OA
ATOM     16  O   UNL     1    -130.013 115.151  46.235  1.00  0.00    -0.550 OA
ENDBRANCH  13  14
ENDBRANCH  12  13
ENDBRANCH  11  12
ENDBRANCH  10  11
ENDBRANCH   9  10
ENDBRANCH   8   9
ENDBRANCH   7   8
ENDBRANCH   6   7
ENDBRANCH   5   6
ENDBRANCH   4   5
ENDBRANCH   3   4
ENDBRANCH   2   3
ENDBRANCH   1   2
BRANCH   1  17
ATOM     17  C   UNL     1    -128.546 106.769  41.352  1.00  0.00     0.000 C 
BRANCH  17  18
ATOM     18  C   UNL     1    -129.305 105.648  40.617  1.00  0.00     0.000 C 
BRANCH  18  19
ATOM     19  C   UNL     1    -129.788 105.993  39.196  1.00  0.00     0.000 C 
BRANCH  19  20
ATOM     20  C   UNL     1    -129.883 107.496  38.878  1.00  0.00     0.000 C 
BRANCH  20  21
ATOM     21  C   UNL     1    -131.334 108.002  38.793  1.00  0.00     0.000 C 
BRANCH  21  22
ATOM     22  C   UNL     1    -131.441 109.529  38.965  1.00  0.00    -0.000 C 
BRANCH  22  23
ATOM     23  C   UNL     1    -130.366 110.149  39.876  1.00  0.00    -0.000 C 
BRANCH  23  24
ATOM     24  C   UNL     1    -129.031 110.436  39.150  1.00  0.00    -0.000 C 
BRANCH  24  25
ATOM     25  C   UNL     1    -128.838 111.914  38.761  1.00  0.00    -0.000 C 
BRANCH  25  26
ATOM     26  C   UNL     1    -128.275 112.147  37.345  1.00  0.00    -0.000 C 
BRANCH  26  27
ATOM     27  C   UNL     1    -128.678 113.505  36.749  1.00  0.00    -0.000 C 
BRANCH  27  28
ATOM     28  C   UNL     1    -128.862 113.404  35.226  1.00  0.00    -0.000 C 
BRANCH  28  29
ATOM     29  C   UNL     1    -129.806 114.482  34.672  1.00  0.00    -0.003 C 
ATOM     30  C   UNL     1    -131.010 113.893  33.932  1.00  0.00     0.004 C 
ENDBRANCH  28  29
ENDBRANCH  27  28
ENDBRANCH  26  27
ENDBRANCH  25  26
ENDBRANCH  24  25
ENDBRANCH  23  24
ENDBRANCH  22  23
ENDBRANCH  21  22
ENDBRANCH  20  21
ENDBRANCH  19  20
ENDBRANCH  18  19
ENDBRANCH  17  18
ENDBRANCH   1  17
TORSDOF 26
ENDMDL
MODEL 3
REMARK VINA RESULT:    -4.544      4.287      8.003
REMARK INTER + INTRA:         -13.468
REMARK INTER:                 -10.942
REMARK INTRA:                  -2.525
REMARK UNBOUND:                -2.017
REMARK SMILES CCCCCCCCCCCCCCCCCCCCCCCCCCCC(=O)[O-]
REMARK SMILES IDX 15 1 16 2 17 3 18 4 19 5 20 6 21 7 22 8 23 9 24 10 25 11
REMARK SMILES IDX 26 12 27 13 28 14 29 15 30 16 14 17 13 18 12 19 11 20 10 21
REMARK SMILES IDX 9 22 8 23 7 24 6 25 5 26 4 27 3 28 2 29 1 30
REMARK H PARENT
REMARK Flexibility Score: inf
ROOT
ATOM      1  C   UNL     1    -131.242 109.694  39.779  1.00  0.00     0.000 C 
ENDROOT
BRANCH   1   2
ATOM      2  C   UNL     1    -129.991 110.541  39.481  1.00  0.00     0.000 C 
BRANCH   2   3
ATOM      3  C   UNL     1    -129.514 111.344  40.702  1.00  0.00     0.000 C 
BRANCH   3   4
ATOM      4  C   UNL     1    -130.183 112.722  40.805  1.00  0.00     0.000 C 
BRANCH   4   5
ATOM      5  C   UNL     1    -129.959 113.337  42.192  1.00  0.00     0.000 C 
BRANCH   5   6
ATOM      6  C   UNL     1    -129.361 112.311  43.162  1.00  0.00     0.000 C 
BRANCH   6   7
ATOM      7  C   UNL     1    -129.231 112.900  44.572  1.00  0.00     0.000 C 
BRANCH   7   8
ATOM      8  C   UNL     1    -129.496 114.412  44.563  1.00  0.00     0.000 C 
BRANCH   8   9
ATOM      9  C   UNL     1    -129.438 115.033  45.967  1.00  0.00     0.000 C 
BRANCH   9  10
ATOM     10  C   UNL     1    -130.698 115.845  46.313  1.00  0.00     0.000 C 
BRANCH  10  11
ATOM     11  C   UNL     1    -130.413 117.360  46.391  1.00  0.00     0.000 C 
BRANCH  11  12
ATOM     12  C   UNL     1    -130.296 118.034  45.013  1.00  0.00     0.006 C 
BRANCH  12  13
ATOM     13  C   UNL     1    -128.855 118.080  44.493  1.00  0.00     0.053 C 
BRANCH  13  14
ATOM     14  C   UNL     1    -128.820 117.824  43.020  1.00  0.00     0.041 C 
ATOM     15  O   UNL     1    -129.607 116.986  42.504  1.00  0.00    -0.550 OA
ATOM     16  O   UNL     1    -127.890 118.478  42.221  1.00  0.00    -0.550 OA
ENDBRANCH  13  14
ENDBRANCH  12  13
ENDBRANCH  11  12
ENDBRANCH  10  11
ENDBRANCH   9  10
ENDBRANCH   8   9
ENDBRANCH   7   8
ENDBRANCH   6   7
ENDBRANCH   5   6
ENDBRANCH   4   5
ENDBRANCH   3   4
ENDBRANCH   2   3
ENDBRANCH   1   2
BRANCH   1  17
ATOM     17  C   UNL     1    -131.675 108.822  38.581  1.00  0.00     0.000 C 
BRANCH  17  18
ATOM     18  C   UNL     1    -131.402 107.317  38.767  1.00  0.00     0.000 C 
BRANCH  18  19
ATOM     19  C   UNL     1    -129.938 106.879  38.573  1.00  0.00     0.000 C 
BRANCH  19  20
ATOM     20  C   UNL     1    -129.675 105.370  38.728  1.00  0.00     0.000 C 
BRANCH  20  21
ATOM     21  C   UNL     1    -129.156 104.990  40.126  1.00  0.00     0.000 C 
BRANCH  21  22
ATOM     22  C   UNL     1    -128.267 106.083  40.746  1.00  0.00    -0.000 C 
BRANCH  22  23
ATOM     23  C   UNL     1    -129.038 107.219  41.443  1.00  0.00    -0.000 C 
BRANCH  23  24
ATOM     24  C   UNL     1    -128.222 107.932  42.546  1.00  0.00    -0.000 C 
BRANCH  24  25
ATOM     25  C   UNL     1    -129.067 108.846  43.454  1.00  0.00    -0.000 C 
BRANCH  25  26
ATOM     26  C   UNL     1    -130.593 108.712  43.275  1.00  0.00    -0.000 C 
BRANCH  26  27
ATOM     27  C   UNL     1    -131.260 107.876  44.378  1.00  0.00    -0.000 C 
BRANCH  27  28
ATOM     28  C   UNL     1    -132.084 108.767  45.321  1.00  0.00    -0.000 C 
BRANCH  28  29
ATOM     29  C   UNL     1    -131.286 109.224  46.552  1.00  0.00    -0.003 C 
ATOM     30  C   UNL     1    -130.543 108.075  47.237  1.00  0.00     0.004 C 
ENDBRANCH  28  29
ENDBRANCH  27  28
ENDBRANCH  26  27
ENDBRANCH  25  26
ENDBRANCH  24  25
ENDBRANCH  23  24
ENDBRANCH  22  23
ENDBRANCH  21  22
ENDBRANCH  20  21
ENDBRANCH  19  20
ENDBRANCH  18  19
ENDBRANCH  17  18
ENDBRANCH   1  17
TORSDOF 26
ENDMDL
MODEL 4
REMARK VINA RESULT:    -4.507      4.914      7.512
REMARK INTER + INTRA:         -13.375
REMARK INTER:                 -11.248
REMARK INTRA:                  -2.127
REMARK UNBOUND:                -2.017
REMARK SMILES CCCCCCCCCCCCCCCCCCCCCCCCCCCC(=O)[O-]
REMARK SMILES IDX 15 1 16 2 17 3 18 4 19 5 20 6 21 7 22 8 23 9 24 10 25 11
REMARK SMILES IDX 26 12 27 13 28 14 29 15 30 16 14 17 13 18 12 19 11 20 10 21
REMARK SMILES IDX 9 22 8 23 7 24 6 25 5 26 4 27 3 28 2 29 1 30
REMARK H PARENT
REMARK Flexibility Score: inf
ROOT
ATOM      1  C   UNL     1    -132.030 109.014  38.639  1.00  0.00     0.000 C 
ENDROOT
BRANCH   1   2
ATOM      2  C   UNL     1    -131.268 107.681  38.756  1.00  0.00     0.000 C 
BRANCH   2   3
ATOM      3  C   UNL     1    -129.743 107.867  38.738  1.00  0.00     0.000 C 
BRANCH   3   4
ATOM      4  C   UNL     1    -128.996 106.605  38.281  1.00  0.00     0.000 C 
BRANCH   4   5
ATOM      5  C   UNL     1    -129.839 105.348  38.534  1.00  0.00     0.000 C 
BRANCH   5   6
ATOM      6  C   UNL     1    -129.478 104.702  39.877  1.00  0.00     0.000 C 
BRANCH   6   7
ATOM      7  C   UNL     1    -128.355 105.480  40.575  1.00  0.00     0.000 C 
BRANCH   7   8
ATOM      8  C   UNL     1    -128.910 106.338  41.720  1.00  0.00     0.000 C 
BRANCH   8   9
ATOM      9  C   UNL     1    -127.963 107.482  42.116  1.00  0.00     0.000 C 
BRANCH   9  10
ATOM     10  C   UNL     1    -128.705 108.689  42.716  1.00  0.00     0.000 C 
BRANCH  10  11
ATOM     11  C   UNL     1    -130.234 108.587  42.528  1.00  0.00     0.000 C 
BRANCH  11  12
ATOM     12  C   UNL     1    -130.999 108.348  43.841  1.00  0.00     0.006 C 
BRANCH  12  13
ATOM     13  C   UNL     1    -130.286 108.941  45.062  1.00  0.00     0.053 C 
BRANCH  13  14
ATOM     14  C   UNL     1    -131.059 108.656  46.311  1.00  0.00     0.041 C 
ATOM     15  O   UNL     1    -132.295 108.896  46.359  1.00  0.00    -0.550 OA
ATOM     16  O   UNL     1    -130.408 108.166  47.436  1.00  0.00    -0.550 OA
ENDBRANCH  13  14
ENDBRANCH  12  13
ENDBRANCH  11  12
ENDBRANCH  10  11
ENDBRANCH   9  10
ENDBRANCH   8   9
ENDBRANCH   7   8
ENDBRANCH   6   7
ENDBRANCH   5   6
ENDBRANCH   4   5
ENDBRANCH   3   4
ENDBRANCH   2   3
ENDBRANCH   1   2
BRANCH   1  17
ATOM     17  C   UNL     1    -131.632 110.030  39.730  1.00  0.00     0.000 C 
BRANCH  17  18
ATOM     18  C   UNL     1    -130.314 110.775  39.446  1.00  0.00     0.000 C 
BRANCH  18  19
ATOM     19  C   UNL     1    -129.658 111.452  40.664  1.00  0.00     0.000 C 
BRANCH  19  20
ATOM     20  C   UNL     1    -129.896 112.968  40.784  1.00  0.00     0.000 C 
BRANCH  20  21
ATOM     21  C   UNL     1    -130.149 113.425  42.231  1.00  0.00     0.000 C 
BRANCH  21  22
ATOM     22  C   UNL     1    -129.403 112.561  43.265  1.00  0.00    -0.000 C 
BRANCH  22  23
ATOM     23  C   UNL     1    -129.070 113.281  44.584  1.00  0.00    -0.000 C 
BRANCH  23  24
ATOM     24  C   UNL     1    -130.210 114.191  45.096  1.00  0.00    -0.000 C 
BRANCH  24  25
ATOM     25  C   UNL     1    -129.744 115.283  46.077  1.00  0.00    -0.000 C 
BRANCH  25  26
ATOM     26  C   UNL     1    -130.760 116.417  46.322  1.00  0.00    -0.000 C 
BRANCH  26  27
ATOM     27  C   UNL     1    -130.355 117.746  45.666  1.00  0.00    -0.000 C 
BRANCH  27  28
ATOM     28  C   UNL     1    -129.180 117.545  44.696  1.00  0.00    -0.000 C 
BRANCH  28  29
ATOM     29  C   UNL     1    -128.895 118.793  43.845  1.00  0.00    -0.003 C 
ATOM     30  C   UNL     1    -128.294 118.455  42.479  1.00  0.00     0.004 C 
ENDBRANCH  28  29
ENDBRANCH  27  28
ENDBRANCH  26  27
ENDBRANCH  25  26
ENDBRANCH  24  25
ENDBRANCH  23  24
ENDBRANCH  22  23
ENDBRANCH  21  22
ENDBRANCH  20  21
ENDBRANCH  19  20
ENDBRANCH  18  19
ENDBRANCH  17  18
ENDBRANCH   1  17
TORSDOF 26
ENDMDL
MODEL 5
REMARK VINA RESULT:    -4.459      3.987      9.386
REMARK INTER + INTRA:         -13.255
REMARK INTER:                 -10.938
REMARK INTRA:                  -2.316
REMARK UNBOUND:                -2.017
REMARK SMILES CCCCCCCCCCCCCCCCCCCCCCCCCCCC(=O)[O-]
REMARK SMILES IDX 15 1 16 2 17 3 18 4 19 5 20 6 21 7 22 8 23 9 24 10 25 11
REMARK SMILES IDX 26 12 27 13 28 14 29 15 30 16 14 17 13 18 12 19 11 20 10 21
REMARK SMILES IDX 9 22 8 23 7 24 6 25 5 26 4 27 3 28 2 29 1 30
REMARK H PARENT
REMARK Flexibility Score: inf
ROOT
ATOM      1  C   UNL     1    -129.757 108.241  40.238  1.00  0.00     0.000 C 
ENDROOT
BRANCH   1   2
ATOM      2  C   UNL     1    -128.930 108.753  41.432  1.00  0.00     0.000 C 
BRANCH   2   3
ATOM      3  C   UNL     1    -129.472 108.261  42.783  1.00  0.00     0.000 C 
BRANCH   3   4
ATOM      4  C   UNL     1    -129.804 109.411  43.745  1.00  0.00     0.000 C 
BRANCH   4   5
ATOM      5  C   UNL     1    -129.372 110.760  43.155  1.00  0.00     0.000 C 
BRANCH   5   6
ATOM      6  C   UNL     1    -129.353 111.852  44.231  1.00  0.00     0.000 C 
BRANCH   6   7
ATOM      7  C   UNL     1    -129.097 113.230  43.608  1.00  0.00     0.000 C 
BRANCH   7   8
ATOM      8  C   UNL     1    -130.078 113.505  42.459  1.00  0.00     0.000 C 
BRANCH   8   9
ATOM      9  C   UNL     1    -130.094 114.981  42.034  1.00  0.00     0.000 C 
BRANCH   9  10
ATOM     10  C   UNL     1    -128.894 115.773  42.581  1.00  0.00     0.000 C 
BRANCH  10  11
ATOM     11  C   UNL     1    -129.255 117.241  42.893  1.00  0.00     0.000 C 
BRANCH  11  12
ATOM     12  C   UNL     1    -130.218 117.396  44.083  1.00  0.00     0.006 C 
BRANCH  12  13
ATOM     13  C   UNL     1    -129.829 116.522  45.281  1.00  0.00     0.053 C 
BRANCH  13  14
ATOM     14  C   UNL     1    -130.587 116.939  46.502  1.00  0.00     0.041 C 
ATOM     15  O   UNL     1    -130.616 118.150  46.847  1.00  0.00    -0.550 OA
ATOM     16  O   UNL     1    -131.226 115.984  47.283  1.00  0.00    -0.550 OA
ENDBRANCH  13  14
ENDBRANCH  12  13
ENDBRANCH  11  12
ENDBRANCH  10  11
ENDBRANCH   9  10
ENDBRANCH   8   9
ENDBRANCH   7   8
ENDBRANCH   6   7
ENDBRANCH   5   6
ENDBRANCH   4   5
ENDBRANCH   3   4
ENDBRANCH   2   3
ENDBRANCH   1   2
BRANCH   1  17
ATOM     17  C   UNL     1    -129.780 109.233  39.055  1.00  0.00     0.000 C 
BRANCH  17  18
ATOM     18  C   UNL     1    -128.756 110.378  39.174  1.00  0.00     0.000 C 
BRANCH  18  19
ATOM     19  C   UNL     1    -129.349 111.800  39.191  1.00  0.00     0.000 C 
BRANCH  19  20
ATOM     20  C   UNL     1    -128.387 112.921  38.759  1.00  0.00     0.000 C 
BRANCH  20  21
ATOM     21  C   UNL     1    -128.033 112.866  37.262  1.00  0.00     0.000 C 
BRANCH  21  22
ATOM     22  C   UNL     1    -129.251 113.119  36.355  1.00  0.00    -0.000 C 
BRANCH  22  23
ATOM     23  C   UNL     1    -128.916 113.746  34.990  1.00  0.00    -0.000 C 
BRANCH  23  24
ATOM     24  C   UNL     1    -130.119 114.451  34.322  1.00  0.00    -0.000 C 
BRANCH  24  25
ATOM     25  C   UNL     1    -130.992 113.515  33.464  1.00  0.00    -0.000 C 
BRANCH  25  26
ATOM     26  C   UNL     1    -132.325 113.091  34.112  1.00  0.00    -0.000 C 
BRANCH  26  27
ATOM     27  C   UNL     1    -133.326 114.248  34.252  1.00  0.00    -0.000 C 
BRANCH  27  28
ATOM     28  C   UNL     1    -134.628 113.943  33.493  1.00  0.00    -0.000 C 
BRANCH  28  29
ATOM     29  C   UNL     1    -134.381 113.204  32.168  1.00  0.00    -0.003 C 
ATOM     30  C   UNL     1    -135.573 113.284  31.212  1.00  0.00     0.004 C 
ENDBRANCH  28  29
ENDBRANCH  27  28
ENDBRANCH  26  27
ENDBRANCH  25  26
ENDBRANCH  24  25
ENDBRANCH  23  24
ENDBRANCH  22  23
ENDBRANCH  21  22
ENDBRANCH  20  21
ENDBRANCH  19  20
ENDBRANCH  18  19
ENDBRANCH  17  18
ENDBRANCH   1  17
TORSDOF 26
ENDMDL
MODEL 6
REMARK VINA RESULT:    -4.389      3.079      9.146
REMARK INTER + INTRA:         -13.076
REMARK INTER:                 -11.669
REMARK INTRA:                  -1.407
REMARK UNBOUND:                -2.017
REMARK SMILES CCCCCCCCCCCCCCCCCCCCCCCCCCCC(=O)[O-]
REMARK SMILES IDX 15 1 16 2 17 3 18 4 19 5 20 6 21 7 22 8 23 9 24 10 25 11
REMARK SMILES IDX 26 12 27 13 28 14 29 15 30 16 14 17 13 18 12 19 11 20 10 21
REMARK SMILES IDX 9 22 8 23 7 24 6 25 5 26 4 27 3 28 2 29 1 30
REMARK H PARENT
REMARK Flexibility Score: inf
ROOT
ATOM      1  C   UNL     1    -129.372 107.166  40.857  1.00  0.00     0.000 C 
ENDROOT
BRANCH   1   2
ATOM      2  C   UNL     1    -128.290 107.986  41.586  1.00  0.00     0.000 C 
BRANCH   2   3
ATOM      3  C   UNL     1    -128.636 108.245  43.061  1.00  0.00     0.000 C 
BRANCH   3   4
ATOM      4  C   UNL     1    -129.749 109.288  43.236  1.00  0.00     0.000 C 
BRANCH   4   5
ATOM      5  C   UNL     1    -129.248 110.690  42.867  1.00  0.00     0.000 C 
BRANCH   5   6
ATOM      6  C   UNL     1    -129.347 111.644  44.064  1.00  0.00     0.000 C 
BRANCH   6   7
ATOM      7  C   UNL     1    -129.016 113.083  43.646  1.00  0.00     0.000 C 
BRANCH   7   8
ATOM      8  C   UNL     1    -129.982 114.081  44.300  1.00  0.00     0.000 C 
BRANCH   8   9
ATOM      9  C   UNL     1    -129.355 114.816  45.495  1.00  0.00     0.000 C 
BRANCH   9  10
ATOM     10  C   UNL     1    -130.279 115.897  46.082  1.00  0.00     0.000 C 
BRANCH  10  11
ATOM     11  C   UNL     1    -130.667 116.964  45.036  1.00  0.00     0.000 C 
BRANCH  11  12
ATOM     12  C   UNL     1    -129.830 118.251  45.133  1.00  0.00     0.006 C 
BRANCH  12  13
ATOM     13  C   UNL     1    -128.485 118.144  44.405  1.00  0.00     0.053 C 
BRANCH  13  14
ATOM     14  C   UNL     1    -128.697 117.925  42.941  1.00  0.00     0.041 C 
ATOM     15  O   UNL     1    -129.433 116.985  42.541  1.00  0.00    -0.550 OA
ATOM     16  O   UNL     1    -128.047 118.733  42.016  1.00  0.00    -0.550 OA
ENDBRANCH  13  14
ENDBRANCH  12  13
ENDBRANCH  11  12
ENDBRANCH  10  11
ENDBRANCH   9  10
ENDBRANCH   8   9
ENDBRANCH   7   8
ENDBRANCH   6   7
ENDBRANCH   5   6
ENDBRANCH   4   5
ENDBRANCH   3   4
ENDBRANCH   2   3
ENDBRANCH   1   2
BRANCH   1  17
ATOM     17  C   UNL     1    -129.965 107.905  39.639  1.00  0.00     0.000 C 
BRANCH  17  18
ATOM     18  C   UNL     1    -129.196 109.179  39.240  1.00  0.00     0.000 C 
BRANCH  18  19
ATOM     19  C   UNL     1    -129.992 110.494  39.337  1.00  0.00     0.000 C 
BRANCH  19  20
ATOM     20  C   UNL     1    -129.153 111.782  39.240  1.00  0.00     0.000 C 
BRANCH  20  21
ATOM     21  C   UNL     1    -128.237 111.811  38.004  1.00  0.00     0.000 C 
BRANCH  21  22
ATOM     22  C   UNL     1    -128.226 113.183  37.306  1.00  0.00    -0.000 C 
BRANCH  22  23
ATOM     23  C   UNL     1    -128.500 113.135  35.792  1.00  0.00    -0.000 C 
BRANCH  23  24
ATOM     24  C   UNL     1    -129.358 114.317  35.282  1.00  0.00    -0.000 C 
BRANCH  24  25
ATOM     25  C   UNL     1    -130.274 113.957  34.097  1.00  0.00    -0.000 C 
BRANCH  25  26
ATOM     26  C   UNL     1    -131.779 114.175  34.347  1.00  0.00    -0.000 C 
BRANCH  26  27
ATOM     27  C   UNL     1    -132.606 112.884  34.238  1.00  0.00    -0.000 C 
BRANCH  27  28
ATOM     28  C   UNL     1    -133.226 112.745  32.839  1.00  0.00    -0.000 C 
BRANCH  28  29
ATOM     29  C   UNL     1    -134.517 113.563  32.680  1.00  0.00    -0.003 C 
ATOM     30  C   UNL     1    -135.328 113.159  31.447  1.00  0.00     0.004 C 
ENDBRANCH  28  29
ENDBRANCH  27  28
ENDBRANCH  26  27
ENDBRANCH  25  26
ENDBRANCH  24  25
ENDBRANCH  23  24
ENDBRANCH  22  23
ENDBRANCH  21  22
ENDBRANCH  20  21
ENDBRANCH  19  20
ENDBRANCH  18  19
ENDBRANCH  17  18
ENDBRANCH   1  17
TORSDOF 26
ENDMDL
MODEL 7
REMARK VINA RESULT:    -4.376      5.741      8.714
REMARK INTER + INTRA:         -13.045
REMARK INTER:                 -11.049
REMARK INTRA:                  -1.996
REMARK UNBOUND:                -2.017
REMARK SMILES CCCCCCCCCCCCCCCCCCCCCCCCCCCC(=O)[O-]
REMARK SMILES IDX 15 1 16 2 17 3 18 4 19 5 20 6 21 7 22 8 23 9 24 10 25 11
REMARK SMILES IDX 26 12 27 13 28 14 29 15 30 16 14 17 13 18 12 19 11 20 10 21
REMARK SMILES IDX 9 22 8 23 7 24 6 25 5 26 4 27 3 28 2 29 1 30
REMARK H PARENT
REMARK Flexibility Score: inf
ROOT
ATOM      1  C   UNL     1    -131.369 107.475  38.776  1.00  0.00     0.000 C 
ENDROOT
BRANCH   1   2
ATOM      2  C   UNL     1    -129.848 107.239  38.719  1.00  0.00     0.000 C 
BRANCH   2   3
ATOM      3  C   UNL     1    -129.463 105.778  38.999  1.00  0.00     0.000 C 
BRANCH   3   4
ATOM      4  C   UNL     1    -128.568 105.626  40.237  1.00  0.00     0.000 C 
BRANCH   4   5
ATOM      5  C   UNL     1    -129.100 106.466  41.405  1.00  0.00     0.000 C 
BRANCH   5   6
ATOM      6  C   UNL     1    -128.006 107.379  41.971  1.00  0.00     0.000 C 
BRANCH   6   7
ATOM      7  C   UNL     1    -128.618 108.611  42.650  1.00  0.00     0.000 C 
BRANCH   7   8
ATOM      8  C   UNL     1    -130.038 108.313  43.153  1.00  0.00     0.000 C 
BRANCH   8   9
ATOM      9  C   UNL     1    -130.312 108.910  44.542  1.00  0.00     0.000 C 
BRANCH   9  10
ATOM     10  C   UNL     1    -131.762 108.695  45.008  1.00  0.00     0.000 C 
BRANCH  10  11
ATOM     11  C   UNL     1    -131.866 108.533  46.540  1.00  0.00     0.000 C 
BRANCH  11  12
ATOM     12  C   UNL     1    -130.499 108.472  47.244  1.00  0.00     0.006 C 
BRANCH  12  13
ATOM     13  C   UNL     1    -130.440 107.401  48.339  1.00  0.00     0.053 C 
BRANCH  13  14
ATOM     14  C   UNL     1    -129.246 107.611  49.215  1.00  0.00     0.041 C 
ATOM     15  O   UNL     1    -128.409 106.684  49.378  1.00  0.00    -0.550 OA
ATOM     16  O   UNL     1    -129.078 108.816  49.886  1.00  0.00    -0.550 OA
ENDBRANCH  13  14
ENDBRANCH  12  13
ENDBRANCH  11  12
ENDBRANCH  10  11
ENDBRANCH   9  10
ENDBRANCH   8   9
ENDBRANCH   7   8
ENDBRANCH   6   7
ENDBRANCH   5   6
ENDBRANCH   4   5
ENDBRANCH   3   4
ENDBRANCH   2   3
ENDBRANCH   1   2
BRANCH   1  17
ATOM     17  C   UNL     1    -131.744 108.972  38.768  1.00  0.00     0.000 C 
BRANCH  17  18
ATOM     18  C   UNL     1    -131.126 109.782  39.923  1.00  0.00     0.000 C 
BRANCH  18  19
ATOM     19  C   UNL     1    -129.656 110.200  39.730  1.00  0.00     0.000 C 
BRANCH  19  20
ATOM     20  C   UNL     1    -129.333 111.662  40.086  1.00  0.00     0.000 C 
BRANCH  20  21
ATOM     21  C   UNL     1    -130.464 112.356  40.865  1.00  0.00     0.000 C 
BRANCH  21  22
ATOM     22  C   UNL     1    -129.948 113.152  42.077  1.00  0.00    -0.000 C 
BRANCH  22  23
ATOM     23  C   UNL     1    -129.545 114.605  41.766  1.00  0.00    -0.000 C 
BRANCH  23  24
ATOM     24  C   UNL     1    -130.016 115.619  42.834  1.00  0.00    -0.000 C 
BRANCH  24  25
ATOM     25  C   UNL     1    -129.858 115.118  44.282  1.00  0.00    -0.000 C 
BRANCH  25  26
ATOM     26  C   UNL     1    -129.460 116.200  45.306  1.00  0.00    -0.000 C 
BRANCH  26  27
ATOM     27  C   UNL     1    -130.653 117.029  45.806  1.00  0.00    -0.000 C 
BRANCH  27  28
ATOM     28  C   UNL     1    -130.191 118.399  46.328  1.00  0.00    -0.000 C 
BRANCH  28  29
ATOM     29  C   UNL     1    -131.178 119.012  47.334  1.00  0.00    -0.003 C 
ATOM     30  C   UNL     1    -132.568 118.377  47.264  1.00  0.00     0.004 C 
ENDBRANCH  28  29
ENDBRANCH  27  28
ENDBRANCH  26  27
ENDBRANCH  25  26
ENDBRANCH  24  25
ENDBRANCH  23  24
ENDBRANCH  22  23
ENDBRANCH  21  22
ENDBRANCH  20  21
ENDBRANCH  19  20
ENDBRANCH  18  19
ENDBRANCH  17  18
ENDBRANCH   1  17
TORSDOF 26
ENDMDL
MODEL 8
REMARK VINA RESULT:    -4.336      1.289      2.269
REMARK INTER + INTRA:         -12.944
REMARK INTER:                 -11.536
REMARK INTRA:                  -1.408
REMARK UNBOUND:                -2.017
REMARK SMILES CCCCCCCCCCCCCCCCCCCCCCCCCCCC(=O)[O-]
REMARK SMILES IDX 15 1 16 2 17 3 18 4 19 5 20 6 21 7 22 8 23 9 24 10 25 11
REMARK SMILES IDX 26 12 27 13 28 14 29 15 30 16 14 17 13 18 12 19 11 20 10 21
REMARK SMILES IDX 9 22 8 23 7 24 6 25 5 26 4 27 3 28 2 29 1 30
REMARK H PARENT
REMARK Flexibility Score: inf
ROOT
ATOM      1  C   UNL     1    -129.366 107.636  41.378  1.00  0.00     0.000 C 
ENDROOT
BRANCH   1   2
ATOM      2  C   UNL     1    -129.141 108.419  40.071  1.00  0.00     0.000 C 
BRANCH   2   3
ATOM      3  C   UNL     1    -129.768 109.821  40.104  1.00  0.00     0.000 C 
BRANCH   3   4
ATOM      4  C   UNL     1    -129.666 110.549  38.756  1.00  0.00     0.000 C 
BRANCH   4   5
ATOM      5  C   UNL     1    -128.900 111.870  38.903  1.00  0.00     0.000 C 
BRANCH   5   6
ATOM      6  C   UNL     1    -128.106 112.193  37.631  1.00  0.00     0.000 C 
BRANCH   6   7
ATOM      7  C   UNL     1    -128.604 113.494  36.990  1.00  0.00     0.000 C 
BRANCH   7   8
ATOM      8  C   UNL     1    -128.865 113.303  35.489  1.00  0.00     0.000 C 
BRANCH   8   9
ATOM      9  C   UNL     1    -129.821 114.359  34.914  1.00  0.00     0.000 C 
BRANCH   9  10
ATOM     10  C   UNL     1    -130.655 113.829  33.735  1.00  0.00     0.000 C 
BRANCH  10  11
ATOM     11  C   UNL     1    -132.012 113.250  34.193  1.00  0.00     0.000 C 
BRANCH  11  12
ATOM     12  C   UNL     1    -132.921 112.823  33.027  1.00  0.00     0.006 C 
BRANCH  12  13
ATOM     13  C   UNL     1    -134.337 113.400  33.132  1.00  0.00     0.053 C 
BRANCH  13  14
ATOM     14  C   UNL     1    -134.965 113.500  31.779  1.00  0.00     0.041 C 
ATOM     15  O   UNL     1    -135.440 112.473  31.224  1.00  0.00    -0.550 OA
ATOM     16  O   UNL     1    -134.988 114.718  31.110  1.00  0.00    -0.550 OA
ENDBRANCH  13  14
ENDBRANCH  12  13
ENDBRANCH  11  12
ENDBRANCH  10  11
ENDBRANCH   9  10
ENDBRANCH   8   9
ENDBRANCH   7   8
ENDBRANCH   6   7
ENDBRANCH   5   6
ENDBRANCH   4   5
ENDBRANCH   3   4
ENDBRANCH   2   3
ENDBRANCH   1   2
BRANCH   1  17
ATOM     17  C   UNL     1    -130.169 108.436  42.426  1.00  0.00     0.000 C 
BRANCH  17  18
ATOM     18  C   UNL     1    -129.310 109.025  43.561  1.00  0.00     0.000 C 
BRANCH  18  19
ATOM     19  C   UNL     1    -130.087 109.763  44.667  1.00  0.00     0.000 C 
BRANCH  19  20
ATOM     20  C   UNL     1    -129.704 111.241  44.869  1.00  0.00     0.000 C 
BRANCH  20  21
ATOM     21  C   UNL     1    -129.098 111.883  43.609  1.00  0.00     0.000 C 
BRANCH  21  22
ATOM     22  C   UNL     1    -129.273 113.412  43.580  1.00  0.00    -0.000 C 
BRANCH  22  23
ATOM     23  C   UNL     1    -130.213 113.931  42.477  1.00  0.00    -0.000 C 
BRANCH  23  24
ATOM     24  C   UNL     1    -130.340 115.472  42.448  1.00  0.00    -0.000 C 
BRANCH  24  25
ATOM     25  C   UNL     1    -128.987 116.209  42.415  1.00  0.00    -0.000 C 
BRANCH  25  26
ATOM     26  C   UNL     1    -128.997 117.617  43.043  1.00  0.00    -0.000 C 
BRANCH  26  27
ATOM     27  C   UNL     1    -129.767 117.683  44.371  1.00  0.00    -0.000 C 
BRANCH  27  28
ATOM     28  C   UNL     1    -129.432 116.475  45.261  1.00  0.00    -0.000 C 
BRANCH  28  29
ATOM     29  C   UNL     1    -130.362 116.364  46.480  1.00  0.00    -0.003 C 
ATOM     30  C   UNL     1    -131.195 117.627  46.708  1.00  0.00     0.004 C 
ENDBRANCH  28  29
ENDBRANCH  27  28
ENDBRANCH  26  27
ENDBRANCH  25  26
ENDBRANCH  24  25
ENDBRANCH  23  24
ENDBRANCH  22  23
ENDBRANCH  21  22
ENDBRANCH  20  21
ENDBRANCH  19  20
ENDBRANCH  18  19
ENDBRANCH  17  18
ENDBRANCH   1  17
TORSDOF 26
ENDMDL
MODEL 9
REMARK VINA RESULT:    -4.331      1.257      3.135
REMARK INTER + INTRA:         -12.931
REMARK INTER:                 -11.504
REMARK INTRA:                  -1.427
REMARK UNBOUND:                -2.017
REMARK SMILES CCCCCCCCCCCCCCCCCCCCCCCCCCCC(=O)[O-]
REMARK SMILES IDX 15 1 16 2 17 3 18 4 19 5 20 6 21 7 22 8 23 9 24 10 25 11
REMARK SMILES IDX 26 12 27 13 28 14 29 15 30 16 14 17 13 18 12 19 11 20 10 21
REMARK SMILES IDX 9 22 8 23 7 24 6 25 5 26 4 27 3 28 2 29 1 30
REMARK H PARENT
REMARK Flexibility Score: inf
ROOT
ATOM      1  C   UNL     1    -129.091 109.087  42.022  1.00  0.00     0.000 C 
ENDROOT
BRANCH   1   2
ATOM      2  C   UNL     1    -130.126 108.457  41.071  1.00  0.00     0.000 C 
BRANCH   2   3
ATOM      3  C   UNL     1    -129.921 108.878  39.608  1.00  0.00     0.000 C 
BRANCH   3   4
ATOM      4  C   UNL     1    -129.496 110.347  39.467  1.00  0.00     0.000 C 
BRANCH   4   5
ATOM      5  C   UNL     1    -128.068 110.454  38.918  1.00  0.00     0.000 C 
BRANCH   5   6
ATOM      6  C   UNL     1    -128.018 111.358  37.680  1.00  0.00     0.000 C 
BRANCH   6   7
ATOM      7  C   UNL     1    -128.204 112.830  38.070  1.00  0.00     0.000 C 
BRANCH   7   8
ATOM      8  C   UNL     1    -128.173 113.736  36.831  1.00  0.00     0.000 C 
BRANCH   8   9
ATOM      9  C   UNL     1    -129.105 113.243  35.713  1.00  0.00     0.000 C 
BRANCH   9  10
ATOM     10  C   UNL     1    -129.676 114.391  34.864  1.00  0.00     0.000 C 
BRANCH  10  11
ATOM     11  C   UNL     1    -130.617 113.882  33.751  1.00  0.00     0.000 C 
BRANCH  11  12
ATOM     12  C   UNL     1    -132.014 113.489  34.261  1.00  0.00     0.006 C 
BRANCH  12  13
ATOM     13  C   UNL     1    -132.895 112.870  33.169  1.00  0.00     0.053 C 
BRANCH  13  14
ATOM     14  C   UNL     1    -134.219 113.562  33.108  1.00  0.00     0.041 C 
ATOM     15  O   UNL     1    -134.463 114.533  33.874  1.00  0.00    -0.550 OA
ATOM     16  O   UNL     1    -135.201 113.111  32.235  1.00  0.00    -0.550 OA
ENDBRANCH  13  14
ENDBRANCH  12  13
ENDBRANCH  11  12
ENDBRANCH  10  11
ENDBRANCH   9  10
ENDBRANCH   8   9
ENDBRANCH   7   8
ENDBRANCH   6   7
ENDBRANCH   5   6
ENDBRANCH   4   5
ENDBRANCH   3   4
ENDBRANCH   2   3
ENDBRANCH   1   2
BRANCH   1  17
ATOM     17  C   UNL     1    -129.738 109.940  43.133  1.00  0.00     0.000 C 
BRANCH  17  18
ATOM     18  C   UNL     1    -128.838 111.074  43.660  1.00  0.00     0.000 C 
BRANCH  18  19
ATOM     19  C   UNL     1    -129.387 112.501  43.472  1.00  0.00     0.000 C 
BRANCH  19  20
ATOM     20  C   UNL     1    -130.120 112.756  42.143  1.00  0.00     0.000 C 
BRANCH  20  21
ATOM     21  C   UNL     1    -130.001 114.212  41.660  1.00  0.00     0.000 C 
BRANCH  21  22
ATOM     22  C   UNL     1    -129.726 115.197  42.811  1.00  0.00    -0.000 C 
BRANCH  22  23
ATOM     23  C   UNL     1    -129.762 116.682  42.408  1.00  0.00    -0.000 C 
BRANCH  23  24
ATOM     24  C   UNL     1    -128.371 117.359  42.416  1.00  0.00    -0.000 C 
BRANCH  24  25
ATOM     25  C   UNL     1    -128.364 118.761  43.053  1.00  0.00    -0.000 C 
BRANCH  25  26
ATOM     26  C   UNL     1    -129.297 118.930  44.269  1.00  0.00    -0.000 C 
BRANCH  26  27
ATOM     27  C   UNL     1    -129.401 117.664  45.133  1.00  0.00    -0.000 C 
BRANCH  27  28
ATOM     28  C   UNL     1    -130.701 117.662  45.952  1.00  0.00    -0.000 C 
BRANCH  28  29
ATOM     29  C   UNL     1    -130.814 116.443  46.881  1.00  0.00    -0.003 C 
ATOM     30  C   UNL     1    -130.372 115.141  46.207  1.00  0.00     0.004 C 
ENDBRANCH  28  29
ENDBRANCH  27  28
ENDBRANCH  26  27
ENDBRANCH  25  26
ENDBRANCH  24  25
ENDBRANCH  23  24
ENDBRANCH  22  23
ENDBRANCH  21  22
ENDBRANCH  20  21
ENDBRANCH  19  20
ENDBRANCH  18  19
ENDBRANCH  17  18
ENDBRANCH   1  17
TORSDOF 26
ENDMDL
