MODEL 1
REMARK VINA RESULT:    -5.499      0.000      0.000
REMARK INTER + INTRA:          -5.660
REMARK INTER:                  -5.660
REMARK INTRA:                   0.000
REMARK UNBOUND:                 0.000
REMARK SMILES O=c1ccc2ccc(O)cc2o1
REMARK SMILES IDX 6 1 7 2 8 3 10 4 11 5 5 6 4 7 3 8 2 9 1 10 12 11 9 12
REMARK H PARENT 9 13
REMARK Flexibility Score: inf
ROOT
ATOM      1  C   UNL     1      18.298 -50.899   7.095  1.00  0.00     0.016 A 
ATOM      2  C   UNL     1      18.110 -49.552   6.765  1.00  0.00     0.047 A 
ATOM      3  C   UNL     1      16.819 -49.020   6.668  1.00  0.00     0.119 A 
ATOM      4  C   UNL     1      15.705 -49.840   6.900  1.00  0.00     0.094 A 
ATOM      5  C   UNL     1      15.882 -51.188   7.230  1.00  0.00     0.142 A 
ATOM      6  C   UNL     1      17.187 -51.721   7.329  1.00  0.00     0.018 A 
ATOM      7  C   UNL     1      17.332 -53.072   7.659  1.00  0.00     0.019 A 
ATOM      8  C   UNL     1      16.195 -53.848   7.883  1.00  0.00     0.094 A 
ATOM      9  C   UNL     1      14.934 -53.252   7.768  1.00  0.00     0.336 A 
ATOM     10  O   UNL     1      13.897 -53.936   7.966  1.00  0.00    -0.246 OA
ATOM     11  O   UNL     1      14.824 -51.965   7.452  1.00  0.00    -0.423 OA
ENDROOT
BRANCH   3  12
ATOM     12  O   UNL     1      16.654 -47.677   6.339  1.00  0.00    -0.508 OA
ATOM     13  H   UNL     1      17.432 -47.028   6.356  1.00  0.00     0.293 HD
ENDBRANCH   3  12
TORSDOF 1
ENDMDL
MODEL 2
REMARK VINA RESULT:    -5.062      2.784      3.388
REMARK INTER + INTRA:          -5.210
REMARK INTER:                  -5.210
REMARK INTRA:                   0.000
REMARK UNBOUND:                 0.000
REMARK SMILES O=c1ccc2ccc(O)cc2o1
REMARK SMILES IDX 6 1 7 2 8 3 10 4 11 5 5 6 4 7 3 8 2 9 1 10 12 11 9 12
REMARK H PARENT 9 13
REMARK Flexibility Score: inf
ROOT
ATOM      1  C   UNL     1      17.834 -48.894   4.921  1.00  0.00     0.016 A 
ATOM      2  C   UNL     1      16.705 -48.729   4.113  1.00  0.00     0.047 A 
ATOM      3  C   UNL     1      15.423 -48.951   4.632  1.00  0.00     0.119 A 
ATOM      4  C   UNL     1      15.270 -49.344   5.970  1.00  0.00     0.094 A 
ATOM      5  C   UNL     1      16.393 -49.512   6.787  1.00  0.00     0.142 A 
ATOM      6  C   UNL     1      17.684 -49.285   6.259  1.00  0.00     0.018 A 
ATOM      7  C   UNL     1      18.788 -49.462   7.099  1.00  0.00     0.019 A 
ATOM      8  C   UNL     1      18.586 -49.852   8.423  1.00  0.00     0.094 A 
ATOM      9  C   UNL     1      17.278 -50.057   8.877  1.00  0.00     0.336 A 
ATOM     10  O   UNL     1      17.075 -50.409  10.067  1.00  0.00    -0.246 OA
ATOM     11  O   UNL     1      16.245 -49.883   8.056  1.00  0.00    -0.423 OA
ENDROOT
BRANCH   3  12
ATOM     12  O   UNL     1      14.312 -48.781   3.811  1.00  0.00    -0.508 OA
ATOM     13  H   UNL     1      14.205 -49.304   2.950  1.00  0.00     0.293 HD
ENDBRANCH   3  12
TORSDOF 1
ENDMDL
MODEL 3
REMARK VINA RESULT:    -4.972     10.922     11.210
REMARK INTER + INTRA:          -5.118
REMARK INTER:                  -5.118
REMARK INTRA:                   0.000
REMARK UNBOUND:                 0.000
REMARK SMILES O=c1ccc2ccc(O)cc2o1
REMARK SMILES IDX 6 1 7 2 8 3 10 4 11 5 5 6 4 7 3 8 2 9 1 10 12 11 9 12
REMARK H PARENT 9 13
REMARK Flexibility Score: inf
ROOT
ATOM      1  C   UNL     1      17.376 -54.387  -4.003  1.00  0.00     0.016 A 
ATOM      2  C   UNL     1      16.700 -54.845  -5.138  1.00  0.00     0.047 A 
ATOM      3  C   UNL     1      15.353 -54.517  -5.341  1.00  0.00     0.119 A 
ATOM      4  C   UNL     1      14.677 -53.726  -4.401  1.00  0.00     0.094 A 
ATOM      5  C   UNL     1      15.344 -53.263  -3.262  1.00  0.00     0.142 A 
ATOM      6  C   UNL     1      16.703 -53.595  -3.062  1.00  0.00     0.018 A 
ATOM      7  C   UNL     1      17.344 -53.118  -1.913  1.00  0.00     0.019 A 
ATOM      8  C   UNL     1      16.630 -52.334  -1.007  1.00  0.00     0.094 A 
ATOM      9  C   UNL     1      15.287 -52.045  -1.272  1.00  0.00     0.336 A 
ATOM     10  O   UNL     1      14.626 -51.339  -0.466  1.00  0.00    -0.246 OA
ATOM     11  O   UNL     1      14.701 -52.512  -2.372  1.00  0.00    -0.423 OA
ENDROOT
BRANCH   3  12
ATOM     12  O   UNL     1      14.698 -54.983  -6.478  1.00  0.00    -0.508 OA
ATOM     13  H   UNL     1      14.045 -55.756  -6.433  1.00  0.00     0.293 HD
ENDBRANCH   3  12
TORSDOF 1
ENDMDL
MODEL 4
REMARK VINA RESULT:    -4.955      0.869      4.226
REMARK INTER + INTRA:          -5.100
REMARK INTER:                  -5.100
REMARK INTRA:                   0.000
REMARK UNBOUND:                 0.000
REMARK SMILES O=c1ccc2ccc(O)cc2o1
REMARK SMILES IDX 6 1 7 2 8 3 10 4 11 5 5 6 4 7 3 8 2 9 1 10 12 11 9 12
REMARK H PARENT 9 13
REMARK Flexibility Score: inf
ROOT
ATOM      1  C   UNL     1      17.373 -52.764   7.598  1.00  0.00     0.016 A 
ATOM      2  C   UNL     1      16.343 -53.664   7.890  1.00  0.00     0.047 A 
ATOM      3  C   UNL     1      15.005 -53.259   7.811  1.00  0.00     0.119 A 
ATOM      4  C   UNL     1      14.694 -51.943   7.439  1.00  0.00     0.094 A 
ATOM      5  C   UNL     1      15.717 -51.035   7.144  1.00  0.00     0.142 A 
ATOM      6  C   UNL     1      17.066 -51.449   7.224  1.00  0.00     0.018 A 
ATOM      7  C   UNL     1      18.067 -50.519   6.925  1.00  0.00     0.019 A 
ATOM      8  C   UNL     1      17.709 -49.222   6.558  1.00  0.00     0.094 A 
ATOM      9  C   UNL     1      16.352 -48.884   6.500  1.00  0.00     0.336 A 
ATOM     10  O   UNL     1      16.009 -47.719   6.171  1.00  0.00    -0.246 OA
ATOM     11  O   UNL     1      15.420 -49.787   6.790  1.00  0.00    -0.423 OA
ENDROOT
BRANCH   3  12
ATOM     12  O   UNL     1      13.995 -54.170   8.106  1.00  0.00    -0.508 OA
ATOM     13  H   UNL     1      14.024 -54.741   8.943  1.00  0.00     0.293 HD
ENDBRANCH   3  12
TORSDOF 1
ENDMDL
MODEL 5
REMARK VINA RESULT:    -4.912     10.746     10.832
REMARK INTER + INTRA:          -5.056
REMARK INTER:                  -5.056
REMARK INTRA:                   0.000
REMARK UNBOUND:                 0.000
REMARK SMILES O=c1ccc2ccc(O)cc2o1
REMARK SMILES IDX 6 1 7 2 8 3 10 4 11 5 5 6 4 7 3 8 2 9 1 10 12 11 9 12
REMARK H PARENT 9 13
REMARK Flexibility Score: inf
ROOT
ATOM      1  C   UNL     1      17.355 -53.131  -1.898  1.00  0.00     0.016 A 
ATOM      2  C   UNL     1      16.739 -52.356  -0.910  1.00  0.00     0.047 A 
ATOM      3  C   UNL     1      15.388 -52.006  -1.025  1.00  0.00     0.119 A 
ATOM      4  C   UNL     1      14.647 -52.431  -2.138  1.00  0.00     0.094 A 
ATOM      5  C   UNL     1      15.255 -53.207  -3.132  1.00  0.00     0.142 A 
ATOM      6  C   UNL     1      16.618 -53.559  -3.011  1.00  0.00     0.018 A 
ATOM      7  C   UNL     1      17.198 -54.334  -4.021  1.00  0.00     0.019 A 
ATOM      8  C   UNL     1      16.421 -54.735  -5.107  1.00  0.00     0.094 A 
ATOM      9  C   UNL     1      15.077 -54.349  -5.159  1.00  0.00     0.336 A 
ATOM     10  O   UNL     1      14.361 -54.701  -6.132  1.00  0.00    -0.246 OA
ATOM     11  O   UNL     1      14.550 -53.611  -4.186  1.00  0.00    -0.423 OA
ENDROOT
BRANCH   3  12
ATOM     12  O   UNL     1      14.793 -51.234  -0.031  1.00  0.00    -0.508 OA
ATOM     13  H   UNL     1      15.335 -50.597   0.541  1.00  0.00     0.293 HD
ENDBRANCH   3  12
TORSDOF 1
ENDMDL
MODEL 6
REMARK VINA RESULT:    -4.901      9.891     10.204
REMARK INTER + INTRA:          -5.044
REMARK INTER:                  -5.044
REMARK INTRA:                   0.000
REMARK UNBOUND:                 0.000
REMARK SMILES O=c1ccc2ccc(O)cc2o1
REMARK SMILES IDX 6 1 7 2 8 3 10 4 11 5 5 6 4 7 3 8 2 9 1 10 12 11 9 12
REMARK H PARENT 9 13
REMARK Flexibility Score: inf
ROOT
ATOM      1  C   UNL     1      13.641 -51.981  -2.084  1.00  0.00     0.016 A 
ATOM      2  C   UNL     1      13.909 -51.205  -0.952  1.00  0.00     0.047 A 
ATOM      3  C   UNL     1      15.197 -51.176  -0.402  1.00  0.00     0.119 A 
ATOM      4  C   UNL     1      16.224 -51.930  -0.988  1.00  0.00     0.094 A 
ATOM      5  C   UNL     1      15.966 -52.709  -2.121  1.00  0.00     0.142 A 
ATOM      6  C   UNL     1      14.666 -52.735  -2.673  1.00  0.00     0.018 A 
ATOM      7  C   UNL     1      14.438 -53.523  -3.805  1.00  0.00     0.019 A 
ATOM      8  C   UNL     1      15.492 -54.255  -4.353  1.00  0.00     0.094 A 
ATOM      9  C   UNL     1      16.753 -54.180  -3.753  1.00  0.00     0.336 A 
ATOM     10  O   UNL     1      17.716 -54.833  -4.233  1.00  0.00    -0.246 OA
ATOM     11  O   UNL     1      16.943 -53.422  -2.676  1.00  0.00    -0.423 OA
ENDROOT
BRANCH   3  12
ATOM     12  O   UNL     1      15.443 -50.397   0.726  1.00  0.00    -0.508 OA
ATOM     13  H   UNL     1      14.687 -50.038   1.297  1.00  0.00     0.293 HD
ENDBRANCH   3  12
TORSDOF 1
ENDMDL
MODEL 7
REMARK VINA RESULT:    -4.791      2.810      4.075
REMARK INTER + INTRA:          -4.931
REMARK INTER:                  -4.931
REMARK INTRA:                   0.000
REMARK UNBOUND:                 0.000
REMARK SMILES O=c1ccc2ccc(O)cc2o1
REMARK SMILES IDX 6 1 7 2 8 3 10 4 11 5 5 6 4 7 3 8 2 9 1 10 12 11 9 12
REMARK H PARENT 9 13
REMARK Flexibility Score: inf
ROOT
ATOM      1  C   UNL     1      18.617 -49.569   6.990  1.00  0.00     0.016 A 
ATOM      2  C   UNL     1      18.506 -49.984   8.321  1.00  0.00     0.047 A 
ATOM      3  C   UNL     1      17.249 -50.076   8.932  1.00  0.00     0.119 A 
ATOM      4  C   UNL     1      16.094 -49.749   8.206  1.00  0.00     0.094 A 
ATOM      5  C   UNL     1      16.194 -49.333   6.875  1.00  0.00     0.142 A 
ATOM      6  C   UNL     1      17.465 -49.242   6.262  1.00  0.00     0.018 A 
ATOM      7  C   UNL     1      17.534 -48.822   4.930  1.00  0.00     0.019 A 
ATOM      8  C   UNL     1      16.357 -48.509   4.249  1.00  0.00     0.094 A 
ATOM      9  C   UNL     1      15.135 -48.624   4.920  1.00  0.00     0.336 A 
ATOM     10  O   UNL     1      14.063 -48.345   4.322  1.00  0.00    -0.246 OA
ATOM     11  O   UNL     1      15.097 -49.025   6.188  1.00  0.00    -0.423 OA
ENDROOT
BRANCH   3  12
ATOM     12  O   UNL     1      17.160 -50.491  10.257  1.00  0.00    -0.508 OA
ATOM     13  H   UNL     1      16.294 -50.850  10.643  1.00  0.00     0.293 HD
ENDBRANCH   3  12
TORSDOF 1
ENDMDL
MODEL 8
REMARK VINA RESULT:    -4.731      2.600      3.876
REMARK INTER + INTRA:          -4.870
REMARK INTER:                  -4.870
REMARK INTRA:                   0.000
REMARK UNBOUND:                 0.000
REMARK SMILES O=c1ccc2ccc(O)cc2o1
REMARK SMILES IDX 6 1 7 2 8 3 10 4 11 5 5 6 4 7 3 8 2 9 1 10 12 11 9 12
REMARK H PARENT 9 13
REMARK Flexibility Score: inf
ROOT
ATOM      1  C   UNL     1      14.164 -50.136   6.139  1.00  0.00     0.016 A 
ATOM      2  C   UNL     1      13.692 -49.157   5.259  1.00  0.00     0.047 A 
ATOM      3  C   UNL     1      14.552 -48.158   4.784  1.00  0.00     0.119 A 
ATOM      4  C   UNL     1      15.893 -48.137   5.194  1.00  0.00     0.094 A 
ATOM      5  C   UNL     1      16.374 -49.112   6.074  1.00  0.00     0.142 A 
ATOM      6  C   UNL     1      15.504 -50.119   6.550  1.00  0.00     0.018 A 
ATOM      7  C   UNL     1      16.013 -51.080   7.429  1.00  0.00     0.019 A 
ATOM      8  C   UNL     1      17.355 -51.019   7.807  1.00  0.00     0.094 A 
ATOM      9  C   UNL     1      18.157 -49.993   7.295  1.00  0.00     0.336 A 
ATOM     10  O   UNL     1      19.370 -49.921   7.625  1.00  0.00    -0.246 OA
ATOM     11  O   UNL     1      17.648 -49.091   6.460  1.00  0.00    -0.423 OA
ENDROOT
BRANCH   3  12
ATOM     12  O   UNL     1      14.063 -47.192   3.909  1.00  0.00    -0.508 OA
ATOM     13  H   UNL     1      14.285 -46.210   4.025  1.00  0.00     0.293 HD
ENDBRANCH   3  12
TORSDOF 1
ENDMDL
MODEL 9
REMARK VINA RESULT:    -4.717      2.629      4.548
REMARK INTER + INTRA:          -4.855
REMARK INTER:                  -4.855
REMARK INTRA:                   0.000
REMARK UNBOUND:                 0.000
REMARK SMILES O=c1ccc2ccc(O)cc2o1
REMARK SMILES IDX 6 1 7 2 8 3 10 4 11 5 5 6 4 7 3 8 2 9 1 10 12 11 9 12
REMARK H PARENT 9 13
REMARK Flexibility Score: inf
ROOT
ATOM      1  C   UNL     1      16.288 -50.486   8.904  1.00  0.00     0.016 A 
ATOM      2  C   UNL     1      17.360 -51.197   8.356  1.00  0.00     0.047 A 
ATOM      3  C   UNL     1      17.937 -50.789   7.147  1.00  0.00     0.119 A 
ATOM      4  C   UNL     1      17.438 -49.661   6.480  1.00  0.00     0.094 A 
ATOM      5  C   UNL     1      16.366 -48.942   7.020  1.00  0.00     0.142 A 
ATOM      6  C   UNL     1      15.787 -49.357   8.241  1.00  0.00     0.018 A 
ATOM      7  C   UNL     1      14.716 -48.620   8.755  1.00  0.00     0.019 A 
ATOM      8  C   UNL     1      14.254 -47.504   8.057  1.00  0.00     0.094 A 
ATOM      9  C   UNL     1      14.877 -47.152   6.854  1.00  0.00     0.336 A 
ATOM     10  O   UNL     1      14.475 -46.149   6.209  1.00  0.00    -0.246 OA
ATOM     11  O   UNL     1      15.894 -47.871   6.386  1.00  0.00    -0.423 OA
ENDROOT
BRANCH   3  12
ATOM     12  O   UNL     1      19.003 -51.511   6.618  1.00  0.00    -0.508 OA
ATOM     13  H   UNL     1      19.295 -52.395   7.018  1.00  0.00     0.293 HD
ENDBRANCH   3  12
TORSDOF 1
ENDMDL
