MODEL 1
REMARK VINA RESULT:    -4.970      0.000      0.000
REMARK INTER + INTRA:          -6.566
REMARK INTER:                  -7.149
REMARK INTRA:                   0.582
REMARK UNBOUND:                 0.582
REMARK SMILES O=c1cc(-c2ccc(O)c(O)c2)oc2cc(O[C@H]3O[C@@H](CO)[C@H](O)[C@@H](O)[C@@H]3O)cc(O)c12
REMARK SMILES IDX 17 1 16 2 4 3 3 4 13 5 2 6 14 7 1 8 32 9 15 10 30 11 29 12
REMARK SMILES IDX 5 13 6 14 7 15 8 16 12 17 10 18 9 19 11 21 31 23 18 25 27 26
REMARK SMILES IDX 19 27 25 28 20 29 23 30 28 31 26 33 21 35 22 36 24 38
REMARK H PARENT 9 20 11 22 31 24 28 32 26 34 22 37 24 39
REMARK Flexibility Score: inf
ROOT
ATOM      1  O   UNL     1      55.479  15.183  24.627  1.00  0.00    -0.462 OA
ENDROOT
BRANCH   1   2
ATOM      2  C   UNL     1      54.103  15.251  24.359  1.00  0.00     0.130 A 
ATOM      3  C   UNL     1      49.712  14.603  26.091  1.00  0.00     0.138 A 
ATOM      4  C   UNL     1      49.104  15.107  24.932  1.00  0.00     0.100 A 
ATOM      5  O   UNL     1      51.038  14.551  26.160  1.00  0.00    -0.456 OA
ATOM      6  C   UNL     1      49.897  15.520  23.861  1.00  0.00     0.197 A 
ATOM      7  C   UNL     1      51.839  14.925  25.168  1.00  0.00     0.146 A 
ATOM      8  O   UNL     1      49.327  16.027  22.860  1.00  0.00    -0.289 OA
ATOM      9  C   UNL     1      51.306  15.398  23.940  1.00  0.00     0.107 A 
ATOM     10  C   UNL     1      53.220  14.851  25.360  1.00  0.00     0.094 A 
ATOM     11  C   UNL     1      52.210  15.748  22.896  1.00  0.00     0.134 A 
ATOM     12  C   UNL     1      53.590  15.697  23.131  1.00  0.00     0.093 A 
BRANCH   3  13
ATOM     13  C   UNL     1      48.916  14.148  27.258  1.00  0.00     0.021 A 
ATOM     14  C   UNL     1      49.401  14.379  28.558  1.00  0.00     0.016 A 
ATOM     15  C   UNL     1      48.676  13.955  29.673  1.00  0.00     0.051 A 
ATOM     16  C   UNL     1      47.458  13.283  29.510  1.00  0.00     0.157 A 
ATOM     17  C   UNL     1      47.697  13.460  27.102  1.00  0.00     0.062 A 
ATOM     18  C   UNL     1      46.970  13.033  28.223  1.00  0.00     0.158 A 
BRANCH  16  19
ATOM     19  O   UNL     1      46.730  12.859  30.621  1.00  0.00    -0.504 OA
ATOM     20  H   UNL     1      46.164  13.503  31.160  1.00  0.00     0.293 HD
ENDBRANCH  16  19
BRANCH  18  21
ATOM     21  O   UNL     1      45.762  12.354  28.063  1.00  0.00    -0.504 OA
ATOM     22  H   UNL     1      45.018  12.426  28.748  1.00  0.00     0.293 HD
ENDBRANCH  18  21
ENDBRANCH   3  13
BRANCH  11  23
ATOM     23  O   UNL     1      51.810  16.124  21.610  1.00  0.00    -0.507 OA
ATOM     24  H   UNL     1      51.209  15.578  21.012  1.00  0.00     0.293 HD
ENDBRANCH  11  23
ENDBRANCH   1   2
BRANCH   1  25
ATOM     25  C   UNL     1      56.169  15.967  25.603  1.00  0.00     0.339 C 
ATOM     26  C   UNL     1      57.618  15.441  25.768  1.00  0.00     0.214 C 
ATOM     27  O   UNL     1      55.419  16.032  26.815  1.00  0.00    -0.332 OA
ATOM     28  C   UNL     1      58.082  15.642  27.208  1.00  0.00     0.180 C 
ATOM     29  C   UNL     1      55.655  14.953  27.712  1.00  0.00     0.179 C 
ATOM     30  C   UNL     1      57.149  14.859  28.153  1.00  0.00     0.177 C 
BRANCH  26  31
ATOM     31  O   UNL     1      58.485  16.121  24.897  1.00  0.00    -0.384 OA
ATOM     32  H   UNL     1      57.985  16.909  24.556  1.00  0.00     0.211 HD
ENDBRANCH  26  31
BRANCH  28  33
ATOM     33  O   UNL     1      59.403  15.184  27.345  1.00  0.00    -0.387 OA
ATOM     34  H   UNL     1      59.984  15.852  26.897  1.00  0.00     0.211 HD
ENDBRANCH  28  33
BRANCH  29  35
ATOM     35  C   UNL     1      55.096  13.614  27.184  1.00  0.00     0.191 C 
BRANCH  35  36
ATOM     36  O   UNL     1      56.084  12.911  26.479  1.00  0.00    -0.394 OA
ATOM     37  H   UNL     1      56.191  12.036  26.935  1.00  0.00     0.210 HD
ENDBRANCH  35  36
ENDBRANCH  29  35
BRANCH  30  38
ATOM     38  O   UNL     1      57.312  15.306  29.476  1.00  0.00    -0.387 OA
ATOM     39  H   UNL     1      57.332  16.299  29.457  1.00  0.00     0.211 HD
ENDBRANCH  30  38
ENDBRANCH   1  25
TORSDOF 11
ENDMDL
MODEL 2
REMARK VINA RESULT:    -4.745      2.358      9.319
REMARK INTER + INTRA:          -6.243
REMARK INTER:                  -5.183
REMARK INTRA:                  -1.060
REMARK UNBOUND:                 0.582
REMARK SMILES O=c1cc(-c2ccc(O)c(O)c2)oc2cc(O[C@H]3O[C@@H](CO)[C@H](O)[C@@H](O)[C@@H]3O)cc(O)c12
REMARK SMILES IDX 17 1 16 2 4 3 3 4 13 5 2 6 14 7 1 8 32 9 15 10 30 11 29 12
REMARK SMILES IDX 5 13 6 14 7 15 8 16 12 17 10 18 9 19 11 21 31 23 18 25 27 26
REMARK SMILES IDX 19 27 25 28 20 29 23 30 28 31 26 33 21 35 22 36 24 38
REMARK H PARENT 9 20 11 22 31 24 28 32 26 34 22 37 24 39
REMARK Flexibility Score: inf
ROOT
ATOM      1  O   UNL     1      51.442  15.451  25.069  1.00  0.00    -0.462 OA
ENDROOT
BRANCH   1   2
ATOM      2  C   UNL     1      52.483  15.111  25.946  1.00  0.00     0.130 A 
ATOM      3  C   UNL     1      57.199  15.031  26.623  1.00  0.00     0.138 A 
ATOM      4  C   UNL     1      57.073  14.572  27.942  1.00  0.00     0.100 A 
ATOM      5  O   UNL     1      56.104  15.247  25.902  1.00  0.00    -0.456 OA
ATOM      6  C   UNL     1      55.804  14.325  28.468  1.00  0.00     0.197 A 
ATOM      7  C   UNL     1      54.874  15.022  26.351  1.00  0.00     0.146 A 
ATOM      8  O   UNL     1      55.719  13.976  29.674  1.00  0.00    -0.289 OA
ATOM      9  C   UNL     1      54.658  14.508  27.657  1.00  0.00     0.107 A 
ATOM     10  C   UNL     1      53.794  15.310  25.515  1.00  0.00     0.094 A 
ATOM     11  C   UNL     1      53.320  14.248  28.073  1.00  0.00     0.134 A 
ATOM     12  C   UNL     1      52.256  14.580  27.225  1.00  0.00     0.093 A 
BRANCH   3  13
ATOM     13  C   UNL     1      58.523  15.308  26.013  1.00  0.00     0.021 A 
ATOM     14  C   UNL     1      59.653  15.432  26.840  1.00  0.00     0.016 A 
ATOM     15  C   UNL     1      60.910  15.700  26.292  1.00  0.00     0.051 A 
ATOM     16  C   UNL     1      61.057  15.859  24.909  1.00  0.00     0.157 A 
ATOM     17  C   UNL     1      58.678  15.482  24.623  1.00  0.00     0.062 A 
ATOM     18  C   UNL     1      59.939  15.753  24.074  1.00  0.00     0.158 A 
BRANCH  16  19
ATOM     19  O   UNL     1      62.310  16.125  24.358  1.00  0.00    -0.504 OA
ATOM     20  H   UNL     1      62.766  17.020  24.486  1.00  0.00     0.293 HD
ENDBRANCH  16  19
BRANCH  18  21
ATOM     21  O   UNL     1      60.088  15.922  22.698  1.00  0.00    -0.504 OA
ATOM     22  H   UNL     1      60.575  15.239  22.128  1.00  0.00     0.293 HD
ENDBRANCH  18  21
ENDBRANCH   3  13
BRANCH  11  23
ATOM     23  O   UNL     1      52.984  13.645  29.289  1.00  0.00    -0.507 OA
ATOM     24  H   UNL     1      52.514  12.758  29.380  1.00  0.00     0.293 HD
ENDBRANCH  11  23
ENDBRANCH   1   2
BRANCH   1  25
ATOM     25  C   UNL     1      51.089  14.728  23.888  1.00  0.00     0.339 C 
ATOM     26  C   UNL     1      50.591  15.714  22.799  1.00  0.00     0.214 C 
ATOM     27  O   UNL     1      50.175  13.676  24.198  1.00  0.00    -0.332 OA
ATOM     28  C   UNL     1      49.529  15.040  21.935  1.00  0.00     0.180 C 
ATOM     29  C   UNL     1      48.807  14.067  24.206  1.00  0.00     0.179 C 
ATOM     30  C   UNL     1      48.339  14.629  22.827  1.00  0.00     0.177 C 
BRANCH  26  31
ATOM     31  O   UNL     1      51.662  16.125  21.989  1.00  0.00    -0.384 OA
ATOM     32  H   UNL     1      52.390  15.461  22.121  1.00  0.00     0.211 HD
ENDBRANCH  26  31
BRANCH  28  33
ATOM     33  O   UNL     1      49.099  15.931  20.938  1.00  0.00    -0.387 OA
ATOM     34  H   UNL     1      48.420  15.449  20.398  1.00  0.00     0.211 HD
ENDBRANCH  28  33
BRANCH  29  35
ATOM     35  C   UNL     1      48.467  15.003  25.385  1.00  0.00     0.191 C 
BRANCH  35  36
ATOM     36  O   UNL     1      48.804  14.401  26.607  1.00  0.00    -0.394 OA
ATOM     37  H   UNL     1      48.085  14.639  27.249  1.00  0.00     0.210 HD
ENDBRANCH  35  36
ENDBRANCH  29  35
BRANCH  30  38
ATOM     38  O   UNL     1      47.527  13.700  22.154  1.00  0.00    -0.387 OA
ATOM     39  H   UNL     1      46.593  13.839  22.462  1.00  0.00     0.211 HD
ENDBRANCH  30  38
ENDBRANCH   1  25
TORSDOF 11
ENDMDL
MODEL 3
REMARK VINA RESULT:    -4.488      3.729      9.581
REMARK INTER + INTRA:          -5.873
REMARK INTER:                  -6.102
REMARK INTRA:                   0.229
REMARK UNBOUND:                 0.582
REMARK SMILES O=c1cc(-c2ccc(O)c(O)c2)oc2cc(O[C@H]3O[C@@H](CO)[C@H](O)[C@@H](O)[C@@H]3O)cc(O)c12
REMARK SMILES IDX 17 1 16 2 4 3 3 4 13 5 2 6 14 7 1 8 32 9 15 10 30 11 29 12
REMARK SMILES IDX 5 13 6 14 7 15 8 16 12 17 10 18 9 19 11 21 31 23 18 25 27 26
REMARK SMILES IDX 19 27 25 28 20 29 23 30 28 31 26 33 21 35 22 36 24 38
REMARK H PARENT 9 20 11 22 31 24 28 32 26 34 22 37 24 39
REMARK Flexibility Score: inf
ROOT
ATOM      1  O   UNL     1      54.256  15.527  26.416  1.00  0.00    -0.462 OA
ENDROOT
BRANCH   1   2
ATOM      2  C   UNL     1      55.633  15.592  26.151  1.00  0.00     0.130 A 
ATOM      3  C   UNL     1      58.989  15.907  22.784  1.00  0.00     0.138 A 
ATOM      4  C   UNL     1      60.024  16.012  23.724  1.00  0.00     0.100 A 
ATOM      5  O   UNL     1      57.735  15.790  23.206  1.00  0.00    -0.456 OA
ATOM      6  C   UNL     1      59.724  15.964  25.086  1.00  0.00     0.197 A 
ATOM      7  C   UNL     1      57.396  15.732  24.489  1.00  0.00     0.146 A 
ATOM      8  O   UNL     1      60.664  16.124  25.908  1.00  0.00    -0.289 OA
ATOM      9  C   UNL     1      58.385  15.779  25.506  1.00  0.00     0.107 A 
ATOM     10  C   UNL     1      56.043  15.635  24.819  1.00  0.00     0.094 A 
ATOM     11  C   UNL     1      57.968  15.674  26.865  1.00  0.00     0.134 A 
ATOM     12  C   UNL     1      56.602  15.612  27.167  1.00  0.00     0.093 A 
BRANCH   3  13
ATOM     13  C   UNL     1      59.251  15.951  21.323  1.00  0.00     0.021 A 
ATOM     14  C   UNL     1      60.573  16.075  20.861  1.00  0.00     0.016 A 
ATOM     15  C   UNL     1      60.846  16.125  19.492  1.00  0.00     0.051 A 
ATOM     16  C   UNL     1      59.802  16.063  18.561  1.00  0.00     0.157 A 
ATOM     17  C   UNL     1      58.205  15.902  20.381  1.00  0.00     0.062 A 
ATOM     18  C   UNL     1      58.480  15.954  19.006  1.00  0.00     0.158 A 
BRANCH  16  19
ATOM     19  O   UNL     1      60.071  16.111  17.194  1.00  0.00    -0.504 OA
ATOM     20  H   UNL     1      59.521  16.684  16.566  1.00  0.00     0.293 HD
ENDBRANCH  16  19
BRANCH  18  21
ATOM     21  O   UNL     1      57.442  15.902  18.077  1.00  0.00    -0.504 OA
ATOM     22  H   UNL     1      57.043  15.021  17.774  1.00  0.00     0.293 HD
ENDBRANCH  18  21
ENDBRANCH   3  13
BRANCH  11  23
ATOM     23  O   UNL     1      58.849  15.599  27.948  1.00  0.00    -0.507 OA
ATOM     24  H   UNL     1      59.706  16.124  28.030  1.00  0.00     0.293 HD
ENDBRANCH  11  23
ENDBRANCH   1   2
BRANCH   1  25
ATOM     25  C   UNL     1      53.665  14.925  27.569  1.00  0.00     0.339 C 
ATOM     26  C   UNL     1      54.389  13.592  27.892  1.00  0.00     0.214 C 
ATOM     27  O   UNL     1      52.252  14.809  27.406  1.00  0.00    -0.332 OA
ATOM     28  C   UNL     1      53.401  12.600  28.500  1.00  0.00     0.180 C 
ATOM     29  C   UNL     1      51.831  13.625  26.738  1.00  0.00     0.179 C 
ATOM     30  C   UNL     1      52.269  12.329  27.488  1.00  0.00     0.177 C 
BRANCH  26  31
ATOM     31  O   UNL     1      55.443  13.816  28.793  1.00  0.00    -0.384 OA
ATOM     32  H   UNL     1      55.470  13.030  29.400  1.00  0.00     0.211 HD
ENDBRANCH  26  31
BRANCH  28  33
ATOM     33  O   UNL     1      54.068  11.403  28.811  1.00  0.00    -0.387 OA
ATOM     34  H   UNL     1      53.486  10.909  29.446  1.00  0.00     0.211 HD
ENDBRANCH  28  33
BRANCH  29  35
ATOM     35  C   UNL     1      52.222  13.620  25.245  1.00  0.00     0.191 C 
BRANCH  35  36
ATOM     36  O   UNL     1      52.166  14.917  24.715  1.00  0.00    -0.394 OA
ATOM     37  H   UNL     1      53.029  15.354  24.938  1.00  0.00     0.210 HD
ENDBRANCH  35  36
ENDBRANCH  29  35
BRANCH  30  38
ATOM     38  O   UNL     1      51.175  11.727  28.134  1.00  0.00    -0.387 OA
ATOM     39  H   UNL     1      50.417  12.368  28.101  1.00  0.00     0.211 HD
ENDBRANCH  30  38
ENDBRANCH   1  25
TORSDOF 11
ENDMDL
MODEL 4
REMARK VINA RESULT:    -4.479      2.710      5.384
REMARK INTER + INTRA:          -5.861
REMARK INTER:                  -5.985
REMARK INTRA:                   0.124
REMARK UNBOUND:                 0.582
REMARK SMILES O=c1cc(-c2ccc(O)c(O)c2)oc2cc(O[C@H]3O[C@@H](CO)[C@H](O)[C@@H](O)[C@@H]3O)cc(O)c12
REMARK SMILES IDX 17 1 16 2 4 3 3 4 13 5 2 6 14 7 1 8 32 9 15 10 30 11 29 12
REMARK SMILES IDX 5 13 6 14 7 15 8 16 12 17 10 18 9 19 11 21 31 23 18 25 27 26
REMARK SMILES IDX 19 27 25 28 20 29 23 30 28 31 26 33 21 35 22 36 24 38
REMARK H PARENT 9 20 11 22 31 24 28 32 26 34 22 37 24 39
REMARK Flexibility Score: inf
ROOT
ATOM      1  O   UNL     1      57.900  14.724  26.832  1.00  0.00    -0.462 OA
ENDROOT
BRANCH   1   2
ATOM      2  C   UNL     1      56.542  14.536  27.130  1.00  0.00     0.130 A 
ATOM      3  C   UNL     1      52.080  14.707  25.465  1.00  0.00     0.138 A 
ATOM      4  C   UNL     1      51.542  14.188  26.651  1.00  0.00     0.100 A 
ATOM      5  O   UNL     1      53.394  14.882  25.368  1.00  0.00    -0.456 OA
ATOM      6  C   UNL     1      52.389  13.888  27.719  1.00  0.00     0.197 A 
ATOM      7  C   UNL     1      54.243  14.619  26.356  1.00  0.00     0.146 A 
ATOM      8  O   UNL     1      51.886  13.364  28.747  1.00  0.00    -0.289 OA
ATOM      9  C   UNL     1      53.778  14.140  27.608  1.00  0.00     0.107 A 
ATOM     10  C   UNL     1      55.608  14.816  26.134  1.00  0.00     0.094 A 
ATOM     11  C   UNL     1      54.729  13.912  28.645  1.00  0.00     0.134 A 
ATOM     12  C   UNL     1      56.093  14.085  28.382  1.00  0.00     0.093 A 
BRANCH   3  13
ATOM     13  C   UNL     1      51.226  15.045  24.299  1.00  0.00     0.021 A 
ATOM     14  C   UNL     1      51.791  15.714  23.199  1.00  0.00     0.016 A 
ATOM     15  C   UNL     1      51.008  16.050  22.093  1.00  0.00     0.051 A 
ATOM     16  C   UNL     1      49.644  15.733  22.071  1.00  0.00     0.157 A 
ATOM     17  C   UNL     1      49.851  14.741  24.275  1.00  0.00     0.062 A 
ATOM     18  C   UNL     1      49.064  15.080  23.164  1.00  0.00     0.158 A 
BRANCH  16  19
ATOM     19  O   UNL     1      48.859  16.065  20.967  1.00  0.00    -0.504 OA
ATOM     20  H   UNL     1      47.932  16.459  21.076  1.00  0.00     0.293 HD
ENDBRANCH  16  19
BRANCH  18  21
ATOM     21  O   UNL     1      47.704  14.775  23.144  1.00  0.00    -0.504 OA
ATOM     22  H   UNL     1      47.210  14.494  23.983  1.00  0.00     0.293 HD
ENDBRANCH  18  21
ENDBRANCH   3  13
BRANCH  11  23
ATOM     23  O   UNL     1      54.387  13.544  29.950  1.00  0.00    -0.507 OA
ATOM     24  H   UNL     1      54.935  13.755  30.770  1.00  0.00     0.293 HD
ENDBRANCH  11  23
ENDBRANCH   1   2
BRANCH   1  25
ATOM     25  C   UNL     1      58.431  15.787  26.038  1.00  0.00     0.339 C 
ATOM     26  C   UNL     1      58.127  15.523  24.541  1.00  0.00     0.214 C 
ATOM     27  O   UNL     1      59.811  15.994  26.336  1.00  0.00    -0.332 OA
ATOM     28  C   UNL     1      59.252  16.087  23.676  1.00  0.00     0.180 C 
ATOM     29  C   UNL     1      60.704  15.173  25.593  1.00  0.00     0.179 C 
ATOM     30  C   UNL     1      60.575  15.392  24.054  1.00  0.00     0.177 C 
BRANCH  26  31
ATOM     31  O   UNL     1      56.911  16.125  24.178  1.00  0.00    -0.384 OA
ATOM     32  H   UNL     1      56.571  15.626  23.389  1.00  0.00     0.211 HD
ENDBRANCH  26  31
BRANCH  28  33
ATOM     33  O   UNL     1      58.959  15.865  22.321  1.00  0.00    -0.387 OA
ATOM     34  H   UNL     1      58.883  16.759  21.895  1.00  0.00     0.211 HD
ENDBRANCH  28  33
BRANCH  29  35
ATOM     35  C   UNL     1      60.616  13.686  26.001  1.00  0.00     0.191 C 
BRANCH  35  36
ATOM     36  O   UNL     1      60.608  13.556  27.397  1.00  0.00    -0.394 OA
ATOM     37  H   UNL     1      61.546  13.672  27.700  1.00  0.00     0.210 HD
ENDBRANCH  35  36
ENDBRANCH  29  35
BRANCH  30  38
ATOM     38  O   UNL     1      61.667  16.125  23.557  1.00  0.00    -0.387 OA
ATOM     39  H   UNL     1      62.441  15.956  24.157  1.00  0.00     0.211 HD
ENDBRANCH  30  38
ENDBRANCH   1  25
TORSDOF 11
ENDMDL
MODEL 5
REMARK VINA RESULT:    -4.103      2.228      9.699
REMARK INTER + INTRA:          -5.320
REMARK INTER:                  -4.304
REMARK INTRA:                  -1.016
REMARK UNBOUND:                 0.582
REMARK SMILES O=c1cc(-c2ccc(O)c(O)c2)oc2cc(O[C@H]3O[C@@H](CO)[C@H](O)[C@@H](O)[C@@H]3O)cc(O)c12
REMARK SMILES IDX 17 1 16 2 4 3 3 4 13 5 2 6 14 7 1 8 32 9 15 10 30 11 29 12
REMARK SMILES IDX 5 13 6 14 7 15 8 16 12 17 10 18 9 19 11 21 31 23 18 25 27 26
REMARK SMILES IDX 19 27 25 28 20 29 23 30 28 31 26 33 21 35 22 36 24 38
REMARK H PARENT 9 20 11 22 31 24 28 32 26 34 22 37 24 39
REMARK Flexibility Score: inf
ROOT
ATOM      1  O   UNL     1      51.814  14.479  26.052  1.00  0.00    -0.462 OA
ENDROOT
BRANCH   1   2
ATOM      2  C   UNL     1      53.096  14.545  26.621  1.00  0.00     0.130 A 
ATOM      3  C   UNL     1      57.740  15.230  25.804  1.00  0.00     0.138 A 
ATOM      4  C   UNL     1      58.060  15.178  27.168  1.00  0.00     0.100 A 
ATOM      5  O   UNL     1      56.474  15.089  25.426  1.00  0.00    -0.456 OA
ATOM      6  C   UNL     1      57.050  14.952  28.105  1.00  0.00     0.197 A 
ATOM      7  C   UNL     1      55.476  14.865  26.276  1.00  0.00     0.146 A 
ATOM      8  O   UNL     1      57.357  14.974  29.325  1.00  0.00    -0.289 OA
ATOM      9  C   UNL     1      55.719  14.746  27.669  1.00  0.00     0.107 A 
ATOM     10  C   UNL     1      54.179  14.758  25.770  1.00  0.00     0.094 A 
ATOM     11  C   UNL     1      54.618  14.467  28.530  1.00  0.00     0.134 A 
ATOM     12  C   UNL     1      53.324  14.400  27.998  1.00  0.00     0.093 A 
BRANCH   3  13
ATOM     13  C   UNL     1      58.773  15.466  24.765  1.00  0.00     0.021 A 
ATOM     14  C   UNL     1      58.377  15.807  23.460  1.00  0.00     0.016 A 
ATOM     15  C   UNL     1      59.329  16.027  22.462  1.00  0.00     0.051 A 
ATOM     16  C   UNL     1      60.694  15.900  22.748  1.00  0.00     0.157 A 
ATOM     17  C   UNL     1      60.147  15.327  25.042  1.00  0.00     0.062 A 
ATOM     18  C   UNL     1      61.103  15.547  24.039  1.00  0.00     0.158 A 
BRANCH  16  19
ATOM     19  O   UNL     1      61.647  16.120  21.755  1.00  0.00    -0.504 OA
ATOM     20  H   UNL     1      61.520  15.772  20.812  1.00  0.00     0.293 HD
ENDBRANCH  16  19
BRANCH  18  21
ATOM     21  O   UNL     1      62.462  15.410  24.318  1.00  0.00    -0.504 OA
ATOM     22  H   UNL     1      63.164  15.938  23.811  1.00  0.00     0.293 HD
ENDBRANCH  18  21
ENDBRANCH   3  13
BRANCH  11  23
ATOM     23  O   UNL     1      54.742  14.222  29.901  1.00  0.00    -0.507 OA
ATOM     24  H   UNL     1      54.163  13.585  30.426  1.00  0.00     0.293 HD
ENDBRANCH  11  23
ENDBRANCH   1   2
BRANCH   1  25
ATOM     25  C   UNL     1      50.613  14.944  26.671  1.00  0.00     0.339 C 
ATOM     26  C   UNL     1      49.683  13.742  26.979  1.00  0.00     0.214 C 
ATOM     27  O   UNL     1      50.011  15.974  25.887  1.00  0.00    -0.332 OA
ATOM     28  C   UNL     1      48.224  14.171  26.864  1.00  0.00     0.180 C 
ATOM     29  C   UNL     1      49.142  15.503  24.863  1.00  0.00     0.179 C 
ATOM     30  C   UNL     1      47.954  14.664  25.428  1.00  0.00     0.177 C 
BRANCH  26  31
ATOM     31  O   UNL     1      49.929  13.257  28.274  1.00  0.00    -0.384 OA
ATOM     32  H   UNL     1      50.500  13.932  28.727  1.00  0.00     0.211 HD
ENDBRANCH  26  31
BRANCH  28  33
ATOM     33  O   UNL     1      47.388  13.084  27.166  1.00  0.00    -0.387 OA
ATOM     34  H   UNL     1      47.556  12.850  28.116  1.00  0.00     0.211 HD
ENDBRANCH  28  33
BRANCH  29  35
ATOM     35  C   UNL     1      49.903  14.784  23.728  1.00  0.00     0.191 C 
BRANCH  35  36
ATOM     36  O   UNL     1      51.084  15.472  23.412  1.00  0.00    -0.394 OA
ATOM     37  H   UNL     1      51.835  14.853  23.608  1.00  0.00     0.210 HD
ENDBRANCH  35  36
ENDBRANCH  29  35
BRANCH  30  38
ATOM     38  O   UNL     1      46.755  15.397  25.383  1.00  0.00    -0.387 OA
ATOM     39  H   UNL     1      46.652  15.750  24.460  1.00  0.00     0.211 HD
ENDBRANCH  30  38
ENDBRANCH   1  25
TORSDOF 11
ENDMDL
MODEL 6
REMARK VINA RESULT:    -3.685      1.686      8.762
REMARK INTER + INTRA:          -4.718
REMARK INTER:                  -5.917
REMARK INTRA:                   1.198
REMARK UNBOUND:                 0.582
REMARK SMILES O=c1cc(-c2ccc(O)c(O)c2)oc2cc(O[C@H]3O[C@@H](CO)[C@H](O)[C@@H](O)[C@@H]3O)cc(O)c12
REMARK SMILES IDX 17 1 16 2 4 3 3 4 13 5 2 6 14 7 1 8 32 9 15 10 30 11 29 12
REMARK SMILES IDX 5 13 6 14 7 15 8 16 12 17 10 18 9 19 11 21 31 23 18 25 27 26
REMARK SMILES IDX 19 27 25 28 20 29 23 30 28 31 26 33 21 35 22 36 24 38
REMARK H PARENT 9 20 11 22 31 24 28 32 26 34 22 37 24 39
REMARK Flexibility Score: inf
ROOT
ATOM      1  O   UNL     1      50.616  13.750  27.228  1.00  0.00    -0.462 OA
ENDROOT
BRANCH   1   2
ATOM      2  C   UNL     1      51.412  14.321  26.223  1.00  0.00     0.130 A 
ATOM      3  C   UNL     1      55.811  15.639  24.953  1.00  0.00     0.138 A 
ATOM      4  C   UNL     1      55.408  15.990  23.656  1.00  0.00     0.100 A 
ATOM      5  O   UNL     1      54.911  15.167  25.809  1.00  0.00    -0.456 OA
ATOM      6  C   UNL     1      54.067  15.863  23.293  1.00  0.00     0.197 A 
ATOM      7  C   UNL     1      53.622  15.033  25.517  1.00  0.00     0.146 A 
ATOM      8  O   UNL     1      53.745  16.125  22.105  1.00  0.00    -0.289 OA
ATOM      9  C   UNL     1      53.120  15.413  24.245  1.00  0.00     0.107 A 
ATOM     10  C   UNL     1      52.769  14.501  26.486  1.00  0.00     0.094 A 
ATOM     11  C   UNL     1      51.721  15.285  23.999  1.00  0.00     0.134 A 
ATOM     12  C   UNL     1      50.898  14.715  24.978  1.00  0.00     0.093 A 
BRANCH   3  13
ATOM     13  C   UNL     1      57.224  15.756  25.392  1.00  0.00     0.021 A 
ATOM     14  C   UNL     1      57.522  15.771  26.766  1.00  0.00     0.016 A 
ATOM     15  C   UNL     1      58.842  15.886  27.207  1.00  0.00     0.051 A 
ATOM     16  C   UNL     1      59.887  16.000  26.282  1.00  0.00     0.157 A 
ATOM     17  C   UNL     1      58.280  15.883  24.468  1.00  0.00     0.062 A 
ATOM     18  C   UNL     1      59.606  16.001  24.911  1.00  0.00     0.158 A 
BRANCH  16  19
ATOM     19  O   UNL     1      61.207  16.114  26.717  1.00  0.00    -0.504 OA
ATOM     20  H   UNL     1      61.562  15.556  27.485  1.00  0.00     0.293 HD
ENDBRANCH  16  19
BRANCH  18  21
ATOM     21  O   UNL     1      60.648  16.124  23.993  1.00  0.00    -0.504 OA
ATOM     22  H   UNL     1      60.756  16.955  23.422  1.00  0.00     0.293 HD
ENDBRANCH  18  21
ENDBRANCH   3  13
BRANCH  11  23
ATOM     23  O   UNL     1      51.091  15.722  22.830  1.00  0.00    -0.507 OA
ATOM     24  H   UNL     1      51.106  15.231  21.950  1.00  0.00     0.293 HD
ENDBRANCH  11  23
ENDBRANCH   1   2
BRANCH   1  25
ATOM     25  C   UNL     1      49.709  14.468  28.068  1.00  0.00     0.339 C 
ATOM     26  C   UNL     1      48.606  13.509  28.587  1.00  0.00     0.214 C 
ATOM     27  O   UNL     1      49.218  15.629  27.399  1.00  0.00    -0.332 OA
ATOM     28  C   UNL     1      47.296  14.271  28.762  1.00  0.00     0.180 C 
ATOM     29  C   UNL     1      48.074  15.401  26.585  1.00  0.00     0.179 C 
ATOM     30  C   UNL     1      46.863  14.850  27.399  1.00  0.00     0.177 C 
BRANCH  26  31
ATOM     31  O   UNL     1      48.989  12.947  29.816  1.00  0.00    -0.384 OA
ATOM     32  H   UNL     1      49.730  12.314  29.620  1.00  0.00     0.211 HD
ENDBRANCH  26  31
BRANCH  28  33
ATOM     33  O   UNL     1      46.308  13.402  29.253  1.00  0.00    -0.387 OA
ATOM     34  H   UNL     1      46.721  12.501  29.306  1.00  0.00     0.211 HD
ENDBRANCH  28  33
BRANCH  29  35
ATOM     35  C   UNL     1      48.397  14.554  25.336  1.00  0.00     0.191 C 
BRANCH  35  36
ATOM     36  O   UNL     1      47.481  13.500  25.203  1.00  0.00    -0.394 OA
ATOM     37  H   UNL     1      47.930  12.686  25.551  1.00  0.00     0.210 HD
ENDBRANCH  35  36
ENDBRANCH  29  35
BRANCH  30  38
ATOM     38  O   UNL     1      45.885  15.843  27.583  1.00  0.00    -0.387 OA
ATOM     39  H   UNL     1      46.228  16.682  27.175  1.00  0.00     0.211 HD
ENDBRANCH  30  38
ENDBRANCH   1  25
TORSDOF 11
ENDMDL
MODEL 7
REMARK VINA RESULT:    -3.135      3.475      9.655
REMARK INTER + INTRA:          -3.927
REMARK INTER:                  -2.984
REMARK INTRA:                  -0.943
REMARK UNBOUND:                 0.582
REMARK SMILES O=c1cc(-c2ccc(O)c(O)c2)oc2cc(O[C@H]3O[C@@H](CO)[C@H](O)[C@@H](O)[C@@H]3O)cc(O)c12
REMARK SMILES IDX 17 1 16 2 4 3 3 4 13 5 2 6 14 7 1 8 32 9 15 10 30 11 29 12
REMARK SMILES IDX 5 13 6 14 7 15 8 16 12 17 10 18 9 19 11 21 31 23 18 25 27 26
REMARK SMILES IDX 19 27 25 28 20 29 23 30 28 31 26 33 21 35 22 36 24 38
REMARK H PARENT 9 20 11 22 31 24 28 32 26 34 22 37 24 39
REMARK Flexibility Score: inf
ROOT
ATOM      1  O   UNL     1      52.360  15.407  25.266  1.00  0.00    -0.462 OA
ENDROOT
BRANCH   1   2
ATOM      2  C   UNL     1      53.758  15.497  25.348  1.00  0.00     0.130 A 
ATOM      3  C   UNL     1      57.836  15.845  22.909  1.00  0.00     0.138 A 
ATOM      4  C   UNL     1      58.605  15.978  24.074  1.00  0.00     0.100 A 
ATOM      5  O   UNL     1      56.519  15.707  23.010  1.00  0.00    -0.456 OA
ATOM      6  C   UNL     1      57.979  15.937  25.321  1.00  0.00     0.197 A 
ATOM      7  C   UNL     1      55.874  15.655  24.171  1.00  0.00     0.146 A 
ATOM      8  O   UNL     1      58.685  16.123  26.346  1.00  0.00    -0.289 OA
ATOM      9  C   UNL     1      56.581  15.730  25.400  1.00  0.00     0.107 A 
ATOM     10  C   UNL     1      54.484  15.535  24.158  1.00  0.00     0.094 A 
ATOM     11  C   UNL     1      55.843  15.630  26.615  1.00  0.00     0.134 A 
ATOM     12  C   UNL     1      54.446  15.545  26.571  1.00  0.00     0.093 A 
BRANCH   3  13
ATOM     13  C   UNL     1      58.450  15.880  21.557  1.00  0.00     0.021 A 
ATOM     14  C   UNL     1      59.849  15.939  21.435  1.00  0.00     0.016 A 
ATOM     15  C   UNL     1      60.452  15.980  20.176  1.00  0.00     0.051 A 
ATOM     16  C   UNL     1      59.666  15.972  19.017  1.00  0.00     0.157 A 
ATOM     17  C   UNL     1      57.666  15.886  20.387  1.00  0.00     0.062 A 
ATOM     18  C   UNL     1      58.272  15.928  19.123  1.00  0.00     0.158 A 
BRANCH  16  19
ATOM     19  O   UNL     1      60.264  16.012  17.758  1.00  0.00    -0.504 OA
ATOM     20  H   UNL     1      59.812  15.612  16.944  1.00  0.00     0.293 HD
ENDBRANCH  16  19
BRANCH  18  21
ATOM     21  O   UNL     1      57.492  15.932  17.967  1.00  0.00    -0.504 OA
ATOM     22  H   UNL     1      57.542  15.178  17.290  1.00  0.00     0.293 HD
ENDBRANCH  18  21
ENDBRANCH   3  13
BRANCH  11  23
ATOM     23  O   UNL     1      56.431  15.582  27.883  1.00  0.00    -0.507 OA
ATOM     24  H   UNL     1      56.009  15.939  28.727  1.00  0.00     0.293 HD
ENDBRANCH  11  23
ENDBRANCH   1   2
BRANCH   1  25
ATOM     25  C   UNL     1      51.574  14.311  25.738  1.00  0.00     0.339 C 
ATOM     26  C   UNL     1      51.732  13.102  24.779  1.00  0.00     0.214 C 
ATOM     27  O   UNL     1      50.225  14.720  25.959  1.00  0.00    -0.332 OA
ATOM     28  C   UNL     1      50.437  12.298  24.740  1.00  0.00     0.180 C 
ATOM     29  C   UNL     1      49.391  14.648  24.809  1.00  0.00     0.179 C 
ATOM     30  C   UNL     1      49.296  13.202  24.230  1.00  0.00     0.177 C 
BRANCH  26  31
ATOM     31  O   UNL     1      52.785  12.276  25.207  1.00  0.00    -0.384 OA
ATOM     32  H   UNL     1      53.355  12.106  24.411  1.00  0.00     0.211 HD
ENDBRANCH  26  31
BRANCH  28  33
ATOM     33  O   UNL     1      50.594  11.193  23.887  1.00  0.00    -0.387 OA
ATOM     34  H   UNL     1      50.323  10.391  24.406  1.00  0.00     0.211 HD
ENDBRANCH  28  33
BRANCH  29  35
ATOM     35  C   UNL     1      49.763  15.701  23.744  1.00  0.00     0.191 C 
BRANCH  35  36
ATOM     36  O   UNL     1      49.785  15.125  22.465  1.00  0.00    -0.394 OA
ATOM     37  H   UNL     1      50.544  14.486  22.453  1.00  0.00     0.210 HD
ENDBRANCH  35  36
ENDBRANCH  29  35
BRANCH  30  38
ATOM     38  O   UNL     1      48.049  12.623  24.525  1.00  0.00    -0.387 OA
ATOM     39  H   UNL     1      48.211  11.679  24.789  1.00  0.00     0.211 HD
ENDBRANCH  30  38
ENDBRANCH   1  25
TORSDOF 11
ENDMDL
