MODEL 1
REMARK VINA RESULT:    -3.214      0.000      0.000
REMARK INTER + INTRA:         -10.980
REMARK INTER:                  -7.348
REMARK INTRA:                  -3.632
REMARK UNBOUND:                -3.632
REMARK SMILES CCCCCCCCCCCCCCCCCCCCCCCC(=O)[O-]
REMARK SMILES IDX 13 1 14 2 15 3 16 4 17 5 18 6 19 7 20 8 21 9 22 10 23 11
REMARK SMILES IDX 24 12 25 13 26 14 12 15 11 16 10 17 9 18 8 19 7 20 6 21 5 22
REMARK SMILES IDX 4 23 3 24 2 25 1 26
REMARK H PARENT
REMARK Flexibility Score: inf
ROOT
ATOM      1  C   UNL     1      59.796  23.402  51.627  1.00  0.00     0.000 C 
ENDROOT
BRANCH   1   2
ATOM      2  C   UNL     1      58.745  22.417  52.177  1.00  0.00     0.000 C 
BRANCH   2   3
ATOM      3  C   UNL     1      59.100  20.924  52.031  1.00  0.00     0.000 C 
BRANCH   3   4
ATOM      4  C   UNL     1      60.610  20.670  51.907  1.00  0.00     0.000 C 
BRANCH   4   5
ATOM      5  C   UNL     1      60.949  19.976  50.581  1.00  0.00     0.000 C 
BRANCH   5   6
ATOM      6  C   UNL     1      59.713  19.725  49.697  1.00  0.00     0.000 C 
BRANCH   6   7
ATOM      7  C   UNL     1      59.375  18.244  49.434  1.00  0.00     0.000 C 
BRANCH   7   8
ATOM      8  C   UNL     1      60.009  17.286  50.456  1.00  0.00     0.000 C 
BRANCH   8   9
ATOM      9  C   UNL     1      59.012  16.807  51.526  1.00  0.00     0.000 C 
BRANCH   9  10
ATOM     10  C   UNL     1      57.552  17.250  51.314  1.00  0.00     0.006 C 
BRANCH  10  11
ATOM     11  C   UNL     1      56.947  18.013  52.507  1.00  0.00     0.053 C 
BRANCH  11  12
ATOM     12  C   UNL     1      55.533  18.445  52.256  1.00  0.00     0.041 C 
ATOM     13  O   UNL     1      55.194  18.875  51.122  1.00  0.00    -0.550 OA
ATOM     14  O   UNL     1      54.600  18.416  53.285  1.00  0.00    -0.550 OA
ENDBRANCH  11  12
ENDBRANCH  10  11
ENDBRANCH   9  10
ENDBRANCH   8   9
ENDBRANCH   7   8
ENDBRANCH   6   7
ENDBRANCH   5   6
ENDBRANCH   4   5
ENDBRANCH   3   4
ENDBRANCH   2   3
ENDBRANCH   1   2
BRANCH   1  15
ATOM     15  C   UNL     1      59.631  23.685  50.123  1.00  0.00     0.000 C 
BRANCH  15  16
ATOM     16  C   UNL     1      60.926  23.432  49.335  1.00  0.00     0.000 C 
BRANCH  16  17
ATOM     17  C   UNL     1      62.142  24.123  49.977  1.00  0.00     0.000 C 
BRANCH  17  18
ATOM     18  C   UNL     1      62.383  25.542  49.433  1.00  0.00    -0.000 C 
BRANCH  18  19
ATOM     19  C   UNL     1      61.711  26.647  50.276  1.00  0.00    -0.000 C 
BRANCH  19  20
ATOM     20  C   UNL     1      61.122  27.768  49.401  1.00  0.00    -0.000 C 
BRANCH  20  21
ATOM     21  C   UNL     1      59.870  27.325  48.628  1.00  0.00    -0.000 C 
BRANCH  21  22
ATOM     22  C   UNL     1      58.795  28.423  48.560  1.00  0.00    -0.000 C 
BRANCH  22  23
ATOM     23  C   UNL     1      57.608  28.156  49.503  1.00  0.00    -0.000 C 
BRANCH  23  24
ATOM     24  C   UNL     1      57.391  26.678  49.886  1.00  0.00    -0.000 C 
BRANCH  24  25
ATOM     25  C   UNL     1      57.455  26.381  51.394  1.00  0.00    -0.003 C 
ATOM     26  C   UNL     1      58.472  27.253  52.131  1.00  0.00     0.004 C 
ENDBRANCH  24  25
ENDBRANCH  23  24
ENDBRANCH  22  23
ENDBRANCH  21  22
ENDBRANCH  20  21
ENDBRANCH  19  20
ENDBRANCH  18  19
ENDBRANCH  17  18
ENDBRANCH  16  17
ENDBRANCH  15  16
ENDBRANCH   1  15
TORSDOF 22
ENDMDL
MODEL 2
REMARK VINA RESULT:    -3.214     12.451     15.201
REMARK INTER + INTRA:         -10.980
REMARK INTER:                  -7.739
REMARK INTRA:                  -3.241
REMARK UNBOUND:                -3.632
REMARK SMILES CCCCCCCCCCCCCCCCCCCCCCCC(=O)[O-]
REMARK SMILES IDX 13 1 14 2 15 3 16 4 17 5 18 6 19 7 20 8 21 9 22 10 23 11
REMARK SMILES IDX 24 12 25 13 26 14 12 15 11 16 10 17 9 18 8 19 7 20 6 21 5 22
REMARK SMILES IDX 4 23 3 24 2 25 1 26
REMARK H PARENT
REMARK Flexibility Score: inf
ROOT
ATOM      1  C   UNL     1      68.721  29.938  58.057  1.00  0.00     0.000 C 
ENDROOT
BRANCH   1   2
ATOM      2  C   UNL     1      69.956  30.022  57.138  1.00  0.00     0.000 C 
BRANCH   2   3
ATOM      3  C   UNL     1      71.194  30.701  57.758  1.00  0.00     0.000 C 
BRANCH   3   4
ATOM      4  C   UNL     1      70.848  31.941  58.596  1.00  0.00     0.000 C 
BRANCH   4   5
ATOM      5  C   UNL     1      71.481  31.862  59.992  1.00  0.00     0.000 C 
BRANCH   5   6
ATOM      6  C   UNL     1      72.468  30.689  60.142  1.00  0.00     0.000 C 
BRANCH   6   7
ATOM      7  C   UNL     1      72.278  29.818  61.400  1.00  0.00     0.000 C 
BRANCH   7   8
ATOM      8  C   UNL     1      71.487  28.527  61.131  1.00  0.00     0.000 C 
BRANCH   8   9
ATOM      9  C   UNL     1      69.964  28.746  61.137  1.00  0.00     0.000 C 
BRANCH   9  10
ATOM     10  C   UNL     1      69.118  27.524  60.729  1.00  0.00     0.006 C 
BRANCH  10  11
ATOM     11  C   UNL     1      69.815  26.584  59.728  1.00  0.00     0.053 C 
BRANCH  11  12
ATOM     12  C   UNL     1      68.896  25.523  59.201  1.00  0.00     0.041 C 
ATOM     13  O   UNL     1      68.200  24.836  59.995  1.00  0.00    -0.550 OA
ATOM     14  O   UNL     1      68.840  25.260  57.837  1.00  0.00    -0.550 OA
ENDBRANCH  11  12
ENDBRANCH  10  11
ENDBRANCH   9  10
ENDBRANCH   8   9
ENDBRANCH   7   8
ENDBRANCH   6   7
ENDBRANCH   5   6
ENDBRANCH   4   5
ENDBRANCH   3   4
ENDBRANCH   2   3
ENDBRANCH   1   2
BRANCH   1  15
ATOM     15  C   UNL     1      67.447  30.509  57.409  1.00  0.00     0.000 C 
BRANCH  15  16
ATOM     16  C   UNL     1      66.263  29.532  57.488  1.00  0.00     0.000 C 
BRANCH  16  17
ATOM     17  C   UNL     1      66.706  28.110  57.873  1.00  0.00     0.000 C 
BRANCH  17  18
ATOM     18  C   UNL     1      65.742  27.426  58.857  1.00  0.00    -0.000 C 
BRANCH  18  19
ATOM     19  C   UNL     1      65.369  28.308  60.068  1.00  0.00    -0.000 C 
BRANCH  19  20
ATOM     20  C   UNL     1      63.862  28.263  60.378  1.00  0.00    -0.000 C 
BRANCH  20  21
ATOM     21  C   UNL     1      63.286  29.641  60.737  1.00  0.00    -0.000 C 
BRANCH  21  22
ATOM     22  C   UNL     1      64.278  30.786  60.470  1.00  0.00    -0.000 C 
BRANCH  22  23
ATOM     23  C   UNL     1      63.746  31.813  59.453  1.00  0.00    -0.000 C 
BRANCH  23  24
ATOM     24  C   UNL     1      64.150  33.276  59.722  1.00  0.00    -0.000 C 
BRANCH  24  25
ATOM     25  C   UNL     1      63.025  34.308  59.526  1.00  0.00    -0.003 C 
ATOM     26  C   UNL     1      62.978  35.357  60.636  1.00  0.00     0.004 C 
ENDBRANCH  24  25
ENDBRANCH  23  24
ENDBRANCH  22  23
ENDBRANCH  21  22
ENDBRANCH  20  21
ENDBRANCH  19  20
ENDBRANCH  18  19
ENDBRANCH  17  18
ENDBRANCH  16  17
ENDBRANCH  15  16
ENDBRANCH   1  15
TORSDOF 22
ENDMDL
MODEL 3
REMARK VINA RESULT:    -3.158      1.803      3.298
REMARK INTER + INTRA:         -10.852
REMARK INTER:                  -6.357
REMARK INTRA:                  -4.495
REMARK UNBOUND:                -3.632
REMARK SMILES CCCCCCCCCCCCCCCCCCCCCCCC(=O)[O-]
REMARK SMILES IDX 13 1 14 2 15 3 16 4 17 5 18 6 19 7 20 8 21 9 22 10 23 11
REMARK SMILES IDX 24 12 25 13 26 14 12 15 11 16 10 17 9 18 8 19 7 20 6 21 5 22
REMARK SMILES IDX 4 23 3 24 2 25 1 26
REMARK H PARENT
REMARK Flexibility Score: inf
ROOT
ATOM      1  C   UNL     1      59.590  23.102  51.635  1.00  0.00     0.000 C 
ENDROOT
BRANCH   1   2
ATOM      2  C   UNL     1      60.996  23.528  52.103  1.00  0.00     0.000 C 
BRANCH   2   3
ATOM      3  C   UNL     1      61.878  22.392  52.659  1.00  0.00     0.000 C 
BRANCH   3   4
ATOM      4  C   UNL     1      63.138  22.136  51.818  1.00  0.00     0.000 C 
BRANCH   4   5
ATOM      5  C   UNL     1      63.376  23.273  50.814  1.00  0.00     0.000 C 
BRANCH   5   6
ATOM      6  C   UNL     1      63.303  22.809  49.347  1.00  0.00     0.000 C 
BRANCH   6   7
ATOM      7  C   UNL     1      62.636  21.438  49.117  1.00  0.00     0.000 C 
BRANCH   7   8
ATOM      8  C   UNL     1      61.344  21.523  48.286  1.00  0.00     0.000 C 
BRANCH   8   9
ATOM      9  C   UNL     1      60.197  20.685  48.878  1.00  0.00     0.000 C 
BRANCH   9  10
ATOM     10  C   UNL     1      60.533  19.931  50.179  1.00  0.00     0.006 C 
BRANCH  10  11
ATOM     11  C   UNL     1      59.814  18.576  50.323  1.00  0.00     0.053 C 
BRANCH  11  12
ATOM     12  C   UNL     1      58.336  18.729  50.530  1.00  0.00     0.041 C 
ATOM     13  O   UNL     1      57.526  18.167  49.746  1.00  0.00    -0.550 OA
ATOM     14  O   UNL     1      57.853  19.527  51.560  1.00  0.00    -0.550 OA
ENDBRANCH  11  12
ENDBRANCH  10  11
ENDBRANCH   9  10
ENDBRANCH   8   9
ENDBRANCH   7   8
ENDBRANCH   6   7
ENDBRANCH   5   6
ENDBRANCH   4   5
ENDBRANCH   3   4
ENDBRANCH   2   3
ENDBRANCH   1   2
BRANCH   1  15
ATOM     15  C   UNL     1      59.068  23.937  50.452  1.00  0.00     0.000 C 
BRANCH  15  16
ATOM     16  C   UNL     1      60.186  24.735  49.762  1.00  0.00     0.000 C 
BRANCH  16  17
ATOM     17  C   UNL     1      59.638  25.925  48.954  1.00  0.00     0.000 C 
BRANCH  17  18
ATOM     18  C   UNL     1      60.324  27.256  49.305  1.00  0.00    -0.000 C 
BRANCH  18  19
ATOM     19  C   UNL     1      59.402  28.484  49.146  1.00  0.00    -0.000 C 
BRANCH  19  20
ATOM     20  C   UNL     1      57.919  28.088  49.032  1.00  0.00    -0.000 C 
BRANCH  20  21
ATOM     21  C   UNL     1      56.998  28.974  49.885  1.00  0.00    -0.000 C 
BRANCH  21  22
ATOM     22  C   UNL     1      56.679  28.352  51.255  1.00  0.00    -0.000 C 
BRANCH  22  23
ATOM     23  C   UNL     1      56.702  26.813  51.233  1.00  0.00    -0.000 C 
BRANCH  23  24
ATOM     24  C   UNL     1      57.312  26.145  52.482  1.00  0.00    -0.000 C 
BRANCH  24  25
ATOM     25  C   UNL     1      58.272  27.035  53.291  1.00  0.00    -0.003 C 
ATOM     26  C   UNL     1      59.734  26.862  52.881  1.00  0.00     0.004 C 
ENDBRANCH  24  25
ENDBRANCH  23  24
ENDBRANCH  22  23
ENDBRANCH  21  22
ENDBRANCH  20  21
ENDBRANCH  19  20
ENDBRANCH  18  19
ENDBRANCH  17  18
ENDBRANCH  16  17
ENDBRANCH  15  16
ENDBRANCH   1  15
TORSDOF 22
ENDMDL
MODEL 4
REMARK VINA RESULT:    -3.152      1.497      3.239
REMARK INTER + INTRA:         -10.839
REMARK INTER:                  -7.289
REMARK INTRA:                  -3.550
REMARK UNBOUND:                -3.632
REMARK SMILES CCCCCCCCCCCCCCCCCCCCCCCC(=O)[O-]
REMARK SMILES IDX 13 1 14 2 15 3 16 4 17 5 18 6 19 7 20 8 21 9 22 10 23 11
REMARK SMILES IDX 24 12 25 13 26 14 12 15 11 16 10 17 9 18 8 19 7 20 6 21 5 22
REMARK SMILES IDX 4 23 3 24 2 25 1 26
REMARK H PARENT
REMARK Flexibility Score: inf
ROOT
ATOM      1  C   UNL     1      58.986  24.465  49.914  1.00  0.00     0.000 C 
ENDROOT
BRANCH   1   2
ATOM      2  C   UNL     1      60.374  24.110  49.345  1.00  0.00     0.000 C 
BRANCH   2   3
ATOM      3  C   UNL     1      61.285  23.298  50.287  1.00  0.00     0.000 C 
BRANCH   3   4
ATOM      4  C   UNL     1      61.819  22.007  49.648  1.00  0.00     0.000 C 
BRANCH   4   5
ATOM      5  C   UNL     1      60.694  21.220  48.963  1.00  0.00     0.000 C 
BRANCH   5   6
ATOM      6  C   UNL     1      60.175  20.044  49.813  1.00  0.00     0.000 C 
BRANCH   6   7
ATOM      7  C   UNL     1      59.225  19.069  49.088  1.00  0.00     0.000 C 
BRANCH   7   8
ATOM      8  C   UNL     1      59.297  17.633  49.634  1.00  0.00     0.000 C 
BRANCH   8   9
ATOM      9  C   UNL     1      57.943  17.124  50.158  1.00  0.00     0.000 C 
BRANCH   9  10
ATOM     10  C   UNL     1      56.739  18.045  49.881  1.00  0.00     0.006 C 
BRANCH  10  11
ATOM     11  C   UNL     1      55.822  18.263  51.099  1.00  0.00     0.053 C 
BRANCH  11  12
ATOM     12  C   UNL     1      56.558  18.823  52.280  1.00  0.00     0.041 C 
ATOM     13  O   UNL     1      56.502  18.240  53.395  1.00  0.00    -0.550 OA
ATOM     14  O   UNL     1      57.268  20.011  52.162  1.00  0.00    -0.550 OA
ENDBRANCH  11  12
ENDBRANCH  10  11
ENDBRANCH   9  10
ENDBRANCH   8   9
ENDBRANCH   7   8
ENDBRANCH   6   7
ENDBRANCH   5   6
ENDBRANCH   4   5
ENDBRANCH   3   4
ENDBRANCH   2   3
ENDBRANCH   1   2
BRANCH   1  15
ATOM     15  C   UNL     1      58.975  24.587  51.449  1.00  0.00     0.000 C 
BRANCH  15  16
ATOM     16  C   UNL     1      58.117  25.766  51.935  1.00  0.00     0.000 C 
BRANCH  16  17
ATOM     17  C   UNL     1      57.333  26.427  50.788  1.00  0.00     0.000 C 
BRANCH  17  18
ATOM     18  C   UNL     1      57.474  27.959  50.769  1.00  0.00    -0.000 C 
BRANCH  18  19
ATOM     19  C   UNL     1      57.639  28.545  49.350  1.00  0.00    -0.000 C 
BRANCH  19  20
ATOM     20  C   UNL     1      58.951  28.095  48.684  1.00  0.00    -0.000 C 
BRANCH  20  21
ATOM     21  C   UNL     1      60.199  28.647  49.393  1.00  0.00    -0.000 C 
BRANCH  21  22
ATOM     22  C   UNL     1      61.405  27.699  49.293  1.00  0.00    -0.000 C 
BRANCH  22  23
ATOM     23  C   UNL     1      61.905  27.221  50.669  1.00  0.00    -0.000 C 
BRANCH  23  24
ATOM     24  C   UNL     1      61.165  27.821  51.882  1.00  0.00    -0.000 C 
BRANCH  24  25
ATOM     25  C   UNL     1      61.375  27.070  53.209  1.00  0.00    -0.003 C 
ATOM     26  C   UNL     1      62.189  25.787  53.045  1.00  0.00     0.004 C 
ENDBRANCH  24  25
ENDBRANCH  23  24
ENDBRANCH  22  23
ENDBRANCH  21  22
ENDBRANCH  20  21
ENDBRANCH  19  20
ENDBRANCH  18  19
ENDBRANCH  17  18
ENDBRANCH  16  17
ENDBRANCH  15  16
ENDBRANCH   1  15
TORSDOF 22
ENDMDL
MODEL 5
REMARK VINA RESULT:    -3.148      6.696      9.339
REMARK INTER + INTRA:         -10.829
REMARK INTER:                  -6.599
REMARK INTRA:                  -4.231
REMARK UNBOUND:                -3.632
REMARK SMILES CCCCCCCCCCCCCCCCCCCCCCCC(=O)[O-]
REMARK SMILES IDX 13 1 14 2 15 3 16 4 17 5 18 6 19 7 20 8 21 9 22 10 23 11
REMARK SMILES IDX 24 12 25 13 26 14 12 15 11 16 10 17 9 18 8 19 7 20 6 21 5 22
REMARK SMILES IDX 4 23 3 24 2 25 1 26
REMARK H PARENT
REMARK Flexibility Score: inf
ROOT
ATOM      1  C   UNL     1      57.267  27.471  49.689  1.00  0.00     0.000 C 
ENDROOT
BRANCH   1   2
ATOM      2  C   UNL     1      58.334  28.310  48.959  1.00  0.00     0.000 C 
BRANCH   2   3
ATOM      3  C   UNL     1      59.643  27.567  48.625  1.00  0.00     0.000 C 
BRANCH   3   4
ATOM      4  C   UNL     1      59.589  26.068  48.954  1.00  0.00     0.000 C 
BRANCH   4   5
ATOM      5  C   UNL     1      60.599  25.703  50.050  1.00  0.00     0.000 C 
BRANCH   5   6
ATOM      6  C   UNL     1      61.921  25.144  49.492  1.00  0.00     0.000 C 
BRANCH   6   7
ATOM      7  C   UNL     1      63.015  26.191  49.204  1.00  0.00     0.000 C 
BRANCH   7   8
ATOM      8  C   UNL     1      62.990  27.381  50.179  1.00  0.00     0.000 C 
BRANCH   8   9
ATOM      9  C   UNL     1      63.418  28.704  49.520  1.00  0.00     0.000 C 
BRANCH   9  10
ATOM     10  C   UNL     1      62.967  29.983  50.252  1.00  0.00     0.006 C 
BRANCH  10  11
ATOM     11  C   UNL     1      62.056  30.898  49.414  1.00  0.00     0.053 C 
BRANCH  11  12
ATOM     12  C   UNL     1      62.777  32.106  48.892  1.00  0.00     0.041 C 
ATOM     13  O   UNL     1      62.195  32.902  48.110  1.00  0.00    -0.550 OA
ATOM     14  O   UNL     1      64.106  32.328  49.234  1.00  0.00    -0.550 OA
ENDBRANCH  11  12
ENDBRANCH  10  11
ENDBRANCH   9  10
ENDBRANCH   8   9
ENDBRANCH   7   8
ENDBRANCH   6   7
ENDBRANCH   5   6
ENDBRANCH   4   5
ENDBRANCH   3   4
ENDBRANCH   2   3
ENDBRANCH   1   2
BRANCH   1  15
ATOM     15  C   UNL     1      56.242  28.328  50.454  1.00  0.00     0.000 C 
BRANCH  15  16
ATOM     16  C   UNL     1      55.994  29.684  49.777  1.00  0.00     0.000 C 
BRANCH  16  17
ATOM     17  C   UNL     1      55.379  30.714  50.741  1.00  0.00     0.000 C 
BRANCH  17  18
ATOM     18  C   UNL     1      55.378  30.240  52.204  1.00  0.00    -0.000 C 
BRANCH  18  19
ATOM     19  C   UNL     1      56.098  31.209  53.167  1.00  0.00    -0.000 C 
BRANCH  19  20
ATOM     20  C   UNL     1      57.378  31.799  52.548  1.00  0.00    -0.000 C 
BRANCH  20  21
ATOM     21  C   UNL     1      58.540  31.885  53.550  1.00  0.00    -0.000 C 
BRANCH  21  22
ATOM     22  C   UNL     1      59.728  30.990  53.158  1.00  0.00    -0.000 C 
BRANCH  22  23
ATOM     23  C   UNL     1      59.358  29.937  52.098  1.00  0.00    -0.000 C 
BRANCH  23  24
ATOM     24  C   UNL     1      60.129  28.605  52.197  1.00  0.00    -0.000 C 
BRANCH  24  25
ATOM     25  C   UNL     1      59.400  27.487  52.962  1.00  0.00    -0.003 C 
ATOM     26  C   UNL     1      58.047  27.930  53.520  1.00  0.00     0.004 C 
ENDBRANCH  24  25
ENDBRANCH  23  24
ENDBRANCH  22  23
ENDBRANCH  21  22
ENDBRANCH  20  21
ENDBRANCH  19  20
ENDBRANCH  18  19
ENDBRANCH  17  18
ENDBRANCH  16  17
ENDBRANCH  15  16
ENDBRANCH   1  15
TORSDOF 22
ENDMDL
MODEL 6
REMARK VINA RESULT:    -3.105      1.698      2.740
REMARK INTER + INTRA:         -10.730
REMARK INTER:                  -6.947
REMARK INTRA:                  -3.783
REMARK UNBOUND:                -3.632
REMARK SMILES CCCCCCCCCCCCCCCCCCCCCCCC(=O)[O-]
REMARK SMILES IDX 13 1 14 2 15 3 16 4 17 5 18 6 19 7 20 8 21 9 22 10 23 11
REMARK SMILES IDX 24 12 25 13 26 14 12 15 11 16 10 17 9 18 8 19 7 20 6 21 5 22
REMARK SMILES IDX 4 23 3 24 2 25 1 26
REMARK H PARENT
REMARK Flexibility Score: inf
ROOT
ATOM      1  C   UNL     1      60.820  21.133  49.022  1.00  0.00     0.000 C 
ENDROOT
BRANCH   1   2
ATOM      2  C   UNL     1      60.009  20.343  50.067  1.00  0.00     0.000 C 
BRANCH   2   3
ATOM      3  C   UNL     1      60.826  19.360  50.930  1.00  0.00     0.000 C 
BRANCH   3   4
ATOM      4  C   UNL     1      60.342  17.907  50.816  1.00  0.00     0.000 C 
BRANCH   4   5
ATOM      5  C   UNL     1      59.343  17.744  49.662  1.00  0.00     0.000 C 
BRANCH   5   6
ATOM      6  C   UNL     1      58.054  17.010  50.078  1.00  0.00     0.000 C 
BRANCH   6   7
ATOM      7  C   UNL     1      56.745  17.797  49.867  1.00  0.00     0.000 C 
BRANCH   7   8
ATOM      8  C   UNL     1      56.266  18.529  51.132  1.00  0.00     0.000 C 
BRANCH   8   9
ATOM      9  C   UNL     1      56.999  18.069  52.404  1.00  0.00     0.000 C 
BRANCH   9  10
ATOM     10  C   UNL     1      57.378  19.190  53.391  1.00  0.00     0.006 C 
BRANCH  10  11
ATOM     11  C   UNL     1      57.433  20.592  52.757  1.00  0.00     0.053 C 
BRANCH  11  12
ATOM     12  C   UNL     1      56.371  21.506  53.292  1.00  0.00     0.041 C 
ATOM     13  O   UNL     1      56.690  22.591  53.848  1.00  0.00    -0.550 OA
ATOM     14  O   UNL     1      55.032  21.142  53.218  1.00  0.00    -0.550 OA
ENDBRANCH  11  12
ENDBRANCH  10  11
ENDBRANCH   9  10
ENDBRANCH   8   9
ENDBRANCH   7   8
ENDBRANCH   6   7
ENDBRANCH   5   6
ENDBRANCH   4   5
ENDBRANCH   3   4
ENDBRANCH   2   3
ENDBRANCH   1   2
BRANCH   1  15
ATOM     15  C   UNL     1      60.743  22.657  49.223  1.00  0.00     0.000 C 
BRANCH  15  16
ATOM     16  C   UNL     1      61.793  23.168  50.222  1.00  0.00     0.000 C 
BRANCH  16  17
ATOM     17  C   UNL     1      62.467  24.467  49.746  1.00  0.00     0.000 C 
BRANCH  17  18
ATOM     18  C   UNL     1      61.789  25.732  50.298  1.00  0.00    -0.000 C 
BRANCH  18  19
ATOM     19  C   UNL     1      61.377  26.739  49.203  1.00  0.00    -0.000 C 
BRANCH  19  20
ATOM     20  C   UNL     1      59.923  26.533  48.741  1.00  0.00    -0.000 C 
BRANCH  20  21
ATOM     21  C   UNL     1      58.936  27.483  49.437  1.00  0.00    -0.000 C 
BRANCH  21  22
ATOM     22  C   UNL     1      57.778  26.737  50.121  1.00  0.00    -0.000 C 
BRANCH  22  23
ATOM     23  C   UNL     1      57.810  25.219  49.864  1.00  0.00    -0.000 C 
BRANCH  23  24
ATOM     24  C   UNL     1      58.112  24.348  51.100  1.00  0.00    -0.000 C 
BRANCH  24  25
ATOM     25  C   UNL     1      58.745  25.097  52.285  1.00  0.00    -0.003 C 
ATOM     26  C   UNL     1      59.725  24.235  53.081  1.00  0.00     0.004 C 
ENDBRANCH  24  25
ENDBRANCH  23  24
ENDBRANCH  22  23
ENDBRANCH  21  22
ENDBRANCH  20  21
ENDBRANCH  19  20
ENDBRANCH  18  19
ENDBRANCH  17  18
ENDBRANCH  16  17
ENDBRANCH  15  16
ENDBRANCH   1  15
TORSDOF 22
ENDMDL
MODEL 7
REMARK VINA RESULT:    -3.098     12.568     15.603
REMARK INTER + INTRA:         -10.715
REMARK INTER:                  -7.614
REMARK INTRA:                  -3.100
REMARK UNBOUND:                -3.632
REMARK SMILES CCCCCCCCCCCCCCCCCCCCCCCC(=O)[O-]
REMARK SMILES IDX 13 1 14 2 15 3 16 4 17 5 18 6 19 7 20 8 21 9 22 10 23 11
REMARK SMILES IDX 24 12 25 13 26 14 12 15 11 16 10 17 9 18 8 19 7 20 6 21 5 22
REMARK SMILES IDX 4 23 3 24 2 25 1 26
REMARK H PARENT
REMARK Flexibility Score: inf
ROOT
ATOM      1  C   UNL     1      66.517  28.578  58.591  1.00  0.00     0.000 C 
ENDROOT
BRANCH   1   2
ATOM      2  C   UNL     1      68.018  28.917  58.689  1.00  0.00     0.000 C 
BRANCH   2   3
ATOM      3  C   UNL     1      68.977  27.724  58.503  1.00  0.00     0.000 C 
BRANCH   3   4
ATOM      4  C   UNL     1      69.581  27.221  59.823  1.00  0.00     0.000 C 
BRANCH   4   5
ATOM      5  C   UNL     1      69.251  28.172  60.982  1.00  0.00     0.000 C 
BRANCH   5   6
ATOM      6  C   UNL     1      70.476  28.964  61.481  1.00  0.00     0.000 C 
BRANCH   6   7
ATOM      7  C   UNL     1      71.845  28.436  61.006  1.00  0.00     0.000 C 
BRANCH   7   8
ATOM      8  C   UNL     1      72.699  29.508  60.307  1.00  0.00     0.000 C 
BRANCH   8   9
ATOM      9  C   UNL     1      72.382  29.639  58.806  1.00  0.00     0.000 C 
BRANCH   9  10
ATOM     10  C   UNL     1      71.374  30.745  58.438  1.00  0.00     0.006 C 
BRANCH  10  11
ATOM     11  C   UNL     1      71.248  31.857  59.496  1.00  0.00     0.053 C 
BRANCH  11  12
ATOM     12  C   UNL     1      70.866  33.179  58.897  1.00  0.00     0.041 C 
ATOM     13  O   UNL     1      70.483  34.122  59.638  1.00  0.00    -0.550 OA
ATOM     14  O   UNL     1      70.890  33.355  57.519  1.00  0.00    -0.550 OA
ENDBRANCH  11  12
ENDBRANCH  10  11
ENDBRANCH   9  10
ENDBRANCH   8   9
ENDBRANCH   7   8
ENDBRANCH   6   7
ENDBRANCH   5   6
ENDBRANCH   4   5
ENDBRANCH   3   4
ENDBRANCH   2   3
ENDBRANCH   1   2
BRANCH   1  15
ATOM     15  C   UNL     1      65.712  29.037  59.820  1.00  0.00     0.000 C 
BRANCH  15  16
ATOM     16  C   UNL     1      64.867  30.287  59.532  1.00  0.00     0.000 C 
BRANCH  16  17
ATOM     17  C   UNL     1      63.677  30.421  60.498  1.00  0.00     0.000 C 
BRANCH  17  18
ATOM     18  C   UNL     1      63.166  29.065  61.014  1.00  0.00    -0.000 C 
BRANCH  18  19
ATOM     19  C   UNL     1      61.627  28.939  60.997  1.00  0.00    -0.000 C 
BRANCH  19  20
ATOM     20  C   UNL     1      61.010  29.532  59.718  1.00  0.00    -0.000 C 
BRANCH  20  21
ATOM     21  C   UNL     1      60.948  28.520  58.562  1.00  0.00    -0.000 C 
BRANCH  21  22
ATOM     22  C   UNL     1      60.285  27.194  58.970  1.00  0.00    -0.000 C 
BRANCH  22  23
ATOM     23  C   UNL     1      61.305  26.066  59.214  1.00  0.00    -0.000 C 
BRANCH  23  24
ATOM     24  C   UNL     1      62.497  26.034  58.236  1.00  0.00    -0.000 C 
BRANCH  24  25
ATOM     25  C   UNL     1      63.882  25.959  58.900  1.00  0.00    -0.003 C 
ATOM     26  C   UNL     1      63.823  25.477  60.350  1.00  0.00     0.004 C 
ENDBRANCH  24  25
ENDBRANCH  23  24
ENDBRANCH  22  23
ENDBRANCH  21  22
ENDBRANCH  20  21
ENDBRANCH  19  20
ENDBRANCH  18  19
ENDBRANCH  17  18
ENDBRANCH  16  17
ENDBRANCH  15  16
ENDBRANCH   1  15
TORSDOF 22
ENDMDL
MODEL 8
REMARK VINA RESULT:    -3.086      6.305      9.916
REMARK INTER + INTRA:         -10.686
REMARK INTER:                  -6.314
REMARK INTRA:                  -4.372
REMARK UNBOUND:                -3.632
REMARK SMILES CCCCCCCCCCCCCCCCCCCCCCCC(=O)[O-]
REMARK SMILES IDX 13 1 14 2 15 3 16 4 17 5 18 6 19 7 20 8 21 9 22 10 23 11
REMARK SMILES IDX 24 12 25 13 26 14 12 15 11 16 10 17 9 18 8 19 7 20 6 21 5 22
REMARK SMILES IDX 4 23 3 24 2 25 1 26
REMARK H PARENT
REMARK Flexibility Score: inf
ROOT
ATOM      1  C   UNL     1      60.256  27.431  48.822  1.00  0.00     0.000 C 
ENDROOT
BRANCH   1   2
ATOM      2  C   UNL     1      59.004  28.314  48.652  1.00  0.00     0.000 C 
BRANCH   2   3
ATOM      3  C   UNL     1      57.829  27.980  49.592  1.00  0.00     0.000 C 
BRANCH   3   4
ATOM      4  C   UNL     1      57.796  28.853  50.856  1.00  0.00     0.000 C 
BRANCH   4   5
ATOM      5  C   UNL     1      58.432  28.126  52.048  1.00  0.00     0.000 C 
BRANCH   5   6
ATOM      6  C   UNL     1      59.934  28.427  52.209  1.00  0.00     0.000 C 
BRANCH   6   7
ATOM      7  C   UNL     1      60.314  29.922  52.218  1.00  0.00     0.000 C 
BRANCH   7   8
ATOM      8  C   UNL     1      61.141  30.346  50.993  1.00  0.00     0.000 C 
BRANCH   8   9
ATOM      9  C   UNL     1      62.553  30.833  51.364  1.00  0.00     0.000 C 
BRANCH   9  10
ATOM     10  C   UNL     1      63.416  31.320  50.184  1.00  0.00     0.006 C 
BRANCH  10  11
ATOM     11  C   UNL     1      62.620  31.591  48.894  1.00  0.00     0.053 C 
BRANCH  11  12
ATOM     12  C   UNL     1      62.699  33.025  48.460  1.00  0.00     0.041 C 
ATOM     13  O   UNL     1      61.785  33.524  47.751  1.00  0.00    -0.550 OA
ATOM     14  O   UNL     1      63.803  33.798  48.799  1.00  0.00    -0.550 OA
ENDBRANCH  11  12
ENDBRANCH  10  11
ENDBRANCH   9  10
ENDBRANCH   8   9
ENDBRANCH   7   8
ENDBRANCH   6   7
ENDBRANCH   5   6
ENDBRANCH   4   5
ENDBRANCH   3   4
ENDBRANCH   2   3
ENDBRANCH   1   2
BRANCH   1  15
ATOM     15  C   UNL     1      59.926  25.935  48.961  1.00  0.00     0.000 C 
BRANCH  15  16
ATOM     16  C   UNL     1      60.527  25.319  50.234  1.00  0.00     0.000 C 
BRANCH  16  17
ATOM     17  C   UNL     1      61.479  24.151  49.923  1.00  0.00     0.000 C 
BRANCH  17  18
ATOM     18  C   UNL     1      62.271  23.678  51.154  1.00  0.00    -0.000 C 
BRANCH  18  19
ATOM     19  C   UNL     1      62.348  24.732  52.280  1.00  0.00    -0.000 C 
BRANCH  19  20
ATOM     20  C   UNL     1      63.653  25.546  52.227  1.00  0.00    -0.000 C 
BRANCH  20  21
ATOM     21  C   UNL     1      63.409  27.057  52.085  1.00  0.00    -0.000 C 
BRANCH  21  22
ATOM     22  C   UNL     1      63.514  27.540  50.628  1.00  0.00    -0.000 C 
BRANCH  22  23
ATOM     23  C   UNL     1      64.338  26.588  49.741  1.00  0.00    -0.000 C 
BRANCH  23  24
ATOM     24  C   UNL     1      63.905  26.527  48.262  1.00  0.00    -0.000 C 
BRANCH  24  25
ATOM     25  C   UNL     1      63.657  27.893  47.600  1.00  0.00    -0.003 C 
ATOM     26  C   UNL     1      64.850  28.383  46.779  1.00  0.00     0.004 C 
ENDBRANCH  24  25
ENDBRANCH  23  24
ENDBRANCH  22  23
ENDBRANCH  21  22
ENDBRANCH  20  21
ENDBRANCH  19  20
ENDBRANCH  18  19
ENDBRANCH  17  18
ENDBRANCH  16  17
ENDBRANCH  15  16
ENDBRANCH   1  15
TORSDOF 22
ENDMDL
MODEL 9
REMARK VINA RESULT:    -3.051      2.009      4.197
REMARK INTER + INTRA:         -10.607
REMARK INTER:                  -7.125
REMARK INTRA:                  -3.482
REMARK UNBOUND:                -3.632
REMARK SMILES CCCCCCCCCCCCCCCCCCCCCCCC(=O)[O-]
REMARK SMILES IDX 13 1 14 2 15 3 16 4 17 5 18 6 19 7 20 8 21 9 22 10 23 11
REMARK SMILES IDX 24 12 25 13 26 14 12 15 11 16 10 17 9 18 8 19 7 20 6 21 5 22
REMARK SMILES IDX 4 23 3 24 2 25 1 26
REMARK H PARENT
REMARK Flexibility Score: inf
ROOT
ATOM      1  C   UNL     1      60.282  19.472  51.030  1.00  0.00     0.000 C 
ENDROOT
BRANCH   1   2
ATOM      2  C   UNL     1      60.222  18.167  51.849  1.00  0.00     0.000 C 
BRANCH   2   3
ATOM      3  C   UNL     1      59.971  16.885  51.030  1.00  0.00     0.000 C 
BRANCH   3   4
ATOM      4  C   UNL     1      58.526  16.374  51.134  1.00  0.00     0.000 C 
BRANCH   4   5
ATOM      5  C   UNL     1      57.748  16.641  49.838  1.00  0.00     0.000 C 
BRANCH   5   6
ATOM      6  C   UNL     1      57.145  18.058  49.777  1.00  0.00     0.000 C 
BRANCH   6   7
ATOM      7  C   UNL     1      55.839  18.259  50.572  1.00  0.00     0.000 C 
BRANCH   7   8
ATOM      8  C   UNL     1      56.033  19.074  51.862  1.00  0.00     0.000 C 
BRANCH   8   9
ATOM      9  C   UNL     1      55.817  18.237  53.136  1.00  0.00     0.000 C 
BRANCH   9  10
ATOM     10  C   UNL     1      57.041  18.121  54.065  1.00  0.00     0.006 C 
BRANCH  10  11
ATOM     11  C   UNL     1      57.271  16.706  54.627  1.00  0.00     0.053 C 
BRANCH  11  12
ATOM     12  C   UNL     1      56.447  16.433  55.850  1.00  0.00     0.041 C 
ATOM     13  O   UNL     1      56.938  16.608  56.997  1.00  0.00    -0.550 OA
ATOM     14  O   UNL     1      55.153  15.942  55.726  1.00  0.00    -0.550 OA
ENDBRANCH  11  12
ENDBRANCH  10  11
ENDBRANCH   9  10
ENDBRANCH   8   9
ENDBRANCH   7   8
ENDBRANCH   6   7
ENDBRANCH   5   6
ENDBRANCH   4   5
ENDBRANCH   3   4
ENDBRANCH   2   3
ENDBRANCH   1   2
BRANCH   1  15
ATOM     15  C   UNL     1      59.346  20.568  51.571  1.00  0.00     0.000 C 
BRANCH  15  16
ATOM     16  C   UNL     1      59.393  20.672  53.103  1.00  0.00     0.000 C 
BRANCH  16  17
ATOM     17  C   UNL     1      58.679  21.933  53.623  1.00  0.00     0.000 C 
BRANCH  17  18
ATOM     18  C   UNL     1      57.512  22.375  52.726  1.00  0.00    -0.000 C 
BRANCH  18  19
ATOM     19  C   UNL     1      57.628  23.835  52.238  1.00  0.00    -0.000 C 
BRANCH  19  20
ATOM     20  C   UNL     1      59.093  24.290  52.108  1.00  0.00    -0.000 C 
BRANCH  20  21
ATOM     21  C   UNL     1      59.630  24.168  50.673  1.00  0.00    -0.000 C 
BRANCH  21  22
ATOM     22  C   UNL     1      58.789  24.959  49.657  1.00  0.00    -0.000 C 
BRANCH  22  23
ATOM     23  C   UNL     1      59.577  26.099  48.987  1.00  0.00    -0.000 C 
BRANCH  23  24
ATOM     24  C   UNL     1      58.901  27.484  49.036  1.00  0.00    -0.000 C 
BRANCH  24  25
ATOM     25  C   UNL     1      57.529  27.514  49.732  1.00  0.00    -0.003 C 
ATOM     26  C   UNL     1      57.382  28.679  50.711  1.00  0.00     0.004 C 
ENDBRANCH  24  25
ENDBRANCH  23  24
ENDBRANCH  22  23
ENDBRANCH  21  22
ENDBRANCH  20  21
ENDBRANCH  19  20
ENDBRANCH  18  19
ENDBRANCH  17  18
ENDBRANCH  16  17
ENDBRANCH  15  16
ENDBRANCH   1  15
TORSDOF 22
ENDMDL
