MODEL 1
REMARK VINA RESULT:    -1.356      0.000      0.000
REMARK INTER + INTRA:          -4.752
REMARK INTER:                  -3.418
REMARK INTRA:                  -1.334
REMARK UNBOUND:                -1.334
REMARK SMILES CCCCCCCCCCCCCCCCCCCCCCCCCCCC(=O)[O-]
REMARK SMILES IDX 15 1 16 2 17 3 18 4 19 5 20 6 21 7 22 8 23 9 24 10 25 11
REMARK SMILES IDX 26 12 27 13 28 14 29 15 30 16 14 17 13 18 12 19 11 20 10 21
REMARK SMILES IDX 9 22 8 23 7 24 6 25 5 26 4 27 3 28 2 29 1 30
REMARK H PARENT
REMARK Flexibility Score: inf
ROOT
ATOM      1  C   UNL     1     -22.586  -0.939   2.223  1.00  0.00     0.000 C 
ENDROOT
BRANCH   1   2
ATOM      2  C   UNL     1     -21.640   0.269   2.402  1.00  0.00     0.000 C 
BRANCH   2   3
ATOM      3  C   UNL     1     -21.985   1.462   1.497  1.00  0.00     0.000 C 
BRANCH   3   4
ATOM      4  C   UNL     1     -22.693   1.039   0.199  1.00  0.00     0.000 C 
BRANCH   4   5
ATOM      5  C   UNL     1     -24.212   0.877   0.380  1.00  0.00     0.000 C 
BRANCH   5   6
ATOM      6  C   UNL     1     -25.000   2.099  -0.125  1.00  0.00     0.000 C 
BRANCH   6   7
ATOM      7  C   UNL     1     -25.845   2.755   0.979  1.00  0.00     0.000 C 
BRANCH   7   8
ATOM      8  C   UNL     1     -25.820   1.962   2.298  1.00  0.00     0.000 C 
BRANCH   8   9
ATOM      9  C   UNL     1     -25.727   2.876   3.532  1.00  0.00     0.000 C 
BRANCH   9  10
ATOM     10  C   UNL     1     -24.703   4.010   3.355  1.00  0.00     0.000 C 
BRANCH  10  11
ATOM     11  C   UNL     1     -25.333   5.301   2.802  1.00  0.00     0.000 C 
BRANCH  11  12
ATOM     12  C   UNL     1     -24.569   5.946   1.631  1.00  0.00     0.006 C 
BRANCH  12  13
ATOM     13  C   UNL     1     -23.353   5.123   1.185  1.00  0.00     0.053 C 
BRANCH  13  14
ATOM     14  C   UNL     1     -22.137   5.988   1.071  1.00  0.00     0.041 C 
ATOM     15  O   UNL     1     -22.081   7.088   1.684  1.00  0.00    -0.550 OA
ATOM     16  O   UNL     1     -21.070   5.592   0.273  1.00  0.00    -0.550 OA
ENDBRANCH  13  14
ENDBRANCH  12  13
ENDBRANCH  11  12
ENDBRANCH  10  11
ENDBRANCH   9  10
ENDBRANCH   8   9
ENDBRANCH   7   8
ENDBRANCH   6   7
ENDBRANCH   5   6
ENDBRANCH   4   5
ENDBRANCH   3   4
ENDBRANCH   2   3
ENDBRANCH   1   2
BRANCH   1  17
ATOM     17  C   UNL     1     -21.889  -2.131   1.544  1.00  0.00     0.000 C 
BRANCH  17  18
ATOM     18  C   UNL     1     -22.548  -2.502   0.197  1.00  0.00     0.000 C 
BRANCH  18  19
ATOM     19  C   UNL     1     -22.490  -4.006  -0.124  1.00  0.00     0.000 C 
BRANCH  19  20
ATOM     20  C   UNL     1     -23.463  -4.836   0.729  1.00  0.00     0.000 C 
BRANCH  20  21
ATOM     21  C   UNL     1     -24.356  -5.756  -0.119  1.00  0.00     0.000 C 
BRANCH  21  22
ATOM     22  C   UNL     1     -24.264  -7.230   0.314  1.00  0.00    -0.000 C 
BRANCH  22  23
ATOM     23  C   UNL     1     -25.644  -7.865   0.549  1.00  0.00    -0.000 C 
BRANCH  23  24
ATOM     24  C   UNL     1     -25.596  -9.404   0.544  1.00  0.00    -0.000 C 
BRANCH  24  25
ATOM     25  C   UNL     1     -24.849  -9.974   1.761  1.00  0.00    -0.000 C 
BRANCH  25  26
ATOM     26  C   UNL     1     -25.800 -10.556   2.822  1.00  0.00    -0.000 C 
BRANCH  26  27
ATOM     27  C   UNL     1     -25.133 -11.633   3.696  1.00  0.00    -0.000 C 
BRANCH  27  28
ATOM     28  C   UNL     1     -23.637 -11.398   3.983  1.00  0.00    -0.000 C 
BRANCH  28  29
ATOM     29  C   UNL     1     -22.733 -12.461   3.343  1.00  0.00    -0.003 C 
ATOM     30  C   UNL     1     -22.379 -12.088   1.907  1.00  0.00     0.004 C 
ENDBRANCH  28  29
ENDBRANCH  27  28
ENDBRANCH  26  27
ENDBRANCH  25  26
ENDBRANCH  24  25
ENDBRANCH  23  24
ENDBRANCH  22  23
ENDBRANCH  21  22
ENDBRANCH  20  21
ENDBRANCH  19  20
ENDBRANCH  18  19
ENDBRANCH  17  18
ENDBRANCH   1  17
TORSDOF 26
ENDMDL
MODEL 2
REMARK VINA RESULT:    -1.206      4.957     13.348
REMARK INTER + INTRA:          -4.373
REMARK INTER:                  -2.506
REMARK INTRA:                  -1.866
REMARK UNBOUND:                -1.334
REMARK SMILES CCCCCCCCCCCCCCCCCCCCCCCCCCCC(=O)[O-]
REMARK SMILES IDX 15 1 16 2 17 3 18 4 19 5 20 6 21 7 22 8 23 9 24 10 25 11
REMARK SMILES IDX 26 12 27 13 28 14 29 15 30 16 14 17 13 18 12 19 11 20 10 21
REMARK SMILES IDX 9 22 8 23 7 24 6 25 5 26 4 27 3 28 2 29 1 30
REMARK H PARENT
REMARK Flexibility Score: inf
ROOT
ATOM      1  C   UNL     1     -21.961  -1.414   1.453  1.00  0.00     0.000 C 
ENDROOT
BRANCH   1   2
ATOM      2  C   UNL     1     -22.298  -2.426   0.336  1.00  0.00     0.000 C 
BRANCH   2   3
ATOM      3  C   UNL     1     -21.910  -3.874   0.679  1.00  0.00     0.000 C 
BRANCH   3   4
ATOM      4  C   UNL     1     -23.108  -4.716   1.148  1.00  0.00     0.000 C 
BRANCH   4   5
ATOM      5  C   UNL     1     -23.630  -5.661   0.052  1.00  0.00     0.000 C 
BRANCH   5   6
ATOM      6  C   UNL     1     -25.156  -5.574  -0.124  1.00  0.00     0.000 C 
BRANCH   6   7
ATOM      7  C   UNL     1     -25.905  -6.676   0.644  1.00  0.00     0.000 C 
BRANCH   7   8
ATOM      8  C   UNL     1     -25.790  -8.055  -0.032  1.00  0.00     0.000 C 
BRANCH   8   9
ATOM      9  C   UNL     1     -25.165  -9.113   0.893  1.00  0.00     0.000 C 
BRANCH   9  10
ATOM     10  C   UNL     1     -26.125 -10.276   1.199  1.00  0.00     0.000 C 
BRANCH  10  11
ATOM     11  C   UNL     1     -25.425 -11.647   1.186  1.00  0.00     0.000 C 
BRANCH  11  12
ATOM     12  C   UNL     1     -24.209 -11.763   2.124  1.00  0.00     0.006 C 
BRANCH  12  13
ATOM     13  C   UNL     1     -23.135 -12.722   1.594  1.00  0.00     0.053 C 
BRANCH  13  14
ATOM     14  C   UNL     1     -21.815 -12.456   2.248  1.00  0.00     0.041 C 
ATOM     15  O   UNL     1     -20.743 -12.656   1.617  1.00  0.00    -0.550 OA
ATOM     16  O   UNL     1     -21.766 -12.005   3.562  1.00  0.00    -0.550 OA
ENDBRANCH  13  14
ENDBRANCH  12  13
ENDBRANCH  11  12
ENDBRANCH  10  11
ENDBRANCH   9  10
ENDBRANCH   8   9
ENDBRANCH   7   8
ENDBRANCH   6   7
ENDBRANCH   5   6
ENDBRANCH   4   5
ENDBRANCH   3   4
ENDBRANCH   2   3
ENDBRANCH   1   2
BRANCH   1  17
ATOM     17  C   UNL     1     -21.695  -0.003   0.901  1.00  0.00     0.000 C 
BRANCH  17  18
ATOM     18  C   UNL     1     -22.881   0.531   0.068  1.00  0.00     0.000 C 
BRANCH  18  19
ATOM     19  C   UNL     1     -24.203   0.606   0.852  1.00  0.00     0.000 C 
BRANCH  19  20
ATOM     20  C   UNL     1     -24.033   1.226   2.249  1.00  0.00     0.000 C 
BRANCH  20  21
ATOM     21  C   UNL     1     -24.729   2.590   2.379  1.00  0.00     0.000 C 
BRANCH  21  22
ATOM     22  C   UNL     1     -24.341   3.560   1.248  1.00  0.00    -0.000 C 
BRANCH  22  23
ATOM     23  C   UNL     1     -22.936   4.157   1.438  1.00  0.00    -0.000 C 
BRANCH  23  24
ATOM     24  C   UNL     1     -22.570   5.169   0.338  1.00  0.00    -0.000 C 
BRANCH  24  25
ATOM     25  C   UNL     1     -22.936   6.612   0.720  1.00  0.00    -0.000 C 
BRANCH  25  26
ATOM     26  C   UNL     1     -24.384   6.977   0.346  1.00  0.00    -0.000 C 
BRANCH  26  27
ATOM     27  C   UNL     1     -25.337   6.955   1.554  1.00  0.00    -0.000 C 
BRANCH  27  28
ATOM     28  C   UNL     1     -24.641   6.876   2.926  1.00  0.00    -0.000 C 
BRANCH  28  29
ATOM     29  C   UNL     1     -25.633   6.785   4.095  1.00  0.00    -0.003 C 
ATOM     30  C   UNL     1     -25.520   5.440   4.805  1.00  0.00     0.004 C 
ENDBRANCH  28  29
ENDBRANCH  27  28
ENDBRANCH  26  27
ENDBRANCH  25  26
ENDBRANCH  24  25
ENDBRANCH  23  24
ENDBRANCH  22  23
ENDBRANCH  21  22
ENDBRANCH  20  21
ENDBRANCH  19  20
ENDBRANCH  18  19
ENDBRANCH  17  18
ENDBRANCH   1  17
TORSDOF 26
ENDMDL
MODEL 3
REMARK VINA RESULT:    -1.061      4.666     13.042
REMARK INTER + INTRA:          -4.007
REMARK INTER:                  -2.142
REMARK INTRA:                  -1.865
REMARK UNBOUND:                -1.334
REMARK SMILES CCCCCCCCCCCCCCCCCCCCCCCCCCCC(=O)[O-]
REMARK SMILES IDX 15 1 16 2 17 3 18 4 19 5 20 6 21 7 22 8 23 9 24 10 25 11
REMARK SMILES IDX 26 12 27 13 28 14 29 15 30 16 14 17 13 18 12 19 11 20 10 21
REMARK SMILES IDX 9 22 8 23 7 24 6 25 5 26 4 27 3 28 2 29 1 30
REMARK H PARENT
REMARK Flexibility Score: inf
ROOT
ATOM      1  C   UNL     1     -21.896  -0.267   1.831  1.00  0.00     0.000 C 
ENDROOT
BRANCH   1   2
ATOM      2  C   UNL     1     -21.342  -1.521   1.119  1.00  0.00     0.000 C 
BRANCH   2   3
ATOM      3  C   UNL     1     -22.352  -2.188   0.172  1.00  0.00     0.000 C 
BRANCH   3   4
ATOM      4  C   UNL     1     -23.186  -3.279   0.864  1.00  0.00     0.000 C 
BRANCH   4   5
ATOM      5  C   UNL     1     -23.729  -4.324  -0.124  1.00  0.00     0.000 C 
BRANCH   5   6
ATOM      6  C   UNL     1     -23.638  -5.759   0.424  1.00  0.00     0.000 C 
BRANCH   6   7
ATOM      7  C   UNL     1     -24.922  -6.570   0.177  1.00  0.00     0.000 C 
BRANCH   7   8
ATOM      8  C   UNL     1     -24.639  -8.055  -0.115  1.00  0.00     0.000 C 
BRANCH   8   9
ATOM      9  C   UNL     1     -25.302  -8.992   0.910  1.00  0.00     0.000 C 
BRANCH   9  10
ATOM     10  C   UNL     1     -24.988 -10.475   0.649  1.00  0.00     0.000 C 
BRANCH  10  11
ATOM     11  C   UNL     1     -25.416 -11.389   1.811  1.00  0.00     0.000 C 
BRANCH  11  12
ATOM     12  C   UNL     1     -25.857 -10.651   3.088  1.00  0.00     0.006 C 
BRANCH  12  13
ATOM     13  C   UNL     1     -25.207 -11.212   4.358  1.00  0.00     0.053 C 
BRANCH  13  14
ATOM     14  C   UNL     1     -23.730 -11.377   4.172  1.00  0.00     0.041 C 
ATOM     15  O   UNL     1     -22.974 -10.369   4.170  1.00  0.00    -0.550 OA
ATOM     16  O   UNL     1     -23.188 -12.643   3.979  1.00  0.00    -0.550 OA
ENDBRANCH  13  14
ENDBRANCH  12  13
ENDBRANCH  11  12
ENDBRANCH  10  11
ENDBRANCH   9  10
ENDBRANCH   8   9
ENDBRANCH   7   8
ENDBRANCH   6   7
ENDBRANCH   5   6
ENDBRANCH   4   5
ENDBRANCH   3   4
ENDBRANCH   2   3
ENDBRANCH   1   2
BRANCH   1  17
ATOM     17  C   UNL     1     -21.156   1.016   1.414  1.00  0.00     0.000 C 
BRANCH  17  18
ATOM     18  C   UNL     1     -22.077   2.002   0.662  1.00  0.00     0.000 C 
BRANCH  18  19
ATOM     19  C   UNL     1     -23.574   1.665   0.785  1.00  0.00     0.000 C 
BRANCH  19  20
ATOM     20  C   UNL     1     -24.468   2.622  -0.020  1.00  0.00     0.000 C 
BRANCH  20  21
ATOM     21  C   UNL     1     -25.920   2.640   0.486  1.00  0.00     0.000 C 
BRANCH  21  22
ATOM     22  C   UNL     1     -26.116   3.591   1.680  1.00  0.00    -0.000 C 
BRANCH  22  23
ATOM     23  C   UNL     1     -25.353   3.133   2.934  1.00  0.00    -0.000 C 
BRANCH  23  24
ATOM     24  C   UNL     1     -25.115   4.279   3.933  1.00  0.00    -0.000 C 
BRANCH  24  25
ATOM     25  C   UNL     1     -26.125   5.426   3.766  1.00  0.00    -0.000 C 
BRANCH  25  26
ATOM     26  C   UNL     1     -25.445   6.794   3.577  1.00  0.00    -0.000 C 
BRANCH  26  27
ATOM     27  C   UNL     1     -24.287   6.751   2.565  1.00  0.00    -0.000 C 
BRANCH  27  28
ATOM     28  C   UNL     1     -24.689   7.051   1.108  1.00  0.00    -0.000 C 
BRANCH  28  29
ATOM     29  C   UNL     1     -23.769   6.375   0.082  1.00  0.00    -0.003 C 
ATOM     30  C   UNL     1     -22.301   6.564   0.454  1.00  0.00     0.004 C 
ENDBRANCH  28  29
ENDBRANCH  27  28
ENDBRANCH  26  27
ENDBRANCH  25  26
ENDBRANCH  24  25
ENDBRANCH  23  24
ENDBRANCH  22  23
ENDBRANCH  21  22
ENDBRANCH  20  21
ENDBRANCH  19  20
ENDBRANCH  18  19
ENDBRANCH  17  18
ENDBRANCH   1  17
TORSDOF 26
ENDMDL
MODEL 4
REMARK VINA RESULT:    -0.933      1.929      3.322
REMARK INTER + INTRA:          -3.684
REMARK INTER:                  -3.079
REMARK INTRA:                  -0.606
REMARK UNBOUND:                -1.334
REMARK SMILES CCCCCCCCCCCCCCCCCCCCCCCCCCCC(=O)[O-]
REMARK SMILES IDX 15 1 16 2 17 3 18 4 19 5 20 6 21 7 22 8 23 9 24 10 25 11
REMARK SMILES IDX 26 12 27 13 28 14 29 15 30 16 14 17 13 18 12 19 11 20 10 21
REMARK SMILES IDX 9 22 8 23 7 24 6 25 5 26 4 27 3 28 2 29 1 30
REMARK H PARENT
REMARK Flexibility Score: inf
ROOT
ATOM      1  C   UNL     1     -22.821  -2.910   0.245  1.00  0.00     0.000 C 
ENDROOT
BRANCH   1   2
ATOM      2  C   UNL     1     -22.032  -1.783   0.949  1.00  0.00     0.000 C 
BRANCH   2   3
ATOM      3  C   UNL     1     -22.348  -0.380   0.406  1.00  0.00     0.000 C 
BRANCH   3   4
ATOM      4  C   UNL     1     -21.750   0.741   1.273  1.00  0.00     0.000 C 
BRANCH   4   5
ATOM      5  C   UNL     1     -21.112   1.861   0.433  1.00  0.00     0.000 C 
BRANCH   5   6
ATOM      6  C   UNL     1     -22.153   2.847  -0.125  1.00  0.00     0.000 C 
BRANCH   6   7
ATOM      7  C   UNL     1     -22.668   3.830   0.940  1.00  0.00     0.000 C 
BRANCH   7   8
ATOM      8  C   UNL     1     -22.294   5.291   0.631  1.00  0.00     0.000 C 
BRANCH   8   9
ATOM      9  C   UNL     1     -22.323   6.183   1.883  1.00  0.00     0.000 C 
BRANCH   9  10
ATOM     10  C   UNL     1     -23.677   6.889   2.078  1.00  0.00     0.000 C 
BRANCH  10  11
ATOM     11  C   UNL     1     -24.823   5.907   2.382  1.00  0.00     0.000 C 
BRANCH  11  12
ATOM     12  C   UNL     1     -24.931   5.471   3.854  1.00  0.00     0.006 C 
BRANCH  12  13
ATOM     13  C   UNL     1     -25.678   4.143   4.031  1.00  0.00     0.053 C 
BRANCH  13  14
ATOM     14  C   UNL     1     -25.518   3.276   2.821  1.00  0.00     0.041 C 
ATOM     15  O   UNL     1     -26.098   3.577   1.744  1.00  0.00    -0.550 OA
ATOM     16  O   UNL     1     -24.742   2.124   2.885  1.00  0.00    -0.550 OA
ENDBRANCH  13  14
ENDBRANCH  12  13
ENDBRANCH  11  12
ENDBRANCH  10  11
ENDBRANCH   9  10
ENDBRANCH   8   9
ENDBRANCH   7   8
ENDBRANCH   6   7
ENDBRANCH   5   6
ENDBRANCH   4   5
ENDBRANCH   3   4
ENDBRANCH   2   3
ENDBRANCH   1   2
BRANCH   1  17
ATOM     17  C   UNL     1     -22.629  -4.273   0.933  1.00  0.00     0.000 C 
BRANCH  17  18
ATOM     18  C   UNL     1     -23.441  -5.393   0.246  1.00  0.00     0.000 C 
BRANCH  18  19
ATOM     19  C   UNL     1     -24.876  -5.533   0.783  1.00  0.00     0.000 C 
BRANCH  19  20
ATOM     20  C   UNL     1     -25.772  -6.392  -0.125  1.00  0.00     0.000 C 
BRANCH  20  21
ATOM     21  C   UNL     1     -25.402  -7.883  -0.079  1.00  0.00     0.000 C 
BRANCH  21  22
ATOM     22  C   UNL     1     -25.373  -8.440   1.356  1.00  0.00    -0.000 C 
BRANCH  22  23
ATOM     23  C   UNL     1     -25.383  -9.977   1.395  1.00  0.00    -0.000 C 
BRANCH  23  24
ATOM     24  C   UNL     1     -24.196 -10.556   2.185  1.00  0.00    -0.000 C 
BRANCH  24  25
ATOM     25  C   UNL     1     -24.438 -12.007   2.632  1.00  0.00    -0.000 C 
BRANCH  25  26
ATOM     26  C   UNL     1     -23.776 -13.035   1.698  1.00  0.00    -0.000 C 
BRANCH  26  27
ATOM     27  C   UNL     1     -22.430 -12.549   1.131  1.00  0.00    -0.000 C 
BRANCH  27  28
ATOM     28  C   UNL     1     -21.186 -13.125   1.835  1.00  0.00    -0.000 C 
BRANCH  28  29
ATOM     29  C   UNL     1     -20.727 -12.275   3.028  1.00  0.00    -0.003 C 
ATOM     30  C   UNL     1     -19.263 -12.543   3.363  1.00  0.00     0.004 C 
ENDBRANCH  28  29
ENDBRANCH  27  28
ENDBRANCH  26  27
ENDBRANCH  25  26
ENDBRANCH  24  25
ENDBRANCH  23  24
ENDBRANCH  22  23
ENDBRANCH  21  22
ENDBRANCH  20  21
ENDBRANCH  19  20
ENDBRANCH  18  19
ENDBRANCH  17  18
ENDBRANCH   1  17
TORSDOF 26
ENDMDL
MODEL 5
REMARK VINA RESULT:    -0.910      4.745     12.827
REMARK INTER + INTRA:          -3.628
REMARK INTER:                  -3.746
REMARK INTRA:                   0.118
REMARK UNBOUND:                -1.334
REMARK SMILES CCCCCCCCCCCCCCCCCCCCCCCCCCCC(=O)[O-]
REMARK SMILES IDX 15 1 16 2 17 3 18 4 19 5 20 6 21 7 22 8 23 9 24 10 25 11
REMARK SMILES IDX 26 12 27 13 28 14 29 15 30 16 14 17 13 18 12 19 11 20 10 21
REMARK SMILES IDX 9 22 8 23 7 24 6 25 5 26 4 27 3 28 2 29 1 30
REMARK H PARENT
REMARK Flexibility Score: inf
ROOT
ATOM      1  C   UNL     1     -21.794  -1.377   1.636  1.00  0.00     0.000 C 
ENDROOT
BRANCH   1   2
ATOM      2  C   UNL     1     -22.361  -1.987   0.335  1.00  0.00     0.000 C 
BRANCH   2   3
ATOM      3  C   UNL     1     -21.967  -3.457   0.121  1.00  0.00     0.000 C 
BRANCH   3   4
ATOM      4  C   UNL     1     -22.875  -4.434   0.887  1.00  0.00     0.000 C 
BRANCH   4   5
ATOM      5  C   UNL     1     -23.739  -5.295  -0.048  1.00  0.00     0.000 C 
BRANCH   5   6
ATOM      6  C   UNL     1     -25.223  -4.886  -0.025  1.00  0.00     0.000 C 
BRANCH   6   7
ATOM      7  C   UNL     1     -26.122  -5.955   0.618  1.00  0.00     0.000 C 
BRANCH   7   8
ATOM      8  C   UNL     1     -26.064  -7.304  -0.123  1.00  0.00     0.000 C 
BRANCH   8   9
ATOM      9  C   UNL     1     -24.961  -8.227   0.422  1.00  0.00     0.000 C 
BRANCH   9  10
ATOM     10  C   UNL     1     -25.083  -9.669  -0.100  1.00  0.00     0.000 C 
BRANCH  10  11
ATOM     11  C   UNL     1     -23.823 -10.511   0.174  1.00  0.00     0.000 C 
BRANCH  11  12
ATOM     12  C   UNL     1     -23.978 -11.569   1.281  1.00  0.00     0.006 C 
BRANCH  12  13
ATOM     13  C   UNL     1     -23.441 -11.097   2.639  1.00  0.00     0.053 C 
BRANCH  13  14
ATOM     14  C   UNL     1     -24.562 -10.878   3.608  1.00  0.00     0.041 C 
ATOM     15  O   UNL     1     -25.693 -10.507   3.196  1.00  0.00    -0.550 OA
ATOM     16  O   UNL     1     -24.353 -11.065   4.969  1.00  0.00    -0.550 OA
ENDBRANCH  13  14
ENDBRANCH  12  13
ENDBRANCH  11  12
ENDBRANCH  10  11
ENDBRANCH   9  10
ENDBRANCH   8   9
ENDBRANCH   7   8
ENDBRANCH   6   7
ENDBRANCH   5   6
ENDBRANCH   4   5
ENDBRANCH   3   4
ENDBRANCH   2   3
ENDBRANCH   1   2
BRANCH   1  17
ATOM     17  C   UNL     1     -21.229   0.037   1.420  1.00  0.00     0.000 C 
BRANCH  17  18
ATOM     18  C   UNL     1     -21.871   0.743   0.205  1.00  0.00     0.000 C 
BRANCH  18  19
ATOM     19  C   UNL     1     -23.334   1.159   0.435  1.00  0.00     0.000 C 
BRANCH  19  20
ATOM     20  C   UNL     1     -23.674   1.345   1.923  1.00  0.00     0.000 C 
BRANCH  20  21
ATOM     21  C   UNL     1     -23.705   2.824   2.342  1.00  0.00     0.000 C 
BRANCH  21  22
ATOM     22  C   UNL     1     -24.414   3.715   1.307  1.00  0.00    -0.000 C 
BRANCH  22  23
ATOM     23  C   UNL     1     -23.440   4.634   0.550  1.00  0.00    -0.000 C 
BRANCH  23  24
ATOM     24  C   UNL     1     -23.965   6.075   0.423  1.00  0.00    -0.000 C 
BRANCH  24  25
ATOM     25  C   UNL     1     -22.952   7.117   0.922  1.00  0.00    -0.000 C 
BRANCH  25  26
ATOM     26  C   UNL     1     -21.539   6.534   1.102  1.00  0.00    -0.000 C 
BRANCH  26  27
ATOM     27  C   UNL     1     -21.065   5.728  -0.121  1.00  0.00    -0.000 C 
BRANCH  27  28
ATOM     28  C   UNL     1     -20.618   4.287   0.188  1.00  0.00    -0.000 C 
BRANCH  28  29
ATOM     29  C   UNL     1     -19.135   4.041  -0.122  1.00  0.00    -0.003 C 
ATOM     30  C   UNL     1     -18.286   5.248   0.266  1.00  0.00     0.004 C 
ENDBRANCH  28  29
ENDBRANCH  27  28
ENDBRANCH  26  27
ENDBRANCH  25  26
ENDBRANCH  24  25
ENDBRANCH  23  24
ENDBRANCH  22  23
ENDBRANCH  21  22
ENDBRANCH  20  21
ENDBRANCH  19  20
ENDBRANCH  18  19
ENDBRANCH  17  18
ENDBRANCH   1  17
TORSDOF 26
ENDMDL
MODEL 6
REMARK VINA RESULT:    -0.907      5.083     13.297
REMARK INTER + INTRA:          -3.621
REMARK INTER:                  -2.220
REMARK INTRA:                  -1.401
REMARK UNBOUND:                -1.334
REMARK SMILES CCCCCCCCCCCCCCCCCCCCCCCCCCCC(=O)[O-]
REMARK SMILES IDX 15 1 16 2 17 3 18 4 19 5 20 6 21 7 22 8 23 9 24 10 25 11
REMARK SMILES IDX 26 12 27 13 28 14 29 15 30 16 14 17 13 18 12 19 11 20 10 21
REMARK SMILES IDX 9 22 8 23 7 24 6 25 5 26 4 27 3 28 2 29 1 30
REMARK H PARENT
REMARK Flexibility Score: inf
ROOT
ATOM      1  C   UNL     1     -22.624  -1.755   1.386  1.00  0.00     0.000 C 
ENDROOT
BRANCH   1   2
ATOM      2  C   UNL     1     -22.116  -2.853   0.426  1.00  0.00     0.000 C 
BRANCH   2   3
ATOM      3  C   UNL     1     -23.198  -3.867   0.021  1.00  0.00     0.000 C 
BRANCH   3   4
ATOM      4  C   UNL     1     -22.833  -5.311   0.405  1.00  0.00     0.000 C 
BRANCH   4   5
ATOM      5  C   UNL     1     -23.850  -6.337  -0.124  1.00  0.00     0.000 C 
BRANCH   5   6
ATOM      6  C   UNL     1     -24.955  -6.655   0.900  1.00  0.00     0.000 C 
BRANCH   6   7
ATOM      7  C   UNL     1     -26.123  -7.443   0.284  1.00  0.00     0.000 C 
BRANCH   7   8
ATOM      8  C   UNL     1     -25.954  -8.966   0.430  1.00  0.00     0.000 C 
BRANCH   8   9
ATOM      9  C   UNL     1     -24.750  -9.343   1.309  1.00  0.00     0.000 C 
BRANCH   9  10
ATOM     10  C   UNL     1     -23.634 -10.048   0.518  1.00  0.00     0.000 C 
BRANCH  10  11
ATOM     11  C   UNL     1     -23.878 -11.560   0.361  1.00  0.00     0.000 C 
BRANCH  11  12
ATOM     12  C   UNL     1     -23.539 -12.404   1.603  1.00  0.00     0.006 C 
BRANCH  12  13
ATOM     13  C   UNL     1     -22.526 -11.720   2.532  1.00  0.00     0.053 C 
BRANCH  13  14
ATOM     14  C   UNL     1     -21.219 -12.450   2.522  1.00  0.00     0.041 C 
ATOM     15  O   UNL     1     -20.705 -12.845   3.603  1.00  0.00    -0.550 OA
ATOM     16  O   UNL     1     -20.555 -12.677   1.322  1.00  0.00    -0.550 OA
ENDBRANCH  13  14
ENDBRANCH  12  13
ENDBRANCH  11  12
ENDBRANCH  10  11
ENDBRANCH   9  10
ENDBRANCH   8   9
ENDBRANCH   7   8
ENDBRANCH   6   7
ENDBRANCH   5   6
ENDBRANCH   4   5
ENDBRANCH   3   4
ENDBRANCH   2   3
ENDBRANCH   1   2
BRANCH   1  17
ATOM     17  C   UNL     1     -22.151  -0.351   0.970  1.00  0.00     0.000 C 
BRANCH  17  18
ATOM     18  C   UNL     1     -23.282   0.696   1.060  1.00  0.00     0.000 C 
BRANCH  18  19
ATOM     19  C   UNL     1     -24.496   0.373   0.170  1.00  0.00     0.000 C 
BRANCH  19  20
ATOM     20  C   UNL     1     -25.780   1.080   0.633  1.00  0.00     0.000 C 
BRANCH  20  21
ATOM     21  C   UNL     1     -25.597   1.824   1.967  1.00  0.00     0.000 C 
BRANCH  21  22
ATOM     22  C   UNL     1     -25.063   3.255   1.776  1.00  0.00    -0.000 C 
BRANCH  22  23
ATOM     23  C   UNL     1     -24.062   3.663   2.870  1.00  0.00    -0.000 C 
BRANCH  23  24
ATOM     24  C   UNL     1     -22.885   4.486   2.317  1.00  0.00    -0.000 C 
BRANCH  24  25
ATOM     25  C   UNL     1     -23.265   5.289   1.062  1.00  0.00    -0.000 C 
BRANCH  25  26
ATOM     26  C   UNL     1     -22.598   6.676   1.020  1.00  0.00    -0.000 C 
BRANCH  26  27
ATOM     27  C   UNL     1     -21.580   6.815  -0.125  1.00  0.00    -0.000 C 
BRANCH  27  28
ATOM     28  C   UNL     1     -20.112   6.582   0.282  1.00  0.00    -0.000 C 
BRANCH  28  29
ATOM     29  C   UNL     1     -19.712   5.100   0.252  1.00  0.00    -0.003 C 
ATOM     30  C   UNL     1     -18.195   4.941   0.284  1.00  0.00     0.004 C 
ENDBRANCH  28  29
ENDBRANCH  27  28
ENDBRANCH  26  27
ENDBRANCH  25  26
ENDBRANCH  24  25
ENDBRANCH  23  24
ENDBRANCH  22  23
ENDBRANCH  21  22
ENDBRANCH  20  21
ENDBRANCH  19  20
ENDBRANCH  18  19
ENDBRANCH  17  18
ENDBRANCH   1  17
TORSDOF 26
ENDMDL
MODEL 7
REMARK VINA RESULT:     0.744      1.553      2.685
REMARK INTER + INTRA:           0.541
REMARK INTER:                   0.421
REMARK INTRA:                   0.120
REMARK UNBOUND:                -1.334
REMARK SMILES CCCCCCCCCCCCCCCCCCCCCCCCCCCC(=O)[O-]
REMARK SMILES IDX 15 1 16 2 17 3 18 4 19 5 20 6 21 7 22 8 23 9 24 10 25 11
REMARK SMILES IDX 26 12 27 13 28 14 29 15 30 16 14 17 13 18 12 19 11 20 10 21
REMARK SMILES IDX 9 22 8 23 7 24 6 25 5 26 4 27 3 28 2 29 1 30
REMARK H PARENT
REMARK Flexibility Score: inf
ROOT
ATOM      1  C   UNL     1     -23.082  -2.301   0.462  1.00  0.00     0.000 C 
ENDROOT
BRANCH   1   2
ATOM      2  C   UNL     1     -21.854  -1.420   0.784  1.00  0.00     0.000 C 
BRANCH   2   3
ATOM      3  C   UNL     1     -22.217  -0.052   1.384  1.00  0.00     0.000 C 
BRANCH   3   4
ATOM      4  C   UNL     1     -23.405   0.614   0.672  1.00  0.00     0.000 C 
BRANCH   4   5
ATOM      5  C   UNL     1     -24.305   1.404   1.637  1.00  0.00     0.000 C 
BRANCH   5   6
ATOM      6  C   UNL     1     -23.599   2.638   2.227  1.00  0.00     0.000 C 
BRANCH   6   7
ATOM      7  C   UNL     1     -24.505   3.441   3.175  1.00  0.00     0.000 C 
BRANCH   7   8
ATOM      8  C   UNL     1     -23.823   4.713   3.713  1.00  0.00     0.000 C 
BRANCH   8   9
ATOM      9  C   UNL     1     -24.259   5.978   2.956  1.00  0.00     0.000 C 
BRANCH   9  10
ATOM     10  C   UNL     1     -23.730   6.018   1.511  1.00  0.00     0.000 C 
BRANCH  10  11
ATOM     11  C   UNL     1     -22.307   5.445   1.381  1.00  0.00     0.000 C 
BRANCH  11  12
ATOM     12  C   UNL     1     -21.578   5.811   0.075  1.00  0.00     0.006 C 
BRANCH  12  13
ATOM     13  C   UNL     1     -20.275   5.025  -0.123  1.00  0.00     0.053 C 
BRANCH  13  14
ATOM     14  C   UNL     1     -19.085   5.890   0.151  1.00  0.00     0.041 C 
ATOM     15  O   UNL     1     -19.232   7.125   0.356  1.00  0.00    -0.550 OA
ATOM     16  O   UNL     1     -17.809   5.339   0.160  1.00  0.00    -0.550 OA
ENDBRANCH  13  14
ENDBRANCH  12  13
ENDBRANCH  11  12
ENDBRANCH  10  11
ENDBRANCH   9  10
ENDBRANCH   8   9
ENDBRANCH   7   8
ENDBRANCH   6   7
ENDBRANCH   5   6
ENDBRANCH   4   5
ENDBRANCH   3   4
ENDBRANCH   2   3
ENDBRANCH   1   2
BRANCH   1  17
ATOM     17  C   UNL     1     -22.894  -3.755   0.927  1.00  0.00     0.000 C 
BRANCH  17  18
ATOM     18  C   UNL     1     -23.489  -4.769  -0.075  1.00  0.00     0.000 C 
BRANCH  18  19
ATOM     19  C   UNL     1     -25.017  -4.916   0.030  1.00  0.00     0.000 C 
BRANCH  19  20
ATOM     20  C   UNL     1     -25.488  -6.372  -0.120  1.00  0.00     0.000 C 
BRANCH  20  21
ATOM     21  C   UNL     1     -24.637  -7.356   0.700  1.00  0.00     0.000 C 
BRANCH  21  22
ATOM     22  C   UNL     1     -25.411  -8.631   1.080  1.00  0.00    -0.000 C 
BRANCH  22  23
ATOM     23  C   UNL     1     -24.830  -9.328   2.321  1.00  0.00    -0.000 C 
BRANCH  23  24
ATOM     24  C   UNL     1     -25.827 -10.303   2.973  1.00  0.00    -0.000 C 
BRANCH  24  25
ATOM     25  C   UNL     1     -25.752 -11.715   2.370  1.00  0.00    -0.000 C 
BRANCH  25  26
ATOM     26  C   UNL     1     -24.342 -12.326   2.463  1.00  0.00    -0.000 C 
BRANCH  26  27
ATOM     27  C   UNL     1     -23.239 -11.357   2.001  1.00  0.00    -0.000 C 
BRANCH  27  28
ATOM     28  C   UNL     1     -21.838 -11.986   1.873  1.00  0.00    -0.000 C 
BRANCH  28  29
ATOM     29  C   UNL     1     -21.526 -12.464   0.448  1.00  0.00    -0.003 C 
ATOM     30  C   UNL     1     -20.104 -13.008   0.350  1.00  0.00     0.004 C 
ENDBRANCH  28  29
ENDBRANCH  27  28
ENDBRANCH  26  27
ENDBRANCH  25  26
ENDBRANCH  24  25
ENDBRANCH  23  24
ENDBRANCH  22  23
ENDBRANCH  21  22
ENDBRANCH  20  21
ENDBRANCH  19  20
ENDBRANCH  18  19
ENDBRANCH  17  18
ENDBRANCH   1  17
TORSDOF 26
ENDMDL
