MODEL 1
REMARK VINA RESULT:    -4.024      0.000      0.000
REMARK INTER + INTRA:          -4.438
REMARK INTER:                  -4.376
REMARK INTRA:                  -0.062
REMARK UNBOUND:                -0.062
REMARK SMILES COc1cc2ccc(=O)oc2cc1O
REMARK SMILES IDX 3 1 13 2 12 3 11 4 5 5 4 6 6 7 7 8 8 9 9 10 10 11 2 12 1 13
REMARK SMILES IDX 14 14
REMARK H PARENT 14 15
REMARK Flexibility Score: inf
ROOT
ATOM      1  C   UNL     1      -4.391 -17.574  -6.497  1.00  0.00     0.161 A 
ATOM      2  C   UNL     1      -5.578 -16.826  -6.439  1.00  0.00     0.161 A 
ATOM      3  C   UNL     1      -6.541 -16.946  -7.452  1.00  0.00     0.098 A 
ATOM      4  C   UNL     1      -6.327 -17.811  -8.527  1.00  0.00     0.142 A 
ATOM      5  C   UNL     1      -5.137 -18.566  -8.594  1.00  0.00     0.022 A 
ATOM      6  C   UNL     1      -4.174 -18.447  -7.581  1.00  0.00     0.062 A 
ATOM      7  C   UNL     1      -4.951 -19.424  -9.683  1.00  0.00     0.019 A 
ATOM      8  C   UNL     1      -5.938 -19.508 -10.664  1.00  0.00     0.094 A 
ATOM      9  C   UNL     1      -7.092 -18.729 -10.533  1.00  0.00     0.336 A 
ATOM     10  O   UNL     1      -7.996 -18.789 -11.407  1.00  0.00    -0.246 OA
ATOM     11  O   UNL     1      -7.244 -17.921  -9.487  1.00  0.00    -0.423 OA
ENDROOT
BRANCH   1  12
ATOM     12  O   UNL     1      -3.457 -17.421  -5.462  1.00  0.00    -0.493 OA
ATOM     13  C   UNL     1      -3.063 -18.461  -4.570  1.00  0.00     0.278 C 
ENDBRANCH   1  12
BRANCH   2  14
ATOM     14  O   UNL     1      -5.794 -15.961  -5.367  1.00  0.00    -0.504 OA
ATOM     15  H   UNL     1      -6.590 -15.334  -5.343  1.00  0.00     0.293 HD
ENDBRANCH   2  14
TORSDOF 2
ENDMDL
MODEL 2
REMARK VINA RESULT:    -3.987      1.247      2.446
REMARK INTER + INTRA:          -4.398
REMARK INTER:                  -4.353
REMARK INTRA:                  -0.045
REMARK UNBOUND:                -0.062
REMARK SMILES COc1cc2ccc(=O)oc2cc1O
REMARK SMILES IDX 3 1 13 2 12 3 11 4 5 5 4 6 6 7 7 8 8 9 9 10 10 11 2 12 1 13
REMARK SMILES IDX 14 14
REMARK H PARENT 14 15
REMARK Flexibility Score: inf
ROOT
ATOM      1  C   UNL     1      -5.446 -17.240  -6.459  1.00  0.00     0.161 A 
ATOM      2  C   UNL     1      -4.297 -17.956  -6.831  1.00  0.00     0.161 A 
ATOM      3  C   UNL     1      -4.275 -18.684  -8.030  1.00  0.00     0.098 A 
ATOM      4  C   UNL     1      -5.395 -18.704  -8.863  1.00  0.00     0.142 A 
ATOM      5  C   UNL     1      -6.554 -17.988  -8.496  1.00  0.00     0.022 A 
ATOM      6  C   UNL     1      -6.578 -17.259  -7.299  1.00  0.00     0.062 A 
ATOM      7  C   UNL     1      -7.661 -18.028  -9.351  1.00  0.00     0.019 A 
ATOM      8  C   UNL     1      -7.588 -18.766 -10.531  1.00  0.00     0.094 A 
ATOM      9  C   UNL     1      -6.406 -19.452 -10.830  1.00  0.00     0.336 A 
ATOM     10  O   UNL     1      -6.319 -20.125 -11.890  1.00  0.00    -0.246 OA
ATOM     11  O   UNL     1      -5.368 -19.398  -9.999  1.00  0.00    -0.423 OA
ENDROOT
BRANCH   1  12
ATOM     12  O   UNL     1      -5.424 -16.526  -5.251  1.00  0.00    -0.493 OA
ATOM     13  C   UNL     1      -6.527 -15.792  -4.727  1.00  0.00     0.278 C 
ENDBRANCH   1  12
BRANCH   2  14
ATOM     14  O   UNL     1      -3.178 -17.938  -6.001  1.00  0.00    -0.504 OA
ATOM     15  H   UNL     1      -3.192 -18.365  -5.081  1.00  0.00     0.293 HD
ENDBRANCH   2  14
TORSDOF 2
ENDMDL
MODEL 3
REMARK VINA RESULT:    -3.941     14.304     16.223
REMARK INTER + INTRA:          -4.348
REMARK INTER:                  -4.288
REMARK INTRA:                  -0.060
REMARK UNBOUND:                -0.062
REMARK SMILES COc1cc2ccc(=O)oc2cc1O
REMARK SMILES IDX 3 1 13 2 12 3 11 4 5 5 4 6 6 7 7 8 8 9 9 10 10 11 2 12 1 13
REMARK SMILES IDX 14 14
REMARK H PARENT 14 15
REMARK Flexibility Score: inf
ROOT
ATOM      1  C   UNL     1      -4.477  -1.066  -6.679  1.00  0.00     0.161 A 
ATOM      2  C   UNL     1      -5.595  -1.767  -7.159  1.00  0.00     0.161 A 
ATOM      3  C   UNL     1      -6.096  -2.870  -6.452  1.00  0.00     0.098 A 
ATOM      4  C   UNL     1      -5.486  -3.281  -5.265  1.00  0.00     0.142 A 
ATOM      5  C   UNL     1      -4.362  -2.583  -4.776  1.00  0.00     0.022 A 
ATOM      6  C   UNL     1      -3.861  -1.480  -5.481  1.00  0.00     0.062 A 
ATOM      7  C   UNL     1      -3.773  -3.019  -3.584  1.00  0.00     0.019 A 
ATOM      8  C   UNL     1      -4.308  -4.120  -2.919  1.00  0.00     0.094 A 
ATOM      9  C   UNL     1      -5.424  -4.765  -3.463  1.00  0.00     0.336 A 
ATOM     10  O   UNL     1      -5.923  -5.761  -2.879  1.00  0.00    -0.246 OA
ATOM     11  O   UNL     1      -5.965  -4.330  -4.598  1.00  0.00    -0.423 OA
ENDROOT
BRANCH   1  12
ATOM     12  O   UNL     1      -4.011   0.031  -7.419  1.00  0.00    -0.493 OA
ATOM     13  C   UNL     1      -2.711   0.123  -7.994  1.00  0.00     0.278 C 
ENDBRANCH   1  12
BRANCH   2  14
ATOM     14  O   UNL     1      -6.205  -1.359  -8.344  1.00  0.00    -0.504 OA
ATOM     15  H   UNL     1      -5.767  -1.511  -9.246  1.00  0.00     0.293 HD
ENDBRANCH   2  14
TORSDOF 2
ENDMDL
MODEL 4
REMARK VINA RESULT:    -3.888      2.297      3.200
REMARK INTER + INTRA:          -4.290
REMARK INTER:                  -4.244
REMARK INTRA:                  -0.046
REMARK UNBOUND:                -0.062
REMARK SMILES COc1cc2ccc(=O)oc2cc1O
REMARK SMILES IDX 3 1 13 2 12 3 11 4 5 5 4 6 6 7 7 8 8 9 9 10 10 11 2 12 1 13
REMARK SMILES IDX 14 14
REMARK H PARENT 14 15
REMARK Flexibility Score: inf
ROOT
ATOM      1  C   UNL     1      -4.492 -15.379  -3.975  1.00  0.00     0.161 A 
ATOM      2  C   UNL     1      -5.888 -15.252  -4.043  1.00  0.00     0.161 A 
ATOM      3  C   UNL     1      -6.598 -15.807  -5.118  1.00  0.00     0.098 A 
ATOM      4  C   UNL     1      -5.921 -16.489  -6.131  1.00  0.00     0.142 A 
ATOM      5  C   UNL     1      -4.517 -16.621  -6.070  1.00  0.00     0.022 A 
ATOM      6  C   UNL     1      -3.807 -16.068  -4.995  1.00  0.00     0.062 A 
ATOM      7  C   UNL     1      -3.867 -17.310  -7.100  1.00  0.00     0.019 A 
ATOM      8  C   UNL     1      -4.617 -17.843  -8.147  1.00  0.00     0.094 A 
ATOM      9  C   UNL     1      -6.006 -17.673  -8.141  1.00  0.00     0.336 A 
ATOM     10  O   UNL     1      -6.702 -18.146  -9.077  1.00  0.00    -0.246 OA
ATOM     11  O   UNL     1      -6.599 -17.013  -7.150  1.00  0.00    -0.423 OA
ENDROOT
BRANCH   1  12
ATOM     12  O   UNL     1      -3.824 -14.809  -2.880  1.00  0.00    -0.493 OA
ATOM     13  C   UNL     1      -2.447 -14.441  -2.877  1.00  0.00     0.278 C 
ENDBRANCH   1  12
BRANCH   2  14
ATOM     14  O   UNL     1      -6.566 -14.571  -3.033  1.00  0.00    -0.504 OA
ATOM     15  H   UNL     1      -7.063 -15.066  -2.300  1.00  0.00     0.293 HD
ENDBRANCH   2  14
TORSDOF 2
ENDMDL
MODEL 5
REMARK VINA RESULT:    -3.884      1.658      5.020
REMARK INTER + INTRA:          -4.286
REMARK INTER:                  -4.239
REMARK INTRA:                  -0.048
REMARK UNBOUND:                -0.062
REMARK SMILES COc1cc2ccc(=O)oc2cc1O
REMARK SMILES IDX 3 1 13 2 12 3 11 4 5 5 4 6 6 7 7 8 8 9 9 10 10 11 2 12 1 13
REMARK SMILES IDX 14 14
REMARK H PARENT 14 15
REMARK Flexibility Score: inf
ROOT
ATOM      1  C   UNL     1      -5.530 -18.560  -8.872  1.00  0.00     0.161 A 
ATOM      2  C   UNL     1      -4.306 -18.171  -8.304  1.00  0.00     0.161 A 
ATOM      3  C   UNL     1      -4.282 -17.342  -7.173  1.00  0.00     0.098 A 
ATOM      4  C   UNL     1      -5.476 -16.896  -6.602  1.00  0.00     0.142 A 
ATOM      5  C   UNL     1      -6.710 -17.282  -7.166  1.00  0.00     0.022 A 
ATOM      6  C   UNL     1      -6.735 -18.112  -8.296  1.00  0.00     0.062 A 
ATOM      7  C   UNL     1      -7.889 -16.819  -6.572  1.00  0.00     0.019 A 
ATOM      8  C   UNL     1      -7.812 -15.997  -5.448  1.00  0.00     0.094 A 
ATOM      9  C   UNL     1      -6.553 -15.654  -4.944  1.00  0.00     0.336 A 
ATOM     10  O   UNL     1      -6.461 -14.913  -3.931  1.00  0.00    -0.246 OA
ATOM     11  O   UNL     1      -5.447 -16.108  -5.529  1.00  0.00    -0.423 OA
ENDROOT
BRANCH   1  12
ATOM     12  O   UNL     1      -5.506 -19.391 -10.003  1.00  0.00    -0.493 OA
ATOM     13  C   UNL     1      -6.507 -19.405 -11.016  1.00  0.00     0.278 C 
ENDBRANCH   1  12
BRANCH   2  14
ATOM     14  O   UNL     1      -3.113 -18.615  -8.873  1.00  0.00    -0.504 OA
ATOM     15  H   UNL     1      -2.578 -19.371  -8.461  1.00  0.00     0.293 HD
ENDBRANCH   2  14
TORSDOF 2
ENDMDL
MODEL 6
REMARK VINA RESULT:    -3.854      2.414      4.061
REMARK INTER + INTRA:          -4.253
REMARK INTER:                  -4.206
REMARK INTRA:                  -0.047
REMARK UNBOUND:                -0.062
REMARK SMILES COc1cc2ccc(=O)oc2cc1O
REMARK SMILES IDX 3 1 13 2 12 3 11 4 5 5 4 6 6 7 7 8 8 9 9 10 10 11 2 12 1 13
REMARK SMILES IDX 14 14
REMARK H PARENT 14 15
REMARK Flexibility Score: inf
ROOT
ATOM      1  C   UNL     1      -6.087 -15.301  -4.260  1.00  0.00     0.161 A 
ATOM      2  C   UNL     1      -4.686 -15.301  -4.159  1.00  0.00     0.161 A 
ATOM      3  C   UNL     1      -3.908 -15.976  -5.111  1.00  0.00     0.098 A 
ATOM      4  C   UNL     1      -4.520 -16.655  -6.167  1.00  0.00     0.142 A 
ATOM      5  C   UNL     1      -5.926 -16.660  -6.276  1.00  0.00     0.022 A 
ATOM      6  C   UNL     1      -6.705 -15.984  -5.326  1.00  0.00     0.062 A 
ATOM      7  C   UNL     1      -6.510 -17.349  -7.345  1.00  0.00     0.019 A 
ATOM      8  C   UNL     1      -5.693 -18.004  -8.265  1.00  0.00     0.094 A 
ATOM      9  C   UNL     1      -4.305 -17.957  -8.093  1.00  0.00     0.336 A 
ATOM     10  O   UNL     1      -3.549 -18.542  -8.912  1.00  0.00    -0.246 OA
ATOM     11  O   UNL     1      -3.776 -17.295  -7.067  1.00  0.00    -0.423 OA
ENDROOT
BRANCH   1  12
ATOM     12  O   UNL     1      -6.825 -14.612  -3.286  1.00  0.00    -0.493 OA
ATOM     13  C   UNL     1      -8.136 -14.092  -3.485  1.00  0.00     0.278 C 
ENDBRANCH   1  12
BRANCH   2  14
ATOM     14  O   UNL     1      -4.074 -14.625  -3.106  1.00  0.00    -0.504 OA
ATOM     15  H   UNL     1      -3.179 -14.162  -3.221  1.00  0.00     0.293 HD
ENDBRANCH   2  14
TORSDOF 2
ENDMDL
MODEL 7
REMARK VINA RESULT:    -3.760      2.173      5.671
REMARK INTER + INTRA:          -4.151
REMARK INTER:                  -4.087
REMARK INTRA:                  -0.064
REMARK UNBOUND:                -0.062
REMARK SMILES COc1cc2ccc(=O)oc2cc1O
REMARK SMILES IDX 3 1 13 2 12 3 11 4 5 5 4 6 6 7 7 8 8 9 9 10 10 11 2 12 1 13
REMARK SMILES IDX 14 14
REMARK H PARENT 14 15
REMARK Flexibility Score: inf
ROOT
ATOM      1  C   UNL     1      -4.682 -18.427  -6.991  1.00  0.00     0.161 A 
ATOM      2  C   UNL     1      -5.207 -17.159  -7.287  1.00  0.00     0.161 A 
ATOM      3  C   UNL     1      -4.889 -16.056  -6.481  1.00  0.00     0.098 A 
ATOM      4  C   UNL     1      -4.046 -16.209  -5.379  1.00  0.00     0.142 A 
ATOM      5  C   UNL     1      -3.513 -17.479  -5.075  1.00  0.00     0.022 A 
ATOM      6  C   UNL     1      -3.830 -18.583  -5.880  1.00  0.00     0.062 A 
ATOM      7  C   UNL     1      -2.672 -17.601  -3.964  1.00  0.00     0.019 A 
ATOM      8  C   UNL     1      -2.385 -16.474  -3.195  1.00  0.00     0.094 A 
ATOM      9  C   UNL     1      -2.950 -15.246  -3.556  1.00  0.00     0.336 A 
ATOM     10  O   UNL     1      -2.705 -14.216  -2.876  1.00  0.00    -0.246 OA
ATOM     11  O   UNL     1      -3.747 -15.158  -4.618  1.00  0.00    -0.423 OA
ENDROOT
BRANCH   1  12
ATOM     12  O   UNL     1      -5.027 -19.502  -7.824  1.00  0.00    -0.493 OA
ATOM     13  C   UNL     1      -4.196 -20.022  -8.858  1.00  0.00     0.278 C 
ENDBRANCH   1  12
BRANCH   2  14
ATOM     14  O   UNL     1      -6.050 -17.004  -8.387  1.00  0.00    -0.504 OA
ATOM     15  H   UNL     1      -5.982 -16.197  -8.997  1.00  0.00     0.293 HD
ENDBRANCH   2  14
TORSDOF 2
ENDMDL
MODEL 8
REMARK VINA RESULT:    -3.753     15.237     16.666
REMARK INTER + INTRA:          -4.143
REMARK INTER:                  -4.135
REMARK INTRA:                  -0.008
REMARK UNBOUND:                -0.062
REMARK SMILES COc1cc2ccc(=O)oc2cc1O
REMARK SMILES IDX 3 1 13 2 12 3 11 4 5 5 4 6 6 7 7 8 8 9 9 10 10 11 2 12 1 13
REMARK SMILES IDX 14 14
REMARK H PARENT 14 15
REMARK Flexibility Score: inf
ROOT
ATOM      1  C   UNL     1      -6.720  -1.963  -6.827  1.00  0.00     0.161 A 
ATOM      2  C   UNL     1      -5.668  -1.067  -7.077  1.00  0.00     0.161 A 
ATOM      3  C   UNL     1      -4.503  -1.109  -6.299  1.00  0.00     0.098 A 
ATOM      4  C   UNL     1      -4.378  -2.043  -5.268  1.00  0.00     0.142 A 
ATOM      5  C   UNL     1      -5.430  -2.947  -5.010  1.00  0.00     0.022 A 
ATOM      6  C   UNL     1      -6.595  -2.907  -5.788  1.00  0.00     0.062 A 
ATOM      7  C   UNL     1      -5.275  -3.871  -3.970  1.00  0.00     0.019 A 
ATOM      8  C   UNL     1      -4.097  -3.872  -3.225  1.00  0.00     0.094 A 
ATOM      9  C   UNL     1      -3.097  -2.945  -3.538  1.00  0.00     0.336 A 
ATOM     10  O   UNL     1      -2.025  -2.929  -2.877  1.00  0.00    -0.246 OA
ATOM     11  O   UNL     1      -3.269  -2.078  -4.531  1.00  0.00    -0.423 OA
ENDROOT
BRANCH   1  12
ATOM     12  O   UNL     1      -7.867  -1.885  -7.632  1.00  0.00    -0.493 OA
ATOM     13  C   UNL     1      -8.011  -2.525  -8.897  1.00  0.00     0.278 C 
ENDBRANCH   1  12
BRANCH   2  14
ATOM     14  O   UNL     1      -5.791  -0.134  -8.105  1.00  0.00    -0.504 OA
ATOM     15  H   UNL     1      -5.891   0.857  -7.914  1.00  0.00     0.293 HD
ENDBRANCH   2  14
TORSDOF 2
ENDMDL
