MODEL 1
REMARK VINA RESULT:    -4.722      0.000      0.000
REMARK INTER + INTRA:          -4.860
REMARK INTER:                  -4.860
REMARK INTRA:                   0.000
REMARK UNBOUND:                 0.000
REMARK SMILES O=c1ccc2ccc(O)cc2o1
REMARK SMILES IDX 6 1 7 2 8 3 10 4 11 5 5 6 4 7 3 8 2 9 1 10 12 11 9 12
REMARK H PARENT 9 13
REMARK Flexibility Score: inf
ROOT
ATOM      1  C   UNL     1       0.555 -15.531  -6.784  1.00  0.00     0.016 A 
ATOM      2  C   UNL     1      -0.472 -14.603  -6.990  1.00  0.00     0.047 A 
ATOM      3  C   UNL     1      -1.611 -14.960  -7.722  1.00  0.00     0.119 A 
ATOM      4  C   UNL     1      -1.725 -16.252  -8.253  1.00  0.00     0.094 A 
ATOM      5  C   UNL     1      -0.704 -17.187  -8.053  1.00  0.00     0.142 A 
ATOM      6  C   UNL     1       0.444 -16.824  -7.314  1.00  0.00     0.018 A 
ATOM      7  C   UNL     1       1.448 -17.780  -7.131  1.00  0.00     0.019 A 
ATOM      8  C   UNL     1       1.290 -19.052  -7.678  1.00  0.00     0.094 A 
ATOM      9  C   UNL     1       0.126 -19.341  -8.399  1.00  0.00     0.336 A 
ATOM     10  O   UNL     1      -0.035 -20.484  -8.900  1.00  0.00    -0.246 OA
ATOM     11  O   UNL     1      -0.815 -18.413  -8.559  1.00  0.00    -0.423 OA
ENDROOT
BRANCH   3  12
ATOM     12  O   UNL     1      -2.623 -14.022  -7.915  1.00  0.00    -0.508 OA
ATOM     13  H   UNL     1      -3.342 -14.155  -8.616  1.00  0.00     0.293 HD
ENDBRANCH   3  12
TORSDOF 1
ENDMDL
MODEL 2
REMARK VINA RESULT:    -4.710      1.300      1.609
REMARK INTER + INTRA:          -4.847
REMARK INTER:                  -4.847
REMARK INTRA:                   0.000
REMARK UNBOUND:                 0.000
REMARK SMILES O=c1ccc2ccc(O)cc2o1
REMARK SMILES IDX 6 1 7 2 8 3 10 4 11 5 5 6 4 7 3 8 2 9 1 10 12 11 9 12
REMARK H PARENT 9 13
REMARK Flexibility Score: inf
ROOT
ATOM      1  C   UNL     1       0.210 -14.697  -5.674  1.00  0.00     0.016 A 
ATOM      2  C   UNL     1      -0.908 -14.093  -6.261  1.00  0.00     0.047 A 
ATOM      3  C   UNL     1      -1.528 -14.681  -7.369  1.00  0.00     0.119 A 
ATOM      4  C   UNL     1      -1.029 -15.880  -7.897  1.00  0.00     0.094 A 
ATOM      5  C   UNL     1       0.088 -16.491  -7.318  1.00  0.00     0.142 A 
ATOM      6  C   UNL     1       0.713 -15.896  -6.200  1.00  0.00     0.018 A 
ATOM      7  C   UNL     1       1.828 -16.529  -5.642  1.00  0.00     0.019 A 
ATOM      8  C   UNL     1       2.288 -17.721  -6.201  1.00  0.00     0.094 A 
ATOM      9  C   UNL     1       1.620 -18.252  -7.310  1.00  0.00     0.336 A 
ATOM     10  O   UNL     1       2.021 -19.326  -7.828  1.00  0.00    -0.246 OA
ATOM     11  O   UNL     1       0.561 -17.629  -7.821  1.00  0.00    -0.423 OA
ENDROOT
BRANCH   3  12
ATOM     12  O   UNL     1      -2.641 -14.065  -7.939  1.00  0.00    -0.508 OA
ATOM     13  H   UNL     1      -3.388 -13.687  -7.369  1.00  0.00     0.293 HD
ENDBRANCH   3  12
TORSDOF 1
ENDMDL
MODEL 3
REMARK VINA RESULT:    -4.693      2.304      2.933
REMARK INTER + INTRA:          -4.830
REMARK INTER:                  -4.830
REMARK INTRA:                   0.000
REMARK UNBOUND:                 0.000
REMARK SMILES O=c1ccc2ccc(O)cc2o1
REMARK SMILES IDX 6 1 7 2 8 3 10 4 11 5 5 6 4 7 3 8 2 9 1 10 12 11 9 12
REMARK H PARENT 9 13
REMARK Flexibility Score: inf
ROOT
ATOM      1  C   UNL     1       0.118 -16.319  -7.426  1.00  0.00     0.016 A 
ATOM      2  C   UNL     1       0.121 -15.112  -6.717  1.00  0.00     0.047 A 
ATOM      3  C   UNL     1      -1.007 -14.284  -6.725  1.00  0.00     0.119 A 
ATOM      4  C   UNL     1      -2.148 -14.662  -7.447  1.00  0.00     0.094 A 
ATOM      5  C   UNL     1      -2.161 -15.866  -8.158  1.00  0.00     0.142 A 
ATOM      6  C   UNL     1      -1.022 -16.700  -8.149  1.00  0.00     0.018 A 
ATOM      7  C   UNL     1      -1.065 -17.897  -8.869  1.00  0.00     0.019 A 
ATOM      8  C   UNL     1      -2.222 -18.232  -9.572  1.00  0.00     0.094 A 
ATOM      9  C   UNL     1      -3.313 -17.357  -9.537  1.00  0.00     0.336 A 
ATOM     10  O   UNL     1      -4.366 -17.641 -10.165  1.00  0.00    -0.246 OA
ATOM     11  O   UNL     1      -3.246 -16.223  -8.843  1.00  0.00    -0.423 OA
ENDROOT
BRANCH   3  12
ATOM     12  O   UNL     1      -0.984 -13.086  -6.013  1.00  0.00    -0.508 OA
ATOM     13  H   UNL     1      -0.187 -12.821  -5.447  1.00  0.00     0.293 HD
ENDBRANCH   3  12
TORSDOF 1
ENDMDL
MODEL 4
REMARK VINA RESULT:    -4.636      2.203      2.996
REMARK INTER + INTRA:          -4.772
REMARK INTER:                  -4.772
REMARK INTRA:                   0.000
REMARK UNBOUND:                 0.000
REMARK SMILES O=c1ccc2ccc(O)cc2o1
REMARK SMILES IDX 6 1 7 2 8 3 10 4 11 5 5 6 4 7 3 8 2 9 1 10 12 11 9 12
REMARK H PARENT 9 13
REMARK Flexibility Score: inf
ROOT
ATOM      1  C   UNL     1      -0.961 -17.272  -8.189  1.00  0.00     0.016 A 
ATOM      2  C   UNL     1      -1.866 -16.212  -8.312  1.00  0.00     0.047 A 
ATOM      3  C   UNL     1      -1.606 -14.984  -7.691  1.00  0.00     0.119 A 
ATOM      4  C   UNL     1      -0.433 -14.814  -6.940  1.00  0.00     0.094 A 
ATOM      5  C   UNL     1       0.477 -15.868  -6.812  1.00  0.00     0.142 A 
ATOM      6  C   UNL     1       0.212 -17.105  -7.440  1.00  0.00     0.018 A 
ATOM      7  C   UNL     1       1.140 -18.140  -7.293  1.00  0.00     0.019 A 
ATOM      8  C   UNL     1       2.292 -17.924  -6.538  1.00  0.00     0.094 A 
ATOM      9  C   UNL     1       2.489 -16.673  -5.943  1.00  0.00     0.336 A 
ATOM     10  O   UNL     1       3.522 -16.459  -5.258  1.00  0.00    -0.246 OA
ATOM     11  O   UNL     1       1.589 -15.704  -6.099  1.00  0.00    -0.423 OA
ENDROOT
BRANCH   3  12
ATOM     12  O   UNL     1      -2.519 -13.940  -7.825  1.00  0.00    -0.508 OA
ATOM     13  H   UNL     1      -2.421 -13.241  -8.551  1.00  0.00     0.293 HD
ENDBRANCH   3  12
TORSDOF 1
ENDMDL
MODEL 5
REMARK VINA RESULT:    -4.619      2.496      5.235
REMARK INTER + INTRA:          -4.754
REMARK INTER:                  -4.754
REMARK INTRA:                   0.000
REMARK UNBOUND:                 0.000
REMARK SMILES O=c1ccc2ccc(O)cc2o1
REMARK SMILES IDX 6 1 7 2 8 3 10 4 11 5 5 6 4 7 3 8 2 9 1 10 12 11 9 12
REMARK H PARENT 9 13
REMARK Flexibility Score: inf
ROOT
ATOM      1  C   UNL     1      -2.101 -16.160  -7.041  1.00  0.00     0.016 A 
ATOM      2  C   UNL     1      -1.307 -16.561  -8.121  1.00  0.00     0.047 A 
ATOM      3  C   UNL     1      -0.133 -15.865  -8.433  1.00  0.00     0.119 A 
ATOM      4  C   UNL     1       0.252 -14.760  -7.661  1.00  0.00     0.094 A 
ATOM      5  C   UNL     1      -0.535 -14.352  -6.579  1.00  0.00     0.142 A 
ATOM      6  C   UNL     1      -1.719 -15.055  -6.266  1.00  0.00     0.018 A 
ATOM      7  C   UNL     1      -2.485 -14.623  -5.179  1.00  0.00     0.019 A 
ATOM      8  C   UNL     1      -2.062 -13.519  -4.440  1.00  0.00     0.094 A 
ATOM      9  C   UNL     1      -0.878 -12.870  -4.807  1.00  0.00     0.336 A 
ATOM     10  O   UNL     1      -0.480 -11.872  -4.153  1.00  0.00    -0.246 OA
ATOM     11  O   UNL     1      -0.167 -13.302  -5.847  1.00  0.00    -0.423 OA
ENDROOT
BRANCH   3  12
ATOM     12  O   UNL     1       0.644 -16.280  -9.513  1.00  0.00    -0.508 OA
ATOM     13  H   UNL     1       1.649 -16.378  -9.436  1.00  0.00     0.293 HD
ENDBRANCH   3  12
TORSDOF 1
ENDMDL
MODEL 6
REMARK VINA RESULT:    -4.606      1.458      4.349
REMARK INTER + INTRA:          -4.741
REMARK INTER:                  -4.741
REMARK INTRA:                   0.000
REMARK UNBOUND:                 0.000
REMARK SMILES O=c1ccc2ccc(O)cc2o1
REMARK SMILES IDX 6 1 7 2 8 3 10 4 11 5 5 6 4 7 3 8 2 9 1 10 12 11 9 12
REMARK H PARENT 9 13
REMARK Flexibility Score: inf
ROOT
ATOM      1  C   UNL     1       1.855 -16.337  -5.647  1.00  0.00     0.016 A 
ATOM      2  C   UNL     1       2.422 -17.535  -6.096  1.00  0.00     0.047 A 
ATOM      3  C   UNL     1       1.861 -18.221  -7.179  1.00  0.00     0.119 A 
ATOM      4  C   UNL     1       0.723 -17.708  -7.819  1.00  0.00     0.094 A 
ATOM      5  C   UNL     1       0.149 -16.511  -7.377  1.00  0.00     0.142 A 
ATOM      6  C   UNL     1       0.718 -15.821  -6.284  1.00  0.00     0.018 A 
ATOM      7  C   UNL     1       0.122 -14.628  -5.866  1.00  0.00     0.019 A 
ATOM      8  C   UNL     1      -1.008 -14.156  -6.533  1.00  0.00     0.094 A 
ATOM      9  C   UNL     1      -1.517 -14.893  -7.608  1.00  0.00     0.336 A 
ATOM     10  O   UNL     1      -2.536 -14.484  -8.223  1.00  0.00    -0.246 OA
ATOM     11  O   UNL     1      -0.931 -16.026  -7.987  1.00  0.00    -0.423 OA
ENDROOT
BRANCH   3  12
ATOM     12  O   UNL     1       2.440 -19.413  -7.611  1.00  0.00    -0.508 OA
ATOM     13  H   UNL     1       2.882 -20.053  -6.963  1.00  0.00     0.293 HD
ENDBRANCH   3  12
TORSDOF 1
ENDMDL
MODEL 7
REMARK VINA RESULT:    -4.373      2.080      4.954
REMARK INTER + INTRA:          -4.501
REMARK INTER:                  -4.501
REMARK INTRA:                   0.000
REMARK UNBOUND:                 0.000
REMARK SMILES O=c1ccc2ccc(O)cc2o1
REMARK SMILES IDX 6 1 7 2 8 3 10 4 11 5 5 6 4 7 3 8 2 9 1 10 12 11 9 12
REMARK H PARENT 9 13
REMARK Flexibility Score: inf
ROOT
ATOM      1  C   UNL     1       0.051 -17.397  -8.442  1.00  0.00     0.016 A 
ATOM      2  C   UNL     1       0.959 -18.416  -8.131  1.00  0.00     0.047 A 
ATOM      3  C   UNL     1       1.759 -18.325  -6.987  1.00  0.00     0.119 A 
ATOM      4  C   UNL     1       1.654 -17.207  -6.146  1.00  0.00     0.094 A 
ATOM      5  C   UNL     1       0.750 -16.184  -6.448  1.00  0.00     0.142 A 
ATOM      6  C   UNL     1      -0.056 -16.278  -7.603  1.00  0.00     0.018 A 
ATOM      7  C   UNL     1      -0.950 -15.239  -7.879  1.00  0.00     0.019 A 
ATOM      8  C   UNL     1      -1.021 -14.149  -7.014  1.00  0.00     0.094 A 
ATOM      9  C   UNL     1      -0.190 -14.122  -5.888  1.00  0.00     0.336 A 
ATOM     10  O   UNL     1      -0.239 -13.146  -5.095  1.00  0.00    -0.246 OA
ATOM     11  O   UNL     1       0.652 -15.124  -5.648  1.00  0.00    -0.423 OA
ENDROOT
BRANCH   3  12
ATOM     12  O   UNL     1       2.657 -19.350  -6.694  1.00  0.00    -0.508 OA
ATOM     13  H   UNL     1       3.606 -19.155  -6.397  1.00  0.00     0.293 HD
ENDBRANCH   3  12
TORSDOF 1
ENDMDL
MODEL 8
REMARK VINA RESULT:    -4.347      0.788      4.242
REMARK INTER + INTRA:          -4.474
REMARK INTER:                  -4.474
REMARK INTRA:                   0.000
REMARK UNBOUND:                 0.000
REMARK SMILES O=c1ccc2ccc(O)cc2o1
REMARK SMILES IDX 6 1 7 2 8 3 10 4 11 5 5 6 4 7 3 8 2 9 1 10 12 11 9 12
REMARK H PARENT 9 13
REMARK Flexibility Score: inf
ROOT
ATOM      1  C   UNL     1       1.386 -18.084  -7.252  1.00  0.00     0.016 A 
ATOM      2  C   UNL     1       1.231 -19.382  -7.751  1.00  0.00     0.047 A 
ATOM      3  C   UNL     1       0.082 -19.730  -8.470  1.00  0.00     0.119 A 
ATOM      4  C   UNL     1      -0.922 -18.776  -8.692  1.00  0.00     0.094 A 
ATOM      5  C   UNL     1      -0.776 -17.476  -8.196  1.00  0.00     0.142 A 
ATOM      6  C   UNL     1       0.385 -17.127  -7.471  1.00  0.00     0.018 A 
ATOM      7  C   UNL     1       0.502 -15.821  -6.988  1.00  0.00     0.019 A 
ATOM      8  C   UNL     1      -0.521 -14.906  -7.233  1.00  0.00     0.094 A 
ATOM      9  C   UNL     1      -1.643 -15.322  -7.959  1.00  0.00     0.336 A 
ATOM     10  O   UNL     1      -2.577 -14.511  -8.190  1.00  0.00    -0.246 OA
ATOM     11  O   UNL     1      -1.730 -16.572  -8.408  1.00  0.00    -0.423 OA
ENDROOT
BRANCH   3  12
ATOM     12  O   UNL     1      -0.054 -21.028  -8.961  1.00  0.00    -0.508 OA
ATOM     13  H   UNL     1      -0.818 -21.627  -8.670  1.00  0.00     0.293 HD
ENDBRANCH   3  12
TORSDOF 1
ENDMDL
MODEL 9
REMARK VINA RESULT:    -4.278      1.523      2.283
REMARK INTER + INTRA:          -4.403
REMARK INTER:                  -4.403
REMARK INTRA:                   0.000
REMARK UNBOUND:                 0.000
REMARK SMILES O=c1ccc2ccc(O)cc2o1
REMARK SMILES IDX 6 1 7 2 8 3 10 4 11 5 5 6 4 7 3 8 2 9 1 10 12 11 9 12
REMARK H PARENT 9 13
REMARK Flexibility Score: inf
ROOT
ATOM      1  C   UNL     1      -2.171 -15.889  -8.127  1.00  0.00     0.016 A 
ATOM      2  C   UNL     1      -2.191 -14.656  -7.465  1.00  0.00     0.047 A 
ATOM      3  C   UNL     1      -1.116 -14.273  -6.654  1.00  0.00     0.119 A 
ATOM      4  C   UNL     1      -0.014 -15.126  -6.503  1.00  0.00     0.094 A 
ATOM      5  C   UNL     1       0.015 -16.360  -7.161  1.00  0.00     0.142 A 
ATOM      6  C   UNL     1      -1.071 -16.745  -7.978  1.00  0.00     0.018 A 
ATOM      7  C   UNL     1      -1.014 -17.984  -8.623  1.00  0.00     0.019 A 
ATOM      8  C   UNL     1       0.103 -18.799  -8.443  1.00  0.00     0.094 A 
ATOM      9  C   UNL     1       1.141 -18.352  -7.618  1.00  0.00     0.336 A 
ATOM     10  O   UNL     1       2.158 -19.073  -7.442  1.00  0.00    -0.246 OA
ATOM     11  O   UNL     1       1.063 -17.168  -7.015  1.00  0.00    -0.423 OA
ENDROOT
BRANCH   3  12
ATOM     12  O   UNL     1      -1.153 -13.041  -6.003  1.00  0.00    -0.508 OA
ATOM     13  H   UNL     1      -1.344 -12.182  -6.505  1.00  0.00     0.293 HD
ENDBRANCH   3  12
TORSDOF 1
ENDMDL
