MODEL 1
REMARK VINA RESULT:    -4.709      0.000      0.000
REMARK INTER + INTRA:         -10.231
REMARK INTER:                  -8.012
REMARK INTRA:                  -2.219
REMARK UNBOUND:                -2.219
REMARK SMILES CCCCCCCCCCCCCC(=O)[O-]
REMARK SMILES IDX 8 1 9 2 10 3 11 4 12 5 13 6 14 7 15 8 16 9 7 10 6 11 5 12
REMARK SMILES IDX 4 13 3 14 2 15 1 16
REMARK H PARENT
REMARK Flexibility Score: inf
ROOT
ATOM      1  C   UNL     1       0.367  54.893  20.540  1.00  0.00     0.000 C 
ENDROOT
BRANCH   1   2
ATOM      2  C   UNL     1      -0.213  55.878  19.510  1.00  0.00     0.000 C 
BRANCH   2   3
ATOM      3  C   UNL     1       0.877  56.578  18.685  1.00  0.00     0.000 C 
BRANCH   3   4
ATOM      4  C   UNL     1       0.689  56.388  17.169  1.00  0.00     0.000 C 
BRANCH   4   5
ATOM      5  C   UNL     1       1.969  55.897  16.473  1.00  0.00     0.006 C 
BRANCH   5   6
ATOM      6  C   UNL     1       3.236  56.212  17.278  1.00  0.00     0.053 C 
BRANCH   6   7
ATOM      7  C   UNL     1       4.457  55.910  16.470  1.00  0.00     0.041 C 
ATOM      8  O   UNL     1       4.429  55.007  15.594  1.00  0.00    -0.550 OA
ATOM      9  O   UNL     1       5.642  56.591  16.720  1.00  0.00    -0.550 OA
ENDBRANCH   6   7
ENDBRANCH   5   6
ENDBRANCH   4   5
ENDBRANCH   3   4
ENDBRANCH   2   3
ENDBRANCH   1   2
BRANCH   1  10
ATOM     10  C   UNL     1       1.893  55.018  20.681  1.00  0.00     0.000 C 
BRANCH  10  11
ATOM     11  C   UNL     1       2.640  53.780  20.157  1.00  0.00    -0.000 C 
BRANCH  11  12
ATOM     12  C   UNL     1       1.672  52.802  19.480  1.00  0.00    -0.000 C 
BRANCH  12  13
ATOM     13  C   UNL     1       1.979  52.671  17.983  1.00  0.00    -0.000 C 
BRANCH  13  14
ATOM     14  C   UNL     1       0.690  52.729  17.150  1.00  0.00    -0.000 C 
BRANCH  14  15
ATOM     15  C   UNL     1      -0.557  52.356  17.965  1.00  0.00    -0.003 C 
ATOM     16  C   UNL     1      -1.796  53.149  17.546  1.00  0.00     0.004 C 
ENDBRANCH  14  15
ENDBRANCH  13  14
ENDBRANCH  12  13
ENDBRANCH  11  12
ENDBRANCH  10  11
ENDBRANCH   1  10
TORSDOF 12
ENDMDL
MODEL 2
REMARK VINA RESULT:    -4.533      1.061      2.512
REMARK INTER + INTRA:          -9.933
REMARK INTER:                  -7.889
REMARK INTRA:                  -2.044
REMARK UNBOUND:                -2.219
REMARK SMILES CCCCCCCCCCCCCC(=O)[O-]
REMARK SMILES IDX 8 1 9 2 10 3 11 4 12 5 13 6 14 7 15 8 16 9 7 10 6 11 5 12
REMARK SMILES IDX 4 13 3 14 2 15 1 16
REMARK H PARENT
REMARK Flexibility Score: inf
ROOT
ATOM      1  C   UNL     1       2.668  53.807  20.028  1.00  0.00     0.000 C 
ENDROOT
BRANCH   1   2
ATOM      2  C   UNL     1       2.079  55.182  20.388  1.00  0.00     0.000 C 
BRANCH   2   3
ATOM      3  C   UNL     1       0.551  55.228  20.230  1.00  0.00     0.000 C 
BRANCH   3   4
ATOM      4  C   UNL     1       0.093  56.257  19.180  1.00  0.00     0.000 C 
BRANCH   4   5
ATOM      5  C   UNL     1       1.262  56.814  18.351  1.00  0.00     0.006 C 
BRANCH   5   6
ATOM      6  C   UNL     1       1.227  56.343  16.891  1.00  0.00     0.053 C 
BRANCH   6   7
ATOM      7  C   UNL     1       2.547  55.760  16.499  1.00  0.00     0.041 C 
ATOM      8  O   UNL     1       3.571  55.983  17.196  1.00  0.00    -0.550 OA
ATOM      9  O   UNL     1       2.657  55.010  15.335  1.00  0.00    -0.550 OA
ENDBRANCH   6   7
ENDBRANCH   5   6
ENDBRANCH   4   5
ENDBRANCH   3   4
ENDBRANCH   2   3
ENDBRANCH   1   2
BRANCH   1  10
ATOM     10  C   UNL     1       1.605  52.829  19.502  1.00  0.00     0.000 C 
BRANCH  10  11
ATOM     11  C   UNL     1       1.745  52.555  17.995  1.00  0.00    -0.000 C 
BRANCH  11  12
ATOM     12  C   UNL     1       0.442  52.884  17.256  1.00  0.00    -0.000 C 
BRANCH  12  13
ATOM     13  C   UNL     1      -0.772  52.311  17.998  1.00  0.00    -0.000 C 
BRANCH  13  14
ATOM     14  C   UNL     1      -2.076  52.946  17.491  1.00  0.00    -0.000 C 
BRANCH  14  15
ATOM     15  C   UNL     1      -2.612  54.029  18.439  1.00  0.00    -0.003 C 
ATOM     16  C   UNL     1      -3.001  55.315  17.708  1.00  0.00     0.004 C 
ENDBRANCH  14  15
ENDBRANCH  13  14
ENDBRANCH  12  13
ENDBRANCH  11  12
ENDBRANCH  10  11
ENDBRANCH   1  10
TORSDOF 12
ENDMDL
MODEL 3
REMARK VINA RESULT:    -4.436      3.592      5.293
REMARK INTER + INTRA:          -9.768
REMARK INTER:                  -7.744
REMARK INTRA:                  -2.024
REMARK UNBOUND:                -2.219
REMARK SMILES CCCCCCCCCCCCCC(=O)[O-]
REMARK SMILES IDX 8 1 9 2 10 3 11 4 12 5 13 6 14 7 15 8 16 9 7 10 6 11 5 12
REMARK SMILES IDX 4 13 3 14 2 15 1 16
REMARK H PARENT
REMARK Flexibility Score: inf
ROOT
ATOM      1  C   UNL     1       2.812  53.748  20.263  1.00  0.00     0.000 C 
ENDROOT
BRANCH   1   2
ATOM      2  C   UNL     1       1.904  54.911  20.702  1.00  0.00     0.000 C 
BRANCH   2   3
ATOM      3  C   UNL     1       0.411  54.584  20.546  1.00  0.00     0.000 C 
BRANCH   3   4
ATOM      4  C   UNL     1      -0.347  55.646  19.729  1.00  0.00     0.000 C 
BRANCH   4   5
ATOM      5  C   UNL     1      -1.136  55.037  18.558  1.00  0.00     0.006 C 
BRANCH   5   6
ATOM      6  C   UNL     1      -2.125  56.030  17.933  1.00  0.00     0.053 C 
BRANCH   6   7
ATOM      7  C   UNL     1      -3.371  56.114  18.755  1.00  0.00     0.041 C 
ATOM      8  O   UNL     1      -4.111  57.130  18.683  1.00  0.00    -0.550 OA
ATOM      9  O   UNL     1      -3.689  55.092  19.641  1.00  0.00    -0.550 OA
ENDBRANCH   6   7
ENDBRANCH   5   6
ENDBRANCH   4   5
ENDBRANCH   3   4
ENDBRANCH   2   3
ENDBRANCH   1   2
BRANCH   1  10
ATOM     10  C   UNL     1       2.264  53.002  19.035  1.00  0.00     0.000 C 
BRANCH  10  11
ATOM     11  C   UNL     1       2.895  53.483  17.719  1.00  0.00    -0.000 C 
BRANCH  11  12
ATOM     12  C   UNL     1       1.828  54.054  16.777  1.00  0.00    -0.000 C 
BRANCH  12  13
ATOM     13  C   UNL     1       2.082  55.540  16.493  1.00  0.00    -0.000 C 
BRANCH  13  14
ATOM     14  C   UNL     1       3.399  56.005  17.133  1.00  0.00    -0.000 C 
BRANCH  14  15
ATOM     15  C   UNL     1       3.191  57.122  18.165  1.00  0.00    -0.003 C 
ATOM     16  C   UNL     1       1.859  57.851  17.988  1.00  0.00     0.004 C 
ENDBRANCH  14  15
ENDBRANCH  13  14
ENDBRANCH  12  13
ENDBRANCH  11  12
ENDBRANCH  10  11
ENDBRANCH   1  10
TORSDOF 12
ENDMDL
MODEL 4
REMARK VINA RESULT:    -4.422      1.106      2.582
REMARK INTER + INTRA:          -9.743
REMARK INTER:                  -7.612
REMARK INTRA:                  -2.131
REMARK UNBOUND:                -2.219
REMARK SMILES CCCCCCCCCCCCCC(=O)[O-]
REMARK SMILES IDX 8 1 9 2 10 3 11 4 12 5 13 6 14 7 15 8 16 9 7 10 6 11 5 12
REMARK SMILES IDX 4 13 3 14 2 15 1 16
REMARK H PARENT
REMARK Flexibility Score: inf
ROOT
ATOM      1  C   UNL     1       2.815  54.047  20.016  1.00  0.00     0.000 C 
ENDROOT
BRANCH   1   2
ATOM      2  C   UNL     1       2.055  52.973  19.219  1.00  0.00     0.000 C 
BRANCH   2   3
ATOM      3  C   UNL     1       2.393  53.003  17.720  1.00  0.00     0.000 C 
BRANCH   3   4
ATOM      4  C   UNL     1       1.420  53.880  16.910  1.00  0.00     0.000 C 
BRANCH   4   5
ATOM      5  C   UNL     1       2.034  55.233  16.517  1.00  0.00     0.006 C 
BRANCH   5   6
ATOM      6  C   UNL     1       3.535  55.135  16.216  1.00  0.00     0.053 C 
BRANCH   6   7
ATOM      7  C   UNL     1       4.285  56.199  16.952  1.00  0.00     0.041 C 
ATOM      8  O   UNL     1       3.727  56.843  17.879  1.00  0.00    -0.550 OA
ATOM      9  O   UNL     1       5.586  56.516  16.580  1.00  0.00    -0.550 OA
ENDBRANCH   6   7
ENDBRANCH   5   6
ENDBRANCH   4   5
ENDBRANCH   3   4
ENDBRANCH   2   3
ENDBRANCH   1   2
BRANCH   1  10
ATOM     10  C   UNL     1       1.915  55.224  20.427  1.00  0.00     0.000 C 
BRANCH  10  11
ATOM     11  C   UNL     1       0.439  54.818  20.576  1.00  0.00    -0.000 C 
BRANCH  11  12
ATOM     12  C   UNL     1      -0.462  55.700  19.703  1.00  0.00    -0.000 C 
BRANCH  12  13
ATOM     13  C   UNL     1      -1.482  54.852  18.931  1.00  0.00    -0.000 C 
BRANCH  13  14
ATOM     14  C   UNL     1      -1.665  53.478  19.591  1.00  0.00    -0.000 C 
BRANCH  14  15
ATOM     15  C   UNL     1      -1.577  52.323  18.583  1.00  0.00    -0.003 C 
ATOM     16  C   UNL     1      -2.248  52.650  17.249  1.00  0.00     0.004 C 
ENDBRANCH  14  15
ENDBRANCH  13  14
ENDBRANCH  12  13
ENDBRANCH  11  12
ENDBRANCH  10  11
ENDBRANCH   1  10
TORSDOF 12
ENDMDL
MODEL 5
REMARK VINA RESULT:    -4.407      1.288      2.624
REMARK INTER + INTRA:          -9.719
REMARK INTER:                  -7.958
REMARK INTRA:                  -1.761
REMARK UNBOUND:                -2.219
REMARK SMILES CCCCCCCCCCCCCC(=O)[O-]
REMARK SMILES IDX 8 1 9 2 10 3 11 4 12 5 13 6 14 7 15 8 16 9 7 10 6 11 5 12
REMARK SMILES IDX 4 13 3 14 2 15 1 16
REMARK H PARENT
REMARK Flexibility Score: inf
ROOT
ATOM      1  C   UNL     1      -1.165  55.473  18.127  1.00  0.00     0.000 C 
ENDROOT
BRANCH   1   2
ATOM      2  C   UNL     1      -0.850  56.762  17.348  1.00  0.00     0.000 C 
BRANCH   2   3
ATOM      3  C   UNL     1       0.604  56.810  16.852  1.00  0.00     0.000 C 
BRANCH   3   4
ATOM      4  C   UNL     1       1.544  57.527  17.837  1.00  0.00     0.000 C 
BRANCH   4   5
ATOM      5  C   UNL     1       2.907  56.827  17.968  1.00  0.00     0.006 C 
BRANCH   5   6
ATOM      6  C   UNL     1       3.073  55.670  16.974  1.00  0.00     0.053 C 
BRANCH   6   7
ATOM      7  C   UNL     1       4.396  55.761  16.284  1.00  0.00     0.041 C 
ATOM      8  O   UNL     1       4.734  54.886  15.444  1.00  0.00    -0.550 OA
ATOM      9  O   UNL     1       5.279  56.785  16.605  1.00  0.00    -0.550 OA
ENDBRANCH   6   7
ENDBRANCH   5   6
ENDBRANCH   4   5
ENDBRANCH   3   4
ENDBRANCH   2   3
ENDBRANCH   1   2
BRANCH   1  10
ATOM     10  C   UNL     1      -1.018  55.652  19.647  1.00  0.00     0.000 C 
BRANCH  10  11
ATOM     11  C   UNL     1      -0.323  54.457  20.320  1.00  0.00    -0.000 C 
BRANCH  11  12
ATOM     12  C   UNL     1       1.049  54.862  20.872  1.00  0.00    -0.000 C 
BRANCH  12  13
ATOM     13  C   UNL     1       2.172  54.059  20.201  1.00  0.00    -0.000 C 
BRANCH  13  14
ATOM     14  C   UNL     1       1.606  52.848  19.446  1.00  0.00    -0.000 C 
BRANCH  14  15
ATOM     15  C   UNL     1       2.602  52.265  18.433  1.00  0.00    -0.003 C 
ATOM     16  C   UNL     1       4.056  52.577  18.787  1.00  0.00     0.004 C 
ENDBRANCH  14  15
ENDBRANCH  13  14
ENDBRANCH  12  13
ENDBRANCH  11  12
ENDBRANCH  10  11
ENDBRANCH   1  10
TORSDOF 12
ENDMDL
MODEL 6
REMARK VINA RESULT:    -4.405      3.749      4.916
REMARK INTER + INTRA:          -9.714
REMARK INTER:                  -7.763
REMARK INTRA:                  -1.951
REMARK UNBOUND:                -2.219
REMARK SMILES CCCCCCCCCCCCCC(=O)[O-]
REMARK SMILES IDX 8 1 9 2 10 3 11 4 12 5 13 6 14 7 15 8 16 9 7 10 6 11 5 12
REMARK SMILES IDX 4 13 3 14 2 15 1 16
REMARK H PARENT
REMARK Flexibility Score: inf
ROOT
ATOM      1  C   UNL     1       2.721  55.333  17.612  1.00  0.00     0.000 C 
ENDROOT
BRANCH   1   2
ATOM      2  C   UNL     1       1.454  55.655  16.800  1.00  0.00     0.000 C 
BRANCH   2   3
ATOM      3  C   UNL     1       0.813  56.989  17.213  1.00  0.00     0.000 C 
BRANCH   3   4
ATOM      4  C   UNL     1      -0.715  56.997  17.024  1.00  0.00     0.000 C 
BRANCH   4   5
ATOM      5  C   UNL     1      -1.453  56.257  18.153  1.00  0.00     0.006 C 
BRANCH   5   6
ATOM      6  C   UNL     1      -2.884  55.865  17.764  1.00  0.00     0.053 C 
BRANCH   6   7
ATOM      7  C   UNL     1      -3.863  56.855  18.309  1.00  0.00     0.041 C 
ATOM      8  O   UNL     1      -4.062  57.944  17.711  1.00  0.00    -0.550 OA
ATOM      9  O   UNL     1      -4.519  56.596  19.506  1.00  0.00    -0.550 OA
ENDBRANCH   6   7
ENDBRANCH   5   6
ENDBRANCH   4   5
ENDBRANCH   3   4
ENDBRANCH   2   3
ENDBRANCH   1   2
BRANCH   1  10
ATOM     10  C   UNL     1       2.606  55.766  19.082  1.00  0.00     0.000 C 
BRANCH  10  11
ATOM     11  C   UNL     1       2.157  54.620  20.004  1.00  0.00    -0.000 C 
BRANCH  11  12
ATOM     12  C   UNL     1       0.942  55.036  20.843  1.00  0.00    -0.000 C 
BRANCH  12  13
ATOM     13  C   UNL     1      -0.219  54.051  20.656  1.00  0.00    -0.000 C 
BRANCH  13  14
ATOM     14  C   UNL     1       0.183  52.896  19.727  1.00  0.00    -0.000 C 
BRANCH  14  15
ATOM     15  C   UNL     1      -0.927  52.523  18.735  1.00  0.00    -0.003 C 
ATOM     16  C   UNL     1      -0.535  52.787  17.280  1.00  0.00     0.004 C 
ENDBRANCH  14  15
ENDBRANCH  13  14
ENDBRANCH  12  13
ENDBRANCH  11  12
ENDBRANCH  10  11
ENDBRANCH   1  10
TORSDOF 12
ENDMDL
MODEL 7
REMARK VINA RESULT:    -4.403      0.778      2.879
REMARK INTER + INTRA:          -9.711
REMARK INTER:                  -7.731
REMARK INTRA:                  -1.980
REMARK UNBOUND:                -2.219
REMARK SMILES CCCCCCCCCCCCCC(=O)[O-]
REMARK SMILES IDX 8 1 9 2 10 3 11 4 12 5 13 6 14 7 15 8 16 9 7 10 6 11 5 12
REMARK SMILES IDX 4 13 3 14 2 15 1 16
REMARK H PARENT
REMARK Flexibility Score: inf
ROOT
ATOM      1  C   UNL     1      -1.686  55.636  17.996  1.00  0.00     0.000 C 
ENDROOT
BRANCH   1   2
ATOM      2  C   UNL     1      -0.678  56.207  19.008  1.00  0.00     0.000 C 
BRANCH   2   3
ATOM      3  C   UNL     1       0.638  56.644  18.347  1.00  0.00     0.000 C 
BRANCH   3   4
ATOM      4  C   UNL     1       0.689  56.306  16.845  1.00  0.00     0.000 C 
BRANCH   4   5
ATOM      5  C   UNL     1       2.019  55.655  16.432  1.00  0.00     0.006 C 
BRANCH   5   6
ATOM      6  C   UNL     1       3.215  56.207  17.220  1.00  0.00     0.053 C 
BRANCH   6   7
ATOM      7  C   UNL     1       4.486  55.981  16.465  1.00  0.00     0.041 C 
ATOM      8  O   UNL     1       5.478  56.732  16.656  1.00  0.00    -0.550 OA
ATOM      9  O   UNL     1       4.559  54.973  15.512  1.00  0.00    -0.550 OA
ENDBRANCH   6   7
ENDBRANCH   5   6
ENDBRANCH   4   5
ENDBRANCH   3   4
ENDBRANCH   2   3
ENDBRANCH   1   2
BRANCH   1  10
ATOM     10  C   UNL     1      -2.139  54.211  18.353  1.00  0.00     0.000 C 
BRANCH  10  11
ATOM     11  C   UNL     1      -1.575  53.151  17.392  1.00  0.00    -0.000 C 
BRANCH  11  12
ATOM     12  C   UNL     1      -0.677  52.157  18.139  1.00  0.00    -0.000 C 
BRANCH  12  13
ATOM     13  C   UNL     1       0.755  52.694  18.263  1.00  0.00    -0.000 C 
BRANCH  13  14
ATOM     14  C   UNL     1       1.103  52.999  19.727  1.00  0.00    -0.000 C 
BRANCH  14  15
ATOM     15  C   UNL     1       2.338  53.901  19.865  1.00  0.00    -0.003 C 
ATOM     16  C   UNL     1       2.219  54.894  21.021  1.00  0.00     0.004 C 
ENDBRANCH  14  15
ENDBRANCH  13  14
ENDBRANCH  12  13
ENDBRANCH  11  12
ENDBRANCH  10  11
ENDBRANCH   1  10
TORSDOF 12
ENDMDL
MODEL 8
REMARK VINA RESULT:    -4.365      3.033      5.143
REMARK INTER + INTRA:          -9.646
REMARK INTER:                  -7.338
REMARK INTRA:                  -2.309
REMARK UNBOUND:                -2.219
REMARK SMILES CCCCCCCCCCCCCC(=O)[O-]
REMARK SMILES IDX 8 1 9 2 10 3 11 4 12 5 13 6 14 7 15 8 16 9 7 10 6 11 5 12
REMARK SMILES IDX 4 13 3 14 2 15 1 16
REMARK H PARENT
REMARK Flexibility Score: inf
ROOT
ATOM      1  C   UNL     1       2.388  54.085  20.145  1.00  0.00     0.000 C 
ENDROOT
BRANCH   1   2
ATOM      2  C   UNL     1       1.134  53.255  19.816  1.00  0.00     0.000 C 
BRANCH   2   3
ATOM      3  C   UNL     1       1.292  52.435  18.527  1.00  0.00     0.000 C 
BRANCH   3   4
ATOM      4  C   UNL     1       0.020  52.440  17.660  1.00  0.00     0.000 C 
BRANCH   4   5
ATOM      5  C   UNL     1      -1.224  52.894  18.441  1.00  0.00     0.006 C 
BRANCH   5   6
ATOM      6  C   UNL     1      -2.186  53.728  17.585  1.00  0.00     0.053 C 
BRANCH   6   7
ATOM      7  C   UNL     1      -2.590  54.970  18.314  1.00  0.00     0.041 C 
ATOM      8  O   UNL     1      -2.583  54.997  19.572  1.00  0.00    -0.550 OA
ATOM      9  O   UNL     1      -3.022  56.083  17.603  1.00  0.00    -0.550 OA
ENDBRANCH   6   7
ENDBRANCH   5   6
ENDBRANCH   4   5
ENDBRANCH   3   4
ENDBRANCH   2   3
ENDBRANCH   1   2
BRANCH   1  10
ATOM     10  C   UNL     1       2.089  55.589  20.251  1.00  0.00     0.000 C 
BRANCH  10  11
ATOM     11  C   UNL     1       0.857  56.009  19.434  1.00  0.00    -0.000 C 
BRANCH  11  12
ATOM     12  C   UNL     1       1.271  56.780  18.175  1.00  0.00    -0.000 C 
BRANCH  12  13
ATOM     13  C   UNL     1       0.904  56.002  16.905  1.00  0.00    -0.000 C 
BRANCH  13  14
ATOM     14  C   UNL     1       2.130  55.275  16.332  1.00  0.00    -0.000 C 
BRANCH  14  15
ATOM     15  C   UNL     1       3.455  55.898  16.794  1.00  0.00    -0.003 C 
ATOM     16  C   UNL     1       4.489  54.850  17.208  1.00  0.00     0.004 C 
ENDBRANCH  14  15
ENDBRANCH  13  14
ENDBRANCH  12  13
ENDBRANCH  11  12
ENDBRANCH  10  11
ENDBRANCH   1  10
TORSDOF 12
ENDMDL
MODEL 9
REMARK VINA RESULT:    -4.355      1.836      3.347
REMARK INTER + INTRA:          -9.630
REMARK INTER:                  -7.484
REMARK INTRA:                  -2.146
REMARK UNBOUND:                -2.219
REMARK SMILES CCCCCCCCCCCCCC(=O)[O-]
REMARK SMILES IDX 8 1 9 2 10 3 11 4 12 5 13 6 14 7 15 8 16 9 7 10 6 11 5 12
REMARK SMILES IDX 4 13 3 14 2 15 1 16
REMARK H PARENT
REMARK Flexibility Score: inf
ROOT
ATOM      1  C   UNL     1       1.574  54.932  20.624  1.00  0.00     0.000 C 
ENDROOT
BRANCH   1   2
ATOM      2  C   UNL     1       2.538  53.919  19.982  1.00  0.00     0.000 C 
BRANCH   2   3
ATOM      3  C   UNL     1       1.805  52.839  19.173  1.00  0.00     0.000 C 
BRANCH   3   4
ATOM      4  C   UNL     1       2.097  52.926  17.663  1.00  0.00     0.000 C 
BRANCH   4   5
ATOM      5  C   UNL     1       1.225  53.974  16.953  1.00  0.00     0.006 C 
BRANCH   5   6
ATOM      6  C   UNL     1       2.032  55.190  16.481  1.00  0.00     0.053 C 
BRANCH   6   7
ATOM      7  C   UNL     1       1.508  56.441  17.110  1.00  0.00     0.041 C 
ATOM      8  O   UNL     1       2.203  57.066  17.953  1.00  0.00    -0.550 OA
ATOM      9  O   UNL     1       0.229  56.890  16.802  1.00  0.00    -0.550 OA
ENDBRANCH   6   7
ENDBRANCH   5   6
ENDBRANCH   4   5
ENDBRANCH   3   4
ENDBRANCH   2   3
ENDBRANCH   1   2
BRANCH   1  10
ATOM     10  C   UNL     1       0.118  54.436  20.634  1.00  0.00     0.000 C 
BRANCH  10  11
ATOM     11  C   UNL     1      -0.832  55.373  19.871  1.00  0.00    -0.000 C 
BRANCH  11  12
ATOM     12  C   UNL     1      -2.133  54.651  19.501  1.00  0.00    -0.000 C 
BRANCH  12  13
ATOM     13  C   UNL     1      -2.286  54.536  17.979  1.00  0.00    -0.000 C 
BRANCH  13  14
ATOM     14  C   UNL     1      -2.262  53.066  17.533  1.00  0.00    -0.000 C 
BRANCH  14  15
ATOM     15  C   UNL     1      -2.061  52.097  18.707  1.00  0.00    -0.003 C 
ATOM     16  C   UNL     1      -1.253  50.858  18.319  1.00  0.00     0.004 C 
ENDBRANCH  14  15
ENDBRANCH  13  14
ENDBRANCH  12  13
ENDBRANCH  11  12
ENDBRANCH  10  11
ENDBRANCH   1  10
TORSDOF 12
ENDMDL
