MODEL 1
REMARK VINA RESULT:    -7.519      0.000      0.000
REMARK INTER + INTRA:         -12.337
REMARK INTER:                 -10.816
REMARK INTRA:                  -1.522
REMARK UNBOUND:                -1.522
REMARK SMILES O=c1c(O[C@@H]2O[C@@H](CO)[C@@H](O)[C@@H](O)[C@@H]2O)c(-c2ccc(O)cc2)oc2cc(O)cc(O)c12
REMARK SMILES IDX 4 1 3 2 16 3 24 4 2 5 25 6 1 7 32 8 26 9 30 10 27 11 29 12
REMARK SMILES IDX 17 13 18 14 19 15 20 16 23 17 22 18 21 19 31 21 28 23 5 25
REMARK SMILES IDX 14 26 6 27 12 28 7 29 10 30 15 31 13 33 8 35 9 36 11 38
REMARK H PARENT 21 20 31 22 28 24 15 32 13 34 9 37 11 39
REMARK Flexibility Score: inf
ROOT
ATOM      1  O   UNL     1     -37.804   5.785  81.248  1.00  0.00    -0.454 OA
ENDROOT
BRANCH   1   2
ATOM      2  C   UNL     1     -38.551   5.067  80.267  1.00  0.00     0.214 A 
ATOM      3  C   UNL     1     -38.308   5.062  78.849  1.00  0.00     0.180 A 
ATOM      4  O   UNL     1     -38.939   4.122  78.114  1.00  0.00    -0.452 OA
ATOM      5  C   UNL     1     -39.709   4.355  80.750  1.00  0.00     0.239 A 
ATOM      6  C   UNL     1     -40.045   3.511  78.517  1.00  0.00     0.146 A 
ATOM      7  O   UNL     1     -39.951   4.315  81.987  1.00  0.00    -0.285 OA
ATOM      8  C   UNL     1     -40.588   3.772  79.805  1.00  0.00     0.111 A 
ATOM      9  C   UNL     1     -40.808   2.808  77.588  1.00  0.00     0.094 A 
ATOM     10  C   UNL     1     -41.990   3.605  79.995  1.00  0.00     0.134 A 
ATOM     11  C   UNL     1     -42.205   2.939  77.643  1.00  0.00     0.123 A 
ATOM     12  C   UNL     1     -42.795   3.362  78.843  1.00  0.00     0.093 A 
BRANCH   3  13
ATOM     13  C   UNL     1     -37.913   6.244  78.094  1.00  0.00     0.021 A 
ATOM     14  C   UNL     1     -38.796   7.296  77.784  1.00  0.00     0.016 A 
ATOM     15  C   UNL     1     -38.253   8.517  77.375  1.00  0.00     0.047 A 
ATOM     16  C   UNL     1     -36.861   8.725  77.295  1.00  0.00     0.115 A 
ATOM     17  C   UNL     1     -36.541   6.434  78.015  1.00  0.00     0.016 A 
ATOM     18  C   UNL     1     -36.022   7.663  77.618  1.00  0.00     0.047 A 
BRANCH  16  19
ATOM     19  O   UNL     1     -36.336  10.000  77.039  1.00  0.00    -0.508 OA
ATOM     20  H   UNL     1     -35.434  10.260  77.371  1.00  0.00     0.293 HD
ENDBRANCH  16  19
ENDBRANCH   3  13
BRANCH  10  21
ATOM     21  O   UNL     1     -42.688   3.816  81.220  1.00  0.00    -0.507 OA
ATOM     22  H   UNL     1     -43.347   3.147  81.664  1.00  0.00     0.293 HD
ENDBRANCH  10  21
BRANCH  11  23
ATOM     23  O   UNL     1     -42.969   2.594  76.536  1.00  0.00    -0.508 OA
ATOM     24  H   UNL     1     -42.887   1.701  76.078  1.00  0.00     0.293 HD
ENDBRANCH  11  23
ENDBRANCH   1   2
BRANCH   1  25
ATOM     25  C   UNL     1     -36.488   5.643  81.709  1.00  0.00     0.339 C 
ATOM     26  C   UNL     1     -36.398   5.198  83.209  1.00  0.00     0.214 C 
ATOM     27  O   UNL     1     -35.759   4.822  80.806  1.00  0.00    -0.332 OA
ATOM     28  C   UNL     1     -35.236   4.186  83.383  1.00  0.00     0.180 C 
ATOM     29  C   UNL     1     -34.368   4.802  81.084  1.00  0.00     0.179 C 
ATOM     30  C   UNL     1     -34.006   4.655  82.598  1.00  0.00     0.177 C 
BRANCH  26  31
ATOM     31  O   UNL     1     -37.611   4.614  83.643  1.00  0.00    -0.384 OA
ATOM     32  H   UNL     1     -38.109   4.336  82.833  1.00  0.00     0.211 HD
ENDBRANCH  26  31
BRANCH  28  33
ATOM     33  O   UNL     1     -34.941   4.131  84.753  1.00  0.00    -0.387 OA
ATOM     34  H   UNL     1     -34.247   4.812  84.900  1.00  0.00     0.211 HD
ENDBRANCH  28  33
BRANCH  29  35
ATOM     35  C   UNL     1     -33.693   5.947  80.303  1.00  0.00     0.191 C 
BRANCH  35  36
ATOM     36  O   UNL     1     -33.010   5.377  79.226  1.00  0.00    -0.394 OA
ATOM     37  H   UNL     1     -33.689   5.091  78.546  1.00  0.00     0.210 HD
ENDBRANCH  35  36
ENDBRANCH  29  35
BRANCH  30  38
ATOM     38  O   UNL     1     -33.518   5.860  83.146  1.00  0.00    -0.387 OA
ATOM     39  H   UNL     1     -33.071   6.349  82.392  1.00  0.00     0.211 HD
ENDBRANCH  30  38
ENDBRANCH   1  25
TORSDOF 11
ENDMDL
MODEL 2
REMARK VINA RESULT:    -7.190      2.141      4.021
REMARK INTER + INTRA:         -11.864
REMARK INTER:                 -10.297
REMARK INTRA:                  -1.568
REMARK UNBOUND:                -1.522
REMARK SMILES O=c1c(O[C@@H]2O[C@@H](CO)[C@@H](O)[C@@H](O)[C@@H]2O)c(-c2ccc(O)cc2)oc2cc(O)cc(O)c12
REMARK SMILES IDX 4 1 3 2 16 3 24 4 2 5 25 6 1 7 32 8 26 9 30 10 27 11 29 12
REMARK SMILES IDX 17 13 18 14 19 15 20 16 23 17 22 18 21 19 31 21 28 23 5 25
REMARK SMILES IDX 14 26 6 27 12 28 7 29 10 30 15 31 13 33 8 35 9 36 11 38
REMARK H PARENT 21 20 31 22 28 24 15 32 13 34 9 37 11 39
REMARK Flexibility Score: inf
ROOT
ATOM      1  O   UNL     1     -36.131   5.432  78.554  1.00  0.00    -0.454 OA
ENDROOT
BRANCH   1   2
ATOM      2  C   UNL     1     -37.463   5.063  78.905  1.00  0.00     0.214 A 
ATOM      3  C   UNL     1     -38.660   5.423  78.193  1.00  0.00     0.180 A 
ATOM      4  O   UNL     1     -39.795   4.767  78.514  1.00  0.00    -0.452 OA
ATOM      5  C   UNL     1     -37.614   4.336  80.142  1.00  0.00     0.239 A 
ATOM      6  C   UNL     1     -39.972   4.154  79.677  1.00  0.00     0.146 A 
ATOM      7  O   UNL     1     -36.592   3.982  80.791  1.00  0.00    -0.285 OA
ATOM      8  C   UNL     1     -38.920   4.097  80.632  1.00  0.00     0.111 A 
ATOM      9  C   UNL     1     -41.259   3.787  80.062  1.00  0.00     0.094 A 
ATOM     10  C   UNL     1     -39.264   3.990  82.011  1.00  0.00     0.134 A 
ATOM     11  C   UNL     1     -41.639   4.002  81.395  1.00  0.00     0.123 A 
ATOM     12  C   UNL     1     -40.637   4.129  82.369  1.00  0.00     0.093 A 
BRANCH   3  13
ATOM     13  C   UNL     1     -38.879   6.733  77.591  1.00  0.00     0.021 A 
ATOM     14  C   UNL     1     -38.389   7.093  76.322  1.00  0.00     0.016 A 
ATOM     15  C   UNL     1     -38.937   8.216  75.696  1.00  0.00     0.047 A 
ATOM     16  C   UNL     1     -39.974   8.968  76.286  1.00  0.00     0.115 A 
ATOM     17  C   UNL     1     -39.896   7.467  78.186  1.00  0.00     0.016 A 
ATOM     18  C   UNL     1     -40.435   8.574  77.537  1.00  0.00     0.047 A 
BRANCH  16  19
ATOM     19  O   UNL     1     -40.617   9.991  75.575  1.00  0.00    -0.508 OA
ATOM     20  H   UNL     1     -40.265  10.922  75.582  1.00  0.00     0.293 HD
ENDBRANCH  16  19
ENDBRANCH   3  13
BRANCH  10  21
ATOM     21  O   UNL     1     -38.334   3.914  83.089  1.00  0.00    -0.507 OA
ATOM     22  H   UNL     1     -37.454   4.459  83.169  1.00  0.00     0.293 HD
ENDBRANCH  10  21
BRANCH  11  23
ATOM     23  O   UNL     1     -42.987   4.027  81.729  1.00  0.00    -0.508 OA
ATOM     24  H   UNL     1     -43.530   4.875  81.725  1.00  0.00     0.293 HD
ENDBRANCH  11  23
ENDBRANCH   1   2
BRANCH   1  25
ATOM     25  C   UNL     1     -35.413   6.622  78.732  1.00  0.00     0.339 C 
ATOM     26  C   UNL     1     -34.101   6.439  79.569  1.00  0.00     0.214 C 
ATOM     27  O   UNL     1     -35.225   7.251  77.472  1.00  0.00    -0.332 OA
ATOM     28  C   UNL     1     -32.975   7.322  78.971  1.00  0.00     0.180 C 
ATOM     29  C   UNL     1     -34.695   8.563  77.585  1.00  0.00     0.179 C 
ATOM     30  C   UNL     1     -33.524   8.707  78.612  1.00  0.00     0.177 C 
BRANCH  26  31
ATOM     31  O   UNL     1     -33.689   5.086  79.587  1.00  0.00    -0.384 OA
ATOM     32  H   UNL     1     -34.408   4.556  79.158  1.00  0.00     0.211 HD
ENDBRANCH  26  31
BRANCH  28  33
ATOM     33  O   UNL     1     -31.980   7.439  79.952  1.00  0.00    -0.387 OA
ATOM     34  H   UNL     1     -31.134   7.531  79.459  1.00  0.00     0.211 HD
ENDBRANCH  28  33
BRANCH  29  35
ATOM     35  C   UNL     1     -35.866   9.558  77.704  1.00  0.00     0.191 C 
BRANCH  35  36
ATOM     36  O   UNL     1     -36.068  10.123  76.442  1.00  0.00    -0.394 OA
ATOM     37  H   UNL     1     -36.481   9.424  75.853  1.00  0.00     0.210 HD
ENDBRANCH  35  36
ENDBRANCH  29  35
BRANCH  30  38
ATOM     38  O   UNL     1     -33.926   9.382  79.784  1.00  0.00    -0.387 OA
ATOM     39  H   UNL     1     -34.808   8.983  80.048  1.00  0.00     0.211 HD
ENDBRANCH  30  38
ENDBRANCH   1  25
TORSDOF 11
ENDMDL
MODEL 3
REMARK VINA RESULT:    -7.085      1.365      2.012
REMARK INTER + INTRA:         -11.714
REMARK INTER:                 -10.298
REMARK INTRA:                  -1.416
REMARK UNBOUND:                -1.522
REMARK SMILES O=c1c(O[C@@H]2O[C@@H](CO)[C@@H](O)[C@@H](O)[C@@H]2O)c(-c2ccc(O)cc2)oc2cc(O)cc(O)c12
REMARK SMILES IDX 4 1 3 2 16 3 24 4 2 5 25 6 1 7 32 8 26 9 30 10 27 11 29 12
REMARK SMILES IDX 17 13 18 14 19 15 20 16 23 17 22 18 21 19 31 21 28 23 5 25
REMARK SMILES IDX 14 26 6 27 12 28 7 29 10 30 15 31 13 33 8 35 9 36 11 38
REMARK H PARENT 21 20 31 22 28 24 15 32 13 34 9 37 11 39
REMARK Flexibility Score: inf
ROOT
ATOM      1  O   UNL     1     -38.328   6.382  81.531  1.00  0.00    -0.454 OA
ENDROOT
BRANCH   1   2
ATOM      2  C   UNL     1     -38.906   5.594  80.492  1.00  0.00     0.214 A 
ATOM      3  C   UNL     1     -38.582   5.663  79.092  1.00  0.00     0.180 A 
ATOM      4  O   UNL     1     -39.029   4.665  78.301  1.00  0.00    -0.452 OA
ATOM      5  C   UNL     1     -39.978   4.713  80.888  1.00  0.00     0.239 A 
ATOM      6  C   UNL     1     -40.059   3.893  78.622  1.00  0.00     0.146 A 
ATOM      7  O   UNL     1     -40.284   4.605  82.107  1.00  0.00    -0.285 OA
ATOM      8  C   UNL     1     -40.708   4.039  79.879  1.00  0.00     0.111 A 
ATOM      9  C   UNL     1     -40.659   3.116  77.634  1.00  0.00     0.094 A 
ATOM     10  C   UNL     1     -42.081   3.671  79.978  1.00  0.00     0.134 A 
ATOM     11  C   UNL     1     -42.060   3.048  77.605  1.00  0.00     0.123 A 
ATOM     12  C   UNL     1     -42.774   3.350  78.774  1.00  0.00     0.093 A 
BRANCH   3  13
ATOM     13  C   UNL     1     -38.316   6.910  78.386  1.00  0.00     0.021 A 
ATOM     14  C   UNL     1     -37.027   7.457  78.240  1.00  0.00     0.016 A 
ATOM     15  C   UNL     1     -36.834   8.443  77.268  1.00  0.00     0.047 A 
ATOM     16  C   UNL     1     -37.877   8.875  76.424  1.00  0.00     0.115 A 
ATOM     17  C   UNL     1     -39.354   7.330  77.565  1.00  0.00     0.016 A 
ATOM     18  C   UNL     1     -39.134   8.303  76.596  1.00  0.00     0.047 A 
BRANCH  16  19
ATOM     19  O   UNL     1     -37.626   9.745  75.354  1.00  0.00    -0.508 OA
ATOM     20  H   UNL     1     -36.868  10.390  75.384  1.00  0.00     0.293 HD
ENDBRANCH  16  19
ENDBRANCH   3  13
BRANCH  10  21
ATOM     21  O   UNL     1     -42.872   3.747  81.162  1.00  0.00    -0.507 OA
ATOM     22  H   UNL     1     -43.862   3.445  81.249  1.00  0.00     0.293 HD
ENDBRANCH  10  21
BRANCH  11  23
ATOM     23  O   UNL     1     -42.702   2.630  76.446  1.00  0.00    -0.508 OA
ATOM     24  H   UNL     1     -42.873   1.659  76.242  1.00  0.00     0.293 HD
ENDBRANCH  11  23
ENDBRANCH   1   2
BRANCH   1  25
ATOM     25  C   UNL     1     -37.099   6.290  82.199  1.00  0.00     0.339 C 
ATOM     26  C   UNL     1     -36.773   7.546  83.078  1.00  0.00     0.214 C 
ATOM     27  O   UNL     1     -37.031   5.052  82.892  1.00  0.00    -0.332 OA
ATOM     28  C   UNL     1     -36.097   7.096  84.399  1.00  0.00     0.180 C 
ATOM     29  C   UNL     1     -35.740   4.787  83.418  1.00  0.00     0.179 C 
ATOM     30  C   UNL     1     -35.055   6.009  84.115  1.00  0.00     0.177 C 
BRANCH  26  31
ATOM     31  O   UNL     1     -37.943   8.288  83.366  1.00  0.00    -0.384 OA
ATOM     32  H   UNL     1     -38.704   7.653  83.344  1.00  0.00     0.211 HD
ENDBRANCH  26  31
BRANCH  28  33
ATOM     33  O   UNL     1     -35.476   8.227  84.949  1.00  0.00    -0.387 OA
ATOM     34  H   UNL     1     -34.660   7.893  85.383  1.00  0.00     0.211 HD
ENDBRANCH  28  33
BRANCH  29  35
ATOM     35  C   UNL     1     -34.920   4.029  82.355  1.00  0.00     0.191 C 
BRANCH  35  36
ATOM     36  O   UNL     1     -33.737   3.600  82.962  1.00  0.00    -0.394 OA
ATOM     37  H   UNL     1     -33.083   3.372  82.237  1.00  0.00     0.210 HD
ENDBRANCH  35  36
ENDBRANCH  29  35
BRANCH  30  38
ATOM     38  O   UNL     1     -34.005   6.542  83.338  1.00  0.00    -0.387 OA
ATOM     39  H   UNL     1     -33.734   7.399  83.785  1.00  0.00     0.211 HD
ENDBRANCH  30  38
ENDBRANCH   1  25
TORSDOF 11
ENDMDL
MODEL 4
REMARK VINA RESULT:    -6.974     10.031     12.258
REMARK INTER + INTRA:         -11.554
REMARK INTER:                  -9.731
REMARK INTRA:                  -1.823
REMARK UNBOUND:                -1.522
REMARK SMILES O=c1c(O[C@@H]2O[C@@H](CO)[C@@H](O)[C@@H](O)[C@@H]2O)c(-c2ccc(O)cc2)oc2cc(O)cc(O)c12
REMARK SMILES IDX 4 1 3 2 16 3 24 4 2 5 25 6 1 7 32 8 26 9 30 10 27 11 29 12
REMARK SMILES IDX 17 13 18 14 19 15 20 16 23 17 22 18 21 19 31 21 28 23 5 25
REMARK SMILES IDX 14 26 6 27 12 28 7 29 10 30 15 31 13 33 8 35 9 36 11 38
REMARK H PARENT 21 20 31 22 28 24 15 32 13 34 9 37 11 39
REMARK Flexibility Score: inf
ROOT
ATOM      1  O   UNL     1     -41.055  -5.507  83.446  1.00  0.00    -0.454 OA
ENDROOT
BRANCH   1   2
ATOM      2  C   UNL     1     -42.112  -5.903  82.575  1.00  0.00     0.214 A 
ATOM      3  C   UNL     1     -42.255  -7.187  81.941  1.00  0.00     0.180 A 
ATOM      4  O   UNL     1     -43.446  -7.470  81.373  1.00  0.00    -0.452 OA
ATOM      5  C   UNL     1     -43.072  -4.880  82.238  1.00  0.00     0.239 A 
ATOM      6  C   UNL     1     -44.307  -6.536  80.994  1.00  0.00     0.146 A 
ATOM      7  O   UNL     1     -42.998  -3.746  82.784  1.00  0.00    -0.285 OA
ATOM      8  C   UNL     1     -44.040  -5.161  81.243  1.00  0.00     0.111 A 
ATOM      9  C   UNL     1     -45.348  -6.880  80.136  1.00  0.00     0.094 A 
ATOM     10  C   UNL     1     -44.611  -4.192  80.370  1.00  0.00     0.134 A 
ATOM     11  C   UNL     1     -45.660  -6.002  79.086  1.00  0.00     0.123 A 
ATOM     12  C   UNL     1     -45.268  -4.659  79.193  1.00  0.00     0.093 A 
BRANCH   3  13
ATOM     13  C   UNL     1     -41.137  -7.945  81.392  1.00  0.00     0.021 A 
ATOM     14  C   UNL     1     -40.952  -9.322  81.616  1.00  0.00     0.016 A 
ATOM     15  C   UNL     1     -40.072 -10.015  80.779  1.00  0.00     0.047 A 
ATOM     16  C   UNL     1     -39.399  -9.382  79.715  1.00  0.00     0.115 A 
ATOM     17  C   UNL     1     -40.477  -7.308  80.351  1.00  0.00     0.016 A 
ATOM     18  C   UNL     1     -39.617  -8.022  79.522  1.00  0.00     0.047 A 
BRANCH  16  19
ATOM     19  O   UNL     1     -38.649 -10.125  78.792  1.00  0.00    -0.508 OA
ATOM     20  H   UNL     1     -37.653 -10.111  78.810  1.00  0.00     0.293 HD
ENDBRANCH  16  19
ENDBRANCH   3  13
BRANCH  10  21
ATOM     21  O   UNL     1     -44.449  -2.780  80.485  1.00  0.00    -0.507 OA
ATOM     22  H   UNL     1     -43.686  -2.298  80.999  1.00  0.00     0.293 HD
ENDBRANCH  10  21
BRANCH  11  23
ATOM     23  O   UNL     1     -46.392  -6.463  78.001  1.00  0.00    -0.508 OA
ATOM     24  H   UNL     1     -45.959  -6.876  77.191  1.00  0.00     0.293 HD
ENDBRANCH  11  23
ENDBRANCH   1   2
BRANCH   1  25
ATOM     25  C   UNL     1     -39.728  -5.132  83.195  1.00  0.00     0.339 C 
ATOM     26  C   UNL     1     -39.489  -3.586  83.289  1.00  0.00     0.214 C 
ATOM     27  O   UNL     1     -38.857  -5.913  84.002  1.00  0.00    -0.332 OA
ATOM     28  C   UNL     1     -38.118  -3.311  83.960  1.00  0.00     0.180 C 
ATOM     29  C   UNL     1     -37.491  -5.747  83.657  1.00  0.00     0.179 C 
ATOM     30  C   UNL     1     -37.057  -4.266  83.403  1.00  0.00     0.177 C 
BRANCH  26  31
ATOM     31  O   UNL     1     -40.518  -2.952  84.024  1.00  0.00    -0.384 OA
ATOM     32  H   UNL     1     -41.017  -2.376  83.392  1.00  0.00     0.211 HD
ENDBRANCH  26  31
BRANCH  28  33
ATOM     33  O   UNL     1     -37.774  -1.984  83.664  1.00  0.00    -0.387 OA
ATOM     34  H   UNL     1     -36.961  -2.039  83.115  1.00  0.00     0.211 HD
ENDBRANCH  28  33
BRANCH  29  35
ATOM     35  C   UNL     1     -37.126  -6.785  82.577  1.00  0.00     0.191 C 
BRANCH  35  36
ATOM     36  O   UNL     1     -35.768  -6.632  82.287  1.00  0.00    -0.394 OA
ATOM     37  H   UNL     1     -35.291  -7.457  82.598  1.00  0.00     0.210 HD
ENDBRANCH  35  36
ENDBRANCH  29  35
BRANCH  30  38
ATOM     38  O   UNL     1     -36.845  -4.003  82.034  1.00  0.00    -0.387 OA
ATOM     39  H   UNL     1     -37.370  -3.174  81.824  1.00  0.00     0.211 HD
ENDBRANCH  30  38
ENDBRANCH   1  25
TORSDOF 11
ENDMDL
MODEL 5
REMARK VINA RESULT:    -6.938      2.327      4.151
REMARK INTER + INTRA:         -11.502
REMARK INTER:                  -9.843
REMARK INTRA:                  -1.658
REMARK UNBOUND:                -1.522
REMARK SMILES O=c1c(O[C@@H]2O[C@@H](CO)[C@@H](O)[C@@H](O)[C@@H]2O)c(-c2ccc(O)cc2)oc2cc(O)cc(O)c12
REMARK SMILES IDX 4 1 3 2 16 3 24 4 2 5 25 6 1 7 32 8 26 9 30 10 27 11 29 12
REMARK SMILES IDX 17 13 18 14 19 15 20 16 23 17 22 18 21 19 31 21 28 23 5 25
REMARK SMILES IDX 14 26 6 27 12 28 7 29 10 30 15 31 13 33 8 35 9 36 11 38
REMARK H PARENT 21 20 31 22 28 24 15 32 13 34 9 37 11 39
REMARK Flexibility Score: inf
ROOT
ATOM      1  O   UNL     1     -38.393   4.377  80.417  1.00  0.00    -0.454 OA
ENDROOT
BRANCH   1   2
ATOM      2  C   UNL     1     -38.405   5.272  79.306  1.00  0.00     0.214 A 
ATOM      3  C   UNL     1     -37.272   5.648  78.504  1.00  0.00     0.180 A 
ATOM      4  O   UNL     1     -37.518   6.288  77.341  1.00  0.00    -0.452 OA
ATOM      5  C   UNL     1     -39.664   5.922  79.031  1.00  0.00     0.239 A 
ATOM      6  C   UNL     1     -38.643   6.948  77.103  1.00  0.00     0.146 A 
ATOM      7  O   UNL     1     -40.690   5.610  79.696  1.00  0.00    -0.285 OA
ATOM      8  C   UNL     1     -39.697   6.950  78.058  1.00  0.00     0.111 A 
ATOM      9  C   UNL     1     -38.694   7.839  76.034  1.00  0.00     0.094 A 
ATOM     10  C   UNL     1     -40.586   8.063  78.082  1.00  0.00     0.134 A 
ATOM     11  C   UNL     1     -39.332   9.074  76.231  1.00  0.00     0.123 A 
ATOM     12  C   UNL     1     -40.262   9.192  77.274  1.00  0.00     0.093 A 
BRANCH   3  13
ATOM     13  C   UNL     1     -35.943   5.894  79.050  1.00  0.00     0.021 A 
ATOM     14  C   UNL     1     -34.920   4.926  79.063  1.00  0.00     0.016 A 
ATOM     15  C   UNL     1     -33.607   5.356  79.277  1.00  0.00     0.047 A 
ATOM     16  C   UNL     1     -33.285   6.717  79.449  1.00  0.00     0.115 A 
ATOM     17  C   UNL     1     -35.640   7.237  79.223  1.00  0.00     0.016 A 
ATOM     18  C   UNL     1     -34.324   7.642  79.421  1.00  0.00     0.047 A 
BRANCH  16  19
ATOM     19  O   UNL     1     -31.950   7.141  79.502  1.00  0.00    -0.508 OA
ATOM     20  H   UNL     1     -31.391   7.184  78.679  1.00  0.00     0.293 HD
ENDBRANCH  16  19
ENDBRANCH   3  13
BRANCH  10  21
ATOM     21  O   UNL     1     -41.694   8.215  78.967  1.00  0.00    -0.507 OA
ATOM     22  H   UNL     1     -42.186   9.106  79.173  1.00  0.00     0.293 HD
ENDBRANCH  10  21
BRANCH  11  23
ATOM     23  O   UNL     1     -39.074  10.125  75.361  1.00  0.00    -0.508 OA
ATOM     24  H   UNL     1     -39.288  11.082  75.590  1.00  0.00     0.293 HD
ENDBRANCH  11  23
ENDBRANCH   1   2
BRANCH   1  25
ATOM     25  C   UNL     1     -37.903   4.515  81.723  1.00  0.00     0.339 C 
ATOM     26  C   UNL     1     -39.033   4.621  82.803  1.00  0.00     0.214 C 
ATOM     27  O   UNL     1     -36.941   3.500  81.974  1.00  0.00    -0.332 OA
ATOM     28  C   UNL     1     -38.616   3.834  84.072  1.00  0.00     0.180 C 
ATOM     29  C   UNL     1     -36.243   3.694  83.194  1.00  0.00     0.179 C 
ATOM     30  C   UNL     1     -37.144   4.108  84.403  1.00  0.00     0.177 C 
BRANCH  26  31
ATOM     31  O   UNL     1     -40.261   4.120  82.312  1.00  0.00    -0.384 OA
ATOM     32  H   UNL     1     -40.985   4.634  82.754  1.00  0.00     0.211 HD
ENDBRANCH  26  31
BRANCH  28  33
ATOM     33  O   UNL     1     -39.435   4.278  85.120  1.00  0.00    -0.387 OA
ATOM     34  H   UNL     1     -39.555   3.500  85.708  1.00  0.00     0.211 HD
ENDBRANCH  28  33
BRANCH  29  35
ATOM     35  C   UNL     1     -34.995   4.555  82.915  1.00  0.00     0.191 C 
BRANCH  35  36
ATOM     36  O   UNL     1     -33.875   3.730  83.050  1.00  0.00    -0.394 OA
ATOM     37  H   UNL     1     -33.657   3.356  82.145  1.00  0.00     0.210 HD
ENDBRANCH  35  36
ENDBRANCH  29  35
BRANCH  30  38
ATOM     38  O   UNL     1     -36.975   5.465  84.751  1.00  0.00    -0.387 OA
ATOM     39  H   UNL     1     -36.005   5.673  84.601  1.00  0.00     0.211 HD
ENDBRANCH  30  38
ENDBRANCH   1  25
TORSDOF 11
ENDMDL
MODEL 6
REMARK VINA RESULT:    -6.889      1.943      6.531
REMARK INTER + INTRA:         -11.431
REMARK INTER:                  -9.841
REMARK INTRA:                  -1.590
REMARK UNBOUND:                -1.522
REMARK SMILES O=c1c(O[C@@H]2O[C@@H](CO)[C@@H](O)[C@@H](O)[C@@H]2O)c(-c2ccc(O)cc2)oc2cc(O)cc(O)c12
REMARK SMILES IDX 4 1 3 2 16 3 24 4 2 5 25 6 1 7 32 8 26 9 30 10 27 11 29 12
REMARK SMILES IDX 17 13 18 14 19 15 20 16 23 17 22 18 21 19 31 21 28 23 5 25
REMARK SMILES IDX 14 26 6 27 12 28 7 29 10 30 15 31 13 33 8 35 9 36 11 38
REMARK H PARENT 21 20 31 22 28 24 15 32 13 34 9 37 11 39
REMARK Flexibility Score: inf
ROOT
ATOM      1  O   UNL     1     -38.047   3.883  79.853  1.00  0.00    -0.454 OA
ENDROOT
BRANCH   1   2
ATOM      2  C   UNL     1     -37.089   4.813  79.349  1.00  0.00     0.214 A 
ATOM      3  C   UNL     1     -35.747   4.998  79.834  1.00  0.00     0.180 A 
ATOM      4  O   UNL     1     -34.904   5.723  79.069  1.00  0.00    -0.452 OA
ATOM      5  C   UNL     1     -37.555   5.704  78.315  1.00  0.00     0.239 A 
ATOM      6  C   UNL     1     -35.321   6.598  78.164  1.00  0.00     0.146 A 
ATOM      7  O   UNL     1     -38.717   5.567  77.845  1.00  0.00    -0.285 OA
ATOM      8  C   UNL     1     -36.709   6.761  77.900  1.00  0.00     0.111 A 
ATOM      9  C   UNL     1     -34.419   7.529  77.654  1.00  0.00     0.094 A 
ATOM     10  C   UNL     1     -37.162   8.022  77.418  1.00  0.00     0.134 A 
ATOM     11  C   UNL     1     -34.854   8.853  77.493  1.00  0.00     0.123 A 
ATOM     12  C   UNL     1     -36.231   9.103  77.399  1.00  0.00     0.093 A 
BRANCH   3  13
ATOM     13  C   UNL     1     -35.387   4.958  81.246  1.00  0.00     0.021 A 
ATOM     14  C   UNL     1     -35.393   3.778  82.014  1.00  0.00     0.016 A 
ATOM     15  C   UNL     1     -34.709   3.779  83.233  1.00  0.00     0.047 A 
ATOM     16  C   UNL     1     -33.999   4.907  83.690  1.00  0.00     0.115 A 
ATOM     17  C   UNL     1     -34.696   6.078  81.686  1.00  0.00     0.016 A 
ATOM     18  C   UNL     1     -34.010   6.051  82.897  1.00  0.00     0.047 A 
BRANCH  16  19
ATOM     19  O   UNL     1     -33.189   4.836  84.832  1.00  0.00    -0.508 OA
ATOM     20  H   UNL     1     -32.203   4.963  84.772  1.00  0.00     0.293 HD
ENDBRANCH  16  19
ENDBRANCH   3  13
BRANCH  10  21
ATOM     21  O   UNL     1     -38.513   8.346  77.098  1.00  0.00    -0.507 OA
ATOM     22  H   UNL     1     -39.069   9.114  77.523  1.00  0.00     0.293 HD
ENDBRANCH  10  21
BRANCH  11  23
ATOM     23  O   UNL     1     -33.919   9.872  77.372  1.00  0.00    -0.508 OA
ATOM     24  H   UNL     1     -34.103  10.719  76.858  1.00  0.00     0.293 HD
ENDBRANCH  11  23
ENDBRANCH   1   2
BRANCH   1  25
ATOM     25  C   UNL     1     -38.894   3.927  80.968  1.00  0.00     0.339 C 
ATOM     26  C   UNL     1     -40.369   4.320  80.615  1.00  0.00     0.214 C 
ATOM     27  O   UNL     1     -38.766   2.718  81.704  1.00  0.00    -0.332 OA
ATOM     28  C   UNL     1     -41.351   3.482  81.473  1.00  0.00     0.180 C 
ATOM     29  C   UNL     1     -39.427   2.765  82.958  1.00  0.00     0.179 C 
ATOM     30  C   UNL     1     -40.854   3.406  82.921  1.00  0.00     0.177 C 
BRANCH  26  31
ATOM     31  O   UNL     1     -40.639   4.116  79.241  1.00  0.00    -0.384 OA
ATOM     32  H   UNL     1     -41.583   3.822  79.169  1.00  0.00     0.211 HD
ENDBRANCH  26  31
BRANCH  28  33
ATOM     33  O   UNL     1     -42.594   4.129  81.425  1.00  0.00    -0.387 OA
ATOM     34  H   UNL     1     -42.999   3.858  80.571  1.00  0.00     0.211 HD
ENDBRANCH  28  33
BRANCH  29  35
ATOM     35  C   UNL     1     -38.440   3.300  84.015  1.00  0.00     0.191 C 
BRANCH  35  36
ATOM     36  O   UNL     1     -37.587   2.249  84.364  1.00  0.00    -0.394 OA
ATOM     37  H   UNL     1     -37.144   1.921  83.526  1.00  0.00     0.210 HD
ENDBRANCH  35  36
ENDBRANCH  29  35
BRANCH  30  38
ATOM     38  O   UNL     1     -40.874   4.690  83.504  1.00  0.00    -0.387 OA
ATOM     39  H   UNL     1     -41.677   5.157  83.125  1.00  0.00     0.211 HD
ENDBRANCH  30  38
ENDBRANCH   1  25
TORSDOF 11
ENDMDL
MODEL 7
REMARK VINA RESULT:    -6.867      9.983     13.252
REMARK INTER + INTRA:         -11.399
REMARK INTER:                  -9.852
REMARK INTRA:                  -1.547
REMARK UNBOUND:                -1.522
REMARK SMILES O=c1c(O[C@@H]2O[C@@H](CO)[C@@H](O)[C@@H](O)[C@@H]2O)c(-c2ccc(O)cc2)oc2cc(O)cc(O)c12
REMARK SMILES IDX 4 1 3 2 16 3 24 4 2 5 25 6 1 7 32 8 26 9 30 10 27 11 29 12
REMARK SMILES IDX 17 13 18 14 19 15 20 16 23 17 22 18 21 19 31 21 28 23 5 25
REMARK SMILES IDX 14 26 6 27 12 28 7 29 10 30 15 31 13 33 8 35 9 36 11 38
REMARK H PARENT 21 20 31 22 28 24 15 32 13 34 9 37 11 39
REMARK Flexibility Score: inf
ROOT
ATOM      1  O   UNL     1     -40.935  -5.419  80.449  1.00  0.00    -0.454 OA
ENDROOT
BRANCH   1   2
ATOM      2  C   UNL     1     -40.056  -6.015  81.401  1.00  0.00     0.214 A 
ATOM      3  C   UNL     1     -39.685  -5.463  82.677  1.00  0.00     0.180 A 
ATOM      4  O   UNL     1     -39.064  -6.283  83.551  1.00  0.00    -0.452 OA
ATOM      5  C   UNL     1     -39.419  -7.243  80.992  1.00  0.00     0.239 A 
ATOM      6  C   UNL     1     -38.415  -7.378  83.180  1.00  0.00     0.146 A 
ATOM      7  O   UNL     1     -39.728  -7.774  79.891  1.00  0.00    -0.285 OA
ATOM      8  C   UNL     1     -38.406  -7.788  81.818  1.00  0.00     0.111 A 
ATOM      9  C   UNL     1     -37.539  -7.986  84.077  1.00  0.00     0.094 A 
ATOM     10  C   UNL     1     -37.298  -8.551  81.348  1.00  0.00     0.134 A 
ATOM     11  C   UNL     1     -36.306  -8.447  83.591  1.00  0.00     0.123 A 
ATOM     12  C   UNL     1     -36.178  -8.706  82.218  1.00  0.00     0.093 A 
BRANCH   3  13
ATOM     13  C   UNL     1     -39.422  -4.047  82.899  1.00  0.00     0.021 A 
ATOM     14  C   UNL     1     -40.440  -3.086  83.054  1.00  0.00     0.016 A 
ATOM     15  C   UNL     1     -40.099  -1.846  83.602  1.00  0.00     0.047 A 
ATOM     16  C   UNL     1     -38.787  -1.551  84.023  1.00  0.00     0.115 A 
ATOM     17  C   UNL     1     -38.125  -3.767  83.304  1.00  0.00     0.016 A 
ATOM     18  C   UNL     1     -37.813  -2.530  83.860  1.00  0.00     0.047 A 
BRANCH  16  19
ATOM     19  O   UNL     1     -38.501  -0.365  84.715  1.00  0.00    -0.508 OA
ATOM     20  H   UNL     1     -38.334   0.487  84.227  1.00  0.00     0.293 HD
ENDBRANCH  16  19
ENDBRANCH   3  13
BRANCH  10  21
ATOM     21  O   UNL     1     -37.140  -9.044  80.020  1.00  0.00    -0.507 OA
ATOM     22  H   UNL     1     -36.318  -8.880  79.407  1.00  0.00     0.293 HD
ENDBRANCH  10  21
BRANCH  11  23
ATOM     23  O   UNL     1     -35.266  -8.689  84.478  1.00  0.00    -0.508 OA
ATOM     24  H   UNL     1     -34.776  -7.948  84.953  1.00  0.00     0.293 HD
ENDBRANCH  11  23
ENDBRANCH   1   2
BRANCH   1  25
ATOM     25  C   UNL     1     -42.330  -5.284  80.421  1.00  0.00     0.339 C 
ATOM     26  C   UNL     1     -43.005  -6.045  79.229  1.00  0.00     0.214 C 
ATOM     27  O   UNL     1     -42.859  -5.604  81.700  1.00  0.00    -0.332 OA
ATOM     28  C   UNL     1     -44.334  -6.686  79.706  1.00  0.00     0.180 C 
ATOM     29  C   UNL     1     -44.238  -5.290  81.818  1.00  0.00     0.179 C 
ATOM     30  C   UNL     1     -45.109  -5.700  80.586  1.00  0.00     0.177 C 
BRANCH  26  31
ATOM     31  O   UNL     1     -42.150  -7.045  78.709  1.00  0.00    -0.384 OA
ATOM     32  H   UNL     1     -41.320  -7.031  79.251  1.00  0.00     0.211 HD
ENDBRANCH  26  31
BRANCH  28  33
ATOM     33  O   UNL     1     -45.077  -6.994  78.558  1.00  0.00    -0.387 OA
ATOM     34  H   UNL     1     -44.869  -6.284  77.911  1.00  0.00     0.211 HD
ENDBRANCH  28  33
BRANCH  29  35
ATOM     35  C   UNL     1     -44.370  -3.840  82.327  1.00  0.00     0.191 C 
BRANCH  35  36
ATOM     36  O   UNL     1     -44.346  -3.880  83.724  1.00  0.00    -0.394 OA
ATOM     37  H   UNL     1     -43.703  -3.179  84.041  1.00  0.00     0.210 HD
ENDBRANCH  35  36
ENDBRANCH  29  35
BRANCH  30  38
ATOM     38  O   UNL     1     -45.505  -4.582  79.821  1.00  0.00    -0.387 OA
ATOM     39  H   UNL     1     -44.888  -3.834  80.079  1.00  0.00     0.211 HD
ENDBRANCH  30  38
ENDBRANCH   1  25
TORSDOF 11
ENDMDL
MODEL 8
REMARK VINA RESULT:    -6.827      1.993      6.399
REMARK INTER + INTRA:         -11.341
REMARK INTER:                 -10.258
REMARK INTRA:                  -1.083
REMARK UNBOUND:                -1.522
REMARK SMILES O=c1c(O[C@@H]2O[C@@H](CO)[C@@H](O)[C@@H](O)[C@@H]2O)c(-c2ccc(O)cc2)oc2cc(O)cc(O)c12
REMARK SMILES IDX 4 1 3 2 16 3 24 4 2 5 25 6 1 7 32 8 26 9 30 10 27 11 29 12
REMARK SMILES IDX 17 13 18 14 19 15 20 16 23 17 22 18 21 19 31 21 28 23 5 25
REMARK SMILES IDX 14 26 6 27 12 28 7 29 10 30 15 31 13 33 8 35 9 36 11 38
REMARK H PARENT 21 20 31 22 28 24 15 32 13 34 9 37 11 39
REMARK Flexibility Score: inf
ROOT
ATOM      1  O   UNL     1     -36.752   4.526  81.758  1.00  0.00    -0.454 OA
ENDROOT
BRANCH   1   2
ATOM      2  C   UNL     1     -36.591   5.578  80.808  1.00  0.00     0.214 A 
ATOM      3  C   UNL     1     -37.517   5.931  79.765  1.00  0.00     0.180 A 
ATOM      4  O   UNL     1     -37.327   7.112  79.139  1.00  0.00    -0.452 OA
ATOM      5  C   UNL     1     -35.335   6.286  80.855  1.00  0.00     0.239 A 
ATOM      6  C   UNL     1     -36.159   7.739  79.116  1.00  0.00     0.146 A 
ATOM      7  O   UNL     1     -34.500   6.024  81.764  1.00  0.00    -0.285 OA
ATOM      8  C   UNL     1     -35.044   7.218  79.830  1.00  0.00     0.111 A 
ATOM      9  C   UNL     1     -35.957   8.765  78.197  1.00  0.00     0.094 A 
ATOM     10  C   UNL     1     -33.736   7.520  79.354  1.00  0.00     0.134 A 
ATOM     11  C   UNL     1     -34.727   8.819  77.523  1.00  0.00     0.123 A 
ATOM     12  C   UNL     1     -33.619   8.173  78.091  1.00  0.00     0.093 A 
BRANCH   3  13
ATOM     13  C   UNL     1     -38.260   4.953  78.980  1.00  0.00     0.021 A 
ATOM     14  C   UNL     1     -37.895   3.597  78.886  1.00  0.00     0.016 A 
ATOM     15  C   UNL     1     -38.845   2.688  78.411  1.00  0.00     0.047 A 
ATOM     16  C   UNL     1     -40.150   3.088  78.058  1.00  0.00     0.115 A 
ATOM     17  C   UNL     1     -39.540   5.361  78.631  1.00  0.00     0.016 A 
ATOM     18  C   UNL     1     -40.473   4.436  78.175  1.00  0.00     0.047 A 
BRANCH  16  19
ATOM     19  O   UNL     1     -41.133   2.140  77.739  1.00  0.00    -0.508 OA
ATOM     20  H   UNL     1     -41.685   1.714  78.449  1.00  0.00     0.293 HD
ENDBRANCH  16  19
ENDBRANCH   3  13
BRANCH  10  21
ATOM     21  O   UNL     1     -32.518   7.086  79.955  1.00  0.00    -0.507 OA
ATOM     22  H   UNL     1     -31.781   7.704  80.346  1.00  0.00     0.293 HD
ENDBRANCH  10  21
BRANCH  11  23
ATOM     23  O   UNL     1     -34.621   9.551  76.348  1.00  0.00    -0.508 OA
ATOM     24  H   UNL     1     -34.290  10.502  76.331  1.00  0.00     0.293 HD
ENDBRANCH  11  23
ENDBRANCH   1   2
BRANCH   1  25
ATOM     25  C   UNL     1     -37.894   3.878  82.249  1.00  0.00     0.339 C 
ATOM     26  C   UNL     1     -37.573   2.771  83.311  1.00  0.00     0.214 C 
ATOM     27  O   UNL     1     -38.839   4.848  82.677  1.00  0.00    -0.332 OA
ATOM     28  C   UNL     1     -38.642   2.800  84.433  1.00  0.00     0.180 C 
ATOM     29  C   UNL     1     -40.103   4.284  82.989  1.00  0.00     0.179 C 
ATOM     30  C   UNL     1     -40.040   2.964  83.826  1.00  0.00     0.177 C 
BRANCH  26  31
ATOM     31  O   UNL     1     -36.286   2.956  83.871  1.00  0.00    -0.384 OA
ATOM     32  H   UNL     1     -36.319   3.785  84.413  1.00  0.00     0.211 HD
ENDBRANCH  26  31
BRANCH  28  33
ATOM     33  O   UNL     1     -38.555   1.579  85.117  1.00  0.00    -0.387 OA
ATOM     34  H   UNL     1     -38.942   0.910  84.510  1.00  0.00     0.211 HD
ENDBRANCH  28  33
BRANCH  29  35
ATOM     35  C   UNL     1     -40.966   4.271  81.712  1.00  0.00     0.191 C 
BRANCH  35  36
ATOM     36  O   UNL     1     -42.202   3.712  82.045  1.00  0.00    -0.394 OA
ATOM     37  H   UNL     1     -42.899   4.427  81.955  1.00  0.00     0.210 HD
ENDBRANCH  35  36
ENDBRANCH  29  35
BRANCH  30  38
ATOM     38  O   UNL     1     -40.363   1.830  83.052  1.00  0.00    -0.387 OA
ATOM     39  H   UNL     1     -39.624   1.731  82.380  1.00  0.00     0.211 HD
ENDBRANCH  30  38
ENDBRANCH   1  25
TORSDOF 11
ENDMDL
MODEL 9
REMARK VINA RESULT:    -6.685      1.951      5.453
REMARK INTER + INTRA:         -11.137
REMARK INTER:                  -9.656
REMARK INTRA:                  -1.481
REMARK UNBOUND:                -1.522
REMARK SMILES O=c1c(O[C@@H]2O[C@@H](CO)[C@@H](O)[C@@H](O)[C@@H]2O)c(-c2ccc(O)cc2)oc2cc(O)cc(O)c12
REMARK SMILES IDX 4 1 3 2 16 3 24 4 2 5 25 6 1 7 32 8 26 9 30 10 27 11 29 12
REMARK SMILES IDX 17 13 18 14 19 15 20 16 23 17 22 18 21 19 31 21 28 23 5 25
REMARK SMILES IDX 14 26 6 27 12 28 7 29 10 30 15 31 13 33 8 35 9 36 11 38
REMARK H PARENT 21 20 31 22 28 24 15 32 13 34 9 37 11 39
REMARK Flexibility Score: inf
ROOT
ATOM      1  O   UNL     1     -36.831   5.918  79.850  1.00  0.00    -0.454 OA
ENDROOT
BRANCH   1   2
ATOM      2  C   UNL     1     -37.893   6.708  79.319  1.00  0.00     0.214 A 
ATOM      3  C   UNL     1     -39.300   6.428  79.431  1.00  0.00     0.180 A 
ATOM      4  O   UNL     1     -40.159   7.417  79.106  1.00  0.00    -0.452 OA
ATOM      5  C   UNL     1     -37.500   7.845  78.522  1.00  0.00     0.239 A 
ATOM      6  C   UNL     1     -39.829   8.430  78.317  1.00  0.00     0.146 A 
ATOM      7  O   UNL     1     -36.279   8.141  78.412  1.00  0.00    -0.285 OA
ATOM      8  C   UNL     1     -38.501   8.563  77.825  1.00  0.00     0.111 A 
ATOM      9  C   UNL     1     -40.837   9.221  77.771  1.00  0.00     0.094 A 
ATOM     10  C   UNL     1     -38.302   9.241  76.589  1.00  0.00     0.134 A 
ATOM     11  C   UNL     1     -40.724   9.602  76.425  1.00  0.00     0.123 A 
ATOM     12  C   UNL     1     -39.456   9.588  75.825  1.00  0.00     0.093 A 
BRANCH   3  13
ATOM     13  C   UNL     1     -39.867   5.089  79.329  1.00  0.00     0.021 A 
ATOM     14  C   UNL     1     -40.726   4.536  80.298  1.00  0.00     0.016 A 
ATOM     15  C   UNL     1     -41.481   3.412  79.947  1.00  0.00     0.047 A 
ATOM     16  C   UNL     1     -41.424   2.847  78.657  1.00  0.00     0.115 A 
ATOM     17  C   UNL     1     -39.797   4.539  78.057  1.00  0.00     0.016 A 
ATOM     18  C   UNL     1     -40.569   3.429  77.727  1.00  0.00     0.047 A 
BRANCH  16  19
ATOM     19  O   UNL     1     -42.305   1.824  78.279  1.00  0.00    -0.508 OA
ATOM     20  H   UNL     1     -43.264   2.015  78.091  1.00  0.00     0.293 HD
ENDBRANCH  16  19
ENDBRANCH   3  13
BRANCH  10  21
ATOM     21  O   UNL     1     -37.040   9.465  75.964  1.00  0.00    -0.507 OA
ATOM     22  H   UNL     1     -36.230   8.817  75.987  1.00  0.00     0.293 HD
ENDBRANCH  10  21
BRANCH  11  23
ATOM     23  O   UNL     1     -41.850  10.037  75.738  1.00  0.00    -0.508 OA
ATOM     24  H   UNL     1     -41.793  10.601  74.906  1.00  0.00     0.293 HD
ENDBRANCH  11  23
ENDBRANCH   1   2
BRANCH   1  25
ATOM     25  C   UNL     1     -36.702   5.214  81.055  1.00  0.00     0.339 C 
ATOM     26  C   UNL     1     -35.337   4.457  81.191  1.00  0.00     0.214 C 
ATOM     27  O   UNL     1     -37.007   6.078  82.140  1.00  0.00    -0.332 OA
ATOM     28  C   UNL     1     -34.827   4.561  82.651  1.00  0.00     0.180 C 
ATOM     29  C   UNL     1     -37.108   5.392  83.378  1.00  0.00     0.179 C 
ATOM     30  C   UNL     1     -35.984   4.334  83.631  1.00  0.00     0.177 C 
BRANCH  26  31
ATOM     31  O   UNL     1     -34.367   4.987  80.307  1.00  0.00    -0.384 OA
ATOM     32  H   UNL     1     -34.756   5.803  79.901  1.00  0.00     0.211 HD
ENDBRANCH  26  31
BRANCH  28  33
ATOM     33  O   UNL     1     -33.853   3.566  82.819  1.00  0.00    -0.387 OA
ATOM     34  H   UNL     1     -33.298   3.603  82.009  1.00  0.00     0.211 HD
ENDBRANCH  28  33
BRANCH  29  35
ATOM     35  C   UNL     1     -38.567   4.934  83.570  1.00  0.00     0.191 C 
BRANCH  35  36
ATOM     36  O   UNL     1     -38.663   4.355  84.838  1.00  0.00    -0.394 OA
ATOM     37  H   UNL     1     -39.607   4.465  85.157  1.00  0.00     0.210 HD
ENDBRANCH  35  36
ENDBRANCH  29  35
BRANCH  30  38
ATOM     38  O   UNL     1     -36.463   3.013  83.511  1.00  0.00    -0.387 OA
ATOM     39  H   UNL     1     -36.990   2.983  82.658  1.00  0.00     0.211 HD
ENDBRANCH  30  38
ENDBRANCH   1  25
TORSDOF 11
ENDMDL
