MODEL 1
REMARK VINA RESULT:    -4.900      0.000      0.000
REMARK INTER + INTRA:         -10.320
REMARK INTER:                  -8.910
REMARK INTRA:                  -1.410
REMARK UNBOUND:                -1.410
REMARK SMILES CCCCCCCCCCCCCCCC(=O)[O-]
REMARK SMILES IDX 9 1 10 2 11 3 12 4 13 5 14 6 15 7 16 8 17 9 18 10 8 11 7 12
REMARK SMILES IDX 6 13 5 14 4 15 3 16 2 17 1 18
REMARK H PARENT
REMARK Flexibility Score: inf
ROOT
ATOM      1  C   UNL     1     -19.870 -26.667  15.560  1.00  0.00     0.000 C 
ENDROOT
BRANCH   1   2
ATOM      2  C   UNL     1     -18.913 -25.639  14.926  1.00  0.00     0.000 C 
BRANCH   2   3
ATOM      3  C   UNL     1     -19.526 -24.246  14.672  1.00  0.00     0.000 C 
BRANCH   3   4
ATOM      4  C   UNL     1     -20.182 -24.063  13.291  1.00  0.00     0.000 C 
BRANCH   4   5
ATOM      5  C   UNL     1     -20.148 -22.605  12.805  1.00  0.00     0.000 C 
BRANCH   5   6
ATOM      6  C   UNL     1     -18.985 -22.331  11.837  1.00  0.00     0.006 C 
BRANCH   6   7
ATOM      7  C   UNL     1     -19.241 -21.122  10.928  1.00  0.00     0.053 C 
BRANCH   7   8
ATOM      8  C   UNL     1     -19.854 -21.563   9.635  1.00  0.00     0.041 C 
ATOM      9  O   UNL     1     -19.486 -22.640   9.096  1.00  0.00    -0.550 OA
ATOM     10  O   UNL     1     -20.865 -20.809   9.052  1.00  0.00    -0.550 OA
ENDBRANCH   7   8
ENDBRANCH   6   7
ENDBRANCH   5   6
ENDBRANCH   4   5
ENDBRANCH   3   4
ENDBRANCH   2   3
ENDBRANCH   1   2
BRANCH   1  11
ATOM     11  C   UNL     1     -20.377 -27.764  14.601  1.00  0.00     0.000 C 
BRANCH  11  12
ATOM     12  C   UNL     1     -21.060 -28.961  15.286  1.00  0.00    -0.000 C 
BRANCH  12  13
ATOM     13  C   UNL     1     -21.245 -28.758  16.796  1.00  0.00    -0.000 C 
BRANCH  13  14
ATOM     14  C   UNL     1     -22.704 -28.997  17.207  1.00  0.00    -0.000 C 
BRANCH  14  15
ATOM     15  C   UNL     1     -23.168 -27.946  18.225  1.00  0.00    -0.000 C 
BRANCH  15  16
ATOM     16  C   UNL     1     -24.032 -26.839  17.593  1.00  0.00    -0.000 C 
BRANCH  16  17
ATOM     17  C   UNL     1     -23.237 -25.685  16.957  1.00  0.00    -0.003 C 
ATOM     18  C   UNL     1     -23.391 -25.620  15.438  1.00  0.00     0.004 C 
ENDBRANCH  16  17
ENDBRANCH  15  16
ENDBRANCH  14  15
ENDBRANCH  13  14
ENDBRANCH  12  13
ENDBRANCH  11  12
ENDBRANCH   1  11
TORSDOF 14
ENDMDL
MODEL 2
REMARK VINA RESULT:    -4.899      3.951      6.318
REMARK INTER + INTRA:         -10.318
REMARK INTER:                  -8.584
REMARK INTRA:                  -1.734
REMARK UNBOUND:                -1.410
REMARK SMILES CCCCCCCCCCCCCCCC(=O)[O-]
REMARK SMILES IDX 9 1 10 2 11 3 12 4 13 5 14 6 15 7 16 8 17 9 18 10 8 11 7 12
REMARK SMILES IDX 6 13 5 14 4 15 3 16 2 17 1 18
REMARK H PARENT
REMARK Flexibility Score: inf
ROOT
ATOM      1  C   UNL     1     -17.985 -26.255  14.286  1.00  0.00     0.000 C 
ENDROOT
BRANCH   1   2
ATOM      2  C   UNL     1     -16.486 -25.927  14.129  1.00  0.00     0.000 C 
BRANCH   2   3
ATOM      3  C   UNL     1     -16.056 -25.502  12.711  1.00  0.00     0.000 C 
BRANCH   3   4
ATOM      4  C   UNL     1     -17.193 -24.988  11.809  1.00  0.00     0.000 C 
BRANCH   4   5
ATOM      5  C   UNL     1     -17.486 -25.928  10.628  1.00  0.00     0.000 C 
BRANCH   5   6
ATOM      6  C   UNL     1     -16.233 -26.674  10.141  1.00  0.00     0.006 C 
BRANCH   6   7
ATOM      7  C   UNL     1     -16.521 -27.606   8.956  1.00  0.00     0.053 C 
BRANCH   7   8
ATOM      8  C   UNL     1     -15.779 -27.147   7.740  1.00  0.00     0.041 C 
ATOM      9  O   UNL     1     -15.845 -27.809   6.671  1.00  0.00    -0.550 OA
ATOM     10  O   UNL     1     -15.055 -25.961   7.774  1.00  0.00    -0.550 OA
ENDBRANCH   7   8
ENDBRANCH   6   7
ENDBRANCH   5   6
ENDBRANCH   4   5
ENDBRANCH   3   4
ENDBRANCH   2   3
ENDBRANCH   1   2
BRANCH   1  11
ATOM     11  C   UNL     1     -18.753 -25.346  15.266  1.00  0.00     0.000 C 
BRANCH  11  12
ATOM     12  C   UNL     1     -19.578 -24.228  14.605  1.00  0.00    -0.000 C 
BRANCH  12  13
ATOM     13  C   UNL     1     -20.496 -24.746  13.488  1.00  0.00    -0.000 C 
BRANCH  13  14
ATOM     14  C   UNL     1     -20.654 -23.698  12.379  1.00  0.00    -0.000 C 
BRANCH  14  15
ATOM     15  C   UNL     1     -19.850 -22.430  12.701  1.00  0.00    -0.000 C 
BRANCH  15  16
ATOM     16  C   UNL     1     -19.048 -21.906  11.496  1.00  0.00    -0.000 C 
BRANCH  16  17
ATOM     17  C   UNL     1     -19.888 -21.607  10.242  1.00  0.00    -0.003 C 
ATOM     18  C   UNL     1     -19.604 -22.569   9.090  1.00  0.00     0.004 C 
ENDBRANCH  16  17
ENDBRANCH  15  16
ENDBRANCH  14  15
ENDBRANCH  13  14
ENDBRANCH  12  13
ENDBRANCH  11  12
ENDBRANCH   1  11
TORSDOF 14
ENDMDL
MODEL 3
REMARK VINA RESULT:    -4.872      4.377      7.352
REMARK INTER + INTRA:         -10.269
REMARK INTER:                  -8.621
REMARK INTRA:                  -1.648
REMARK UNBOUND:                -1.410
REMARK SMILES CCCCCCCCCCCCCCCC(=O)[O-]
REMARK SMILES IDX 9 1 10 2 11 3 12 4 13 5 14 6 15 7 16 8 17 9 18 10 8 11 7 12
REMARK SMILES IDX 6 13 5 14 4 15 3 16 2 17 1 18
REMARK H PARENT
REMARK Flexibility Score: inf
ROOT
ATOM      1  C   UNL     1     -18.775 -23.597  12.299  1.00  0.00     0.000 C 
ENDROOT
BRANCH   1   2
ATOM      2  C   UNL     1     -19.952 -23.549  13.294  1.00  0.00     0.000 C 
BRANCH   2   3
ATOM      3  C   UNL     1     -19.668 -24.181  14.672  1.00  0.00     0.000 C 
BRANCH   3   4
ATOM      4  C   UNL     1     -20.366 -25.529  14.930  1.00  0.00     0.000 C 
BRANCH   4   5
ATOM      5  C   UNL     1     -20.491 -25.858  16.426  1.00  0.00     0.000 C 
BRANCH   5   6
ATOM      6  C   UNL     1     -21.722 -26.723  16.741  1.00  0.00     0.006 C 
BRANCH   6   7
ATOM      7  C   UNL     1     -21.884 -27.900  15.770  1.00  0.00     0.053 C 
BRANCH   7   8
ATOM      8  C   UNL     1     -22.188 -29.158  16.522  1.00  0.00     0.041 C 
ATOM      9  O   UNL     1     -22.145 -30.272  15.936  1.00  0.00    -0.550 OA
ATOM     10  O   UNL     1     -22.472 -29.104  17.881  1.00  0.00    -0.550 OA
ENDBRANCH   7   8
ENDBRANCH   6   7
ENDBRANCH   5   6
ENDBRANCH   4   5
ENDBRANCH   3   4
ENDBRANCH   2   3
ENDBRANCH   1   2
BRANCH   1  11
ATOM     11  C   UNL     1     -18.517 -24.977  11.660  1.00  0.00     0.000 C 
BRANCH  11  12
ATOM     12  C   UNL     1     -17.075 -25.498  11.799  1.00  0.00    -0.000 C 
BRANCH  12  13
ATOM     13  C   UNL     1     -16.643 -25.674  13.262  1.00  0.00    -0.000 C 
BRANCH  13  14
ATOM     14  C   UNL     1     -17.213 -26.972  13.849  1.00  0.00    -0.000 C 
BRANCH  14  15
ATOM     15  C   UNL     1     -17.139 -26.961  15.382  1.00  0.00    -0.000 C 
BRANCH  15  16
ATOM     16  C   UNL     1     -16.306 -25.790  15.934  1.00  0.00    -0.000 C 
BRANCH  16  17
ATOM     17  C   UNL     1     -15.121 -26.205  16.825  1.00  0.00    -0.003 C 
ATOM     18  C   UNL     1     -13.878 -25.345  16.604  1.00  0.00     0.004 C 
ENDBRANCH  16  17
ENDBRANCH  15  16
ENDBRANCH  14  15
ENDBRANCH  13  14
ENDBRANCH  12  13
ENDBRANCH  11  12
ENDBRANCH   1  11
TORSDOF 14
ENDMDL
MODEL 4
REMARK VINA RESULT:    -4.820      4.888      7.344
REMARK INTER + INTRA:         -10.175
REMARK INTER:                  -8.661
REMARK INTRA:                  -1.514
REMARK UNBOUND:                -1.410
REMARK SMILES CCCCCCCCCCCCCCCC(=O)[O-]
REMARK SMILES IDX 9 1 10 2 11 3 12 4 13 5 14 6 15 7 16 8 17 9 18 10 8 11 7 12
REMARK SMILES IDX 6 13 5 14 4 15 3 16 2 17 1 18
REMARK H PARENT
REMARK Flexibility Score: inf
ROOT
ATOM      1  C   UNL     1     -19.786 -24.741  12.011  1.00  0.00     0.000 C 
ENDROOT
BRANCH   1   2
ATOM      2  C   UNL     1     -18.583 -25.518  11.440  1.00  0.00     0.000 C 
BRANCH   2   3
ATOM      3  C   UNL     1     -17.214 -25.135  12.039  1.00  0.00     0.000 C 
BRANCH   3   4
ATOM      4  C   UNL     1     -16.006 -25.871  11.431  1.00  0.00     0.000 C 
BRANCH   4   5
ATOM      5  C   UNL     1     -16.415 -26.943  10.408  1.00  0.00     0.000 C 
BRANCH   5   6
ATOM      6  C   UNL     1     -15.558 -26.900   9.132  1.00  0.00     0.006 C 
BRANCH   6   7
ATOM      7  C   UNL     1     -16.403 -26.874   7.852  1.00  0.00     0.053 C 
BRANCH   7   8
ATOM      8  C   UNL     1     -15.947 -25.770   6.950  1.00  0.00     0.041 C 
ATOM      9  O   UNL     1     -14.991 -25.026   7.294  1.00  0.00    -0.550 OA
ATOM     10  O   UNL     1     -16.547 -25.593   5.709  1.00  0.00    -0.550 OA
ENDBRANCH   7   8
ENDBRANCH   6   7
ENDBRANCH   5   6
ENDBRANCH   4   5
ENDBRANCH   3   4
ENDBRANCH   2   3
ENDBRANCH   1   2
BRANCH   1  11
ATOM     11  C   UNL     1     -19.421 -23.525  12.886  1.00  0.00     0.000 C 
BRANCH  11  12
ATOM     12  C   UNL     1     -19.967 -22.176  12.385  1.00  0.00    -0.000 C 
BRANCH  12  13
ATOM     13  C   UNL     1     -18.917 -21.354  11.624  1.00  0.00    -0.000 C 
BRANCH  13  14
ATOM     14  C   UNL     1     -19.473 -20.867  10.280  1.00  0.00    -0.000 C 
BRANCH  14  15
ATOM     15  C   UNL     1     -19.862 -22.051   9.383  1.00  0.00    -0.000 C 
BRANCH  15  16
ATOM     16  C   UNL     1     -20.977 -21.703   8.380  1.00  0.00    -0.000 C 
BRANCH  16  17
ATOM     17  C   UNL     1     -22.342 -22.347   8.682  1.00  0.00    -0.003 C 
ATOM     18  C   UNL     1     -22.233 -23.589   9.565  1.00  0.00     0.004 C 
ENDBRANCH  16  17
ENDBRANCH  15  16
ENDBRANCH  14  15
ENDBRANCH  13  14
ENDBRANCH  12  13
ENDBRANCH  11  12
ENDBRANCH   1  11
TORSDOF 14
ENDMDL
MODEL 5
REMARK VINA RESULT:    -4.790      3.358      5.358
REMARK INTER + INTRA:         -10.120
REMARK INTER:                  -8.435
REMARK INTRA:                  -1.685
REMARK UNBOUND:                -1.410
REMARK SMILES CCCCCCCCCCCCCCCC(=O)[O-]
REMARK SMILES IDX 9 1 10 2 11 3 12 4 13 5 14 6 15 7 16 8 17 9 18 10 8 11 7 12
REMARK SMILES IDX 6 13 5 14 4 15 3 16 2 17 1 18
REMARK H PARENT
REMARK Flexibility Score: inf
ROOT
ATOM      1  C   UNL     1     -20.613 -23.202  13.112  1.00  0.00     0.000 C 
ENDROOT
BRANCH   1   2
ATOM      2  C   UNL     1     -19.359 -22.683  12.381  1.00  0.00     0.000 C 
BRANCH   2   3
ATOM      3  C   UNL     1     -19.498 -21.277  11.762  1.00  0.00     0.000 C 
BRANCH   3   4
ATOM      4  C   UNL     1     -19.274 -21.208  10.240  1.00  0.00     0.000 C 
BRANCH   4   5
ATOM      5  C   UNL     1     -19.661 -22.511   9.522  1.00  0.00     0.000 C 
BRANCH   5   6
ATOM      6  C   UNL     1     -21.162 -22.581   9.193  1.00  0.00     0.006 C 
BRANCH   6   7
ATOM      7  C   UNL     1     -21.618 -21.451   8.261  1.00  0.00     0.053 C 
BRANCH   7   8
ATOM      8  C   UNL     1     -23.015 -21.700   7.785  1.00  0.00     0.041 C 
ATOM      9  O   UNL     1     -23.275 -22.719   7.091  1.00  0.00    -0.550 OA
ATOM     10  O   UNL     1     -24.038 -20.834   8.149  1.00  0.00    -0.550 OA
ENDBRANCH   7   8
ENDBRANCH   6   7
ENDBRANCH   5   6
ENDBRANCH   4   5
ENDBRANCH   3   4
ENDBRANCH   2   3
ENDBRANCH   1   2
BRANCH   1  11
ATOM     11  C   UNL     1     -20.391 -24.459  13.978  1.00  0.00     0.000 C 
BRANCH  11  12
ATOM     12  C   UNL     1     -19.085 -24.463  14.793  1.00  0.00    -0.000 C 
BRANCH  12  13
ATOM     13  C   UNL     1     -18.628 -25.878  15.178  1.00  0.00    -0.000 C 
BRANCH  13  14
ATOM     14  C   UNL     1     -17.968 -26.583  13.985  1.00  0.00    -0.000 C 
BRANCH  14  15
ATOM     15  C   UNL     1     -16.692 -25.848  13.549  1.00  0.00    -0.000 C 
BRANCH  15  16
ATOM     16  C   UNL     1     -16.771 -25.317  12.106  1.00  0.00    -0.000 C 
BRANCH  16  17
ATOM     17  C   UNL     1     -17.989 -25.808  11.303  1.00  0.00    -0.003 C 
ATOM     18  C   UNL     1     -17.743 -25.826   9.795  1.00  0.00     0.004 C 
ENDBRANCH  16  17
ENDBRANCH  15  16
ENDBRANCH  14  15
ENDBRANCH  13  14
ENDBRANCH  12  13
ENDBRANCH  11  12
ENDBRANCH   1  11
TORSDOF 14
ENDMDL
MODEL 6
REMARK VINA RESULT:    -4.766      8.842     10.306
REMARK INTER + INTRA:         -10.076
REMARK INTER:                  -8.208
REMARK INTRA:                  -1.868
REMARK UNBOUND:                -1.410
REMARK SMILES CCCCCCCCCCCCCCCC(=O)[O-]
REMARK SMILES IDX 9 1 10 2 11 3 12 4 13 5 14 6 15 7 16 8 17 9 18 10 8 11 7 12
REMARK SMILES IDX 6 13 5 14 4 15 3 16 2 17 1 18
REMARK H PARENT
REMARK Flexibility Score: inf
ROOT
ATOM      1  C   UNL     1     -22.258 -30.979   4.704  1.00  0.00     0.000 C 
ENDROOT
BRANCH   1   2
ATOM      2  C   UNL     1     -23.029 -30.583   3.429  1.00  0.00     0.000 C 
BRANCH   2   3
ATOM      3  C   UNL     1     -23.887 -29.308   3.554  1.00  0.00     0.000 C 
BRANCH   3   4
ATOM      4  C   UNL     1     -24.040 -28.761   4.985  1.00  0.00     0.000 C 
BRANCH   4   5
ATOM      5  C   UNL     1     -25.509 -28.615   5.413  1.00  0.00     0.000 C 
BRANCH   5   6
ATOM      6  C   UNL     1     -25.843 -29.433   6.671  1.00  0.00     0.006 C 
BRANCH   6   7
ATOM      7  C   UNL     1     -25.669 -28.628   7.965  1.00  0.00     0.053 C 
BRANCH   7   8
ATOM      8  C   UNL     1     -27.004 -28.259   8.532  1.00  0.00     0.041 C 
ATOM      9  O   UNL     1     -27.077 -27.625   9.618  1.00  0.00    -0.550 OA
ATOM     10  O   UNL     1     -28.166 -28.572   7.837  1.00  0.00    -0.550 OA
ENDBRANCH   7   8
ENDBRANCH   6   7
ENDBRANCH   5   6
ENDBRANCH   4   5
ENDBRANCH   3   4
ENDBRANCH   2   3
ENDBRANCH   1   2
BRANCH   1  11
ATOM     11  C   UNL     1     -22.946 -32.049   5.576  1.00  0.00     0.000 C 
BRANCH  11  12
ATOM     12  C   UNL     1     -22.934 -31.762   7.088  1.00  0.00    -0.000 C 
BRANCH  12  13
ATOM     13  C   UNL     1     -21.867 -30.734   7.491  1.00  0.00    -0.000 C 
BRANCH  13  14
ATOM     14  C   UNL     1     -22.360 -29.858   8.650  1.00  0.00    -0.000 C 
BRANCH  14  15
ATOM     15  C   UNL     1     -22.782 -30.719   9.849  1.00  0.00    -0.000 C 
BRANCH  15  16
ATOM     16  C   UNL     1     -21.587 -31.379  10.563  1.00  0.00    -0.000 C 
BRANCH  16  17
ATOM     17  C   UNL     1     -21.735 -32.892  10.803  1.00  0.00    -0.003 C 
ATOM     18  C   UNL     1     -23.192 -33.348  10.863  1.00  0.00     0.004 C 
ENDBRANCH  16  17
ENDBRANCH  15  16
ENDBRANCH  14  15
ENDBRANCH  13  14
ENDBRANCH  12  13
ENDBRANCH  11  12
ENDBRANCH   1  11
TORSDOF 14
ENDMDL
MODEL 7
REMARK VINA RESULT:    -4.747      8.240     10.105
REMARK INTER + INTRA:         -10.042
REMARK INTER:                  -7.614
REMARK INTRA:                  -2.428
REMARK UNBOUND:                -1.410
REMARK SMILES CCCCCCCCCCCCCCCC(=O)[O-]
REMARK SMILES IDX 9 1 10 2 11 3 12 4 13 5 14 6 15 7 16 8 17 9 18 10 8 11 7 12
REMARK SMILES IDX 6 13 5 14 4 15 3 16 2 17 1 18
REMARK H PARENT
REMARK Flexibility Score: inf
ROOT
ATOM      1  C   UNL     1     -25.193 -28.125   5.065  1.00  0.00     0.000 C 
ENDROOT
BRANCH   1   2
ATOM      2  C   UNL     1     -25.739 -29.242   5.976  1.00  0.00     0.000 C 
BRANCH   2   3
ATOM      3  C   UNL     1     -27.256 -29.182   6.247  1.00  0.00     0.000 C 
BRANCH   3   4
ATOM      4  C   UNL     1     -27.649 -28.796   7.684  1.00  0.00     0.000 C 
BRANCH   4   5
ATOM      5  C   UNL     1     -26.458 -28.827   8.655  1.00  0.00     0.000 C 
BRANCH   5   6
ATOM      6  C   UNL     1     -26.573 -27.772   9.768  1.00  0.00     0.006 C 
BRANCH   6   7
ATOM      7  C   UNL     1     -27.094 -26.424   9.254  1.00  0.00     0.053 C 
BRANCH   7   8
ATOM      8  C   UNL     1     -26.319 -25.299   9.865  1.00  0.00     0.041 C 
ATOM      9  O   UNL     1     -25.681 -24.497   9.132  1.00  0.00    -0.550 OA
ATOM     10  O   UNL     1     -26.340 -25.107  11.241  1.00  0.00    -0.550 OA
ENDBRANCH   7   8
ENDBRANCH   6   7
ENDBRANCH   5   6
ENDBRANCH   4   5
ENDBRANCH   3   4
ENDBRANCH   2   3
ENDBRANCH   1   2
BRANCH   1  11
ATOM     11  C   UNL     1     -23.888 -27.464   5.554  1.00  0.00     0.000 C 
BRANCH  11  12
ATOM     12  C   UNL     1     -24.024 -26.633   6.843  1.00  0.00    -0.000 C 
BRANCH  12  13
ATOM     13  C   UNL     1     -23.261 -27.243   8.028  1.00  0.00    -0.000 C 
BRANCH  13  14
ATOM     14  C   UNL     1     -22.413 -28.439   7.576  1.00  0.00    -0.000 C 
BRANCH  14  15
ATOM     15  C   UNL     1     -22.872 -29.732   8.266  1.00  0.00    -0.000 C 
BRANCH  15  16
ATOM     16  C   UNL     1     -22.305 -31.000   7.602  1.00  0.00    -0.000 C 
BRANCH  16  17
ATOM     17  C   UNL     1     -23.204 -31.616   6.516  1.00  0.00    -0.003 C 
ATOM     18  C   UNL     1     -22.745 -31.280   5.098  1.00  0.00     0.004 C 
ENDBRANCH  16  17
ENDBRANCH  15  16
ENDBRANCH  14  15
ENDBRANCH  13  14
ENDBRANCH  12  13
ENDBRANCH  11  12
ENDBRANCH   1  11
TORSDOF 14
ENDMDL
MODEL 8
REMARK VINA RESULT:    -4.746     10.214     12.264
REMARK INTER + INTRA:         -10.040
REMARK INTER:                  -8.340
REMARK INTRA:                  -1.700
REMARK UNBOUND:                -1.410
REMARK SMILES CCCCCCCCCCCCCCCC(=O)[O-]
REMARK SMILES IDX 9 1 10 2 11 3 12 4 13 5 14 6 15 7 16 8 17 9 18 10 8 11 7 12
REMARK SMILES IDX 6 13 5 14 4 15 3 16 2 17 1 18
REMARK H PARENT
REMARK Flexibility Score: inf
ROOT
ATOM      1  C   UNL     1     -19.344 -27.554   1.241  1.00  0.00     0.000 C 
ENDROOT
BRANCH   1   2
ATOM      2  C   UNL     1     -19.317 -26.139   0.629  1.00  0.00     0.000 C 
BRANCH   2   3
ATOM      3  C   UNL     1     -20.214 -25.947  -0.611  1.00  0.00     0.000 C 
BRANCH   3   4
ATOM      4  C   UNL     1     -21.300 -24.864  -0.470  1.00  0.00     0.000 C 
BRANCH   4   5
ATOM      5  C   UNL     1     -22.442 -25.287   0.468  1.00  0.00     0.000 C 
BRANCH   5   6
ATOM      6  C   UNL     1     -22.396 -24.559   1.822  1.00  0.00     0.006 C 
BRANCH   6   7
ATOM      7  C   UNL     1     -23.289 -23.311   1.855  1.00  0.00     0.053 C 
BRANCH   7   8
ATOM      8  C   UNL     1     -22.450 -22.072   1.907  1.00  0.00     0.041 C 
ATOM      9  O   UNL     1     -21.910 -21.629   0.859  1.00  0.00    -0.550 OA
ATOM     10  O   UNL     1     -22.306 -21.380   3.103  1.00  0.00    -0.550 OA
ENDBRANCH   7   8
ENDBRANCH   6   7
ENDBRANCH   5   6
ENDBRANCH   4   5
ENDBRANCH   3   4
ENDBRANCH   2   3
ENDBRANCH   1   2
BRANCH   1  11
ATOM     11  C   UNL     1     -20.417 -27.775   2.327  1.00  0.00     0.000 C 
BRANCH  11  12
ATOM     12  C   UNL     1     -21.565 -28.717   1.923  1.00  0.00    -0.000 C 
BRANCH  12  13
ATOM     13  C   UNL     1     -22.903 -28.340   2.577  1.00  0.00    -0.000 C 
BRANCH  13  14
ATOM     14  C   UNL     1     -22.681 -27.751   3.976  1.00  0.00    -0.000 C 
BRANCH  14  15
ATOM     15  C   UNL     1     -23.866 -26.868   4.395  1.00  0.00    -0.000 C 
BRANCH  15  16
ATOM     16  C   UNL     1     -24.661 -27.453   5.576  1.00  0.00    -0.000 C 
BRANCH  16  17
ATOM     17  C   UNL     1     -25.581 -28.633   5.214  1.00  0.00    -0.003 C 
ATOM     18  C   UNL     1     -26.177 -29.323   6.440  1.00  0.00     0.004 C 
ENDBRANCH  16  17
ENDBRANCH  15  16
ENDBRANCH  14  15
ENDBRANCH  13  14
ENDBRANCH  12  13
ENDBRANCH  11  12
ENDBRANCH   1  11
TORSDOF 14
ENDMDL
MODEL 9
REMARK VINA RESULT:    -4.738      5.978      8.626
REMARK INTER + INTRA:         -10.025
REMARK INTER:                  -8.662
REMARK INTRA:                  -1.363
REMARK UNBOUND:                -1.410
REMARK SMILES CCCCCCCCCCCCCCCC(=O)[O-]
REMARK SMILES IDX 9 1 10 2 11 3 12 4 13 5 14 6 15 7 16 8 17 9 18 10 8 11 7 12
REMARK SMILES IDX 6 13 5 14 4 15 3 16 2 17 1 18
REMARK H PARENT
REMARK Flexibility Score: inf
ROOT
ATOM      1  C   UNL     1     -26.955 -25.541  15.949  1.00  0.00     0.000 C 
ENDROOT
BRANCH   1   2
ATOM      2  C   UNL     1     -25.615 -24.790  15.819  1.00  0.00     0.000 C 
BRANCH   2   3
ATOM      3  C   UNL     1     -24.358 -25.681  15.890  1.00  0.00     0.000 C 
BRANCH   3   4
ATOM      4  C   UNL     1     -23.938 -26.107  17.309  1.00  0.00     0.000 C 
BRANCH   4   5
ATOM      5  C   UNL     1     -23.328 -27.518  17.350  1.00  0.00     0.000 C 
BRANCH   5   6
ATOM      6  C   UNL     1     -21.879 -27.551  16.837  1.00  0.00     0.006 C 
BRANCH   6   7
ATOM      7  C   UNL     1     -21.632 -28.683  15.830  1.00  0.00     0.053 C 
BRANCH   7   8
ATOM      8  C   UNL     1     -21.672 -30.010  16.520  1.00  0.00     0.041 C 
ATOM      9  O   UNL     1     -20.984 -30.206  17.557  1.00  0.00    -0.550 OA
ATOM     10  O   UNL     1     -22.507 -31.015  16.047  1.00  0.00    -0.550 OA
ENDBRANCH   7   8
ENDBRANCH   6   7
ENDBRANCH   5   6
ENDBRANCH   4   5
ENDBRANCH   3   4
ENDBRANCH   2   3
ENDBRANCH   1   2
BRANCH   1  11
ATOM     11  C   UNL     1     -27.762 -25.666  14.641  1.00  0.00     0.000 C 
BRANCH  11  12
ATOM     12  C   UNL     1     -28.230 -24.330  14.035  1.00  0.00    -0.000 C 
BRANCH  12  13
ATOM     13  C   UNL     1     -29.657 -24.398  13.472  1.00  0.00    -0.000 C 
BRANCH  13  14
ATOM     14  C   UNL     1     -30.669 -24.709  14.582  1.00  0.00    -0.000 C 
BRANCH  14  15
ATOM     15  C   UNL     1     -31.107 -23.426  15.303  1.00  0.00    -0.000 C 
BRANCH  15  16
ATOM     16  C   UNL     1     -31.181 -23.592  16.832  1.00  0.00    -0.000 C 
BRANCH  16  17
ATOM     17  C   UNL     1     -29.815 -23.673  17.539  1.00  0.00    -0.003 C 
ATOM     18  C   UNL     1     -28.919 -22.472  17.244  1.00  0.00     0.004 C 
ENDBRANCH  16  17
ENDBRANCH  15  16
ENDBRANCH  14  15
ENDBRANCH  13  14
ENDBRANCH  12  13
ENDBRANCH  11  12
ENDBRANCH   1  11
TORSDOF 14
ENDMDL
