MODEL 1
REMARK VINA RESULT:    -0.368      0.000      0.000
REMARK INTER + INTRA:          -0.399
REMARK INTER:                  -0.971
REMARK INTRA:                   0.572
REMARK UNBOUND:                 0.572
REMARK SMILES CCCCCCCCCCCCCCCCCCCCCCCCCCCCCC(=O)[O-]
REMARK SMILES IDX 16 1 17 2 18 3 19 4 20 5 21 6 22 7 23 8 24 9 25 10 26 11
REMARK SMILES IDX 27 12 28 13 29 14 30 15 31 16 32 17 15 18 14 19 13 20 12 21
REMARK SMILES IDX 11 22 10 23 9 24 8 25 7 26 6 27 5 28 4 29 3 30 2 31 1 32
REMARK H PARENT
REMARK Flexibility Score: inf
ROOT
ATOM      1  C   UNL     1      -0.111  20.729  15.579  1.00  0.00     0.000 C 
ENDROOT
BRANCH   1   2
ATOM      2  C   UNL     1      -1.315  20.263  16.412  1.00  0.00     0.000 C 
BRANCH   2   3
ATOM      3  C   UNL     1      -0.974  20.230  17.909  1.00  0.00     0.000 C 
BRANCH   3   4
ATOM      4  C   UNL     1      -2.217  20.077  18.802  1.00  0.00     0.000 C 
BRANCH   4   5
ATOM      5  C   UNL     1      -3.467  20.745  18.205  1.00  0.00     0.000 C 
BRANCH   5   6
ATOM      6  C   UNL     1      -4.727  19.876  18.348  1.00  0.00     0.000 C 
BRANCH   6   7
ATOM      7  C   UNL     1      -5.837  20.229  17.335  1.00  0.00     0.000 C 
BRANCH   7   8
ATOM      8  C   UNL     1      -5.380  20.020  15.882  1.00  0.00     0.000 C 
BRANCH   8   9
ATOM      9  C   UNL     1      -6.003  21.033  14.906  1.00  0.00     0.000 C 
BRANCH   9  10
ATOM     10  C   UNL     1      -7.546  21.065  14.957  1.00  0.00     0.000 C 
BRANCH  10  11
ATOM     11  C   UNL     1      -8.099  20.403  16.229  1.00  0.00     0.000 C 
BRANCH  11  12
ATOM     12  C   UNL     1      -8.393  21.448  17.310  1.00  0.00     0.000 C 
BRANCH  12  13
ATOM     13  C   UNL     1      -9.125  20.821  18.502  1.00  0.00     0.006 C 
BRANCH  13  14
ATOM     14  C   UNL     1      -8.134  20.191  19.484  1.00  0.00     0.053 C 
BRANCH  14  15
ATOM     15  C   UNL     1      -7.637  21.208  20.464  1.00  0.00     0.041 C 
ATOM     16  O   UNL     1      -7.640  20.956  21.699  1.00  0.00    -0.550 OA
ATOM     17  O   UNL     1      -7.172  22.438  20.014  1.00  0.00    -0.550 OA
ENDBRANCH  14  15
ENDBRANCH  13  14
ENDBRANCH  12  13
ENDBRANCH  11  12
ENDBRANCH  10  11
ENDBRANCH   9  10
ENDBRANCH   8   9
ENDBRANCH   7   8
ENDBRANCH   6   7
ENDBRANCH   5   6
ENDBRANCH   4   5
ENDBRANCH   3   4
ENDBRANCH   2   3
ENDBRANCH   1   2
BRANCH   1  18
ATOM     18  C   UNL     1       1.193  20.030  16.005  1.00  0.00     0.000 C 
BRANCH  18  19
ATOM     19  C   UNL     1       2.418  20.945  15.840  1.00  0.00     0.000 C 
BRANCH  19  20
ATOM     20  C   UNL     1       3.745  20.173  15.868  1.00  0.00     0.000 C 
BRANCH  20  21
ATOM     21  C   UNL     1       4.844  20.839  15.027  1.00  0.00     0.000 C 
BRANCH  21  22
ATOM     22  C   UNL     1       6.016  19.875  14.804  1.00  0.00     0.000 C 
BRANCH  22  23
ATOM     23  C   UNL     1       7.260  20.619  14.293  1.00  0.00     0.000 C 
BRANCH  23  24
ATOM     24  C   UNL     1       8.574  19.944  14.737  1.00  0.00    -0.000 C 
BRANCH  24  25
ATOM     25  C   UNL     1       9.811  20.850  14.621  1.00  0.00    -0.000 C 
BRANCH  25  26
ATOM     26  C   UNL     1      10.063  21.349  13.187  1.00  0.00    -0.000 C 
BRANCH  26  27
ATOM     27  C   UNL     1      10.515  20.226  12.242  1.00  0.00    -0.000 C 
BRANCH  27  28
ATOM     28  C   UNL     1       9.484  19.924  11.140  1.00  0.00    -0.000 C 
BRANCH  28  29
ATOM     29  C   UNL     1      10.117  19.938   9.733  1.00  0.00    -0.000 C 
BRANCH  29  30
ATOM     30  C   UNL     1       9.710  21.155   8.883  1.00  0.00    -0.000 C 
BRANCH  30  31
ATOM     31  C   UNL     1      10.894  22.071   8.545  1.00  0.00    -0.003 C 
ATOM     32  C   UNL     1      10.646  23.495   9.037  1.00  0.00     0.004 C 
ENDBRANCH  30  31
ENDBRANCH  29  30
ENDBRANCH  28  29
ENDBRANCH  27  28
ENDBRANCH  26  27
ENDBRANCH  25  26
ENDBRANCH  24  25
ENDBRANCH  23  24
ENDBRANCH  22  23
ENDBRANCH  21  22
ENDBRANCH  20  21
ENDBRANCH  19  20
ENDBRANCH  18  19
ENDBRANCH   1  18
TORSDOF 28
ENDMDL
MODEL 2
REMARK VINA RESULT:     1.665      5.360     15.771
REMARK INTER + INTRA:           4.963
REMARK INTER:                   6.702
REMARK INTRA:                  -1.739
REMARK UNBOUND:                 0.572
REMARK SMILES CCCCCCCCCCCCCCCCCCCCCCCCCCCCCC(=O)[O-]
REMARK SMILES IDX 16 1 17 2 18 3 19 4 20 5 21 6 22 7 23 8 24 9 25 10 26 11
REMARK SMILES IDX 27 12 28 13 29 14 30 15 31 16 32 17 15 18 14 19 13 20 12 21
REMARK SMILES IDX 11 22 10 23 9 24 8 25 7 26 6 27 5 28 4 29 3 30 2 31 1 32
REMARK H PARENT
REMARK Flexibility Score: inf
ROOT
ATOM      1  C   UNL     1       0.633  21.706  16.363  1.00  0.00     0.000 C 
ENDROOT
BRANCH   1   2
ATOM      2  C   UNL     1       1.223  20.294  16.229  1.00  0.00     0.000 C 
BRANCH   2   3
ATOM      3  C   UNL     1       2.510  20.309  15.390  1.00  0.00     0.000 C 
BRANCH   3   4
ATOM      4  C   UNL     1       3.306  21.617  15.542  1.00  0.00     0.000 C 
BRANCH   4   5
ATOM      5  C   UNL     1       4.613  21.432  16.331  1.00  0.00     0.000 C 
BRANCH   5   6
ATOM      6  C   UNL     1       5.786  20.996  15.439  1.00  0.00     0.000 C 
BRANCH   6   7
ATOM      7  C   UNL     1       6.649  19.875  16.059  1.00  0.00     0.000 C 
BRANCH   7   8
ATOM      8  C   UNL     1       8.099  19.914  15.550  1.00  0.00     0.000 C 
BRANCH   8   9
ATOM      9  C   UNL     1       8.377  21.110  14.624  1.00  0.00     0.000 C 
BRANCH   9  10
ATOM     10  C   UNL     1       9.762  21.052  13.946  1.00  0.00     0.000 C 
BRANCH  10  11
ATOM     11  C   UNL     1       9.706  20.376  12.567  1.00  0.00     0.000 C 
BRANCH  11  12
ATOM     12  C   UNL     1      10.966  20.685  11.751  1.00  0.00     0.000 C 
BRANCH  12  13
ATOM     13  C   UNL     1      10.797  21.975  10.941  1.00  0.00     0.006 C 
BRANCH  13  14
ATOM     14  C   UNL     1      10.922  23.208  11.841  1.00  0.00     0.053 C 
BRANCH  14  15
ATOM     15  C   UNL     1      10.676  24.462  11.061  1.00  0.00     0.041 C 
ATOM     16  O   UNL     1      10.619  25.575  11.649  1.00  0.00    -0.550 OA
ATOM     17  O   UNL     1      10.507  24.403   9.683  1.00  0.00    -0.550 OA
ENDBRANCH  14  15
ENDBRANCH  13  14
ENDBRANCH  12  13
ENDBRANCH  11  12
ENDBRANCH  10  11
ENDBRANCH   9  10
ENDBRANCH   8   9
ENDBRANCH   7   8
ENDBRANCH   6   7
ENDBRANCH   5   6
ENDBRANCH   4   5
ENDBRANCH   3   4
ENDBRANCH   2   3
ENDBRANCH   1   2
BRANCH   1  18
ATOM     18  C   UNL     1      -0.900  21.709  16.234  1.00  0.00     0.000 C 
BRANCH  18  19
ATOM     19  C   UNL     1      -1.365  21.205  14.856  1.00  0.00     0.000 C 
BRANCH  19  20
ATOM     20  C   UNL     1      -2.429  20.102  14.955  1.00  0.00     0.000 C 
BRANCH  20  21
ATOM     21  C   UNL     1      -2.925  19.875  16.390  1.00  0.00     0.000 C 
BRANCH  21  22
ATOM     22  C   UNL     1      -4.315  20.492  16.587  1.00  0.00     0.000 C 
BRANCH  22  23
ATOM     23  C   UNL     1      -5.131  20.454  15.284  1.00  0.00     0.000 C 
BRANCH  23  24
ATOM     24  C   UNL     1      -6.431  21.279  15.379  1.00  0.00    -0.000 C 
BRANCH  24  25
ATOM     25  C   UNL     1      -7.656  20.586  14.759  1.00  0.00    -0.000 C 
BRANCH  25  26
ATOM     26  C   UNL     1      -8.621  20.011  15.811  1.00  0.00    -0.000 C 
BRANCH  26  27
ATOM     27  C   UNL     1      -7.986  19.915  17.207  1.00  0.00    -0.000 C 
BRANCH  27  28
ATOM     28  C   UNL     1      -8.987  20.208  18.338  1.00  0.00    -0.000 C 
BRANCH  28  29
ATOM     29  C   UNL     1      -8.867  21.656  18.860  1.00  0.00    -0.000 C 
BRANCH  29  30
ATOM     30  C   UNL     1      -7.579  21.920  19.659  1.00  0.00    -0.000 C 
BRANCH  30  31
ATOM     31  C   UNL     1      -7.372  20.921  20.806  1.00  0.00    -0.003 C 
ATOM     32  C   UNL     1      -8.211  21.299  22.023  1.00  0.00     0.004 C 
ENDBRANCH  30  31
ENDBRANCH  29  30
ENDBRANCH  28  29
ENDBRANCH  27  28
ENDBRANCH  26  27
ENDBRANCH  25  26
ENDBRANCH  24  25
ENDBRANCH  23  24
ENDBRANCH  22  23
ENDBRANCH  21  22
ENDBRANCH  20  21
ENDBRANCH  19  20
ENDBRANCH  18  19
ENDBRANCH   1  18
TORSDOF 28
ENDMDL
MODEL 3
REMARK VINA RESULT:     2.065      5.340     15.731
REMARK INTER + INTRA:           6.018
REMARK INTER:                   7.024
REMARK INTRA:                  -1.006
REMARK UNBOUND:                 0.572
REMARK SMILES CCCCCCCCCCCCCCCCCCCCCCCCCCCCCC(=O)[O-]
REMARK SMILES IDX 16 1 17 2 18 3 19 4 20 5 21 6 22 7 23 8 24 9 25 10 26 11
REMARK SMILES IDX 27 12 28 13 29 14 30 15 31 16 32 17 15 18 14 19 13 20 12 21
REMARK SMILES IDX 11 22 10 23 9 24 8 25 7 26 6 27 5 28 4 29 3 30 2 31 1 32
REMARK H PARENT
REMARK Flexibility Score: inf
ROOT
ATOM      1  C   UNL     1      -2.219  21.621  17.035  1.00  0.00     0.000 C 
ENDROOT
BRANCH   1   2
ATOM      2  C   UNL     1      -0.978  20.870  17.541  1.00  0.00     0.000 C 
BRANCH   2   3
ATOM      3  C   UNL     1       0.180  20.976  16.538  1.00  0.00     0.000 C 
BRANCH   3   4
ATOM      4  C   UNL     1       1.269  19.915  16.769  1.00  0.00     0.000 C 
BRANCH   4   5
ATOM      5  C   UNL     1       2.376  19.955  15.702  1.00  0.00     0.000 C 
BRANCH   5   6
ATOM      6  C   UNL     1       3.779  20.112  16.311  1.00  0.00     0.000 C 
BRANCH   6   7
ATOM      7  C   UNL     1       4.894  20.274  15.255  1.00  0.00     0.000 C 
BRANCH   7   8
ATOM      8  C   UNL     1       6.274  19.876  15.805  1.00  0.00     0.000 C 
BRANCH   8   9
ATOM      9  C   UNL     1       7.381  20.874  15.425  1.00  0.00     0.000 C 
BRANCH   9  10
ATOM     10  C   UNL     1       8.072  20.542  14.085  1.00  0.00     0.000 C 
BRANCH  10  11
ATOM     11  C   UNL     1       9.602  20.494  14.217  1.00  0.00     0.000 C 
BRANCH  11  12
ATOM     12  C   UNL     1      10.256  20.076  12.896  1.00  0.00     0.000 C 
BRANCH  12  13
ATOM     13  C   UNL     1      10.904  21.275  12.196  1.00  0.00     0.006 C 
BRANCH  13  14
ATOM     14  C   UNL     1      10.002  22.510  12.274  1.00  0.00     0.053 C 
BRANCH  14  15
ATOM     15  C   UNL     1      10.589  23.647  11.498  1.00  0.00     0.041 C 
ATOM     16  O   UNL     1      10.956  23.479  10.304  1.00  0.00    -0.550 OA
ATOM     17  O   UNL     1      10.733  24.895  12.092  1.00  0.00    -0.550 OA
ENDBRANCH  14  15
ENDBRANCH  13  14
ENDBRANCH  12  13
ENDBRANCH  11  12
ENDBRANCH  10  11
ENDBRANCH   9  10
ENDBRANCH   8   9
ENDBRANCH   7   8
ENDBRANCH   6   7
ENDBRANCH   5   6
ENDBRANCH   4   5
ENDBRANCH   3   4
ENDBRANCH   2   3
ENDBRANCH   1   2
BRANCH   1  18
ATOM     18  C   UNL     1      -2.225  21.766  15.503  1.00  0.00     0.000 C 
BRANCH  18  19
ATOM     19  C   UNL     1      -2.418  20.414  14.795  1.00  0.00     0.000 C 
BRANCH  19  20
ATOM     20  C   UNL     1      -3.881  19.948  14.793  1.00  0.00     0.000 C 
BRANCH  20  21
ATOM     21  C   UNL     1      -4.878  21.105  14.955  1.00  0.00     0.000 C 
BRANCH  21  22
ATOM     22  C   UNL     1      -6.305  20.570  15.125  1.00  0.00     0.000 C 
BRANCH  22  23
ATOM     23  C   UNL     1      -7.345  21.685  14.933  1.00  0.00     0.000 C 
BRANCH  23  24
ATOM     24  C   UNL     1      -8.767  21.241  15.335  1.00  0.00    -0.000 C 
BRANCH  24  25
ATOM     25  C   UNL     1      -8.798  20.172  16.440  1.00  0.00    -0.000 C 
BRANCH  25  26
ATOM     26  C   UNL     1      -8.935  20.767  17.853  1.00  0.00    -0.000 C 
BRANCH  26  27
ATOM     27  C   UNL     1      -8.305  19.876  18.933  1.00  0.00    -0.000 C 
BRANCH  27  28
ATOM     28  C   UNL     1      -6.988  20.451  19.484  1.00  0.00    -0.000 C 
BRANCH  28  29
ATOM     29  C   UNL     1      -7.203  21.247  20.789  1.00  0.00    -0.000 C 
BRANCH  29  30
ATOM     30  C   UNL     1      -8.143  20.553  21.789  1.00  0.00    -0.000 C 
BRANCH  30  31
ATOM     31  C   UNL     1      -7.524  20.398  23.184  1.00  0.00    -0.003 C 
ATOM     32  C   UNL     1      -6.012  20.208  23.096  1.00  0.00     0.004 C 
ENDBRANCH  30  31
ENDBRANCH  29  30
ENDBRANCH  28  29
ENDBRANCH  27  28
ENDBRANCH  26  27
ENDBRANCH  25  26
ENDBRANCH  24  25
ENDBRANCH  23  24
ENDBRANCH  22  23
ENDBRANCH  21  22
ENDBRANCH  20  21
ENDBRANCH  19  20
ENDBRANCH  18  19
ENDBRANCH   1  18
TORSDOF 28
ENDMDL
MODEL 4
REMARK VINA RESULT:     2.486      4.487     15.641
REMARK INTER + INTRA:           7.128
REMARK INTER:                   8.100
REMARK INTRA:                  -0.972
REMARK UNBOUND:                 0.572
REMARK SMILES CCCCCCCCCCCCCCCCCCCCCCCCCCCCCC(=O)[O-]
REMARK SMILES IDX 16 1 17 2 18 3 19 4 20 5 21 6 22 7 23 8 24 9 25 10 26 11
REMARK SMILES IDX 27 12 28 13 29 14 30 15 31 16 32 17 15 18 14 19 13 20 12 21
REMARK SMILES IDX 11 22 10 23 9 24 8 25 7 26 6 27 5 28 4 29 3 30 2 31 1 32
REMARK H PARENT
REMARK Flexibility Score: inf
ROOT
ATOM      1  C   UNL     1       1.251  22.231  15.754  1.00  0.00     0.000 C 
ENDROOT
BRANCH   1   2
ATOM      2  C   UNL     1       2.538  22.039  14.938  1.00  0.00     0.000 C 
BRANCH   2   3
ATOM      3  C   UNL     1       3.589  21.256  15.738  1.00  0.00     0.000 C 
BRANCH   3   4
ATOM      4  C   UNL     1       4.951  21.187  15.028  1.00  0.00     0.000 C 
BRANCH   4   5
ATOM      5  C   UNL     1       5.153  19.876  14.250  1.00  0.00     0.000 C 
BRANCH   5   6
ATOM      6  C   UNL     1       5.423  20.111  12.755  1.00  0.00     0.000 C 
BRANCH   6   7
ATOM      7  C   UNL     1       6.815  20.717  12.469  1.00  0.00     0.000 C 
BRANCH   7   8
ATOM      8  C   UNL     1       7.941  19.925  13.154  1.00  0.00     0.000 C 
BRANCH   8   9
ATOM      9  C   UNL     1       9.253  19.932  12.349  1.00  0.00     0.000 C 
BRANCH   9  10
ATOM     10  C   UNL     1       9.859  21.341  12.178  1.00  0.00     0.000 C 
BRANCH  10  11
ATOM     11  C   UNL     1      10.734  21.746  13.375  1.00  0.00     0.000 C 
BRANCH  11  12
ATOM     12  C   UNL     1      10.980  20.554  14.305  1.00  0.00     0.000 C 
BRANCH  12  13
ATOM     13  C   UNL     1      11.125  21.010  15.762  1.00  0.00     0.006 C 
BRANCH  13  14
ATOM     14  C   UNL     1      10.705  22.474  15.923  1.00  0.00     0.053 C 
BRANCH  14  15
ATOM     15  C   UNL     1       9.953  22.673  17.202  1.00  0.00     0.041 C 
ATOM     16  O   UNL     1      10.397  23.456  18.084  1.00  0.00    -0.550 OA
ATOM     17  O   UNL     1       8.762  21.992  17.423  1.00  0.00    -0.550 OA
ENDBRANCH  14  15
ENDBRANCH  13  14
ENDBRANCH  12  13
ENDBRANCH  11  12
ENDBRANCH  10  11
ENDBRANCH   9  10
ENDBRANCH   8   9
ENDBRANCH   7   8
ENDBRANCH   6   7
ENDBRANCH   5   6
ENDBRANCH   4   5
ENDBRANCH   3   4
ENDBRANCH   2   3
ENDBRANCH   1   2
BRANCH   1  18
ATOM     18  C   UNL     1       0.501  20.906  15.975  1.00  0.00     0.000 C 
BRANCH  18  19
ATOM     19  C   UNL     1      -1.021  21.111  16.068  1.00  0.00     0.000 C 
BRANCH  19  20
ATOM     20  C   UNL     1      -1.507  21.315  17.510  1.00  0.00     0.000 C 
BRANCH  20  21
ATOM     21  C   UNL     1      -2.136  20.051  18.114  1.00  0.00     0.000 C 
BRANCH  21  22
ATOM     22  C   UNL     1      -3.604  19.920  17.690  1.00  0.00     0.000 C 
BRANCH  22  23
ATOM     23  C   UNL     1      -4.551  20.374  18.812  1.00  0.00     0.000 C 
BRANCH  23  24
ATOM     24  C   UNL     1      -6.001  19.898  18.588  1.00  0.00    -0.000 C 
BRANCH  24  25
ATOM     25  C   UNL     1      -6.466  19.981  17.124  1.00  0.00    -0.000 C 
BRANCH  25  26
ATOM     26  C   UNL     1      -7.968  20.288  16.984  1.00  0.00    -0.000 C 
BRANCH  26  27
ATOM     27  C   UNL     1      -8.347  21.660  17.562  1.00  0.00    -0.000 C 
BRANCH  27  28
ATOM     28  C   UNL     1      -9.102  21.553  18.899  1.00  0.00    -0.000 C 
BRANCH  28  29
ATOM     29  C   UNL     1      -8.158  21.227  20.075  1.00  0.00    -0.000 C 
BRANCH  29  30
ATOM     30  C   UNL     1      -8.888  20.997  21.410  1.00  0.00    -0.000 C 
BRANCH  30  31
ATOM     31  C   UNL     1      -7.931  20.893  22.605  1.00  0.00    -0.003 C 
ATOM     32  C   UNL     1      -8.619  20.248  23.805  1.00  0.00     0.004 C 
ENDBRANCH  30  31
ENDBRANCH  29  30
ENDBRANCH  28  29
ENDBRANCH  27  28
ENDBRANCH  26  27
ENDBRANCH  25  26
ENDBRANCH  24  25
ENDBRANCH  23  24
ENDBRANCH  22  23
ENDBRANCH  21  22
ENDBRANCH  20  21
ENDBRANCH  19  20
ENDBRANCH  18  19
ENDBRANCH   1  18
TORSDOF 28
ENDMDL
MODEL 5
REMARK VINA RESULT:     2.585      1.421      3.232
REMARK INTER + INTRA:           7.388
REMARK INTER:                   9.057
REMARK INTRA:                  -1.669
REMARK UNBOUND:                 0.572
REMARK SMILES CCCCCCCCCCCCCCCCCCCCCCCCCCCCCC(=O)[O-]
REMARK SMILES IDX 16 1 17 2 18 3 19 4 20 5 21 6 22 7 23 8 24 9 25 10 26 11
REMARK SMILES IDX 27 12 28 13 29 14 30 15 31 16 32 17 15 18 14 19 13 20 12 21
REMARK SMILES IDX 11 22 10 23 9 24 8 25 7 26 6 27 5 28 4 29 3 30 2 31 1 32
REMARK H PARENT
REMARK Flexibility Score: inf
ROOT
ATOM      1  C   UNL     1       5.065  21.196  15.650  1.00  0.00     0.000 C 
ENDROOT
BRANCH   1   2
ATOM      2  C   UNL     1       3.974  20.297  15.048  1.00  0.00     0.000 C 
BRANCH   2   3
ATOM      3  C   UNL     1       2.909  19.943  16.097  1.00  0.00     0.000 C 
BRANCH   3   4
ATOM      4  C   UNL     1       1.490  19.877  15.509  1.00  0.00     0.000 C 
BRANCH   4   5
ATOM      5  C   UNL     1       0.416  20.393  16.482  1.00  0.00     0.000 C 
BRANCH   5   6
ATOM      6  C   UNL     1      -0.754  21.082  15.760  1.00  0.00     0.000 C 
BRANCH   6   7
ATOM      7  C   UNL     1      -2.115  20.392  15.997  1.00  0.00     0.000 C 
BRANCH   7   8
ATOM      8  C   UNL     1      -3.272  21.151  15.327  1.00  0.00     0.000 C 
BRANCH   8   9
ATOM      9  C   UNL     1      -4.570  20.327  15.260  1.00  0.00     0.000 C 
BRANCH   9  10
ATOM     10  C   UNL     1      -5.774  21.024  15.929  1.00  0.00     0.000 C 
BRANCH  10  11
ATOM     11  C   UNL     1      -6.983  21.125  14.987  1.00  0.00     0.000 C 
BRANCH  11  12
ATOM     12  C   UNL     1      -8.203  20.413  15.580  1.00  0.00     0.000 C 
BRANCH  12  13
ATOM     13  C   UNL     1      -7.941  19.977  17.026  1.00  0.00     0.006 C 
BRANCH  13  14
ATOM     14  C   UNL     1      -8.900  20.678  17.993  1.00  0.00     0.053 C 
BRANCH  14  15
ATOM     15  C   UNL     1      -8.196  21.055  19.259  1.00  0.00     0.041 C 
ATOM     16  O   UNL     1      -7.038  21.550  19.220  1.00  0.00    -0.550 OA
ATOM     17  O   UNL     1      -8.818  20.858  20.486  1.00  0.00    -0.550 OA
ENDBRANCH  14  15
ENDBRANCH  13  14
ENDBRANCH  12  13
ENDBRANCH  11  12
ENDBRANCH  10  11
ENDBRANCH   9  10
ENDBRANCH   8   9
ENDBRANCH   7   8
ENDBRANCH   6   7
ENDBRANCH   5   6
ENDBRANCH   4   5
ENDBRANCH   3   4
ENDBRANCH   2   3
ENDBRANCH   1   2
BRANCH   1  18
ATOM     18  C   UNL     1       5.425  20.788  17.089  1.00  0.00     0.000 C 
BRANCH  18  19
ATOM     19  C   UNL     1       6.693  21.500  17.592  1.00  0.00     0.000 C 
BRANCH  19  20
ATOM     20  C   UNL     1       7.967  21.013  16.886  1.00  0.00     0.000 C 
BRANCH  20  21
ATOM     21  C   UNL     1       8.922  22.158  16.517  1.00  0.00     0.000 C 
BRANCH  21  22
ATOM     22  C   UNL     1       9.663  21.846  15.211  1.00  0.00     0.000 C 
BRANCH  22  23
ATOM     23  C   UNL     1       8.699  21.830  14.014  1.00  0.00     0.000 C 
BRANCH  23  24
ATOM     24  C   UNL     1       8.767  20.509  13.220  1.00  0.00    -0.000 C 
BRANCH  24  25
ATOM     25  C   UNL     1      10.184  19.921  13.106  1.00  0.00    -0.000 C 
BRANCH  25  26
ATOM     26  C   UNL     1      11.094  20.718  12.154  1.00  0.00    -0.000 C 
BRANCH  26  27
ATOM     27  C   UNL     1      10.321  21.342  10.982  1.00  0.00    -0.000 C 
BRANCH  27  28
ATOM     28  C   UNL     1      10.522  20.575   9.663  1.00  0.00    -0.000 C 
BRANCH  28  29
ATOM     29  C   UNL     1      10.979  21.503   8.517  1.00  0.00    -0.000 C 
BRANCH  29  30
ATOM     30  C   UNL     1      11.117  22.978   8.933  1.00  0.00    -0.000 C 
BRANCH  30  31
ATOM     31  C   UNL     1       9.882  23.817   8.578  1.00  0.00    -0.003 C 
ATOM     32  C   UNL     1       9.751  25.022   9.506  1.00  0.00     0.004 C 
ENDBRANCH  30  31
ENDBRANCH  29  30
ENDBRANCH  28  29
ENDBRANCH  27  28
ENDBRANCH  26  27
ENDBRANCH  25  26
ENDBRANCH  24  25
ENDBRANCH  23  24
ENDBRANCH  22  23
ENDBRANCH  21  22
ENDBRANCH  20  21
ENDBRANCH  19  20
ENDBRANCH  18  19
ENDBRANCH   1  18
TORSDOF 28
ENDMDL
