MODEL 1
REMARK VINA RESULT:    -4.536      0.000      0.000
REMARK INTER + INTRA:         -16.369
REMARK INTER:                 -11.431
REMARK INTRA:                  -4.938
REMARK UNBOUND:                -4.938
REMARK SMILES CCCCCCCCCCCCCCCCCCCCCCCCCCCC(=O)[O-]
REMARK SMILES IDX 15 1 16 2 17 3 18 4 19 5 20 6 21 7 22 8 23 9 24 10 25 11
REMARK SMILES IDX 26 12 27 13 28 14 29 15 30 16 14 17 13 18 12 19 11 20 10 21
REMARK SMILES IDX 9 22 8 23 7 24 6 25 5 26 4 27 3 28 2 29 1 30
REMARK H PARENT
REMARK Flexibility Score: inf
ROOT
ATOM      1  C   UNL     1      15.520  25.212  53.226  1.00  0.00     0.000 C 
ENDROOT
BRANCH   1   2
ATOM      2  C   UNL     1      14.576  26.337  52.770  1.00  0.00     0.000 C 
BRANCH   2   3
ATOM      3  C   UNL     1      13.705  25.938  51.567  1.00  0.00     0.000 C 
BRANCH   3   4
ATOM      4  C   UNL     1      14.211  24.691  50.810  1.00  0.00     0.000 C 
BRANCH   4   5
ATOM      5  C   UNL     1      15.203  25.054  49.692  1.00  0.00     0.000 C 
BRANCH   5   6
ATOM      6  C   UNL     1      14.505  25.463  48.385  1.00  0.00     0.000 C 
BRANCH   6   7
ATOM      7  C   UNL     1      15.041  26.787  47.815  1.00  0.00     0.000 C 
BRANCH   7   8
ATOM      8  C   UNL     1      15.903  27.553  48.832  1.00  0.00     0.000 C 
BRANCH   8   9
ATOM      9  C   UNL     1      15.269  28.891  49.255  1.00  0.00     0.000 C 
BRANCH   9  10
ATOM     10  C   UNL     1      15.627  29.282  50.698  1.00  0.00     0.000 C 
BRANCH  10  11
ATOM     11  C   UNL     1      14.422  29.841  51.471  1.00  0.00     0.000 C 
BRANCH  11  12
ATOM     12  C   UNL     1      14.224  31.352  51.252  1.00  0.00     0.006 C 
BRANCH  12  13
ATOM     13  C   UNL     1      15.532  32.144  51.089  1.00  0.00     0.053 C 
BRANCH  13  14
ATOM     14  C   UNL     1      15.302  33.624  51.124  1.00  0.00     0.041 C 
ATOM     15  O   UNL     1      14.380  34.105  51.837  1.00  0.00    -0.550 OA
ATOM     16  O   UNL     1      16.078  34.469  50.341  1.00  0.00    -0.550 OA
ENDBRANCH  13  14
ENDBRANCH  12  13
ENDBRANCH  11  12
ENDBRANCH  10  11
ENDBRANCH   9  10
ENDBRANCH   8   9
ENDBRANCH   7   8
ENDBRANCH   6   7
ENDBRANCH   5   6
ENDBRANCH   4   5
ENDBRANCH   3   4
ENDBRANCH   2   3
ENDBRANCH   1   2
BRANCH   1  17
ATOM     17  C   UNL     1      16.810  25.743  53.876  1.00  0.00     0.000 C 
BRANCH  17  18
ATOM     18  C   UNL     1      18.113  25.401  53.122  1.00  0.00     0.000 C 
BRANCH  18  19
ATOM     19  C   UNL     1      18.296  26.114  51.767  1.00  0.00     0.000 C 
BRANCH  19  20
ATOM     20  C   UNL     1      18.651  27.611  51.865  1.00  0.00     0.000 C 
BRANCH  20  21
ATOM     21  C   UNL     1      20.138  27.939  51.633  1.00  0.00     0.000 C 
BRANCH  21  22
ATOM     22  C   UNL     1      20.983  27.939  52.926  1.00  0.00    -0.000 C 
BRANCH  22  23
ATOM     23  C   UNL     1      21.438  29.350  53.335  1.00  0.00    -0.000 C 
BRANCH  23  24
ATOM     24  C   UNL     1      21.138  29.663  54.811  1.00  0.00    -0.000 C 
BRANCH  24  25
ATOM     25  C   UNL     1      20.051  30.746  55.004  1.00  0.00    -0.000 C 
BRANCH  25  26
ATOM     26  C   UNL     1      19.609  31.393  53.679  1.00  0.00    -0.000 C 
BRANCH  26  27
ATOM     27  C   UNL     1      18.120  31.134  53.355  1.00  0.00    -0.000 C 
BRANCH  27  28
ATOM     28  C   UNL     1      17.347  30.635  54.587  1.00  0.00    -0.000 C 
BRANCH  28  29
ATOM     29  C   UNL     1      16.674  29.276  54.351  1.00  0.00    -0.003 C 
ATOM     30  C   UNL     1      15.739  28.870  55.494  1.00  0.00     0.004 C 
ENDBRANCH  28  29
ENDBRANCH  27  28
ENDBRANCH  26  27
ENDBRANCH  25  26
ENDBRANCH  24  25
ENDBRANCH  23  24
ENDBRANCH  22  23
ENDBRANCH  21  22
ENDBRANCH  20  21
ENDBRANCH  19  20
ENDBRANCH  18  19
ENDBRANCH  17  18
ENDBRANCH   1  17
TORSDOF 26
ENDMDL
MODEL 2
REMARK VINA RESULT:    -4.514      2.919      6.984
REMARK INTER + INTRA:         -16.313
REMARK INTER:                 -11.209
REMARK INTRA:                  -5.104
REMARK UNBOUND:                -4.938
REMARK SMILES CCCCCCCCCCCCCCCCCCCCCCCCCCCC(=O)[O-]
REMARK SMILES IDX 15 1 16 2 17 3 18 4 19 5 20 6 21 7 22 8 23 9 24 10 25 11
REMARK SMILES IDX 26 12 27 13 28 14 29 15 30 16 14 17 13 18 12 19 11 20 10 21
REMARK SMILES IDX 9 22 8 23 7 24 6 25 5 26 4 27 3 28 2 29 1 30
REMARK H PARENT
REMARK Flexibility Score: inf
ROOT
ATOM      1  C   UNL     1      17.984  31.161  56.048  1.00  0.00     0.000 C 
ENDROOT
BRANCH   1   2
ATOM      2  C   UNL     1      19.132  30.984  55.040  1.00  0.00     0.000 C 
BRANCH   2   3
ATOM      3  C   UNL     1      18.639  30.823  53.592  1.00  0.00     0.000 C 
BRANCH   3   4
ATOM      4  C   UNL     1      19.137  29.537  52.898  1.00  0.00     0.000 C 
BRANCH   4   5
ATOM      5  C   UNL     1      20.232  28.825  53.711  1.00  0.00     0.000 C 
BRANCH   5   6
ATOM      6  C   UNL     1      20.849  27.633  52.962  1.00  0.00     0.000 C 
BRANCH   6   7
ATOM      7  C   UNL     1      20.311  27.489  51.529  1.00  0.00     0.000 C 
BRANCH   7   8
ATOM      8  C   UNL     1      21.419  27.637  50.473  1.00  0.00     0.000 C 
BRANCH   8   9
ATOM      9  C   UNL     1      22.730  28.186  51.064  1.00  0.00     0.000 C 
BRANCH   9  10
ATOM     10  C   UNL     1      23.075  29.587  50.533  1.00  0.00     0.000 C 
BRANCH  10  11
ATOM     11  C   UNL     1      22.056  30.649  50.975  1.00  0.00     0.000 C 
BRANCH  11  12
ATOM     12  C   UNL     1      22.706  31.816  51.741  1.00  0.00     0.006 C 
BRANCH  12  13
ATOM     13  C   UNL     1      22.246  31.946  53.203  1.00  0.00     0.053 C 
BRANCH  13  14
ATOM     14  C   UNL     1      23.146  31.206  54.144  1.00  0.00     0.041 C 
ATOM     15  O   UNL     1      24.323  30.916  53.799  1.00  0.00    -0.550 OA
ATOM     16  O   UNL     1      22.673  30.802  55.386  1.00  0.00    -0.550 OA
ENDBRANCH  13  14
ENDBRANCH  12  13
ENDBRANCH  11  12
ENDBRANCH  10  11
ENDBRANCH   9  10
ENDBRANCH   8   9
ENDBRANCH   7   8
ENDBRANCH   6   7
ENDBRANCH   5   6
ENDBRANCH   4   5
ENDBRANCH   3   4
ENDBRANCH   2   3
ENDBRANCH   1   2
BRANCH   1  17
ATOM     17  C   UNL     1      16.619  30.734  55.478  1.00  0.00     0.000 C 
BRANCH  17  18
ATOM     18  C   UNL     1      16.157  29.316  55.876  1.00  0.00     0.000 C 
BRANCH  18  19
ATOM     19  C   UNL     1      15.746  28.404  54.701  1.00  0.00     0.000 C 
BRANCH  19  20
ATOM     20  C   UNL     1      16.179  26.932  54.842  1.00  0.00     0.000 C 
BRANCH  20  21
ATOM     21  C   UNL     1      17.335  26.507  53.915  1.00  0.00     0.000 C 
BRANCH  21  22
ATOM     22  C   UNL     1      17.077  25.179  53.172  1.00  0.00    -0.000 C 
BRANCH  22  23
ATOM     23  C   UNL     1      15.674  24.609  53.444  1.00  0.00    -0.000 C 
BRANCH  23  24
ATOM     24  C   UNL     1      15.071  23.911  52.214  1.00  0.00    -0.000 C 
BRANCH  24  25
ATOM     25  C   UNL     1      13.931  24.714  51.545  1.00  0.00    -0.000 C 
BRANCH  25  26
ATOM     26  C   UNL     1      14.042  26.230  51.790  1.00  0.00    -0.000 C 
BRANCH  26  27
ATOM     27  C   UNL     1      14.675  26.984  50.598  1.00  0.00    -0.000 C 
BRANCH  27  28
ATOM     28  C   UNL     1      15.533  28.170  51.067  1.00  0.00    -0.000 C 
BRANCH  28  29
ATOM     29  C   UNL     1      14.707  29.444  51.292  1.00  0.00    -0.003 C 
ATOM     30  C   UNL     1      15.570  30.654  51.662  1.00  0.00     0.004 C 
ENDBRANCH  28  29
ENDBRANCH  27  28
ENDBRANCH  26  27
ENDBRANCH  25  26
ENDBRANCH  24  25
ENDBRANCH  23  24
ENDBRANCH  22  23
ENDBRANCH  21  22
ENDBRANCH  20  21
ENDBRANCH  19  20
ENDBRANCH  18  19
ENDBRANCH  17  18
ENDBRANCH   1  17
TORSDOF 26
ENDMDL
MODEL 3
REMARK VINA RESULT:    -4.479      2.142      6.371
REMARK INTER + INTRA:         -16.225
REMARK INTER:                 -10.614
REMARK INTRA:                  -5.610
REMARK UNBOUND:                -4.938
REMARK SMILES CCCCCCCCCCCCCCCCCCCCCCCCCCCC(=O)[O-]
REMARK SMILES IDX 15 1 16 2 17 3 18 4 19 5 20 6 21 7 22 8 23 9 24 10 25 11
REMARK SMILES IDX 26 12 27 13 28 14 29 15 30 16 14 17 13 18 12 19 11 20 10 21
REMARK SMILES IDX 9 22 8 23 7 24 6 25 5 26 4 27 3 28 2 29 1 30
REMARK H PARENT
REMARK Flexibility Score: inf
ROOT
ATOM      1  C   UNL     1      16.860  29.725  54.903  1.00  0.00     0.000 C 
ENDROOT
BRANCH   1   2
ATOM      2  C   UNL     1      15.753  28.777  55.394  1.00  0.00     0.000 C 
BRANCH   2   3
ATOM      3  C   UNL     1      16.127  27.293  55.247  1.00  0.00     0.000 C 
BRANCH   3   4
ATOM      4  C   UNL     1      15.393  26.572  54.094  1.00  0.00     0.000 C 
BRANCH   4   5
ATOM      5  C   UNL     1      16.075  25.247  53.711  1.00  0.00     0.000 C 
BRANCH   5   6
ATOM      6  C   UNL     1      17.255  25.441  52.745  1.00  0.00     0.000 C 
BRANCH   6   7
ATOM      7  C   UNL     1      18.619  25.344  53.448  1.00  0.00     0.000 C 
BRANCH   7   8
ATOM      8  C   UNL     1      19.569  26.482  53.039  1.00  0.00     0.000 C 
BRANCH   8   9
ATOM      9  C   UNL     1      18.816  27.745  52.583  1.00  0.00     0.000 C 
BRANCH   9  10
ATOM     10  C   UNL     1      19.728  28.980  52.505  1.00  0.00     0.000 C 
BRANCH  10  11
ATOM     11  C   UNL     1      20.563  29.174  53.781  1.00  0.00     0.000 C 
BRANCH  11  12
ATOM     12  C   UNL     1      20.483  30.610  54.332  1.00  0.00     0.006 C 
BRANCH  12  13
ATOM     13  C   UNL     1      19.992  31.651  53.312  1.00  0.00     0.053 C 
BRANCH  13  14
ATOM     14  C   UNL     1      21.126  32.398  52.681  1.00  0.00     0.041 C 
ATOM     15  O   UNL     1      22.126  31.773  52.234  1.00  0.00    -0.550 OA
ATOM     16  O   UNL     1      21.099  33.786  52.621  1.00  0.00    -0.550 OA
ENDBRANCH  13  14
ENDBRANCH  12  13
ENDBRANCH  11  12
ENDBRANCH  10  11
ENDBRANCH   9  10
ENDBRANCH   8   9
ENDBRANCH   7   8
ENDBRANCH   6   7
ENDBRANCH   5   6
ENDBRANCH   4   5
ENDBRANCH   3   4
ENDBRANCH   2   3
ENDBRANCH   1   2
BRANCH   1  17
ATOM     17  C   UNL     1      16.306  30.945  54.144  1.00  0.00     0.000 C 
BRANCH  17  18
ATOM     18  C   UNL     1      16.530  30.925  52.617  1.00  0.00     0.000 C 
BRANCH  18  19
ATOM     19  C   UNL     1      15.245  30.911  51.763  1.00  0.00     0.000 C 
BRANCH  19  20
ATOM     20  C   UNL     1      14.618  29.519  51.559  1.00  0.00     0.000 C 
BRANCH  20  21
ATOM     21  C   UNL     1      15.578  28.454  50.996  1.00  0.00     0.000 C 
BRANCH  21  22
ATOM     22  C   UNL     1      15.612  28.403  49.453  1.00  0.00    -0.000 C 
BRANCH  22  23
ATOM     23  C   UNL     1      14.758  27.259  48.879  1.00  0.00    -0.000 C 
BRANCH  23  24
ATOM     24  C   UNL     1      14.367  26.222  49.945  1.00  0.00    -0.000 C 
BRANCH  24  25
ATOM     25  C   UNL     1      15.127  24.883  49.813  1.00  0.00    -0.000 C 
BRANCH  25  26
ATOM     26  C   UNL     1      16.134  24.877  48.649  1.00  0.00    -0.000 C 
BRANCH  26  27
ATOM     27  C   UNL     1      17.559  24.474  49.093  1.00  0.00    -0.000 C 
BRANCH  27  28
ATOM     28  C   UNL     1      18.455  25.703  49.315  1.00  0.00    -0.000 C 
BRANCH  28  29
ATOM     29  C   UNL     1      19.905  25.324  49.650  1.00  0.00    -0.003 C 
ATOM     30  C   UNL     1      20.859  26.521  49.598  1.00  0.00     0.004 C 
ENDBRANCH  28  29
ENDBRANCH  27  28
ENDBRANCH  26  27
ENDBRANCH  25  26
ENDBRANCH  24  25
ENDBRANCH  23  24
ENDBRANCH  22  23
ENDBRANCH  21  22
ENDBRANCH  20  21
ENDBRANCH  19  20
ENDBRANCH  18  19
ENDBRANCH  17  18
ENDBRANCH   1  17
TORSDOF 26
ENDMDL
MODEL 4
REMARK VINA RESULT:    -4.452      2.527      6.342
REMARK INTER + INTRA:         -16.158
REMARK INTER:                 -10.750
REMARK INTRA:                  -5.408
REMARK UNBOUND:                -4.938
REMARK SMILES CCCCCCCCCCCCCCCCCCCCCCCCCCCC(=O)[O-]
REMARK SMILES IDX 15 1 16 2 17 3 18 4 19 5 20 6 21 7 22 8 23 9 24 10 25 11
REMARK SMILES IDX 26 12 27 13 28 14 29 15 30 16 14 17 13 18 12 19 11 20 10 21
REMARK SMILES IDX 9 22 8 23 7 24 6 25 5 26 4 27 3 28 2 29 1 30
REMARK H PARENT
REMARK Flexibility Score: inf
ROOT
ATOM      1  C   UNL     1      18.381  29.276  52.908  1.00  0.00     0.000 C 
ENDROOT
BRANCH   1   2
ATOM      2  C   UNL     1      19.669  28.776  53.582  1.00  0.00     0.000 C 
BRANCH   2   3
ATOM      3  C   UNL     1      20.231  27.502  52.930  1.00  0.00     0.000 C 
BRANCH   3   4
ATOM      4  C   UNL     1      19.540  27.117  51.603  1.00  0.00     0.000 C 
BRANCH   4   5
ATOM      5  C   UNL     1      19.572  25.599  51.351  1.00  0.00     0.000 C 
BRANCH   5   6
ATOM      6  C   UNL     1      20.873  24.942  51.838  1.00  0.00     0.000 C 
BRANCH   6   7
ATOM      7  C   UNL     1      21.884  24.714  50.700  1.00  0.00     0.000 C 
BRANCH   7   8
ATOM      8  C   UNL     1      22.972  25.800  50.662  1.00  0.00     0.000 C 
BRANCH   8   9
ATOM      9  C   UNL     1      22.838  26.728  49.441  1.00  0.00     0.000 C 
BRANCH   9  10
ATOM     10  C   UNL     1      22.628  28.198  49.839  1.00  0.00     0.000 C 
BRANCH  10  11
ATOM     11  C   UNL     1      23.259  28.535  51.199  1.00  0.00     0.000 C 
BRANCH  11  12
ATOM     12  C   UNL     1      23.192  30.037  51.531  1.00  0.00     0.006 C 
BRANCH  12  13
ATOM     13  C   UNL     1      21.827  30.686  51.246  1.00  0.00     0.053 C 
BRANCH  13  14
ATOM     14  C   UNL     1      21.637  31.958  52.015  1.00  0.00     0.041 C 
ATOM     15  O   UNL     1      22.544  32.833  52.025  1.00  0.00    -0.550 OA
ATOM     16  O   UNL     1      20.477  32.159  52.752  1.00  0.00    -0.550 OA
ENDBRANCH  13  14
ENDBRANCH  12  13
ENDBRANCH  11  12
ENDBRANCH  10  11
ENDBRANCH   9  10
ENDBRANCH   8   9
ENDBRANCH   7   8
ENDBRANCH   6   7
ENDBRANCH   5   6
ENDBRANCH   4   5
ENDBRANCH   3   4
ENDBRANCH   2   3
ENDBRANCH   1   2
BRANCH   1  17
ATOM     17  C   UNL     1      17.492  30.099  53.858  1.00  0.00     0.000 C 
BRANCH  17  18
ATOM     18  C   UNL     1      16.120  29.472  54.181  1.00  0.00     0.000 C 
BRANCH  18  19
ATOM     19  C   UNL     1      16.096  28.536  55.407  1.00  0.00     0.000 C 
BRANCH  19  20
ATOM     20  C   UNL     1      15.699  27.078  55.102  1.00  0.00     0.000 C 
BRANCH  20  21
ATOM     21  C   UNL     1      16.772  26.258  54.360  1.00  0.00     0.000 C 
BRANCH  21  22
ATOM     22  C   UNL     1      16.312  25.737  52.981  1.00  0.00    -0.000 C 
BRANCH  22  23
ATOM     23  C   UNL     1      14.809  25.957  52.737  1.00  0.00    -0.000 C 
BRANCH  23  24
ATOM     24  C   UNL     1      14.534  26.992  51.633  1.00  0.00    -0.000 C 
BRANCH  24  25
ATOM     25  C   UNL     1      15.818  27.553  50.979  1.00  0.00    -0.000 C 
BRANCH  25  26
ATOM     26  C   UNL     1      15.574  28.864  50.210  1.00  0.00    -0.000 C 
BRANCH  26  27
ATOM     27  C   UNL     1      14.604  29.817  50.944  1.00  0.00    -0.000 C 
BRANCH  27  28
ATOM     28  C   UNL     1      14.725  31.260  50.430  1.00  0.00    -0.000 C 
BRANCH  28  29
ATOM     29  C   UNL     1      15.602  32.138  51.334  1.00  0.00    -0.003 C 
ATOM     30  C   UNL     1      14.804  32.838  52.437  1.00  0.00     0.004 C 
ENDBRANCH  28  29
ENDBRANCH  27  28
ENDBRANCH  26  27
ENDBRANCH  25  26
ENDBRANCH  24  25
ENDBRANCH  23  24
ENDBRANCH  22  23
ENDBRANCH  21  22
ENDBRANCH  20  21
ENDBRANCH  19  20
ENDBRANCH  18  19
ENDBRANCH  17  18
ENDBRANCH   1  17
TORSDOF 26
ENDMDL
MODEL 5
REMARK VINA RESULT:    -4.450      2.337      3.533
REMARK INTER + INTRA:         -16.152
REMARK INTER:                 -10.975
REMARK INTRA:                  -5.177
REMARK UNBOUND:                -4.938
REMARK SMILES CCCCCCCCCCCCCCCCCCCCCCCCCCCC(=O)[O-]
REMARK SMILES IDX 15 1 16 2 17 3 18 4 19 5 20 6 21 7 22 8 23 9 24 10 25 11
REMARK SMILES IDX 26 12 27 13 28 14 29 15 30 16 14 17 13 18 12 19 11 20 10 21
REMARK SMILES IDX 9 22 8 23 7 24 6 25 5 26 4 27 3 28 2 29 1 30
REMARK H PARENT
REMARK Flexibility Score: inf
ROOT
ATOM      1  C   UNL     1      16.974  26.483  53.922  1.00  0.00     0.000 C 
ENDROOT
BRANCH   1   2
ATOM      2  C   UNL     1      15.566  25.868  53.972  1.00  0.00     0.000 C 
BRANCH   2   3
ATOM      3  C   UNL     1      15.537  24.399  53.518  1.00  0.00     0.000 C 
BRANCH   3   4
ATOM      4  C   UNL     1      14.876  24.179  52.140  1.00  0.00     0.000 C 
BRANCH   4   5
ATOM      5  C   UNL     1      13.902  25.313  51.776  1.00  0.00     0.000 C 
BRANCH   5   6
ATOM      6  C   UNL     1      14.258  26.002  50.449  1.00  0.00     0.000 C 
BRANCH   6   7
ATOM      7  C   UNL     1      15.763  26.285  50.313  1.00  0.00     0.000 C 
BRANCH   7   8
ATOM      8  C   UNL     1      16.082  27.788  50.381  1.00  0.00     0.000 C 
BRANCH   8   9
ATOM      9  C   UNL     1      14.955  28.603  51.039  1.00  0.00     0.000 C 
BRANCH   9  10
ATOM     10  C   UNL     1      15.423  29.993  51.498  1.00  0.00     0.000 C 
BRANCH  10  11
ATOM     11  C   UNL     1      16.600  29.921  52.483  1.00  0.00     0.000 C 
BRANCH  11  12
ATOM     12  C   UNL     1      16.320  30.664  53.802  1.00  0.00     0.006 C 
BRANCH  12  13
ATOM     13  C   UNL     1      16.975  30.027  55.039  1.00  0.00     0.053 C 
BRANCH  13  14
ATOM     14  C   UNL     1      16.545  30.692  56.310  1.00  0.00     0.041 C 
ATOM     15  O   UNL     1      17.385  31.316  57.013  1.00  0.00    -0.550 OA
ATOM     16  O   UNL     1      15.228  30.591  56.738  1.00  0.00    -0.550 OA
ENDBRANCH  13  14
ENDBRANCH  12  13
ENDBRANCH  11  12
ENDBRANCH  10  11
ENDBRANCH   9  10
ENDBRANCH   8   9
ENDBRANCH   7   8
ENDBRANCH   6   7
ENDBRANCH   5   6
ENDBRANCH   4   5
ENDBRANCH   3   4
ENDBRANCH   2   3
ENDBRANCH   1   2
BRANCH   1  17
ATOM     17  C   UNL     1      18.013  25.543  53.282  1.00  0.00     0.000 C 
BRANCH  17  18
ATOM     18  C   UNL     1      19.404  26.167  53.046  1.00  0.00     0.000 C 
BRANCH  18  19
ATOM     19  C   UNL     1      19.447  27.709  53.068  1.00  0.00     0.000 C 
BRANCH  19  20
ATOM     20  C   UNL     1      19.856  28.365  51.735  1.00  0.00     0.000 C 
BRANCH  20  21
ATOM     21  C   UNL     1      21.376  28.500  51.521  1.00  0.00     0.000 C 
BRANCH  21  22
ATOM     22  C   UNL     1      21.809  29.895  51.018  1.00  0.00    -0.000 C 
BRANCH  22  23
ATOM     23  C   UNL     1      23.281  30.209  51.339  1.00  0.00    -0.000 C 
BRANCH  23  24
ATOM     24  C   UNL     1      23.648  29.892  52.798  1.00  0.00    -0.000 C 
BRANCH  24  25
ATOM     25  C   UNL     1      23.925  31.150  53.653  1.00  0.00    -0.000 C 
BRANCH  25  26
ATOM     26  C   UNL     1      23.031  31.234  54.903  1.00  0.00    -0.000 C 
BRANCH  26  27
ATOM     27  C   UNL     1      22.128  29.992  55.077  1.00  0.00    -0.000 C 
BRANCH  27  28
ATOM     28  C   UNL     1      20.636  30.360  55.018  1.00  0.00    -0.000 C 
BRANCH  28  29
ATOM     29  C   UNL     1      20.405  31.833  54.654  1.00  0.00    -0.003 C 
ATOM     30  C   UNL     1      19.834  32.013  53.244  1.00  0.00     0.004 C 
ENDBRANCH  28  29
ENDBRANCH  27  28
ENDBRANCH  26  27
ENDBRANCH  25  26
ENDBRANCH  24  25
ENDBRANCH  23  24
ENDBRANCH  22  23
ENDBRANCH  21  22
ENDBRANCH  20  21
ENDBRANCH  19  20
ENDBRANCH  18  19
ENDBRANCH  17  18
ENDBRANCH   1  17
TORSDOF 26
ENDMDL
MODEL 6
REMARK VINA RESULT:    -4.385      1.861      4.400
REMARK INTER + INTRA:         -15.988
REMARK INTER:                 -10.478
REMARK INTRA:                  -5.510
REMARK UNBOUND:                -4.938
REMARK SMILES CCCCCCCCCCCCCCCCCCCCCCCCCCCC(=O)[O-]
REMARK SMILES IDX 15 1 16 2 17 3 18 4 19 5 20 6 21 7 22 8 23 9 24 10 25 11
REMARK SMILES IDX 26 12 27 13 28 14 29 15 30 16 14 17 13 18 12 19 11 20 10 21
REMARK SMILES IDX 9 22 8 23 7 24 6 25 5 26 4 27 3 28 2 29 1 30
REMARK H PARENT
REMARK Flexibility Score: inf
ROOT
ATOM      1  C   UNL     1      17.407  29.943  54.779  1.00  0.00     0.000 C 
ENDROOT
BRANCH   1   2
ATOM      2  C   UNL     1      16.111  29.138  54.592  1.00  0.00     0.000 C 
BRANCH   2   3
ATOM      3  C   UNL     1      16.081  27.846  55.427  1.00  0.00     0.000 C 
BRANCH   3   4
ATOM      4  C   UNL     1      15.597  26.605  54.647  1.00  0.00     0.000 C 
BRANCH   4   5
ATOM      5  C   UNL     1      16.764  25.819  54.023  1.00  0.00     0.000 C 
BRANCH   5   6
ATOM      6  C   UNL     1      16.465  25.344  52.592  1.00  0.00     0.000 C 
BRANCH   6   7
ATOM      7  C   UNL     1      15.007  25.598  52.175  1.00  0.00     0.000 C 
BRANCH   7   8
ATOM      8  C   UNL     1      14.857  25.776  50.655  1.00  0.00     0.000 C 
BRANCH   8   9
ATOM      9  C   UNL     1      16.184  26.151  49.970  1.00  0.00     0.000 C 
BRANCH   9  10
ATOM     10  C   UNL     1      16.258  27.642  49.605  1.00  0.00     0.000 C 
BRANCH  10  11
ATOM     11  C   UNL     1      14.954  28.390  49.922  1.00  0.00     0.000 C 
BRANCH  11  12
ATOM     12  C   UNL     1      15.084  29.323  51.139  1.00  0.00     0.006 C 
BRANCH  12  13
ATOM     13  C   UNL     1      14.291  30.635  51.018  1.00  0.00     0.053 C 
BRANCH  13  14
ATOM     14  C   UNL     1      15.128  31.832  51.349  1.00  0.00     0.041 C 
ATOM     15  O   UNL     1      15.613  32.541  50.427  1.00  0.00    -0.550 OA
ATOM     16  O   UNL     1      15.406  32.143  52.675  1.00  0.00    -0.550 OA
ENDBRANCH  13  14
ENDBRANCH  12  13
ENDBRANCH  11  12
ENDBRANCH  10  11
ENDBRANCH   9  10
ENDBRANCH   8   9
ENDBRANCH   7   8
ENDBRANCH   6   7
ENDBRANCH   5   6
ENDBRANCH   4   5
ENDBRANCH   3   4
ENDBRANCH   2   3
ENDBRANCH   1   2
BRANCH   1  17
ATOM     17  C   UNL     1      18.579  29.387  53.949  1.00  0.00     0.000 C 
BRANCH  17  18
ATOM     18  C   UNL     1      18.218  28.952  52.513  1.00  0.00     0.000 C 
BRANCH  18  19
ATOM     19  C   UNL     1      19.164  27.908  51.885  1.00  0.00     0.000 C 
BRANCH  19  20
ATOM     20  C   UNL     1      20.076  27.174  52.886  1.00  0.00     0.000 C 
BRANCH  20  21
ATOM     21  C   UNL     1      20.532  25.772  52.438  1.00  0.00     0.000 C 
BRANCH  21  22
ATOM     22  C   UNL     1      19.796  25.251  51.184  1.00  0.00    -0.000 C 
BRANCH  22  23
ATOM     23  C   UNL     1      20.757  24.905  50.034  1.00  0.00    -0.000 C 
BRANCH  23  24
ATOM     24  C   UNL     1      22.075  25.693  50.108  1.00  0.00    -0.000 C 
BRANCH  24  25
ATOM     25  C   UNL     1      22.144  26.878  49.118  1.00  0.00    -0.000 C 
BRANCH  25  26
ATOM     26  C   UNL     1      22.255  28.242  49.823  1.00  0.00    -0.000 C 
BRANCH  26  27
ATOM     27  C   UNL     1      23.139  28.191  51.090  1.00  0.00    -0.000 C 
BRANCH  27  28
ATOM     28  C   UNL     1      23.042  29.491  51.904  1.00  0.00    -0.000 C 
BRANCH  28  29
ATOM     29  C   UNL     1      22.058  30.499  51.293  1.00  0.00    -0.003 C 
ATOM     30  C   UNL     1      21.298  31.304  52.351  1.00  0.00     0.004 C 
ENDBRANCH  28  29
ENDBRANCH  27  28
ENDBRANCH  26  27
ENDBRANCH  25  26
ENDBRANCH  24  25
ENDBRANCH  23  24
ENDBRANCH  22  23
ENDBRANCH  21  22
ENDBRANCH  20  21
ENDBRANCH  19  20
ENDBRANCH  18  19
ENDBRANCH  17  18
ENDBRANCH   1  17
TORSDOF 26
ENDMDL
MODEL 7
REMARK VINA RESULT:    -4.352      1.326      3.576
REMARK INTER + INTRA:         -15.906
REMARK INTER:                 -11.238
REMARK INTRA:                  -4.669
REMARK UNBOUND:                -4.938
REMARK SMILES CCCCCCCCCCCCCCCCCCCCCCCCCCCC(=O)[O-]
REMARK SMILES IDX 15 1 16 2 17 3 18 4 19 5 20 6 21 7 22 8 23 9 24 10 25 11
REMARK SMILES IDX 26 12 27 13 28 14 29 15 30 16 14 17 13 18 12 19 11 20 10 21
REMARK SMILES IDX 9 22 8 23 7 24 6 25 5 26 4 27 3 28 2 29 1 30
REMARK H PARENT
REMARK Flexibility Score: inf
ROOT
ATOM      1  C   UNL     1      16.888  26.090  54.029  1.00  0.00     0.000 C 
ENDROOT
BRANCH   1   2
ATOM      2  C   UNL     1      15.863  25.156  53.365  1.00  0.00     0.000 C 
BRANCH   2   3
ATOM      3  C   UNL     1      14.630  25.903  52.829  1.00  0.00     0.000 C 
BRANCH   3   4
ATOM      4  C   UNL     1      13.912  25.180  51.669  1.00  0.00     0.000 C 
BRANCH   4   5
ATOM      5  C   UNL     1      14.883  24.777  50.546  1.00  0.00     0.000 C 
BRANCH   5   6
ATOM      6  C   UNL     1      14.525  25.415  49.193  1.00  0.00     0.000 C 
BRANCH   6   7
ATOM      7  C   UNL     1      14.662  26.946  49.204  1.00  0.00     0.000 C 
BRANCH   7   8
ATOM      8  C   UNL     1      16.122  27.400  49.369  1.00  0.00     0.000 C 
BRANCH   8   9
ATOM      9  C   UNL     1      16.340  28.244  50.637  1.00  0.00     0.000 C 
BRANCH   9  10
ATOM     10  C   UNL     1      15.091  29.050  51.031  1.00  0.00     0.000 C 
BRANCH  10  11
ATOM     11  C   UNL     1      15.442  30.410  51.654  1.00  0.00     0.000 C 
BRANCH  11  12
ATOM     12  C   UNL     1      14.968  31.598  50.796  1.00  0.00     0.006 C 
BRANCH  12  13
ATOM     13  C   UNL     1      14.850  32.925  51.565  1.00  0.00     0.053 C 
BRANCH  13  14
ATOM     14  C   UNL     1      13.464  33.153  52.085  1.00  0.00     0.041 C 
ATOM     15  O   UNL     1      12.482  32.575  51.545  1.00  0.00    -0.550 OA
ATOM     16  O   UNL     1      13.251  34.032  53.139  1.00  0.00    -0.550 OA
ENDBRANCH  13  14
ENDBRANCH  12  13
ENDBRANCH  11  12
ENDBRANCH  10  11
ENDBRANCH   9  10
ENDBRANCH   8   9
ENDBRANCH   7   8
ENDBRANCH   6   7
ENDBRANCH   5   6
ENDBRANCH   4   5
ENDBRANCH   3   4
ENDBRANCH   2   3
ENDBRANCH   1   2
BRANCH   1  17
ATOM     17  C   UNL     1      16.381  27.538  54.156  1.00  0.00     0.000 C 
BRANCH  17  18
ATOM     18  C   UNL     1      15.754  27.897  55.520  1.00  0.00     0.000 C 
BRANCH  18  19
ATOM     19  C   UNL     1      15.759  29.399  55.871  1.00  0.00     0.000 C 
BRANCH  19  20
ATOM     20  C   UNL     1      16.726  30.258  55.034  1.00  0.00     0.000 C 
BRANCH  20  21
ATOM     21  C   UNL     1      17.835  30.959  55.843  1.00  0.00     0.000 C 
BRANCH  21  22
ATOM     22  C   UNL     1      19.161  31.119  55.069  1.00  0.00    -0.000 C 
BRANCH  22  23
ATOM     23  C   UNL     1      19.008  30.831  53.566  1.00  0.00    -0.000 C 
BRANCH  23  24
ATOM     24  C   UNL     1      20.073  29.854  53.040  1.00  0.00    -0.000 C 
BRANCH  24  25
ATOM     25  C   UNL     1      19.508  28.464  52.668  1.00  0.00    -0.000 C 
BRANCH  25  26
ATOM     26  C   UNL     1      20.609  27.435  52.353  1.00  0.00    -0.000 C 
BRANCH  26  27
ATOM     27  C   UNL     1      20.362  26.068  53.031  1.00  0.00    -0.000 C 
BRANCH  27  28
ATOM     28  C   UNL     1      20.132  24.953  51.998  1.00  0.00    -0.000 C 
BRANCH  28  29
ATOM     29  C   UNL     1      18.892  25.201  51.128  1.00  0.00    -0.003 C 
ATOM     30  C   UNL     1      19.237  25.441  49.655  1.00  0.00     0.004 C 
ENDBRANCH  28  29
ENDBRANCH  27  28
ENDBRANCH  26  27
ENDBRANCH  25  26
ENDBRANCH  24  25
ENDBRANCH  23  24
ENDBRANCH  22  23
ENDBRANCH  21  22
ENDBRANCH  20  21
ENDBRANCH  19  20
ENDBRANCH  18  19
ENDBRANCH  17  18
ENDBRANCH   1  17
TORSDOF 26
ENDMDL
MODEL 8
REMARK VINA RESULT:    -4.347      2.838      6.210
REMARK INTER + INTRA:         -15.892
REMARK INTER:                 -10.379
REMARK INTRA:                  -5.513
REMARK UNBOUND:                -4.938
REMARK SMILES CCCCCCCCCCCCCCCCCCCCCCCCCCCC(=O)[O-]
REMARK SMILES IDX 15 1 16 2 17 3 18 4 19 5 20 6 21 7 22 8 23 9 24 10 25 11
REMARK SMILES IDX 26 12 27 13 28 14 29 15 30 16 14 17 13 18 12 19 11 20 10 21
REMARK SMILES IDX 9 22 8 23 7 24 6 25 5 26 4 27 3 28 2 29 1 30
REMARK H PARENT
REMARK Flexibility Score: inf
ROOT
ATOM      1  C   UNL     1      14.625  27.589  51.289  1.00  0.00     0.000 C 
ENDROOT
BRANCH   1   2
ATOM      2  C   UNL     1      14.141  26.252  51.875  1.00  0.00     0.000 C 
BRANCH   2   3
ATOM      3  C   UNL     1      15.295  25.297  52.221  1.00  0.00     0.000 C 
BRANCH   3   4
ATOM      4  C   UNL     1      15.495  25.076  53.736  1.00  0.00     0.000 C 
BRANCH   4   5
ATOM      5  C   UNL     1      16.374  26.168  54.371  1.00  0.00     0.000 C 
BRANCH   5   6
ATOM      6  C   UNL     1      15.567  27.160  55.225  1.00  0.00     0.000 C 
BRANCH   6   7
ATOM      7  C   UNL     1      15.929  28.626  54.934  1.00  0.00     0.000 C 
BRANCH   7   8
ATOM      8  C   UNL     1      16.975  28.756  53.814  1.00  0.00     0.000 C 
BRANCH   8   9
ATOM      9  C   UNL     1      18.177  29.626  54.225  1.00  0.00     0.000 C 
BRANCH   9  10
ATOM     10  C   UNL     1      19.273  29.664  53.148  1.00  0.00     0.000 C 
BRANCH  10  11
ATOM     11  C   UNL     1      20.670  29.908  53.741  1.00  0.00     0.000 C 
BRANCH  11  12
ATOM     12  C   UNL     1      21.784  29.201  52.948  1.00  0.00     0.006 C 
BRANCH  12  13
ATOM     13  C   UNL     1      21.432  28.918  51.478  1.00  0.00     0.053 C 
BRANCH  13  14
ATOM     14  C   UNL     1      22.085  29.892  50.545  1.00  0.00     0.041 C 
ATOM     15  O   UNL     1      22.443  31.026  50.963  1.00  0.00    -0.550 OA
ATOM     16  O   UNL     1      22.263  29.563  49.207  1.00  0.00    -0.550 OA
ENDBRANCH  13  14
ENDBRANCH  12  13
ENDBRANCH  11  12
ENDBRANCH  10  11
ENDBRANCH   9  10
ENDBRANCH   8   9
ENDBRANCH   7   8
ENDBRANCH   6   7
ENDBRANCH   5   6
ENDBRANCH   4   5
ENDBRANCH   3   4
ENDBRANCH   2   3
ENDBRANCH   1   2
BRANCH   1  17
ATOM     17  C   UNL     1      15.403  27.416  49.972  1.00  0.00     0.000 C 
BRANCH  17  18
ATOM     18  C   UNL     1      14.604  26.776  48.817  1.00  0.00     0.000 C 
BRANCH  18  19
ATOM     19  C   UNL     1      15.124  25.405  48.337  1.00  0.00     0.000 C 
BRANCH  19  20
ATOM     20  C   UNL     1      16.655  25.239  48.390  1.00  0.00     0.000 C 
BRANCH  20  21
ATOM     21  C   UNL     1      17.145  24.027  49.205  1.00  0.00     0.000 C 
BRANCH  21  22
ATOM     22  C   UNL     1      18.283  24.363  50.193  1.00  0.00    -0.000 C 
BRANCH  22  23
ATOM     23  C   UNL     1      18.711  25.839  50.124  1.00  0.00    -0.000 C 
BRANCH  23  24
ATOM     24  C   UNL     1      18.788  26.498  51.511  1.00  0.00    -0.000 C 
BRANCH  24  25
ATOM     25  C   UNL     1      19.152  25.511  52.645  1.00  0.00    -0.000 C 
BRANCH  25  26
ATOM     26  C   UNL     1      20.618  25.632  53.096  1.00  0.00    -0.000 C 
BRANCH  26  27
ATOM     27  C   UNL     1      21.544  24.604  52.406  1.00  0.00    -0.000 C 
BRANCH  27  28
ATOM     28  C   UNL     1      22.390  25.254  51.299  1.00  0.00    -0.000 C 
BRANCH  28  29
ATOM     29  C   UNL     1      22.128  24.638  49.917  1.00  0.00    -0.003 C 
ATOM     30  C   UNL     1      22.223  25.663  48.783  1.00  0.00     0.004 C 
ENDBRANCH  28  29
ENDBRANCH  27  28
ENDBRANCH  26  27
ENDBRANCH  25  26
ENDBRANCH  24  25
ENDBRANCH  23  24
ENDBRANCH  22  23
ENDBRANCH  21  22
ENDBRANCH  20  21
ENDBRANCH  19  20
ENDBRANCH  18  19
ENDBRANCH  17  18
ENDBRANCH   1  17
TORSDOF 26
ENDMDL
MODEL 9
REMARK VINA RESULT:    -4.326      2.152      6.244
REMARK INTER + INTRA:         -15.840
REMARK INTER:                 -11.445
REMARK INTRA:                  -4.395
REMARK UNBOUND:                -4.938
REMARK SMILES CCCCCCCCCCCCCCCCCCCCCCCCCCCC(=O)[O-]
REMARK SMILES IDX 15 1 16 2 17 3 18 4 19 5 20 6 21 7 22 8 23 9 24 10 25 11
REMARK SMILES IDX 26 12 27 13 28 14 29 15 30 16 14 17 13 18 12 19 11 20 10 21
REMARK SMILES IDX 9 22 8 23 7 24 6 25 5 26 4 27 3 28 2 29 1 30
REMARK H PARENT
REMARK Flexibility Score: inf
ROOT
ATOM      1  C   UNL     1      18.378  26.895  51.851  1.00  0.00     0.000 C 
ENDROOT
BRANCH   1   2
ATOM      2  C   UNL     1      18.708  26.172  53.167  1.00  0.00     0.000 C 
BRANCH   2   3
ATOM      3  C   UNL     1      17.482  25.495  53.804  1.00  0.00     0.000 C 
BRANCH   3   4
ATOM      4  C   UNL     1      16.219  26.384  53.835  1.00  0.00     0.000 C 
BRANCH   4   5
ATOM      5  C   UNL     1      16.120  27.206  55.132  1.00  0.00     0.000 C 
BRANCH   5   6
ATOM      6  C   UNL     1      15.740  28.673  54.880  1.00  0.00     0.000 C 
BRANCH   6   7
ATOM      7  C   UNL     1      16.163  29.602  56.031  1.00  0.00     0.000 C 
BRANCH   7   8
ATOM      8  C   UNL     1      16.919  30.844  55.529  1.00  0.00     0.000 C 
BRANCH   8   9
ATOM      9  C   UNL     1      17.870  30.526  54.362  1.00  0.00     0.000 C 
BRANCH   9  10
ATOM     10  C   UNL     1      19.341  30.455  54.802  1.00  0.00     0.000 C 
BRANCH  10  11
ATOM     11  C   UNL     1      20.168  29.493  53.933  1.00  0.00     0.000 C 
BRANCH  11  12
ATOM     12  C   UNL     1      21.657  29.471  54.322  1.00  0.00     0.006 C 
BRANCH  12  13
ATOM     13  C   UNL     1      22.602  30.006  53.233  1.00  0.00     0.053 C 
BRANCH  13  14
ATOM     14  C   UNL     1      22.333  31.444  52.911  1.00  0.00     0.041 C 
ATOM     15  O   UNL     1      22.535  32.336  53.778  1.00  0.00    -0.550 OA
ATOM     16  O   UNL     1      21.822  31.795  51.668  1.00  0.00    -0.550 OA
ENDBRANCH  13  14
ENDBRANCH  12  13
ENDBRANCH  11  12
ENDBRANCH  10  11
ENDBRANCH   9  10
ENDBRANCH   8   9
ENDBRANCH   7   8
ENDBRANCH   6   7
ENDBRANCH   5   6
ENDBRANCH   4   5
ENDBRANCH   3   4
ENDBRANCH   2   3
ENDBRANCH   1   2
BRANCH   1  17
ATOM     17  C   UNL     1      18.917  26.156  50.613  1.00  0.00     0.000 C 
BRANCH  17  18
ATOM     18  C   UNL     1      18.679  24.631  50.603  1.00  0.00     0.000 C 
BRANCH  18  19
ATOM     19  C   UNL     1      17.472  24.159  49.766  1.00  0.00     0.000 C 
BRANCH  19  20
ATOM     20  C   UNL     1      16.157  24.007  50.554  1.00  0.00     0.000 C 
BRANCH  20  21
ATOM     21  C   UNL     1      15.243  25.247  50.532  1.00  0.00     0.000 C 
BRANCH  21  22
ATOM     22  C   UNL     1      14.407  25.378  49.239  1.00  0.00    -0.000 C 
BRANCH  22  23
ATOM     23  C   UNL     1      14.818  26.593  48.390  1.00  0.00    -0.000 C 
BRANCH  23  24
ATOM     24  C   UNL     1      15.900  27.450  49.068  1.00  0.00    -0.000 C 
BRANCH  24  25
ATOM     25  C   UNL     1      15.379  28.813  49.579  1.00  0.00    -0.000 C 
BRANCH  25  26
ATOM     26  C   UNL     1      15.402  28.925  51.114  1.00  0.00    -0.000 C 
BRANCH  26  27
ATOM     27  C   UNL     1      14.655  30.174  51.634  1.00  0.00    -0.000 C 
BRANCH  27  28
ATOM     28  C   UNL     1      15.577  31.402  51.702  1.00  0.00    -0.000 C 
BRANCH  28  29
ATOM     29  C   UNL     1      15.180  32.495  50.699  1.00  0.00    -0.003 C 
ATOM     30  C   UNL     1      16.201  33.634  50.627  1.00  0.00     0.004 C 
ENDBRANCH  28  29
ENDBRANCH  27  28
ENDBRANCH  26  27
ENDBRANCH  25  26
ENDBRANCH  24  25
ENDBRANCH  23  24
ENDBRANCH  22  23
ENDBRANCH  21  22
ENDBRANCH  20  21
ENDBRANCH  19  20
ENDBRANCH  18  19
ENDBRANCH  17  18
ENDBRANCH   1  17
TORSDOF 26
ENDMDL
