MODEL 1
REMARK VINA RESULT:    -6.745      0.000      0.000
REMARK INTER + INTRA:          -8.235
REMARK INTER:                  -7.929
REMARK INTRA:                  -0.306
REMARK UNBOUND:                -0.306
REMARK SMILES O=c1cc(-c2ccc(O)c(O)c2)oc2cc(O)cc(O)c12
REMARK SMILES IDX 4 1 3 2 2 3 1 4 21 5 19 6 18 7 16 8 15 9 14 10 13 11 5 12
REMARK SMILES IDX 6 13 7 14 8 15 12 16 10 17 9 18 11 20 20 22 17 24
REMARK H PARENT 9 19 11 21 20 23 17 25
REMARK Flexibility Score: inf
ROOT
ATOM      1  C   UNL     1      48.083 -40.202  30.322  1.00  0.00     0.138 A 
ATOM      2  C   UNL     1      47.909 -38.821  30.492  1.00  0.00     0.100 A 
ATOM      3  C   UNL     1      48.920 -37.945  30.096  1.00  0.00     0.197 A 
ATOM      4  O   UNL     1      48.762 -36.716  30.318  1.00  0.00    -0.289 OA
ATOM      5  C   UNL     1      50.097 -38.453  29.495  1.00  0.00     0.107 A 
ATOM      6  C   UNL     1      51.176 -37.651  29.015  1.00  0.00     0.134 A 
ATOM      7  C   UNL     1      52.340 -38.271  28.545  1.00  0.00     0.093 A 
ATOM      8  C   UNL     1      52.441 -39.664  28.484  1.00  0.00     0.123 A 
ATOM      9  C   UNL     1      51.372 -40.454  28.900  1.00  0.00     0.094 A 
ATOM     10  C   UNL     1      50.210 -39.866  29.406  1.00  0.00     0.146 A 
ATOM     11  O   UNL     1      49.220 -40.657  29.805  1.00  0.00    -0.456 OA
ENDROOT
BRANCH   1  12
ATOM     12  C   UNL     1      47.039 -41.178  30.726  1.00  0.00     0.021 A 
ATOM     13  C   UNL     1      46.140 -40.908  31.773  1.00  0.00     0.016 A 
ATOM     14  C   UNL     1      45.160 -41.841  32.125  1.00  0.00     0.051 A 
ATOM     15  C   UNL     1      45.059 -43.055  31.433  1.00  0.00     0.157 A 
ATOM     16  C   UNL     1      46.921 -42.393  30.026  1.00  0.00     0.062 A 
ATOM     17  C   UNL     1      45.942 -43.330  30.377  1.00  0.00     0.158 A 
BRANCH  15  18
ATOM     18  O   UNL     1      44.081 -43.984  31.788  1.00  0.00    -0.504 OA
ATOM     19  H   UNL     1      43.280 -43.723  32.351  1.00  0.00     0.293 HD
ENDBRANCH  15  18
BRANCH  17  20
ATOM     20  O   UNL     1      45.865 -44.526  29.666  1.00  0.00    -0.504 OA
ATOM     21  H   UNL     1      45.942 -45.429  30.120  1.00  0.00     0.293 HD
ENDBRANCH  17  20
ENDBRANCH   1  12
BRANCH   6  22
ATOM     22  O   UNL     1      51.144 -36.255  28.953  1.00  0.00    -0.507 OA
ATOM     23  H   UNL     1      51.948 -35.654  29.055  1.00  0.00     0.293 HD
ENDBRANCH   6  22
BRANCH   8  24
ATOM     24  O   UNL     1      53.598 -40.271  28.001  1.00  0.00    -0.508 OA
ATOM     25  H   UNL     1      53.609 -40.759  27.113  1.00  0.00     0.293 HD
ENDBRANCH   8  24
TORSDOF 5
ENDMDL
MODEL 2
REMARK VINA RESULT:    -6.688      1.733      2.698
REMARK INTER + INTRA:          -8.167
REMARK INTER:                  -7.904
REMARK INTRA:                  -0.263
REMARK UNBOUND:                -0.306
REMARK SMILES O=c1cc(-c2ccc(O)c(O)c2)oc2cc(O)cc(O)c12
REMARK SMILES IDX 4 1 3 2 2 3 1 4 21 5 19 6 18 7 16 8 15 9 14 10 13 11 5 12
REMARK SMILES IDX 6 13 7 14 8 15 12 16 10 17 9 18 11 20 20 22 17 24
REMARK H PARENT 9 19 11 21 20 23 17 25
REMARK Flexibility Score: inf
ROOT
ATOM      1  C   UNL     1      48.679 -41.674  30.787  1.00  0.00     0.138 A 
ATOM      2  C   UNL     1      49.715 -42.266  31.524  1.00  0.00     0.100 A 
ATOM      3  C   UNL     1      51.013 -41.766  31.414  1.00  0.00     0.197 A 
ATOM      4  O   UNL     1      51.932 -42.356  32.038  1.00  0.00    -0.289 OA
ATOM      5  C   UNL     1      51.268 -40.647  30.585  1.00  0.00     0.107 A 
ATOM      6  C   UNL     1      52.544 -40.026  30.428  1.00  0.00     0.134 A 
ATOM      7  C   UNL     1      52.699 -38.997  29.491  1.00  0.00     0.093 A 
ATOM      8  C   UNL     1      51.612 -38.527  28.750  1.00  0.00     0.123 A 
ATOM      9  C   UNL     1      50.351 -39.089  28.937  1.00  0.00     0.094 A 
ATOM     10  C   UNL     1      50.171 -40.141  29.839  1.00  0.00     0.146 A 
ATOM     11  O   UNL     1      48.955 -40.659  29.975  1.00  0.00    -0.456 OA
ENDROOT
BRANCH   1  12
ATOM     12  C   UNL     1      47.280 -42.166  30.868  1.00  0.00     0.021 A 
ATOM     13  C   UNL     1      46.357 -41.622  31.780  1.00  0.00     0.016 A 
ATOM     14  C   UNL     1      45.043 -42.096  31.827  1.00  0.00     0.051 A 
ATOM     15  C   UNL     1      44.628 -43.115  30.960  1.00  0.00     0.157 A 
ATOM     16  C   UNL     1      46.851 -43.178  29.991  1.00  0.00     0.062 A 
ATOM     17  C   UNL     1      45.536 -43.656  30.036  1.00  0.00     0.158 A 
BRANCH  15  18
ATOM     18  O   UNL     1      43.316 -43.587  31.011  1.00  0.00    -0.504 OA
ATOM     19  H   UNL     1      42.732 -43.621  30.183  1.00  0.00     0.293 HD
ENDBRANCH  15  18
BRANCH  17  20
ATOM     20  O   UNL     1      45.153 -44.668  29.157  1.00  0.00    -0.504 OA
ATOM     21  H   UNL     1      45.245 -44.570  28.152  1.00  0.00     0.293 HD
ENDBRANCH  17  20
ENDBRANCH   1  12
BRANCH   6  22
ATOM     22  O   UNL     1      53.674 -40.363  31.178  1.00  0.00    -0.507 OA
ATOM     23  H   UNL     1      53.687 -41.032  31.934  1.00  0.00     0.293 HD
ENDBRANCH   6  22
BRANCH   8  24
ATOM     24  O   UNL     1      51.773 -37.491  27.831  1.00  0.00    -0.508 OA
ATOM     25  H   UNL     1      51.893 -36.531  28.131  1.00  0.00     0.293 HD
ENDBRANCH   8  24
TORSDOF 5
ENDMDL
MODEL 3
REMARK VINA RESULT:    -6.357      2.118      2.564
REMARK INTER + INTRA:          -7.778
REMARK INTER:                  -7.519
REMARK INTRA:                  -0.259
REMARK UNBOUND:                -0.306
REMARK SMILES O=c1cc(-c2ccc(O)c(O)c2)oc2cc(O)cc(O)c12
REMARK SMILES IDX 4 1 3 2 2 3 1 4 21 5 19 6 18 7 16 8 15 9 14 10 13 11 5 12
REMARK SMILES IDX 6 13 7 14 8 15 12 16 10 17 9 18 11 20 20 22 17 24
REMARK H PARENT 9 19 11 21 20 23 17 25
REMARK Flexibility Score: inf
ROOT
ATOM      1  C   UNL     1      46.998 -41.670  30.605  1.00  0.00     0.138 A 
ATOM      2  C   UNL     1      47.073 -40.422  29.971  1.00  0.00     0.100 A 
ATOM      3  C   UNL     1      48.309 -39.787  29.842  1.00  0.00     0.197 A 
ATOM      4  O   UNL     1      48.337 -38.640  29.325  1.00  0.00    -0.289 OA
ATOM      5  C   UNL     1      49.480 -40.422  30.322  1.00  0.00     0.107 A 
ATOM      6  C   UNL     1      50.799 -39.888  30.208  1.00  0.00     0.134 A 
ATOM      7  C   UNL     1      51.867 -40.552  30.823  1.00  0.00     0.093 A 
ATOM      8  C   UNL     1      51.673 -41.760  31.497  1.00  0.00     0.123 A 
ATOM      9  C   UNL     1      50.398 -42.317  31.567  1.00  0.00     0.094 A 
ATOM     10  C   UNL     1      49.306 -41.661  30.992  1.00  0.00     0.146 A 
ATOM     11  O   UNL     1      48.105 -42.220  31.095  1.00  0.00    -0.456 OA
ENDROOT
BRANCH   1  12
ATOM     12  C   UNL     1      45.709 -42.389  30.768  1.00  0.00     0.021 A 
ATOM     13  C   UNL     1      45.017 -42.398  31.993  1.00  0.00     0.016 A 
ATOM     14  C   UNL     1      43.800 -43.074  32.116  1.00  0.00     0.051 A 
ATOM     15  C   UNL     1      43.251 -43.747  31.017  1.00  0.00     0.157 A 
ATOM     16  C   UNL     1      45.144 -43.055  29.665  1.00  0.00     0.062 A 
ATOM     17  C   UNL     1      43.925 -43.734  29.786  1.00  0.00     0.158 A 
BRANCH  15  18
ATOM     18  O   UNL     1      42.037 -44.422  31.144  1.00  0.00    -0.504 OA
ATOM     19  H   UNL     1      41.871 -45.307  30.679  1.00  0.00     0.293 HD
ENDBRANCH  15  18
BRANCH  17  20
ATOM     20  O   UNL     1      43.404 -44.390  28.672  1.00  0.00    -0.504 OA
ATOM     21  H   UNL     1      42.893 -45.262  28.751  1.00  0.00     0.293 HD
ENDBRANCH  17  20
ENDBRANCH   1  12
BRANCH   6  22
ATOM     22  O   UNL     1      51.114 -38.733  29.486  1.00  0.00    -0.507 OA
ATOM     23  H   UNL     1      51.865 -38.098  29.712  1.00  0.00     0.293 HD
ENDBRANCH   6  22
BRANCH   8  24
ATOM     24  O   UNL     1      52.745 -42.421  32.093  1.00  0.00    -0.508 OA
ATOM     25  H   UNL     1      53.600 -42.609  31.584  1.00  0.00     0.293 HD
ENDBRANCH   8  24
TORSDOF 5
ENDMDL
MODEL 4
REMARK VINA RESULT:    -6.321      2.202      3.121
REMARK INTER + INTRA:          -7.736
REMARK INTER:                  -7.467
REMARK INTRA:                  -0.269
REMARK UNBOUND:                -0.306
REMARK SMILES O=c1cc(-c2ccc(O)c(O)c2)oc2cc(O)cc(O)c12
REMARK SMILES IDX 4 1 3 2 2 3 1 4 21 5 19 6 18 7 16 8 15 9 14 10 13 11 5 12
REMARK SMILES IDX 6 13 7 14 8 15 12 16 10 17 9 18 11 20 20 22 17 24
REMARK H PARENT 9 19 11 21 20 23 17 25
REMARK Flexibility Score: inf
ROOT
ATOM      1  C   UNL     1      46.557 -41.837  29.848  1.00  0.00     0.138 A 
ATOM      2  C   UNL     1      46.597 -40.520  29.369  1.00  0.00     0.100 A 
ATOM      3  C   UNL     1      47.774 -39.779  29.486  1.00  0.00     0.197 A 
ATOM      4  O   UNL     1      47.761 -38.580  29.104  1.00  0.00    -0.289 OA
ATOM      5  C   UNL     1      48.926 -40.373  30.056  1.00  0.00     0.107 A 
ATOM      6  C   UNL     1      50.192 -39.727  30.188  1.00  0.00     0.134 A 
ATOM      7  C   UNL     1      51.227 -40.373  30.874  1.00  0.00     0.093 A 
ATOM      8  C   UNL     1      51.061 -41.665  31.380  1.00  0.00     0.123 A 
ATOM      9  C   UNL     1      49.846 -42.324  31.208  1.00  0.00     0.094 A 
ATOM     10  C   UNL     1      48.783 -41.693  30.558  1.00  0.00     0.146 A 
ATOM     11  O   UNL     1      47.637 -42.353  30.428  1.00  0.00    -0.456 OA
ENDROOT
BRANCH   1  12
ATOM     12  C   UNL     1      45.332 -42.670  29.748  1.00  0.00     0.021 A 
ATOM     13  C   UNL     1      44.921 -43.239  28.529  1.00  0.00     0.016 A 
ATOM     14  C   UNL     1      43.769 -44.028  28.466  1.00  0.00     0.051 A 
ATOM     15  C   UNL     1      43.013 -44.268  29.621  1.00  0.00     0.157 A 
ATOM     16  C   UNL     1      44.575 -42.929  30.906  1.00  0.00     0.062 A 
ATOM     17  C   UNL     1      43.420 -43.718  30.846  1.00  0.00     0.158 A 
BRANCH  15  18
ATOM     18  O   UNL     1      41.864 -45.055  29.554  1.00  0.00    -0.504 OA
ATOM     19  H   UNL     1      41.687 -45.795  30.223  1.00  0.00     0.293 HD
ENDBRANCH  15  18
BRANCH  17  20
ATOM     20  O   UNL     1      42.693 -43.941  32.014  1.00  0.00    -0.504 OA
ATOM     21  H   UNL     1      42.466 -43.193  32.659  1.00  0.00     0.293 HD
ENDBRANCH  17  20
ENDBRANCH   1  12
BRANCH   6  22
ATOM     22  O   UNL     1      50.489 -38.473  29.647  1.00  0.00    -0.507 OA
ATOM     23  H   UNL     1      51.410 -38.061  29.615  1.00  0.00     0.293 HD
ENDBRANCH   6  22
BRANCH   8  24
ATOM     24  O   UNL     1      52.102 -42.306  32.048  1.00  0.00    -0.508 OA
ATOM     25  H   UNL     1      53.072 -42.099  31.839  1.00  0.00     0.293 HD
ENDBRANCH   8  24
TORSDOF 5
ENDMDL
MODEL 5
REMARK VINA RESULT:    -6.012      1.368      6.906
REMARK INTER + INTRA:          -7.372
REMARK INTER:                  -7.088
REMARK INTRA:                  -0.284
REMARK UNBOUND:                -0.306
REMARK SMILES O=c1cc(-c2ccc(O)c(O)c2)oc2cc(O)cc(O)c12
REMARK SMILES IDX 4 1 3 2 2 3 1 4 21 5 19 6 18 7 16 8 15 9 14 10 13 11 5 12
REMARK SMILES IDX 6 13 7 14 8 15 12 16 10 17 9 18 11 20 20 22 17 24
REMARK H PARENT 9 19 11 21 20 23 17 25
REMARK Flexibility Score: inf
ROOT
ATOM      1  C   UNL     1      48.896 -40.093  30.068  1.00  0.00     0.138 A 
ATOM      2  C   UNL     1      47.919 -39.326  30.718  1.00  0.00     0.100 A 
ATOM      3  C   UNL     1      46.730 -39.928  31.131  1.00  0.00     0.197 A 
ATOM      4  O   UNL     1      45.847 -39.201  31.655  1.00  0.00    -0.289 OA
ATOM      5  C   UNL     1      46.533 -41.314  30.921  1.00  0.00     0.107 A 
ATOM      6  C   UNL     1      45.379 -42.044  31.337  1.00  0.00     0.134 A 
ATOM      7  C   UNL     1      45.244 -43.388  30.971  1.00  0.00     0.093 A 
ATOM      8  C   UNL     1      46.249 -44.045  30.256  1.00  0.00     0.123 A 
ATOM      9  C   UNL     1      47.404 -43.356  29.893  1.00  0.00     0.094 A 
ATOM     10  C   UNL     1      47.553 -42.004  30.213  1.00  0.00     0.146 A 
ATOM     11  O   UNL     1      48.664 -41.381  29.835  1.00  0.00    -0.456 OA
ENDROOT
BRANCH   1  12
ATOM     12  C   UNL     1      50.179 -39.503  29.609  1.00  0.00     0.021 A 
ATOM     13  C   UNL     1      51.365 -40.258  29.561  1.00  0.00     0.016 A 
ATOM     14  C   UNL     1      52.556 -39.680  29.113  1.00  0.00     0.051 A 
ATOM     15  C   UNL     1      52.581 -38.342  28.700  1.00  0.00     0.157 A 
ATOM     16  C   UNL     1      50.209 -38.164  29.178  1.00  0.00     0.062 A 
ATOM     17  C   UNL     1      51.401 -37.582  28.730  1.00  0.00     0.158 A 
BRANCH  15  18
ATOM     18  O   UNL     1      53.772 -37.768  28.256  1.00  0.00    -0.504 OA
ATOM     19  H   UNL     1      53.776 -36.961  27.643  1.00  0.00     0.293 HD
ENDBRANCH  15  18
BRANCH  17  20
ATOM     20  O   UNL     1      51.391 -36.249  28.322  1.00  0.00    -0.504 OA
ATOM     21  H   UNL     1      50.944 -35.953  27.461  1.00  0.00     0.293 HD
ENDBRANCH  17  20
ENDBRANCH   1  12
BRANCH   6  22
ATOM     22  O   UNL     1      44.358 -41.506  32.125  1.00  0.00    -0.507 OA
ATOM     23  H   UNL     1      43.945 -41.962  32.925  1.00  0.00     0.293 HD
ENDBRANCH   6  22
BRANCH   8  24
ATOM     24  O   UNL     1      46.113 -45.388  29.909  1.00  0.00    -0.508 OA
ATOM     25  H   UNL     1      45.576 -45.674  29.099  1.00  0.00     0.293 HD
ENDBRANCH   8  24
TORSDOF 5
ENDMDL
MODEL 6
REMARK VINA RESULT:    -5.667      1.971      3.111
REMARK INTER + INTRA:          -6.967
REMARK INTER:                  -6.699
REMARK INTRA:                  -0.269
REMARK UNBOUND:                -0.306
REMARK SMILES O=c1cc(-c2ccc(O)c(O)c2)oc2cc(O)cc(O)c12
REMARK SMILES IDX 4 1 3 2 2 3 1 4 21 5 19 6 18 7 16 8 15 9 14 10 13 11 5 12
REMARK SMILES IDX 6 13 7 14 8 15 12 16 10 17 9 18 11 20 20 22 17 24
REMARK H PARENT 9 19 11 21 20 23 17 25
REMARK Flexibility Score: inf
ROOT
ATOM      1  C   UNL     1      49.280 -41.595  30.695  1.00  0.00     0.138 A 
ATOM      2  C   UNL     1      50.288 -42.129  31.510  1.00  0.00     0.100 A 
ATOM      3  C   UNL     1      51.584 -41.619  31.427  1.00  0.00     0.197 A 
ATOM      4  O   UNL     1      52.481 -42.160  32.125  1.00  0.00    -0.289 OA
ATOM      5  C   UNL     1      51.864 -40.548  30.545  1.00  0.00     0.107 A 
ATOM      6  C   UNL     1      53.139 -39.921  30.406  1.00  0.00     0.134 A 
ATOM      7  C   UNL     1      53.325 -38.947  29.418  1.00  0.00     0.093 A 
ATOM      8  C   UNL     1      52.267 -38.536  28.603  1.00  0.00     0.123 A 
ATOM      9  C   UNL     1      51.006 -39.103  28.768  1.00  0.00     0.094 A 
ATOM     10  C   UNL     1      50.797 -40.101  29.722  1.00  0.00     0.146 A 
ATOM     11  O   UNL     1      49.581 -40.626  29.837  1.00  0.00    -0.456 OA
ENDROOT
BRANCH   1  12
ATOM     12  C   UNL     1      47.884 -42.099  30.744  1.00  0.00     0.021 A 
ATOM     13  C   UNL     1      47.523 -43.335  30.175  1.00  0.00     0.016 A 
ATOM     14  C   UNL     1      46.204 -43.790  30.246  1.00  0.00     0.051 A 
ATOM     15  C   UNL     1      45.225 -43.023  30.890  1.00  0.00     0.157 A 
ATOM     16  C   UNL     1      46.898 -41.342  31.402  1.00  0.00     0.062 A 
ATOM     17  C   UNL     1      45.575 -41.794  31.473  1.00  0.00     0.158 A 
BRANCH  15  18
ATOM     18  O   UNL     1      43.909 -43.479  30.956  1.00  0.00    -0.504 OA
ATOM     19  H   UNL     1      43.411 -43.539  31.837  1.00  0.00     0.293 HD
ENDBRANCH  15  18
BRANCH  17  20
ATOM     20  O   UNL     1      44.625 -41.009  32.125  1.00  0.00    -0.504 OA
ATOM     21  H   UNL     1      44.878 -40.361  32.862  1.00  0.00     0.293 HD
ENDBRANCH  17  20
ENDBRANCH   1  12
BRANCH   6  22
ATOM     22  O   UNL     1      54.239 -40.199  31.224  1.00  0.00    -0.507 OA
ATOM     23  H   UNL     1      54.309 -40.988  31.849  1.00  0.00     0.293 HD
ENDBRANCH   6  22
BRANCH   8  24
ATOM     24  O   UNL     1      52.458 -37.555  27.632  1.00  0.00    -0.508 OA
ATOM     25  H   UNL     1      52.947 -37.754  26.767  1.00  0.00     0.293 HD
ENDBRANCH   8  24
TORSDOF 5
ENDMDL
MODEL 7
REMARK VINA RESULT:    -5.329      2.024      3.672
REMARK INTER + INTRA:          -6.570
REMARK INTER:                  -6.306
REMARK INTRA:                  -0.263
REMARK UNBOUND:                -0.306
REMARK SMILES O=c1cc(-c2ccc(O)c(O)c2)oc2cc(O)cc(O)c12
REMARK SMILES IDX 4 1 3 2 2 3 1 4 21 5 19 6 18 7 16 8 15 9 14 10 13 11 5 12
REMARK SMILES IDX 6 13 7 14 8 15 12 16 10 17 9 18 11 20 20 22 17 24
REMARK H PARENT 9 19 11 21 20 23 17 25
REMARK Flexibility Score: inf
ROOT
ATOM      1  C   UNL     1      47.295 -42.518  30.172  1.00  0.00     0.138 A 
ATOM      2  C   UNL     1      48.275 -43.281  30.822  1.00  0.00     0.100 A 
ATOM      3  C   UNL     1      49.547 -42.743  31.024  1.00  0.00     0.197 A 
ATOM      4  O   UNL     1      50.423 -43.474  31.554  1.00  0.00    -0.289 OA
ATOM      5  C   UNL     1      49.827 -41.422  30.601  1.00  0.00     0.107 A 
ATOM      6  C   UNL     1      51.075 -40.755  30.791  1.00  0.00     0.134 A 
ATOM      7  C   UNL     1      51.274 -39.489  30.226  1.00  0.00     0.093 A 
ATOM      8  C   UNL     1      50.250 -38.842  29.530  1.00  0.00     0.123 A 
ATOM      9  C   UNL     1      49.011 -39.461  29.387  1.00  0.00     0.094 A 
ATOM     10  C   UNL     1      48.793 -40.739  29.909  1.00  0.00     0.146 A 
ATOM     11  O   UNL     1      47.601 -41.300  29.736  1.00  0.00    -0.456 OA
ENDROOT
BRANCH   1  12
ATOM     12  C   UNL     1      45.926 -43.041  29.932  1.00  0.00     0.021 A 
ATOM     13  C   UNL     1      45.512 -43.472  28.658  1.00  0.00     0.016 A 
ATOM     14  C   UNL     1      44.221 -43.970  28.464  1.00  0.00     0.051 A 
ATOM     15  C   UNL     1      43.325 -44.053  29.537  1.00  0.00     0.157 A 
ATOM     16  C   UNL     1      45.025 -43.141  31.008  1.00  0.00     0.062 A 
ATOM     17  C   UNL     1      43.731 -43.639  30.816  1.00  0.00     0.158 A 
BRANCH  15  18
ATOM     18  O   UNL     1      42.037 -44.549  29.338  1.00  0.00    -0.504 OA
ATOM     19  H   UNL     1      41.578 -44.489  28.436  1.00  0.00     0.293 HD
ENDBRANCH  15  18
BRANCH  17  20
ATOM     20  O   UNL     1      42.866 -43.713  31.906  1.00  0.00    -0.504 OA
ATOM     21  H   UNL     1      41.939 -43.301  31.887  1.00  0.00     0.293 HD
ENDBRANCH  17  20
ENDBRANCH   1  12
BRANCH   6  22
ATOM     22  O   UNL     1      52.133 -41.277  31.541  1.00  0.00    -0.507 OA
ATOM     23  H   UNL     1      53.098 -40.994  31.453  1.00  0.00     0.293 HD
ENDBRANCH   6  22
BRANCH   8  24
ATOM     24  O   UNL     1      50.452 -37.576  28.985  1.00  0.00    -0.508 OA
ATOM     25  H   UNL     1      49.882 -37.229  28.223  1.00  0.00     0.293 HD
ENDBRANCH   8  24
TORSDOF 5
ENDMDL
MODEL 8
REMARK VINA RESULT:    -5.156      2.322      6.943
REMARK INTER + INTRA:          -6.367
REMARK INTER:                  -6.104
REMARK INTRA:                  -0.263
REMARK UNBOUND:                -0.306
REMARK SMILES O=c1cc(-c2ccc(O)c(O)c2)oc2cc(O)cc(O)c12
REMARK SMILES IDX 4 1 3 2 2 3 1 4 21 5 19 6 18 7 16 8 15 9 14 10 13 11 5 12
REMARK SMILES IDX 6 13 7 14 8 15 12 16 10 17 9 18 11 20 20 22 17 24
REMARK H PARENT 9 19 11 21 20 23 17 25
REMARK Flexibility Score: inf
ROOT
ATOM      1  C   UNL     1      48.018 -40.622  30.597  1.00  0.00     0.138 A 
ATOM      2  C   UNL     1      48.914 -41.659  30.895  1.00  0.00     0.100 A 
ATOM      3  C   UNL     1      48.536 -42.983  30.670  1.00  0.00     0.197 A 
ATOM      4  O   UNL     1      49.336 -43.894  31.006  1.00  0.00    -0.289 OA
ATOM      5  C   UNL     1      47.266 -43.268  30.113  1.00  0.00     0.107 A 
ATOM      6  C   UNL     1      46.790 -44.577  29.802  1.00  0.00     0.134 A 
ATOM      7  C   UNL     1      45.472 -44.745  29.361  1.00  0.00     0.093 A 
ATOM      8  C   UNL     1      44.632 -43.645  29.164  1.00  0.00     0.123 A 
ATOM      9  C   UNL     1      45.105 -42.359  29.413  1.00  0.00     0.094 A 
ATOM     10  C   UNL     1      46.405 -42.162  29.886  1.00  0.00     0.146 A 
ATOM     11  O   UNL     1      46.811 -40.919  30.125  1.00  0.00    -0.456 OA
ENDROOT
BRANCH   1  12
ATOM     12  C   UNL     1      48.369 -39.196  30.816  1.00  0.00     0.021 A 
ATOM     13  C   UNL     1      47.906 -38.484  31.938  1.00  0.00     0.016 A 
ATOM     14  C   UNL     1      48.261 -37.146  32.125  1.00  0.00     0.051 A 
ATOM     15  C   UNL     1      49.088 -36.498  31.200  1.00  0.00     0.157 A 
ATOM     16  C   UNL     1      49.212 -38.542  29.899  1.00  0.00     0.062 A 
ATOM     17  C   UNL     1      49.568 -37.201  30.083  1.00  0.00     0.158 A 
BRANCH  15  18
ATOM     18  O   UNL     1      49.439 -35.161  31.389  1.00  0.00    -0.504 OA
ATOM     19  H   UNL     1      49.257 -34.459  30.681  1.00  0.00     0.293 HD
ENDBRANCH  15  18
BRANCH  17  20
ATOM     20  O   UNL     1      50.398 -36.586  29.146  1.00  0.00    -0.504 OA
ATOM     21  H   UNL     1      51.408 -36.641  29.204  1.00  0.00     0.293 HD
ENDBRANCH  17  20
ENDBRANCH   1  12
BRANCH   6  22
ATOM     22  O   UNL     1      47.573 -45.732  29.883  1.00  0.00    -0.507 OA
ATOM     23  H   UNL     1      47.216 -46.675  29.840  1.00  0.00     0.293 HD
ENDBRANCH   6  22
BRANCH   8  24
ATOM     24  O   UNL     1      43.326 -43.822  28.711  1.00  0.00    -0.508 OA
ATOM     25  H   UNL     1      42.941 -43.247  27.970  1.00  0.00     0.293 HD
ENDBRANCH   8  24
TORSDOF 5
ENDMDL
MODEL 9
REMARK VINA RESULT:    -4.731      1.429      1.517
REMARK INTER + INTRA:          -5.867
REMARK INTER:                  -5.603
REMARK INTRA:                  -0.264
REMARK UNBOUND:                -0.306
REMARK SMILES O=c1cc(-c2ccc(O)c(O)c2)oc2cc(O)cc(O)c12
REMARK SMILES IDX 4 1 3 2 2 3 1 4 21 5 19 6 18 7 16 8 15 9 14 10 13 11 5 12
REMARK SMILES IDX 6 13 7 14 8 15 12 16 10 17 9 18 11 20 20 22 17 24
REMARK H PARENT 9 19 11 21 20 23 17 25
REMARK Flexibility Score: inf
ROOT
ATOM      1  C   UNL     1      47.271 -40.778  30.320  1.00  0.00     0.138 A 
ATOM      2  C   UNL     1      47.114 -39.509  29.745  1.00  0.00     0.100 A 
ATOM      3  C   UNL     1      48.239 -38.732  29.470  1.00  0.00     0.197 A 
ATOM      4  O   UNL     1      48.063 -37.573  29.013  1.00  0.00    -0.289 OA
ATOM      5  C   UNL     1      49.531 -39.242  29.743  1.00  0.00     0.107 A 
ATOM      6  C   UNL     1      50.752 -38.556  29.467  1.00  0.00     0.134 A 
ATOM      7  C   UNL     1      51.966 -39.111  29.887  1.00  0.00     0.093 A 
ATOM      8  C   UNL     1      52.008 -40.356  30.521  1.00  0.00     0.123 A 
ATOM      9  C   UNL     1      50.827 -41.059  30.746  1.00  0.00     0.094 A 
ATOM     10  C   UNL     1      49.596 -40.515  30.369  1.00  0.00     0.146 A 
ATOM     11  O   UNL     1      48.492 -41.212  30.616  1.00  0.00    -0.456 OA
ENDROOT
BRANCH   1  12
ATOM     12  C   UNL     1      46.108 -41.647  30.632  1.00  0.00     0.021 A 
ATOM     13  C   UNL     1      45.431 -41.562  31.862  1.00  0.00     0.016 A 
ATOM     14  C   UNL     1      44.332 -42.384  32.125  1.00  0.00     0.051 A 
ATOM     15  C   UNL     1      43.887 -43.299  31.162  1.00  0.00     0.157 A 
ATOM     16  C   UNL     1      45.646 -42.558  29.665  1.00  0.00     0.062 A 
ATOM     17  C   UNL     1      44.546 -43.384  29.926  1.00  0.00     0.158 A 
BRANCH  15  18
ATOM     18  O   UNL     1      42.791 -44.120  31.429  1.00  0.00    -0.504 OA
ATOM     19  H   UNL     1      41.891 -43.735  31.691  1.00  0.00     0.293 HD
ENDBRANCH  15  18
BRANCH  17  20
ATOM     20  O   UNL     1      44.126 -44.281  28.945  1.00  0.00    -0.504 OA
ATOM     21  H   UNL     1      43.640 -45.141  29.174  1.00  0.00     0.293 HD
ENDBRANCH  17  20
ENDBRANCH   1  12
BRANCH   6  22
ATOM     22  O   UNL     1      50.827 -37.349  28.765  1.00  0.00    -0.507 OA
ATOM     23  H   UNL     1      50.074 -36.946  28.227  1.00  0.00     0.293 HD
ENDBRANCH   6  22
BRANCH   8  24
ATOM     24  O   UNL     1      53.223 -40.908  30.922  1.00  0.00    -0.508 OA
ATOM     25  H   UNL     1      53.263 -41.754  31.478  1.00  0.00     0.293 HD
ENDBRANCH   8  24
TORSDOF 5
ENDMDL
