MODEL 1
REMARK VINA RESULT:    -4.922      0.000      0.000
REMARK INTER + INTRA:          -5.779
REMARK INTER:                  -5.641
REMARK INTRA:                  -0.138
REMARK UNBOUND:                -0.138
REMARK SMILES O=C([O-])C=Cc1ccc(O)cc1
REMARK SMILES IDX 6 1 7 2 12 3 8 4 11 5 9 6 5 7 4 8 2 9 1 10 3 11 10 12
REMARK H PARENT 10 13
REMARK Flexibility Score: inf
ROOT
ATOM      1  C   UNL     1      20.344   0.054 -19.190  1.00  0.00    -0.025 A 
ATOM      2  C   UNL     1      20.987   0.633 -18.076  1.00  0.00     0.012 A 
ATOM      3  C   UNL     1      19.071  -0.515 -19.017  1.00  0.00     0.012 A 
ATOM      4  C   UNL     1      20.377   0.614 -16.819  1.00  0.00     0.047 A 
ATOM      5  C   UNL     1      18.465  -0.532 -17.758  1.00  0.00     0.047 A 
ATOM      6  C   UNL     1      19.114   0.030 -16.656  1.00  0.00     0.115 A 
ENDROOT
BRANCH   1   7
ATOM      7  C   UNL     1      20.942   0.056 -20.549  1.00  0.00     0.010 C 
ATOM      8  C   UNL     1      21.414   1.156 -21.153  1.00  0.00     0.025 C 
BRANCH   8   9
ATOM      9  C   UNL     1      22.010   1.108 -22.497  1.00  0.00     0.064 C 
ATOM     10  O   UNL     1      22.212   2.181 -23.125  1.00  0.00    -0.545 OA
ATOM     11  O   UNL     1      22.351  -0.103 -23.089  1.00  0.00    -0.545 OA
ENDBRANCH   8   9
ENDBRANCH   1   7
BRANCH   6  12
ATOM     12  O   UNL     1      18.498   0.006 -15.406  1.00  0.00    -0.508 OA
ATOM     13  H   UNL     1      17.683   0.575 -15.207  1.00  0.00     0.293 HD
ENDBRANCH   6  12
TORSDOF 3
ENDMDL
MODEL 2
REMARK VINA RESULT:    -4.917      2.590      5.348
REMARK INTER + INTRA:          -5.773
REMARK INTER:                  -5.634
REMARK INTRA:                  -0.139
REMARK UNBOUND:                -0.138
REMARK SMILES O=C([O-])C=Cc1ccc(O)cc1
REMARK SMILES IDX 6 1 7 2 12 3 8 4 11 5 9 6 5 7 4 8 2 9 1 10 3 11 10 12
REMARK H PARENT 10 13
REMARK Flexibility Score: inf
ROOT
ATOM      1  C   UNL     1      21.217   0.560 -18.613  1.00  0.00    -0.025 A 
ATOM      2  C   UNL     1      21.556   1.288 -19.772  1.00  0.00     0.012 A 
ATOM      3  C   UNL     1      20.659  -0.722 -18.758  1.00  0.00     0.012 A 
ATOM      4  C   UNL     1      21.316   0.751 -21.040  1.00  0.00     0.047 A 
ATOM      5  C   UNL     1      20.419  -1.254 -20.028  1.00  0.00     0.047 A 
ATOM      6  C   UNL     1      20.744  -0.521 -21.171  1.00  0.00     0.115 A 
ENDROOT
BRANCH   1   7
ATOM      7  C   UNL     1      21.461   1.077 -17.244  1.00  0.00     0.010 C 
ATOM      8  C   UNL     1      22.672   1.419 -16.781  1.00  0.00     0.025 C 
BRANCH   8   9
ATOM      9  C   UNL     1      22.865   1.939 -15.419  1.00  0.00     0.064 C 
ATOM     10  O   UNL     1      21.903   2.490 -14.822  1.00  0.00    -0.545 OA
ATOM     11  O   UNL     1      24.095   1.836 -14.779  1.00  0.00    -0.545 OA
ENDBRANCH   8   9
ENDBRANCH   1   7
BRANCH   6  12
ATOM     12  O   UNL     1      20.500  -1.065 -22.431  1.00  0.00    -0.508 OA
ATOM     13  H   UNL     1      21.035  -1.851 -22.781  1.00  0.00     0.293 HD
ENDBRANCH   6  12
TORSDOF 3
ENDMDL
MODEL 3
REMARK VINA RESULT:    -4.903      1.107      5.891
REMARK INTER + INTRA:          -5.758
REMARK INTER:                  -5.605
REMARK INTRA:                  -0.153
REMARK UNBOUND:                -0.138
REMARK SMILES O=C([O-])C=Cc1ccc(O)cc1
REMARK SMILES IDX 6 1 7 2 12 3 8 4 11 5 9 6 5 7 4 8 2 9 1 10 3 11 10 12
REMARK H PARENT 10 13
REMARK Flexibility Score: inf
ROOT
ATOM      1  C   UNL     1      20.284  -0.294 -19.597  1.00  0.00    -0.025 A 
ATOM      2  C   UNL     1      20.308  -0.905 -20.867  1.00  0.00     0.012 A 
ATOM      3  C   UNL     1      20.999   0.901 -19.408  1.00  0.00     0.012 A 
ATOM      4  C   UNL     1      21.051  -0.344 -21.910  1.00  0.00     0.047 A 
ATOM      5  C   UNL     1      21.741   1.459 -20.452  1.00  0.00     0.047 A 
ATOM      6  C   UNL     1      21.772   0.839 -21.704  1.00  0.00     0.115 A 
ENDROOT
BRANCH   1   7
ATOM      7  C   UNL     1      19.503  -0.842 -18.460  1.00  0.00     0.010 C 
ATOM      8  C   UNL     1      19.105  -0.111 -17.409  1.00  0.00     0.025 C 
BRANCH   8   9
ATOM      9  C   UNL     1      18.321  -0.695 -16.309  1.00  0.00     0.064 C 
ATOM     10  O   UNL     1      18.315  -1.943 -16.145  1.00  0.00    -0.545 OA
ATOM     11  O   UNL     1      17.583   0.110 -15.449  1.00  0.00    -0.545 OA
ENDBRANCH   8   9
ENDBRANCH   1   7
BRANCH   6  12
ATOM     12  O   UNL     1      22.516   1.407 -22.736  1.00  0.00    -0.508 OA
ATOM     13  H   UNL     1      22.335   1.180 -23.707  1.00  0.00     0.293 HD
ENDBRANCH   6  12
TORSDOF 3
ENDMDL
MODEL 4
REMARK VINA RESULT:    -4.896      1.430      5.891
REMARK INTER + INTRA:          -5.749
REMARK INTER:                  -5.612
REMARK INTRA:                  -0.137
REMARK UNBOUND:                -0.138
REMARK SMILES O=C([O-])C=Cc1ccc(O)cc1
REMARK SMILES IDX 6 1 7 2 12 3 8 4 11 5 9 6 5 7 4 8 2 9 1 10 3 11 10 12
REMARK H PARENT 10 13
REMARK Flexibility Score: inf
ROOT
ATOM      1  C   UNL     1      19.902  -0.175 -18.518  1.00  0.00    -0.025 A 
ATOM      2  C   UNL     1      20.995   0.637 -18.152  1.00  0.00     0.012 A 
ATOM      3  C   UNL     1      19.585  -0.310 -19.880  1.00  0.00     0.012 A 
ATOM      4  C   UNL     1      21.731   1.315 -19.129  1.00  0.00     0.047 A 
ATOM      5  C   UNL     1      20.322   0.369 -20.854  1.00  0.00     0.047 A 
ATOM      6  C   UNL     1      21.395   1.184 -20.483  1.00  0.00     0.115 A 
ENDROOT
BRANCH   1   7
ATOM      7  C   UNL     1      19.095  -0.925 -17.523  1.00  0.00     0.010 C 
ATOM      8  C   UNL     1      18.435  -0.346 -16.510  1.00  0.00     0.025 C 
BRANCH   8   9
ATOM      9  C   UNL     1      17.637  -1.128 -15.553  1.00  0.00     0.064 C 
ATOM     10  O   UNL     1      17.982  -2.307 -15.275  1.00  0.00    -0.545 OA
ATOM     11  O   UNL     1      16.506  -0.588 -14.953  1.00  0.00    -0.545 OA
ENDBRANCH   8   9
ENDBRANCH   1   7
BRANCH   6  12
ATOM     12  O   UNL     1      22.121   1.856 -21.464  1.00  0.00    -0.508 OA
ATOM     13  H   UNL     1      21.681   2.527 -22.082  1.00  0.00     0.293 HD
ENDBRANCH   6  12
TORSDOF 3
ENDMDL
MODEL 5
REMARK VINA RESULT:    -4.857      2.587      5.442
REMARK INTER + INTRA:          -5.705
REMARK INTER:                  -5.562
REMARK INTRA:                  -0.143
REMARK UNBOUND:                -0.138
REMARK SMILES O=C([O-])C=Cc1ccc(O)cc1
REMARK SMILES IDX 6 1 7 2 12 3 8 4 11 5 9 6 5 7 4 8 2 9 1 10 3 11 10 12
REMARK H PARENT 10 13
REMARK Flexibility Score: inf
ROOT
ATOM      1  C   UNL     1      21.131   0.453 -18.467  1.00  0.00    -0.025 A 
ATOM      2  C   UNL     1      20.518  -0.804 -18.651  1.00  0.00     0.012 A 
ATOM      3  C   UNL     1      21.504   1.196 -19.600  1.00  0.00     0.012 A 
ATOM      4  C   UNL     1      20.311  -1.309 -19.938  1.00  0.00     0.047 A 
ATOM      5  C   UNL     1      21.296   0.687 -20.885  1.00  0.00     0.047 A 
ATOM      6  C   UNL     1      20.702  -0.565 -21.059  1.00  0.00     0.115 A 
ENDROOT
BRANCH   1   7
ATOM      7  C   UNL     1      21.364   1.040 -17.124  1.00  0.00     0.010 C 
ATOM      8  C   UNL     1      22.563   1.448 -16.687  1.00  0.00     0.025 C 
BRANCH   8   9
ATOM      9  C   UNL     1      22.745   2.036 -15.350  1.00  0.00     0.064 C 
ATOM     10  O   UNL     1      21.767   2.580 -14.773  1.00  0.00    -0.545 OA
ATOM     11  O   UNL     1      23.981   2.003 -14.714  1.00  0.00    -0.545 OA
ENDBRANCH   8   9
ENDBRANCH   1   7
BRANCH   6  12
ATOM     12  O   UNL     1      20.501  -1.059 -22.346  1.00  0.00    -0.508 OA
ATOM     13  H   UNL     1      20.814  -0.549 -23.164  1.00  0.00     0.293 HD
ENDBRANCH   6  12
TORSDOF 3
ENDMDL
MODEL 6
REMARK VINA RESULT:    -4.626     15.129     15.915
REMARK INTER + INTRA:          -5.440
REMARK INTER:                  -5.305
REMARK INTRA:                  -0.136
REMARK UNBOUND:                -0.138
REMARK SMILES O=C([O-])C=Cc1ccc(O)cc1
REMARK SMILES IDX 6 1 7 2 12 3 8 4 11 5 9 6 5 7 4 8 2 9 1 10 3 11 10 12
REMARK H PARENT 10 13
REMARK Flexibility Score: inf
ROOT
ATOM      1  C   UNL     1       8.637  -5.267 -10.640  1.00  0.00    -0.025 A 
ATOM      2  C   UNL     1       7.997  -5.347  -9.385  1.00  0.00     0.012 A 
ATOM      3  C   UNL     1       9.998  -5.604 -10.727  1.00  0.00     0.012 A 
ATOM      4  C   UNL     1       8.714  -5.730  -8.248  1.00  0.00     0.047 A 
ATOM      5  C   UNL     1      10.712  -5.986  -9.588  1.00  0.00     0.047 A 
ATOM      6  C   UNL     1      10.075  -6.048  -8.346  1.00  0.00     0.115 A 
ENDROOT
BRANCH   1   7
ATOM      7  C   UNL     1       7.920  -4.878 -11.879  1.00  0.00     0.010 C 
ATOM      8  C   UNL     1       7.694  -3.607 -12.241  1.00  0.00     0.025 C 
BRANCH   8   9
ATOM      9  C   UNL     1       6.988  -3.268 -13.487  1.00  0.00     0.064 C 
ATOM     10  O   UNL     1       7.135  -3.997 -14.502  1.00  0.00    -0.545 OA
ATOM     11  O   UNL     1       6.162  -2.152 -13.562  1.00  0.00    -0.545 OA
ENDBRANCH   8   9
ENDBRANCH   1   7
BRANCH   6  12
ATOM     12  O   UNL     1      10.799  -6.430  -7.219  1.00  0.00    -0.508 OA
ATOM     13  H   UNL     1      11.420  -5.784  -6.744  1.00  0.00     0.293 HD
ENDBRANCH   6  12
TORSDOF 3
ENDMDL
MODEL 7
REMARK VINA RESULT:    -4.475     15.579     18.310
REMARK INTER + INTRA:          -5.267
REMARK INTER:                  -5.129
REMARK INTRA:                  -0.138
REMARK UNBOUND:                -0.138
REMARK SMILES O=C([O-])C=Cc1ccc(O)cc1
REMARK SMILES IDX 6 1 7 2 12 3 8 4 11 5 9 6 5 7 4 8 2 9 1 10 3 11 10 12
REMARK H PARENT 10 13
REMARK Flexibility Score: inf
ROOT
ATOM      1  C   UNL     1       8.445  -6.729  -7.541  1.00  0.00    -0.025 A 
ATOM      2  C   UNL     1       8.297  -5.931  -6.387  1.00  0.00     0.012 A 
ATOM      3  C   UNL     1       8.136  -8.098  -7.461  1.00  0.00     0.012 A 
ATOM      4  C   UNL     1       7.878  -6.501  -5.182  1.00  0.00     0.047 A 
ATOM      5  C   UNL     1       7.717  -8.664  -6.254  1.00  0.00     0.047 A 
ATOM      6  C   UNL     1       7.588  -7.870  -5.111  1.00  0.00     0.115 A 
ENDROOT
BRANCH   1   7
ATOM      7  C   UNL     1       8.876  -6.173  -8.848  1.00  0.00     0.010 C 
ATOM      8  C   UNL     1       8.093  -5.419  -9.631  1.00  0.00     0.025 C 
BRANCH   8   9
ATOM      9  C   UNL     1       8.568  -4.879 -10.915  1.00  0.00     0.064 C 
ATOM     10  O   UNL     1       9.802  -4.870 -11.167  1.00  0.00    -0.545 OA
ATOM     11  O   UNL     1       7.676  -4.375 -11.855  1.00  0.00    -0.545 OA
ENDBRANCH   8   9
ENDBRANCH   1   7
BRANCH   6  12
ATOM     12  O   UNL     1       7.169  -8.448  -3.915  1.00  0.00    -0.508 OA
ATOM     13  H   UNL     1       7.217  -9.449  -3.765  1.00  0.00     0.293 HD
ENDBRANCH   6  12
TORSDOF 3
ENDMDL
MODEL 8
REMARK VINA RESULT:    -4.456     15.948     18.223
REMARK INTER + INTRA:          -5.246
REMARK INTER:                  -5.113
REMARK INTRA:                  -0.133
REMARK UNBOUND:                -0.138
REMARK SMILES O=C([O-])C=Cc1ccc(O)cc1
REMARK SMILES IDX 6 1 7 2 12 3 8 4 11 5 9 6 5 7 4 8 2 9 1 10 3 11 10 12
REMARK H PARENT 10 13
REMARK Flexibility Score: inf
ROOT
ATOM      1  C   UNL     1       8.268  -5.901  -9.589  1.00  0.00    -0.025 A 
ATOM      2  C   UNL     1       7.959  -4.672 -10.210  1.00  0.00     0.012 A 
ATOM      3  C   UNL     1       8.339  -7.059 -10.381  1.00  0.00     0.012 A 
ATOM      4  C   UNL     1       7.704  -4.617 -11.583  1.00  0.00     0.047 A 
ATOM      5  C   UNL     1       8.082  -7.000 -11.754  1.00  0.00     0.047 A 
ATOM      6  C   UNL     1       7.763  -5.782 -12.359  1.00  0.00     0.115 A 
ENDROOT
BRANCH   1   7
ATOM      7  C   UNL     1       8.558  -6.013  -8.138  1.00  0.00     0.010 C 
ATOM      8  C   UNL     1       7.613  -6.161  -7.199  1.00  0.00     0.025 C 
BRANCH   8   9
ATOM      9  C   UNL     1       7.949  -6.280  -5.771  1.00  0.00     0.064 C 
ATOM     10  O   UNL     1       7.659  -7.337  -5.152  1.00  0.00    -0.545 OA
ATOM     11  O   UNL     1       8.578  -5.242  -5.094  1.00  0.00    -0.545 OA
ENDBRANCH   8   9
ENDBRANCH   1   7
BRANCH   6  12
ATOM     12  O   UNL     1       7.510  -5.738 -13.728  1.00  0.00    -0.508 OA
ATOM     13  H   UNL     1       8.075  -5.175 -14.353  1.00  0.00     0.293 HD
ENDBRANCH   6  12
TORSDOF 3
ENDMDL
MODEL 9
REMARK VINA RESULT:    -4.403      1.684      2.636
REMARK INTER + INTRA:          -5.185
REMARK INTER:                  -5.044
REMARK INTRA:                  -0.141
REMARK UNBOUND:                -0.138
REMARK SMILES O=C([O-])C=Cc1ccc(O)cc1
REMARK SMILES IDX 6 1 7 2 12 3 8 4 11 5 9 6 5 7 4 8 2 9 1 10 3 11 10 12
REMARK H PARENT 10 13
REMARK Flexibility Score: inf
ROOT
ATOM      1  C   UNL     1      20.875   0.629 -17.652  1.00  0.00    -0.025 A 
ATOM      2  C   UNL     1      19.670   0.575 -16.921  1.00  0.00     0.012 A 
ATOM      3  C   UNL     1      22.035   1.097 -17.012  1.00  0.00     0.012 A 
ATOM      4  C   UNL     1      19.630   1.005 -15.592  1.00  0.00     0.047 A 
ATOM      5  C   UNL     1      21.990   1.526 -15.682  1.00  0.00     0.047 A 
ATOM      6  C   UNL     1      20.790   1.484 -14.969  1.00  0.00     0.115 A 
ENDROOT
BRANCH   1   7
ATOM      7  C   UNL     1      20.976   0.176 -19.062  1.00  0.00     0.010 C 
ATOM      8  C   UNL     1      21.270   0.988 -20.087  1.00  0.00     0.025 C 
BRANCH   8   9
ATOM      9  C   UNL     1      21.371   0.491 -21.468  1.00  0.00     0.064 C 
ATOM     10  O   UNL     1      20.889  -0.635 -21.760  1.00  0.00    -0.545 OA
ATOM     11  O   UNL     1      21.993   1.244 -22.457  1.00  0.00    -0.545 OA
ENDBRANCH   8   9
ENDBRANCH   1   7
BRANCH   6  12
ATOM     12  O   UNL     1      20.760   1.915 -13.644  1.00  0.00    -0.508 OA
ATOM     13  H   UNL     1      21.593   2.257 -13.180  1.00  0.00     0.293 HD
ENDBRANCH   6  12
TORSDOF 3
ENDMDL
