MODEL 1
REMARK VINA RESULT:    -3.664      0.000      0.000
REMARK INTER + INTRA:          -9.717
REMARK INTER:                  -7.091
REMARK INTRA:                  -2.626
REMARK UNBOUND:                -2.626
REMARK SMILES CCCCCCCCCCCCCCCCCC(=O)[O-]
REMARK SMILES IDX 10 1 11 2 12 3 13 4 14 5 15 6 16 7 17 8 18 9 19 10 20 11
REMARK SMILES IDX 9 12 8 13 7 14 6 15 5 16 4 17 3 18 2 19 1 20
REMARK H PARENT
REMARK Flexibility Score: inf
ROOT
ATOM      1  C   UNL     1      -3.614  28.239  -0.183  1.00  0.00     0.000 C 
ENDROOT
BRANCH   1   2
ATOM      2  C   UNL     1      -2.533  29.060   0.542  1.00  0.00     0.000 C 
BRANCH   2   3
ATOM      3  C   UNL     1      -2.763  29.178   2.063  1.00  0.00     0.000 C 
BRANCH   3   4
ATOM      4  C   UNL     1      -2.337  27.911   2.843  1.00  0.00     0.000 C 
BRANCH   4   5
ATOM      5  C   UNL     1      -3.520  27.158   3.476  1.00  0.00     0.000 C 
BRANCH   5   6
ATOM      6  C   UNL     1      -3.504  25.660   3.134  1.00  0.00     0.000 C 
BRANCH   6   7
ATOM      7  C   UNL     1      -4.367  25.325   1.907  1.00  0.00     0.006 C 
BRANCH   7   8
ATOM      8  C   UNL     1      -5.856  25.625   2.133  1.00  0.00     0.053 C 
BRANCH   8   9
ATOM      9  C   UNL     1      -6.686  25.018   1.047  1.00  0.00     0.041 C 
ATOM     10  O   UNL     1      -7.089  23.830   1.143  1.00  0.00    -0.550 OA
ATOM     11  O   UNL     1      -7.030  25.771  -0.070  1.00  0.00    -0.550 OA
ENDBRANCH   8   9
ENDBRANCH   7   8
ENDBRANCH   6   7
ENDBRANCH   5   6
ENDBRANCH   4   5
ENDBRANCH   3   4
ENDBRANCH   2   3
ENDBRANCH   1   2
BRANCH   1  12
ATOM     12  C   UNL     1      -3.039  27.054  -0.972  1.00  0.00     0.000 C 
BRANCH  12  13
ATOM     13  C   UNL     1      -1.530  26.850  -0.742  1.00  0.00    -0.000 C 
BRANCH  13  14
ATOM     14  C   UNL     1      -1.160  25.689   0.203  1.00  0.00    -0.000 C 
BRANCH  14  15
ATOM     15  C   UNL     1      -0.469  24.489  -0.471  1.00  0.00    -0.000 C 
BRANCH  15  16
ATOM     16  C   UNL     1      -0.685  23.131   0.221  1.00  0.00    -0.000 C 
BRANCH  16  17
ATOM     17  C   UNL     1      -1.223  22.050  -0.735  1.00  0.00    -0.000 C 
BRANCH  17  18
ATOM     18  C   UNL     1      -2.553  21.436  -0.260  1.00  0.00    -0.000 C 
BRANCH  18  19
ATOM     19  C   UNL     1      -3.670  22.450   0.043  1.00  0.00    -0.003 C 
ATOM     20  C   UNL     1      -4.146  23.206  -1.197  1.00  0.00     0.004 C 
ENDBRANCH  18  19
ENDBRANCH  17  18
ENDBRANCH  16  17
ENDBRANCH  15  16
ENDBRANCH  14  15
ENDBRANCH  13  14
ENDBRANCH  12  13
ENDBRANCH   1  12
TORSDOF 16
ENDMDL
MODEL 2
REMARK VINA RESULT:    -3.546      1.753      5.351
REMARK INTER + INTRA:          -9.488
REMARK INTER:                  -7.610
REMARK INTRA:                  -1.878
REMARK UNBOUND:                -2.626
REMARK SMILES CCCCCCCCCCCCCCCCCC(=O)[O-]
REMARK SMILES IDX 10 1 11 2 12 3 13 4 14 5 15 6 16 7 17 8 18 9 19 10 20 11
REMARK SMILES IDX 9 12 8 13 7 14 6 15 5 16 4 17 3 18 2 19 1 20
REMARK H PARENT
REMARK Flexibility Score: inf
ROOT
ATOM      1  C   UNL     1      -0.876  25.239   0.039  1.00  0.00     0.000 C 
ENDROOT
BRANCH   1   2
ATOM      2  C   UNL     1      -0.300  23.823  -0.134  1.00  0.00     0.000 C 
BRANCH   2   3
ATOM      3  C   UNL     1      -1.202  22.886  -0.963  1.00  0.00     0.000 C 
BRANCH   3   4
ATOM      4  C   UNL     1      -1.927  21.822  -0.105  1.00  0.00     0.000 C 
BRANCH   4   5
ATOM      5  C   UNL     1      -3.454  21.819  -0.300  1.00  0.00     0.000 C 
BRANCH   5   6
ATOM      6  C   UNL     1      -4.129  23.006   0.403  1.00  0.00     0.000 C 
BRANCH   6   7
ATOM      7  C   UNL     1      -4.768  23.994  -0.587  1.00  0.00     0.006 C 
BRANCH   7   8
ATOM      8  C   UNL     1      -6.220  24.339  -0.223  1.00  0.00     0.053 C 
BRANCH   8   9
ATOM      9  C   UNL     1      -6.815  25.257  -1.244  1.00  0.00     0.041 C 
ATOM     10  O   UNL     1      -7.583  24.807  -2.131  1.00  0.00    -0.550 OA
ATOM     11  O   UNL     1      -6.532  26.617  -1.205  1.00  0.00    -0.550 OA
ENDBRANCH   8   9
ENDBRANCH   7   8
ENDBRANCH   6   7
ENDBRANCH   5   6
ENDBRANCH   4   5
ENDBRANCH   3   4
ENDBRANCH   2   3
ENDBRANCH   1   2
BRANCH   1  12
ATOM     12  C   UNL     1      -1.929  25.327   1.154  1.00  0.00     0.000 C 
BRANCH  12  13
ATOM     13  C   UNL     1      -2.249  26.776   1.569  1.00  0.00    -0.000 C 
BRANCH  13  14
ATOM     14  C   UNL     1      -3.010  26.925   2.901  1.00  0.00    -0.000 C 
BRANCH  14  15
ATOM     15  C   UNL     1      -4.421  26.307   2.924  1.00  0.00    -0.000 C 
BRANCH  15  16
ATOM     16  C   UNL     1      -5.481  27.057   2.097  1.00  0.00    -0.000 C 
BRANCH  16  17
ATOM     17  C   UNL     1      -6.922  26.687   2.494  1.00  0.00    -0.000 C 
BRANCH  17  18
ATOM     18  C   UNL     1      -6.986  25.546   3.527  1.00  0.00    -0.000 C 
BRANCH  18  19
ATOM     19  C   UNL     1      -7.735  25.883   4.828  1.00  0.00    -0.003 C 
ATOM     20  C   UNL     1      -6.799  26.203   5.993  1.00  0.00     0.004 C 
ENDBRANCH  18  19
ENDBRANCH  17  18
ENDBRANCH  16  17
ENDBRANCH  15  16
ENDBRANCH  14  15
ENDBRANCH  13  14
ENDBRANCH  12  13
ENDBRANCH   1  12
TORSDOF 16
ENDMDL
MODEL 3
REMARK VINA RESULT:    -3.531      1.618      3.687
REMARK INTER + INTRA:          -9.459
REMARK INTER:                  -6.406
REMARK INTRA:                  -3.054
REMARK UNBOUND:                -2.626
REMARK SMILES CCCCCCCCCCCCCCCCCC(=O)[O-]
REMARK SMILES IDX 10 1 11 2 12 3 13 4 14 5 15 6 16 7 17 8 18 9 19 10 20 11
REMARK SMILES IDX 9 12 8 13 7 14 6 15 5 16 4 17 3 18 2 19 1 20
REMARK H PARENT
REMARK Flexibility Score: inf
ROOT
ATOM      1  C   UNL     1      -0.711  23.980   0.206  1.00  0.00     0.000 C 
ENDROOT
BRANCH   1   2
ATOM      2  C   UNL     1      -0.943  25.415  -0.298  1.00  0.00     0.000 C 
BRANCH   2   3
ATOM      3  C   UNL     1      -2.036  26.175   0.482  1.00  0.00     0.000 C 
BRANCH   3   4
ATOM      4  C   UNL     1      -2.399  25.506   1.829  1.00  0.00     0.000 C 
BRANCH   4   5
ATOM      5  C   UNL     1      -3.867  25.720   2.239  1.00  0.00     0.000 C 
BRANCH   5   6
ATOM      6  C   UNL     1      -4.503  26.916   1.513  1.00  0.00     0.000 C 
BRANCH   6   7
ATOM      7  C   UNL     1      -6.039  26.881   1.551  1.00  0.00     0.006 C 
BRANCH   7   8
ATOM      8  C   UNL     1      -6.582  25.798   2.494  1.00  0.00     0.053 C 
BRANCH   8   9
ATOM      9  C   UNL     1      -7.577  24.934   1.786  1.00  0.00     0.041 C 
ATOM     10  O   UNL     1      -8.762  25.325   1.633  1.00  0.00    -0.550 OA
ATOM     11  O   UNL     1      -7.191  23.698   1.281  1.00  0.00    -0.550 OA
ENDBRANCH   8   9
ENDBRANCH   7   8
ENDBRANCH   6   7
ENDBRANCH   5   6
ENDBRANCH   4   5
ENDBRANCH   3   4
ENDBRANCH   2   3
ENDBRANCH   1   2
BRANCH   1  12
ATOM     12  C   UNL     1      -1.100  22.911  -0.826  1.00  0.00     0.000 C 
BRANCH  12  13
ATOM     13  C   UNL     1      -1.687  21.639  -0.186  1.00  0.00    -0.000 C 
BRANCH  13  14
ATOM     14  C   UNL     1      -3.223  21.522  -0.246  1.00  0.00    -0.000 C 
BRANCH  14  15
ATOM     15  C   UNL     1      -3.988  22.854  -0.116  1.00  0.00    -0.000 C 
BRANCH  15  16
ATOM     16  C   UNL     1      -4.715  23.322  -1.390  1.00  0.00    -0.000 C 
BRANCH  16  17
ATOM     17  C   UNL     1      -4.873  24.852  -1.461  1.00  0.00    -0.000 C 
BRANCH  17  18
ATOM     18  C   UNL     1      -4.022  25.492  -2.574  1.00  0.00    -0.000 C 
BRANCH  18  19
ATOM     19  C   UNL     1      -3.157  24.509  -3.383  1.00  0.00    -0.003 C 
ATOM     20  C   UNL     1      -1.803  25.093  -3.784  1.00  0.00     0.004 C 
ENDBRANCH  18  19
ENDBRANCH  17  18
ENDBRANCH  16  17
ENDBRANCH  15  16
ENDBRANCH  14  15
ENDBRANCH  13  14
ENDBRANCH  12  13
ENDBRANCH   1  12
TORSDOF 16
ENDMDL
MODEL 4
REMARK VINA RESULT:    -3.527      3.154      5.601
REMARK INTER + INTRA:          -9.451
REMARK INTER:                  -7.473
REMARK INTRA:                  -1.978
REMARK UNBOUND:                -2.626
REMARK SMILES CCCCCCCCCCCCCCCCCC(=O)[O-]
REMARK SMILES IDX 10 1 11 2 12 3 13 4 14 5 15 6 16 7 17 8 18 9 19 10 20 11
REMARK SMILES IDX 9 12 8 13 7 14 6 15 5 16 4 17 3 18 2 19 1 20
REMARK H PARENT
REMARK Flexibility Score: inf
ROOT
ATOM      1  C   UNL     1      -2.371  27.000   0.292  1.00  0.00     0.000 C 
ENDROOT
BRANCH   1   2
ATOM      2  C   UNL     1      -1.038  27.662  -0.099  1.00  0.00     0.000 C 
BRANCH   2   3
ATOM      3  C   UNL     1      -0.567  28.739   0.900  1.00  0.00     0.000 C 
BRANCH   3   4
ATOM      4  C   UNL     1      -1.358  30.064   0.786  1.00  0.00     0.000 C 
BRANCH   4   5
ATOM      5  C   UNL     1      -2.329  30.298   1.956  1.00  0.00     0.000 C 
BRANCH   5   6
ATOM      6  C   UNL     1      -3.798  30.231   1.510  1.00  0.00     0.000 C 
BRANCH   6   7
ATOM      7  C   UNL     1      -3.992  30.661   0.047  1.00  0.00     0.006 C 
BRANCH   7   8
ATOM      8  C   UNL     1      -5.051  31.762  -0.110  1.00  0.00     0.053 C 
BRANCH   8   9
ATOM      9  C   UNL     1      -6.422  31.168  -0.183  1.00  0.00     0.041 C 
ATOM     10  O   UNL     1      -7.283  31.448   0.689  1.00  0.00    -0.550 OA
ATOM     11  O   UNL     1      -6.756  30.315  -1.229  1.00  0.00    -0.550 OA
ENDBRANCH   8   9
ENDBRANCH   7   8
ENDBRANCH   6   7
ENDBRANCH   5   6
ENDBRANCH   4   5
ENDBRANCH   3   4
ENDBRANCH   2   3
ENDBRANCH   1   2
BRANCH   1  12
ATOM     12  C   UNL     1      -2.256  26.107   1.536  1.00  0.00     0.000 C 
BRANCH  12  13
ATOM     13  C   UNL     1      -2.805  26.773   2.811  1.00  0.00    -0.000 C 
BRANCH  13  14
ATOM     14  C   UNL     1      -4.146  26.209   3.322  1.00  0.00    -0.000 C 
BRANCH  14  15
ATOM     15  C   UNL     1      -5.391  26.660   2.533  1.00  0.00    -0.000 C 
BRANCH  15  16
ATOM     16  C   UNL     1      -6.232  25.522   1.926  1.00  0.00    -0.000 C 
BRANCH  16  17
ATOM     17  C   UNL     1      -7.665  25.473   2.486  1.00  0.00    -0.000 C 
BRANCH  17  18
ATOM     18  C   UNL     1      -7.852  26.355   3.735  1.00  0.00    -0.000 C 
BRANCH  18  19
ATOM     19  C   UNL     1      -7.687  25.627   5.081  1.00  0.00    -0.003 C 
ATOM     20  C   UNL     1      -6.758  26.358   6.048  1.00  0.00     0.004 C 
ENDBRANCH  18  19
ENDBRANCH  17  18
ENDBRANCH  16  17
ENDBRANCH  15  16
ENDBRANCH  14  15
ENDBRANCH  13  14
ENDBRANCH  12  13
ENDBRANCH   1  12
TORSDOF 16
ENDMDL
MODEL 5
REMARK VINA RESULT:    -3.526      1.259      2.426
REMARK INTER + INTRA:          -9.451
REMARK INTER:                  -7.358
REMARK INTRA:                  -2.092
REMARK UNBOUND:                -2.626
REMARK SMILES CCCCCCCCCCCCCCCCCC(=O)[O-]
REMARK SMILES IDX 10 1 11 2 12 3 13 4 14 5 15 6 16 7 17 8 18 9 19 10 20 11
REMARK SMILES IDX 9 12 8 13 7 14 6 15 5 16 4 17 3 18 2 19 1 20
REMARK H PARENT
REMARK Flexibility Score: inf
ROOT
ATOM      1  C   UNL     1      -3.907  30.505   1.049  1.00  0.00     0.000 C 
ENDROOT
BRANCH   1   2
ATOM      2  C   UNL     1      -3.039  30.272   2.298  1.00  0.00     0.000 C 
BRANCH   2   3
ATOM      3  C   UNL     1      -2.372  28.882   2.337  1.00  0.00     0.000 C 
BRANCH   3   4
ATOM      4  C   UNL     1      -2.849  28.011   3.524  1.00  0.00     0.000 C 
BRANCH   4   5
ATOM      5  C   UNL     1      -3.383  26.634   3.093  1.00  0.00     0.000 C 
BRANCH   5   6
ATOM      6  C   UNL     1      -4.849  26.427   3.505  1.00  0.00     0.000 C 
BRANCH   6   7
ATOM      7  C   UNL     1      -5.801  26.380   2.299  1.00  0.00     0.006 C 
BRANCH   7   8
ATOM      8  C   UNL     1      -7.236  26.001   2.694  1.00  0.00     0.053 C 
BRANCH   8   9
ATOM      9  C   UNL     1      -7.725  24.855   1.866  1.00  0.00     0.041 C 
ATOM     10  O   UNL     1      -8.795  24.954   1.213  1.00  0.00    -0.550 OA
ATOM     11  O   UNL     1      -6.989  23.678   1.803  1.00  0.00    -0.550 OA
ENDBRANCH   8   9
ENDBRANCH   7   8
ENDBRANCH   6   7
ENDBRANCH   5   6
ENDBRANCH   4   5
ENDBRANCH   3   4
ENDBRANCH   2   3
ENDBRANCH   1   2
BRANCH   1  12
ATOM     12  C   UNL     1      -4.757  29.282   0.672  1.00  0.00     0.000 C 
BRANCH  12  13
ATOM     13  C   UNL     1      -4.613  28.880  -0.808  1.00  0.00    -0.000 C 
BRANCH  13  14
ATOM     14  C   UNL     1      -3.392  27.996  -1.133  1.00  0.00    -0.000 C 
BRANCH  14  15
ATOM     15  C   UNL     1      -3.540  26.509  -0.755  1.00  0.00    -0.000 C 
BRANCH  15  16
ATOM     16  C   UNL     1      -2.294  25.865  -0.120  1.00  0.00    -0.000 C 
BRANCH  16  17
ATOM     17  C   UNL     1      -2.525  24.402   0.301  1.00  0.00    -0.000 C 
BRANCH  17  18
ATOM     18  C   UNL     1      -1.347  23.480  -0.064  1.00  0.00    -0.000 C 
BRANCH  18  19
ATOM     19  C   UNL     1      -1.719  22.005  -0.299  1.00  0.00    -0.003 C 
ATOM     20  C   UNL     1      -3.201  21.716  -0.064  1.00  0.00     0.004 C 
ENDBRANCH  18  19
ENDBRANCH  17  18
ENDBRANCH  16  17
ENDBRANCH  15  16
ENDBRANCH  14  15
ENDBRANCH  13  14
ENDBRANCH  12  13
ENDBRANCH   1  12
TORSDOF 16
ENDMDL
MODEL 6
REMARK VINA RESULT:    -3.514      1.330      5.030
REMARK INTER + INTRA:          -9.427
REMARK INTER:                  -7.218
REMARK INTRA:                  -2.209
REMARK UNBOUND:                -2.626
REMARK SMILES CCCCCCCCCCCCCCCCCC(=O)[O-]
REMARK SMILES IDX 10 1 11 2 12 3 13 4 14 5 15 6 16 7 17 8 18 9 19 10 20 11
REMARK SMILES IDX 9 12 8 13 7 14 6 15 5 16 4 17 3 18 2 19 1 20
REMARK H PARENT
REMARK Flexibility Score: inf
ROOT
ATOM      1  C   UNL     1       0.165  22.954  -0.984  1.00  0.00     0.000 C 
ENDROOT
BRANCH   1   2
ATOM      2  C   UNL     1      -1.006  22.859   0.010  1.00  0.00     0.000 C 
BRANCH   2   3
ATOM      3  C   UNL     1      -1.897  21.617  -0.202  1.00  0.00     0.000 C 
BRANCH   3   4
ATOM      4  C   UNL     1      -3.407  21.917  -0.042  1.00  0.00     0.000 C 
BRANCH   4   5
ATOM      5  C   UNL     1      -3.709  23.401   0.228  1.00  0.00     0.000 C 
BRANCH   5   6
ATOM      6  C   UNL     1      -4.497  24.050  -0.920  1.00  0.00     0.000 C 
BRANCH   6   7
ATOM      7  C   UNL     1      -5.706  24.859  -0.424  1.00  0.00     0.006 C 
BRANCH   7   8
ATOM      8  C   UNL     1      -5.771  24.944   1.108  1.00  0.00     0.053 C 
BRANCH   8   9
ATOM      9  C   UNL     1      -6.994  24.251   1.623  1.00  0.00     0.041 C 
ATOM     10  O   UNL     1      -7.133  24.041   2.855  1.00  0.00    -0.550 OA
ATOM     11  O   UNL     1      -7.989  23.849   0.740  1.00  0.00    -0.550 OA
ENDBRANCH   8   9
ENDBRANCH   7   8
ENDBRANCH   6   7
ENDBRANCH   5   6
ENDBRANCH   4   5
ENDBRANCH   3   4
ENDBRANCH   2   3
ENDBRANCH   1   2
BRANCH   1  12
ATOM     12  C   UNL     1       0.271  24.331  -1.657  1.00  0.00     0.000 C 
BRANCH  12  13
ATOM     13  C   UNL     1      -1.048  25.127  -1.615  1.00  0.00    -0.000 C 
BRANCH  13  14
ATOM     14  C   UNL     1      -0.913  26.598  -1.175  1.00  0.00    -0.000 C 
BRANCH  14  15
ATOM     15  C   UNL     1      -1.064  26.847   0.338  1.00  0.00    -0.000 C 
BRANCH  15  16
ATOM     16  C   UNL     1      -2.513  26.935   0.849  1.00  0.00    -0.000 C 
BRANCH  16  17
ATOM     17  C   UNL     1      -2.668  26.438   2.298  1.00  0.00    -0.000 C 
BRANCH  17  18
ATOM     18  C   UNL     1      -3.152  27.539   3.261  1.00  0.00    -0.000 C 
BRANCH  18  19
ATOM     19  C   UNL     1      -2.134  28.659   3.538  1.00  0.00    -0.003 C 
ATOM     20  C   UNL     1      -2.588  30.023   3.020  1.00  0.00     0.004 C 
ENDBRANCH  18  19
ENDBRANCH  17  18
ENDBRANCH  16  17
ENDBRANCH  15  16
ENDBRANCH  14  15
ENDBRANCH  13  14
ENDBRANCH  12  13
ENDBRANCH   1  12
TORSDOF 16
ENDMDL
MODEL 7
REMARK VINA RESULT:    -3.507      1.597      3.401
REMARK INTER + INTRA:          -9.412
REMARK INTER:                  -6.442
REMARK INTRA:                  -2.970
REMARK UNBOUND:                -2.626
REMARK SMILES CCCCCCCCCCCCCCCCCC(=O)[O-]
REMARK SMILES IDX 10 1 11 2 12 3 13 4 14 5 15 6 16 7 17 8 18 9 19 10 20 11
REMARK SMILES IDX 9 12 8 13 7 14 6 15 5 16 4 17 3 18 2 19 1 20
REMARK H PARENT
REMARK Flexibility Score: inf
ROOT
ATOM      1  C   UNL     1      -4.440  23.721  -1.230  1.00  0.00     0.000 C 
ENDROOT
BRANCH   1   2
ATOM      2  C   UNL     1      -4.738  25.209  -0.973  1.00  0.00     0.000 C 
BRANCH   2   3
ATOM      3  C   UNL     1      -3.482  26.042  -0.643  1.00  0.00     0.000 C 
BRANCH   3   4
ATOM      4  C   UNL     1      -3.581  26.781   0.713  1.00  0.00     0.000 C 
BRANCH   4   5
ATOM      5  C   UNL     1      -2.988  25.983   1.887  1.00  0.00     0.000 C 
BRANCH   5   6
ATOM      6  C   UNL     1      -4.015  25.751   3.007  1.00  0.00     0.000 C 
BRANCH   6   7
ATOM      7  C   UNL     1      -5.465  25.886   2.515  1.00  0.00     0.006 C 
BRANCH   7   8
ATOM      8  C   UNL     1      -6.204  24.540   2.476  1.00  0.00     0.053 C 
BRANCH   8   9
ATOM      9  C   UNL     1      -7.524  24.683   1.787  1.00  0.00     0.041 C 
ATOM     10  O   UNL     1      -8.381  25.495   2.218  1.00  0.00    -0.550 OA
ATOM     11  O   UNL     1      -7.802  23.927   0.654  1.00  0.00    -0.550 OA
ENDBRANCH   8   9
ENDBRANCH   7   8
ENDBRANCH   6   7
ENDBRANCH   5   6
ENDBRANCH   4   5
ENDBRANCH   3   4
ENDBRANCH   2   3
ENDBRANCH   1   2
BRANCH   1  12
ATOM     12  C   UNL     1      -3.888  22.997   0.007  1.00  0.00     0.000 C 
BRANCH  12  13
ATOM     13  C   UNL     1      -2.957  21.821  -0.347  1.00  0.00    -0.000 C 
BRANCH  13  14
ATOM     14  C   UNL     1      -1.481  22.199  -0.582  1.00  0.00    -0.000 C 
BRANCH  14  15
ATOM     15  C   UNL     1      -0.906  23.237   0.400  1.00  0.00    -0.000 C 
BRANCH  15  16
ATOM     16  C   UNL     1      -0.335  24.511  -0.250  1.00  0.00    -0.000 C 
BRANCH  16  17
ATOM     17  C   UNL     1       0.172  24.276  -1.685  1.00  0.00    -0.000 C 
BRANCH  17  18
ATOM     18  C   UNL     1       0.124  25.546  -2.554  1.00  0.00    -0.000 C 
BRANCH  18  19
ATOM     19  C   UNL     1      -1.067  25.628  -3.527  1.00  0.00    -0.003 C 
ATOM     20  C   UNL     1      -1.804  24.299  -3.685  1.00  0.00     0.004 C 
ENDBRANCH  18  19
ENDBRANCH  17  18
ENDBRANCH  16  17
ENDBRANCH  15  16
ENDBRANCH  14  15
ENDBRANCH  13  14
ENDBRANCH  12  13
ENDBRANCH   1  12
TORSDOF 16
ENDMDL
MODEL 8
REMARK VINA RESULT:    -3.503      2.726      5.173
REMARK INTER + INTRA:          -9.405
REMARK INTER:                  -6.765
REMARK INTRA:                  -2.641
REMARK UNBOUND:                -2.626
REMARK SMILES CCCCCCCCCCCCCCCCCC(=O)[O-]
REMARK SMILES IDX 10 1 11 2 12 3 13 4 14 5 15 6 16 7 17 8 18 9 19 10 20 11
REMARK SMILES IDX 9 12 8 13 7 14 6 15 5 16 4 17 3 18 2 19 1 20
REMARK H PARENT
REMARK Flexibility Score: inf
ROOT
ATOM      1  C   UNL     1      -3.913  22.799  -0.964  1.00  0.00     0.000 C 
ENDROOT
BRANCH   1   2
ATOM      2  C   UNL     1      -4.666  23.924  -0.231  1.00  0.00     0.000 C 
BRANCH   2   3
ATOM      3  C   UNL     1      -4.862  23.656   1.275  1.00  0.00     0.000 C 
BRANCH   3   4
ATOM      4  C   UNL     1      -4.954  24.952   2.117  1.00  0.00     0.000 C 
BRANCH   4   5
ATOM      5  C   UNL     1      -3.583  25.483   2.570  1.00  0.00     0.000 C 
BRANCH   5   6
ATOM      6  C   UNL     1      -3.708  26.758   3.420  1.00  0.00     0.000 C 
BRANCH   6   7
ATOM      7  C   UNL     1      -3.085  27.986   2.737  1.00  0.00     0.006 C 
BRANCH   7   8
ATOM      8  C   UNL     1      -2.105  28.736   3.652  1.00  0.00     0.053 C 
BRANCH   8   9
ATOM      9  C   UNL     1      -1.024  29.386   2.847  1.00  0.00     0.041 C 
ATOM     10  O   UNL     1       0.182  29.245   3.171  1.00  0.00    -0.550 OA
ATOM     11  O   UNL     1      -1.350  30.138   1.724  1.00  0.00    -0.550 OA
ENDBRANCH   8   9
ENDBRANCH   7   8
ENDBRANCH   6   7
ENDBRANCH   5   6
ENDBRANCH   4   5
ENDBRANCH   3   4
ENDBRANCH   2   3
ENDBRANCH   1   2
BRANCH   1  12
ATOM     12  C   UNL     1      -2.924  22.050  -0.059  1.00  0.00     0.000 C 
BRANCH  12  13
ATOM     13  C   UNL     1      -1.453  22.398  -0.353  1.00  0.00    -0.000 C 
BRANCH  13  14
ATOM     14  C   UNL     1      -0.895  23.607   0.425  1.00  0.00    -0.000 C 
BRANCH  14  15
ATOM     15  C   UNL     1      -0.534  24.832  -0.437  1.00  0.00    -0.000 C 
BRANCH  15  16
ATOM     16  C   UNL     1      -1.170  26.161   0.011  1.00  0.00    -0.000 C 
BRANCH  16  17
ATOM     17  C   UNL     1      -2.350  26.591  -0.880  1.00  0.00    -0.000 C 
BRANCH  17  18
ATOM     18  C   UNL     1      -2.644  28.100  -0.800  1.00  0.00    -0.000 C 
BRANCH  18  19
ATOM     19  C   UNL     1      -4.101  28.500  -1.098  1.00  0.00    -0.003 C 
ATOM     20  C   UNL     1      -5.122  27.648  -0.346  1.00  0.00     0.004 C 
ENDBRANCH  18  19
ENDBRANCH  17  18
ENDBRANCH  16  17
ENDBRANCH  15  16
ENDBRANCH  14  15
ENDBRANCH  13  14
ENDBRANCH  12  13
ENDBRANCH   1  12
TORSDOF 16
ENDMDL
MODEL 9
REMARK VINA RESULT:    -3.487      3.213      6.092
REMARK INTER + INTRA:          -9.374
REMARK INTER:                  -7.450
REMARK INTRA:                  -1.925
REMARK UNBOUND:                -2.626
REMARK SMILES CCCCCCCCCCCCCCCCCC(=O)[O-]
REMARK SMILES IDX 10 1 11 2 12 3 13 4 14 5 15 6 16 7 17 8 18 9 19 10 20 11
REMARK SMILES IDX 9 12 8 13 7 14 6 15 5 16 4 17 3 18 2 19 1 20
REMARK H PARENT
REMARK Flexibility Score: inf
ROOT
ATOM      1  C   UNL     1      -2.801  27.892   2.046  1.00  0.00     0.000 C 
ENDROOT
BRANCH   1   2
ATOM      2  C   UNL     1      -1.871  27.011   1.195  1.00  0.00     0.000 C 
BRANCH   2   3
ATOM      3  C   UNL     1      -2.306  26.898  -0.281  1.00  0.00     0.000 C 
BRANCH   3   4
ATOM      4  C   UNL     1      -2.762  28.247  -0.886  1.00  0.00     0.000 C 
BRANCH   4   5
ATOM      5  C   UNL     1      -4.235  28.249  -1.332  1.00  0.00     0.000 C 
BRANCH   5   6
ATOM      6  C   UNL     1      -5.051  29.347  -0.631  1.00  0.00     0.000 C 
BRANCH   6   7
ATOM      7  C   UNL     1      -5.116  30.647  -1.448  1.00  0.00     0.006 C 
BRANCH   7   8
ATOM      8  C   UNL     1      -5.809  31.788  -0.688  1.00  0.00     0.053 C 
BRANCH   8   9
ATOM      9  C   UNL     1      -7.170  32.047  -1.252  1.00  0.00     0.041 C 
ATOM     10  O   UNL     1      -8.087  31.198  -1.114  1.00  0.00    -0.550 OA
ATOM     11  O   UNL     1      -7.431  33.239  -1.919  1.00  0.00    -0.550 OA
ENDBRANCH   8   9
ENDBRANCH   7   8
ENDBRANCH   6   7
ENDBRANCH   5   6
ENDBRANCH   4   5
ENDBRANCH   3   4
ENDBRANCH   2   3
ENDBRANCH   1   2
BRANCH   1  12
ATOM     12  C   UNL     1      -3.631  27.088   3.058  1.00  0.00     0.000 C 
BRANCH  12  13
ATOM     13  C   UNL     1      -3.434  25.566   2.926  1.00  0.00    -0.000 C 
BRANCH  13  14
ATOM     14  C   UNL     1      -4.593  24.810   2.247  1.00  0.00    -0.000 C 
BRANCH  14  15
ATOM     15  C   UNL     1      -5.462  25.658   1.298  1.00  0.00    -0.000 C 
BRANCH  15  16
ATOM     16  C   UNL     1      -6.931  25.828   1.727  1.00  0.00    -0.000 C 
BRANCH  16  17
ATOM     17  C   UNL     1      -7.233  25.191   3.095  1.00  0.00    -0.000 C 
BRANCH  17  18
ATOM     18  C   UNL     1      -7.613  26.228   4.169  1.00  0.00    -0.000 C 
BRANCH  18  19
ATOM     19  C   UNL     1      -6.733  26.214   5.432  1.00  0.00    -0.003 C 
ATOM     20  C   UNL     1      -7.467  25.699   6.669  1.00  0.00     0.004 C 
ENDBRANCH  18  19
ENDBRANCH  17  18
ENDBRANCH  16  17
ENDBRANCH  15  16
ENDBRANCH  14  15
ENDBRANCH  13  14
ENDBRANCH  12  13
ENDBRANCH   1  12
TORSDOF 16
ENDMDL
