MODEL 1
REMARK VINA RESULT:    -6.450      0.000      0.000
REMARK INTER + INTRA:          -8.014
REMARK INTER:                  -7.770
REMARK INTRA:                  -0.244
REMARK UNBOUND:                -0.244
REMARK SMILES O=c1c(O)c(-c2ccc(O)c(O)c2)oc2cc(O)cc(O)c12
REMARK SMILES IDX 5 1 3 2 2 3 1 4 22 5 20 6 19 7 17 8 16 9 15 10 14 11 6 12
REMARK SMILES IDX 7 13 8 14 9 15 13 16 11 17 10 18 12 20 4 22 21 24 18 26
REMARK H PARENT 10 19 12 21 4 23 21 25 18 27
REMARK Flexibility Score: inf
ROOT
ATOM      1  C   UNL     1     132.352 145.813 125.483  1.00  0.00     0.180 A 
ATOM      2  C   UNL     1     133.316 146.788 125.159  1.00  0.00     0.208 A 
ATOM      3  C   UNL     1     134.097 147.338 126.188  1.00  0.00     0.238 A 
ATOM      4  O   UNL     1     134.971 148.203 125.908  1.00  0.00    -0.285 OA
ATOM      5  C   UNL     1     133.889 146.921 127.519  1.00  0.00     0.111 A 
ATOM      6  C   UNL     1     134.630 147.428 128.613  1.00  0.00     0.134 A 
ATOM      7  C   UNL     1     134.357 146.971 129.911  1.00  0.00     0.093 A 
ATOM      8  C   UNL     1     133.358 146.017 130.134  1.00  0.00     0.123 A 
ATOM      9  C   UNL     1     132.625 145.513 129.058  1.00  0.00     0.094 A 
ATOM     10  C   UNL     1     132.883 145.956 127.757  1.00  0.00     0.146 A 
ATOM     11  O   UNL     1     132.174 145.457 126.751  1.00  0.00    -0.452 OA
ENDROOT
BRANCH   1  12
ATOM     12  C   UNL     1     131.504 145.173 124.451  1.00  0.00     0.025 A 
ATOM     13  C   UNL     1     131.782 143.857 124.049  1.00  0.00     0.016 A 
ATOM     14  C   UNL     1     131.009 143.240 123.062  1.00  0.00     0.051 A 
ATOM     15  C   UNL     1     129.956 143.936 122.453  1.00  0.00     0.157 A 
ATOM     16  C   UNL     1     130.461 145.874 123.822  1.00  0.00     0.062 A 
ATOM     17  C   UNL     1     129.685 145.260 122.832  1.00  0.00     0.158 A 
BRANCH  15  18
ATOM     18  O   UNL     1     129.184 143.317 121.470  1.00  0.00    -0.504 OA
ATOM     19  H   UNL     1     128.595 143.854 120.843  1.00  0.00     0.293 HD
ENDBRANCH  15  18
BRANCH  17  20
ATOM     20  O   UNL     1     128.654 145.984 122.234  1.00  0.00    -0.504 OA
ATOM     21  H   UNL     1     128.703 146.297 121.272  1.00  0.00     0.293 HD
ENDBRANCH  17  20
ENDBRANCH   1  12
BRANCH   2  22
ATOM     22  O   UNL     1     133.468 147.219 123.838  1.00  0.00    -0.502 OA
ATOM     23  H   UNL     1     132.719 147.663 123.323  1.00  0.00     0.293 HD
ENDBRANCH   2  22
BRANCH   6  24
ATOM     24  O   UNL     1     135.633 148.381 128.423  1.00  0.00    -0.507 OA
ATOM     25  H   UNL     1     135.813 149.109 129.104  1.00  0.00     0.293 HD
ENDBRANCH   6  24
BRANCH   8  26
ATOM     26  O   UNL     1     133.086 145.562 131.422  1.00  0.00    -0.508 OA
ATOM     27  H   UNL     1     132.325 144.919 131.608  1.00  0.00     0.293 HD
ENDBRANCH   8  26
TORSDOF 6
ENDMDL
MODEL 2
REMARK VINA RESULT:    -6.300      6.026     10.162
REMARK INTER + INTRA:          -7.834
REMARK INTER:                  -7.500
REMARK INTRA:                  -0.333
REMARK UNBOUND:                -0.244
REMARK SMILES O=c1c(O)c(-c2ccc(O)c(O)c2)oc2cc(O)cc(O)c12
REMARK SMILES IDX 5 1 3 2 2 3 1 4 22 5 20 6 19 7 17 8 16 9 15 10 14 11 6 12
REMARK SMILES IDX 7 13 8 14 9 15 13 16 11 17 10 18 12 20 4 22 21 24 18 26
REMARK H PARENT 10 19 12 21 4 23 21 25 18 27
REMARK Flexibility Score: inf
ROOT
ATOM      1  C   UNL     1     140.154 147.185 129.193  1.00  0.00     0.180 A 
ATOM      2  C   UNL     1     140.180 147.812 127.932  1.00  0.00     0.208 A 
ATOM      3  C   UNL     1     138.973 148.258 127.372  1.00  0.00     0.238 A 
ATOM      4  O   UNL     1     138.985 148.832 126.249  1.00  0.00    -0.285 OA
ATOM      5  C   UNL     1     137.763 148.053 128.068  1.00  0.00     0.111 A 
ATOM      6  C   UNL     1     136.504 148.468 127.571  1.00  0.00     0.134 A 
ATOM      7  C   UNL     1     135.344 148.218 128.319  1.00  0.00     0.093 A 
ATOM      8  C   UNL     1     135.420 147.561 129.552  1.00  0.00     0.123 A 
ATOM      9  C   UNL     1     136.659 147.151 130.046  1.00  0.00     0.094 A 
ATOM     10  C   UNL     1     137.827 147.392 129.317  1.00  0.00     0.146 A 
ATOM     11  O   UNL     1     138.993 146.995 129.812  1.00  0.00    -0.452 OA
ENDROOT
BRANCH   1  12
ATOM     12  C   UNL     1     141.387 146.705 129.858  1.00  0.00     0.025 A 
ATOM     13  C   UNL     1     141.762 145.359 129.726  1.00  0.00     0.016 A 
ATOM     14  C   UNL     1     142.910 144.878 130.362  1.00  0.00     0.051 A 
ATOM     15  C   UNL     1     143.691 145.733 131.150  1.00  0.00     0.157 A 
ATOM     16  C   UNL     1     142.162 147.554 130.667  1.00  0.00     0.062 A 
ATOM     17  C   UNL     1     143.312 147.076 131.306  1.00  0.00     0.158 A 
BRANCH  15  18
ATOM     18  O   UNL     1     144.837 145.252 131.782  1.00  0.00    -0.504 OA
ATOM     19  H   UNL     1     145.762 145.414 131.399  1.00  0.00     0.293 HD
ENDBRANCH  15  18
BRANCH  17  20
ATOM     20  O   UNL     1     144.060 147.949 132.096  1.00  0.00    -0.504 OA
ATOM     21  H   UNL     1     144.437 148.815 131.732  1.00  0.00     0.293 HD
ENDBRANCH  17  20
ENDBRANCH   1  12
BRANCH   2  22
ATOM     22  O   UNL     1     141.385 147.960 127.241  1.00  0.00    -0.502 OA
ATOM     23  H   UNL     1     141.533 147.570 126.319  1.00  0.00     0.293 HD
ENDBRANCH   2  22
BRANCH   6  24
ATOM     24  O   UNL     1     136.396 149.124 126.344  1.00  0.00    -0.507 OA
ATOM     25  H   UNL     1     136.541 148.640 125.465  1.00  0.00     0.293 HD
ENDBRANCH   6  24
BRANCH   8  26
ATOM     26  O   UNL     1     134.268 147.313 130.296  1.00  0.00    -0.508 OA
ATOM     27  H   UNL     1     133.344 147.459 129.907  1.00  0.00     0.293 HD
ENDBRANCH   8  26
TORSDOF 6
ENDMDL
MODEL 3
REMARK VINA RESULT:    -6.280      9.286     10.473
REMARK INTER + INTRA:          -7.809
REMARK INTER:                  -7.499
REMARK INTRA:                  -0.310
REMARK UNBOUND:                -0.244
REMARK SMILES O=c1c(O)c(-c2ccc(O)c(O)c2)oc2cc(O)cc(O)c12
REMARK SMILES IDX 5 1 3 2 2 3 1 4 22 5 20 6 19 7 17 8 16 9 15 10 14 11 6 12
REMARK SMILES IDX 7 13 8 14 9 15 13 16 11 17 10 18 12 20 4 22 21 24 18 26
REMARK H PARENT 10 19 12 21 4 23 21 25 18 27
REMARK Flexibility Score: inf
ROOT
ATOM      1  C   UNL     1     137.822 138.529 123.800  1.00  0.00     0.180 A 
ATOM      2  C   UNL     1     138.099 139.083 125.065  1.00  0.00     0.208 A 
ATOM      3  C   UNL     1     138.241 138.223 126.166  1.00  0.00     0.238 A 
ATOM      4  O   UNL     1     138.502 138.706 127.301  1.00  0.00    -0.285 OA
ATOM      5  C   UNL     1     138.083 136.832 125.989  1.00  0.00     0.111 A 
ATOM      6  C   UNL     1     138.206 135.899 127.046  1.00  0.00     0.134 A 
ATOM      7  C   UNL     1     138.025 134.531 126.791  1.00  0.00     0.093 A 
ATOM      8  C   UNL     1     137.723 134.081 125.501  1.00  0.00     0.123 A 
ATOM      9  C   UNL     1     137.602 134.998 124.455  1.00  0.00     0.094 A 
ATOM     10  C   UNL     1     137.781 136.365 124.689  1.00  0.00     0.146 A 
ATOM     11  O   UNL     1     137.664 137.214 123.675  1.00  0.00    -0.452 OA
ENDROOT
BRANCH   1  12
ATOM     12  C   UNL     1     137.677 139.368 122.589  1.00  0.00     0.025 A 
ATOM     13  C   UNL     1     138.827 139.796 121.905  1.00  0.00     0.016 A 
ATOM     14  C   UNL     1     138.716 140.607 120.773  1.00  0.00     0.051 A 
ATOM     15  C   UNL     1     137.455 141.014 120.316  1.00  0.00     0.157 A 
ATOM     16  C   UNL     1     136.416 139.797 122.140  1.00  0.00     0.062 A 
ATOM     17  C   UNL     1     136.301 140.610 121.007  1.00  0.00     0.158 A 
BRANCH  15  18
ATOM     18  O   UNL     1     137.347 141.821 119.185  1.00  0.00    -0.504 OA
ATOM     19  H   UNL     1     137.293 141.425 118.253  1.00  0.00     0.293 HD
ENDBRANCH  15  18
BRANCH  17  20
ATOM     20  O   UNL     1     135.033 141.011 120.586  1.00  0.00    -0.504 OA
ATOM     21  H   UNL     1     134.216 140.917 121.177  1.00  0.00     0.293 HD
ENDBRANCH  17  20
ENDBRANCH   1  12
BRANCH   2  22
ATOM     22  O   UNL     1     138.203 140.467 125.223  1.00  0.00    -0.502 OA
ATOM     23  H   UNL     1     138.987 140.902 125.692  1.00  0.00     0.293 HD
ENDBRANCH   2  22
BRANCH   6  24
ATOM     24  O   UNL     1     138.505 136.317 128.343  1.00  0.00    -0.507 OA
ATOM     25  H   UNL     1     137.855 136.870 128.889  1.00  0.00     0.293 HD
ENDBRANCH   6  24
BRANCH   8  26
ATOM     26  O   UNL     1     137.543 132.723 125.247  1.00  0.00    -0.508 OA
ATOM     27  H   UNL     1     138.325 132.081 125.219  1.00  0.00     0.293 HD
ENDBRANCH   8  26
TORSDOF 6
ENDMDL
MODEL 4
REMARK VINA RESULT:    -6.230      8.718     10.672
REMARK INTER + INTRA:          -7.749
REMARK INTER:                  -7.422
REMARK INTRA:                  -0.328
REMARK UNBOUND:                -0.244
REMARK SMILES O=c1c(O)c(-c2ccc(O)c(O)c2)oc2cc(O)cc(O)c12
REMARK SMILES IDX 5 1 3 2 2 3 1 4 22 5 20 6 19 7 17 8 16 9 15 10 14 11 6 12
REMARK SMILES IDX 7 13 8 14 9 15 13 16 11 17 10 18 12 20 4 22 21 24 18 26
REMARK H PARENT 10 19 12 21 4 23 21 25 18 27
REMARK Flexibility Score: inf
ROOT
ATOM      1  C   UNL     1     138.301 140.012 122.120  1.00  0.00     0.180 A 
ATOM      2  C   UNL     1     138.227 141.162 122.931  1.00  0.00     0.208 A 
ATOM      3  C   UNL     1     138.229 142.425 122.319  1.00  0.00     0.238 A 
ATOM      4  O   UNL     1     138.151 143.461 123.034  1.00  0.00    -0.285 OA
ATOM      5  C   UNL     1     138.325 142.519 120.915  1.00  0.00     0.111 A 
ATOM      6  C   UNL     1     138.338 143.753 120.221  1.00  0.00     0.134 A 
ATOM      7  C   UNL     1     138.446 143.764 118.822  1.00  0.00     0.093 A 
ATOM      8  C   UNL     1     138.543 142.565 118.107  1.00  0.00     0.123 A 
ATOM      9  C   UNL     1     138.530 141.346 118.786  1.00  0.00     0.094 A 
ATOM     10  C   UNL     1     138.421 141.315 120.180  1.00  0.00     0.146 A 
ATOM     11  O   UNL     1     138.406 140.141 120.801  1.00  0.00    -0.452 OA
ENDROOT
BRANCH   1  12
ATOM     12  C   UNL     1     138.285 138.646 122.690  1.00  0.00     0.025 A 
ATOM     13  C   UNL     1     139.496 138.034 123.048  1.00  0.00     0.016 A 
ATOM     14  C   UNL     1     139.508 136.737 123.567  1.00  0.00     0.051 A 
ATOM     15  C   UNL     1     138.309 136.028 123.724  1.00  0.00     0.157 A 
ATOM     16  C   UNL     1     137.087 137.923 122.828  1.00  0.00     0.062 A 
ATOM     17  C   UNL     1     137.094 136.623 123.347  1.00  0.00     0.158 A 
BRANCH  15  18
ATOM     18  O   UNL     1     138.322 134.735 124.244  1.00  0.00    -0.504 OA
ATOM     19  H   UNL     1     137.958 134.531 125.167  1.00  0.00     0.293 HD
ENDBRANCH  15  18
BRANCH  17  20
ATOM     20  O   UNL     1     135.886 135.939 123.476  1.00  0.00    -0.504 OA
ATOM     21  H   UNL     1     135.845 134.970 123.768  1.00  0.00     0.293 HD
ENDBRANCH  17  20
ENDBRANCH   1  12
BRANCH   2  22
ATOM     22  O   UNL     1     138.181 141.043 124.323  1.00  0.00    -0.502 OA
ATOM     23  H   UNL     1     137.898 141.807 124.923  1.00  0.00     0.293 HD
ENDBRANCH   2  22
BRANCH   6  24
ATOM     24  O   UNL     1     138.244 144.965 120.907  1.00  0.00    -0.507 OA
ATOM     25  H   UNL     1     138.563 145.835 120.498  1.00  0.00     0.293 HD
ENDBRANCH   6  24
BRANCH   8  26
ATOM     26  O   UNL     1     138.651 142.575 116.717  1.00  0.00    -0.508 OA
ATOM     27  H   UNL     1     139.427 142.130 116.243  1.00  0.00     0.293 HD
ENDBRANCH   8  26
TORSDOF 6
ENDMDL
MODEL 5
REMARK VINA RESULT:    -6.200      9.887     11.214
REMARK INTER + INTRA:          -7.713
REMARK INTER:                  -7.683
REMARK INTRA:                  -0.030
REMARK UNBOUND:                -0.244
REMARK SMILES O=c1c(O)c(-c2ccc(O)c(O)c2)oc2cc(O)cc(O)c12
REMARK SMILES IDX 5 1 3 2 2 3 1 4 22 5 20 6 19 7 17 8 16 9 15 10 14 11 6 12
REMARK SMILES IDX 7 13 8 14 9 15 13 16 11 17 10 18 12 20 4 22 21 24 18 26
REMARK H PARENT 10 19 12 21 4 23 21 25 18 27
REMARK Flexibility Score: inf
ROOT
ATOM      1  C   UNL     1     138.671 139.431 121.943  1.00  0.00     0.180 A 
ATOM      2  C   UNL     1     139.618 140.131 122.717  1.00  0.00     0.208 A 
ATOM      3  C   UNL     1     140.224 141.275 122.175  1.00  0.00     0.238 A 
ATOM      4  O   UNL     1     141.064 141.917 122.863  1.00  0.00    -0.285 OA
ATOM      5  C   UNL     1     139.893 141.686 120.867  1.00  0.00     0.111 A 
ATOM      6  C   UNL     1     140.461 142.824 120.246  1.00  0.00     0.134 A 
ATOM      7  C   UNL     1     140.087 143.163 118.937  1.00  0.00     0.093 A 
ATOM      8  C   UNL     1     139.156 142.386 118.239  1.00  0.00     0.123 A 
ATOM      9  C   UNL     1     138.592 141.263 118.847  1.00  0.00     0.094 A 
ATOM     10  C   UNL     1     138.951 140.910 120.152  1.00  0.00     0.146 A 
ATOM     11  O   UNL     1     138.396 139.840 120.708  1.00  0.00    -0.452 OA
ENDROOT
BRANCH   1  12
ATOM     12  C   UNL     1     137.975 138.227 122.452  1.00  0.00     0.025 A 
ATOM     13  C   UNL     1     136.572 138.201 122.477  1.00  0.00     0.016 A 
ATOM     14  C   UNL     1     135.893 137.085 122.973  1.00  0.00     0.051 A 
ATOM     15  C   UNL     1     136.608 135.985 123.465  1.00  0.00     0.157 A 
ATOM     16  C   UNL     1     138.688 137.131 122.967  1.00  0.00     0.062 A 
ATOM     17  C   UNL     1     138.012 136.011 123.466  1.00  0.00     0.158 A 
BRANCH  15  18
ATOM     18  O   UNL     1     135.929 134.872 123.958  1.00  0.00    -0.504 OA
ATOM     19  H   UNL     1     136.377 133.966 124.031  1.00  0.00     0.293 HD
ENDBRANCH  15  18
BRANCH  17  20
ATOM     20  O   UNL     1     138.752 134.939 123.963  1.00  0.00    -0.504 OA
ATOM     21  H   UNL     1     139.501 134.510 123.432  1.00  0.00     0.293 HD
ENDBRANCH  17  20
ENDBRANCH   1  12
BRANCH   2  22
ATOM     22  O   UNL     1     139.965 139.674 123.991  1.00  0.00    -0.502 OA
ATOM     23  H   UNL     1     140.501 140.236 124.641  1.00  0.00     0.293 HD
ENDBRANCH   2  22
BRANCH   6  24
ATOM     24  O   UNL     1     141.393 143.619 120.916  1.00  0.00    -0.507 OA
ATOM     25  H   UNL     1     142.298 143.834 120.514  1.00  0.00     0.293 HD
ENDBRANCH   6  24
BRANCH   8  26
ATOM     26  O   UNL     1     138.784 142.722 116.939  1.00  0.00    -0.508 OA
ATOM     27  H   UNL     1     137.966 142.316 116.501  1.00  0.00     0.293 HD
ENDBRANCH   8  26
TORSDOF 6
ENDMDL
MODEL 6
REMARK VINA RESULT:    -6.149      1.282      2.998
REMARK INTER + INTRA:          -7.651
REMARK INTER:                  -7.332
REMARK INTRA:                  -0.319
REMARK UNBOUND:                -0.244
REMARK SMILES O=c1c(O)c(-c2ccc(O)c(O)c2)oc2cc(O)cc(O)c12
REMARK SMILES IDX 5 1 3 2 2 3 1 4 22 5 20 6 19 7 17 8 16 9 15 10 14 11 6 12
REMARK SMILES IDX 7 13 8 14 9 15 13 16 11 17 10 18 12 20 4 22 21 24 18 26
REMARK H PARENT 10 19 12 21 4 23 21 25 18 27
REMARK Flexibility Score: inf
ROOT
ATOM      1  C   UNL     1     132.197 145.633 125.386  1.00  0.00     0.180 A 
ATOM      2  C   UNL     1     131.919 145.574 126.766  1.00  0.00     0.208 A 
ATOM      3  C   UNL     1     132.797 146.206 127.661  1.00  0.00     0.238 A 
ATOM      4  O   UNL     1     132.553 146.170 128.898  1.00  0.00    -0.285 OA
ATOM      5  C   UNL     1     133.943 146.864 127.167  1.00  0.00     0.111 A 
ATOM      6  C   UNL     1     134.878 147.520 128.002  1.00  0.00     0.134 A 
ATOM      7  C   UNL     1     135.999 148.145 127.435  1.00  0.00     0.093 A 
ATOM      8  C   UNL     1     136.201 148.124 126.050  1.00  0.00     0.123 A 
ATOM      9  C   UNL     1     135.281 147.479 125.223  1.00  0.00     0.094 A 
ATOM     10  C   UNL     1     134.157 146.852 125.769  1.00  0.00     0.146 A 
ATOM     11  O   UNL     1     133.295 146.249 124.959  1.00  0.00    -0.452 OA
ENDROOT
BRANCH   1  12
ATOM     12  C   UNL     1     131.309 145.008 124.379  1.00  0.00     0.025 A 
ATOM     13  C   UNL     1     131.486 143.656 124.048  1.00  0.00     0.016 A 
ATOM     14  C   UNL     1     130.675 143.051 123.084  1.00  0.00     0.051 A 
ATOM     15  C   UNL     1     129.683 143.793 122.429  1.00  0.00     0.157 A 
ATOM     16  C   UNL     1     130.328 145.755 123.703  1.00  0.00     0.062 A 
ATOM     17  C   UNL     1     129.514 145.152 122.737  1.00  0.00     0.158 A 
BRANCH  15  18
ATOM     18  O   UNL     1     128.873 143.186 121.469  1.00  0.00    -0.504 OA
ATOM     19  H   UNL     1     129.017 142.224 121.186  1.00  0.00     0.293 HD
ENDBRANCH  15  18
BRANCH  17  20
ATOM     20  O   UNL     1     128.547 145.922 122.091  1.00  0.00    -0.504 OA
ATOM     21  H   UNL     1     127.566 145.667 122.092  1.00  0.00     0.293 HD
ENDBRANCH  17  20
ENDBRANCH   1  12
BRANCH   2  22
ATOM     22  O   UNL     1     130.804 144.874 127.233  1.00  0.00    -0.502 OA
ATOM     23  H   UNL     1     130.379 144.119 126.709  1.00  0.00     0.293 HD
ENDBRANCH   2  22
BRANCH   6  24
ATOM     24  O   UNL     1     134.705 147.557 129.386  1.00  0.00    -0.507 OA
ATOM     25  H   UNL     1     134.103 146.899 129.867  1.00  0.00     0.293 HD
ENDBRANCH   6  24
BRANCH   8  26
ATOM     26  O   UNL     1     137.314 148.744 125.486  1.00  0.00    -0.508 OA
ATOM     27  H   UNL     1     137.528 149.717 125.668  1.00  0.00     0.293 HD
ENDBRANCH   8  26
TORSDOF 6
ENDMDL
MODEL 7
REMARK VINA RESULT:    -6.149     11.816     13.477
REMARK INTER + INTRA:          -7.651
REMARK INTER:                  -7.507
REMARK INTRA:                  -0.144
REMARK UNBOUND:                -0.244
REMARK SMILES O=c1c(O)c(-c2ccc(O)c(O)c2)oc2cc(O)cc(O)c12
REMARK SMILES IDX 5 1 3 2 2 3 1 4 22 5 20 6 19 7 17 8 16 9 15 10 14 11 6 12
REMARK SMILES IDX 7 13 8 14 9 15 13 16 11 17 10 18 12 20 4 22 21 24 18 26
REMARK H PARENT 10 19 12 21 4 23 21 25 18 27
REMARK Flexibility Score: inf
ROOT
ATOM      1  C   UNL     1     133.381 133.776 125.849  1.00  0.00     0.180 A 
ATOM      2  C   UNL     1     132.348 133.444 124.950  1.00  0.00     0.208 A 
ATOM      3  C   UNL     1     131.077 133.138 125.460  1.00  0.00     0.238 A 
ATOM      4  O   UNL     1     130.141 132.852 124.664  1.00  0.00    -0.285 OA
ATOM      5  C   UNL     1     130.865 133.147 126.855  1.00  0.00     0.111 A 
ATOM      6  C   UNL     1     129.616 132.846 127.450  1.00  0.00     0.134 A 
ATOM      7  C   UNL     1     129.488 132.867 128.847  1.00  0.00     0.093 A 
ATOM      8  C   UNL     1     130.584 133.182 129.658  1.00  0.00     0.123 A 
ATOM      9  C   UNL     1     131.817 133.480 129.076  1.00  0.00     0.094 A 
ATOM     10  C   UNL     1     131.964 133.467 127.685  1.00  0.00     0.146 A 
ATOM     11  O   UNL     1     133.148 133.758 127.158  1.00  0.00    -0.452 OA
ENDROOT
BRANCH   1  12
ATOM     12  C   UNL     1     134.742 134.129 125.386  1.00  0.00     0.025 A 
ATOM     13  C   UNL     1     134.924 135.264 124.581  1.00  0.00     0.016 A 
ATOM     14  C   UNL     1     136.196 135.605 124.114  1.00  0.00     0.051 A 
ATOM     15  C   UNL     1     137.303 134.808 124.435  1.00  0.00     0.157 A 
ATOM     16  C   UNL     1     135.852 133.320 125.687  1.00  0.00     0.062 A 
ATOM     17  C   UNL     1     137.128 133.658 125.220  1.00  0.00     0.158 A 
BRANCH  15  18
ATOM     18  O   UNL     1     138.572 135.151 123.969  1.00  0.00    -0.504 OA
ATOM     19  H   UNL     1     138.760 136.061 123.564  1.00  0.00     0.293 HD
ENDBRANCH  15  18
BRANCH  17  20
ATOM     20  O   UNL     1     138.207 132.835 125.544  1.00  0.00    -0.504 OA
ATOM     21  H   UNL     1     138.690 132.906 126.431  1.00  0.00     0.293 HD
ENDBRANCH  17  20
ENDBRANCH   1  12
BRANCH   2  22
ATOM     22  O   UNL     1     132.597 133.395 123.576  1.00  0.00    -0.502 OA
ATOM     23  H   UNL     1     132.822 132.532 123.096  1.00  0.00     0.293 HD
ENDBRANCH   2  22
BRANCH   6  24
ATOM     24  O   UNL     1     128.505 132.528 126.668  1.00  0.00    -0.507 OA
ATOM     25  H   UNL     1     128.289 133.033 125.816  1.00  0.00     0.293 HD
ENDBRANCH   6  24
BRANCH   8  26
ATOM     26  O   UNL     1     130.457 133.203 131.045  1.00  0.00    -0.508 OA
ATOM     27  H   UNL     1     130.028 132.437 131.550  1.00  0.00     0.293 HD
ENDBRANCH   8  26
TORSDOF 6
ENDMDL
MODEL 8
REMARK VINA RESULT:    -6.096     10.800     12.741
REMARK INTER + INTRA:          -7.588
REMARK INTER:                  -7.259
REMARK INTRA:                  -0.329
REMARK UNBOUND:                -0.244
REMARK SMILES O=c1c(O)c(-c2ccc(O)c(O)c2)oc2cc(O)cc(O)c12
REMARK SMILES IDX 5 1 3 2 2 3 1 4 22 5 20 6 19 7 17 8 16 9 15 10 14 11 6 12
REMARK SMILES IDX 7 13 8 14 9 15 13 16 11 17 10 18 12 20 4 22 21 24 18 26
REMARK H PARENT 10 19 12 21 4 23 21 25 18 27
REMARK Flexibility Score: inf
ROOT
ATOM      1  C   UNL     1     134.330 134.037 125.681  1.00  0.00     0.180 A 
ATOM      2  C   UNL     1     135.585 133.429 125.876  1.00  0.00     0.208 A 
ATOM      3  C   UNL     1     136.712 133.982 125.246  1.00  0.00     0.238 A 
ATOM      4  O   UNL     1     137.843 133.453 125.422  1.00  0.00    -0.285 OA
ATOM      5  C   UNL     1     136.562 135.115 124.419  1.00  0.00     0.111 A 
ATOM      6  C   UNL     1     137.644 135.730 123.746  1.00  0.00     0.134 A 
ATOM      7  C   UNL     1     137.413 136.850 122.934  1.00  0.00     0.093 A 
ATOM      8  C   UNL     1     136.120 137.365 122.782  1.00  0.00     0.123 A 
ATOM      9  C   UNL     1     135.050 136.762 123.445  1.00  0.00     0.094 A 
ATOM     10  C   UNL     1     135.261 135.646 124.260  1.00  0.00     0.146 A 
ATOM     11  O   UNL     1     134.225 135.095 124.883  1.00  0.00    -0.452 OA
ENDROOT
BRANCH   1  12
ATOM     12  C   UNL     1     133.100 133.524 126.327  1.00  0.00     0.025 A 
ATOM     13  C   UNL     1     132.237 132.688 125.600  1.00  0.00     0.016 A 
ATOM     14  C   UNL     1     131.060 132.209 126.180  1.00  0.00     0.051 A 
ATOM     15  C   UNL     1     130.721 132.571 127.491  1.00  0.00     0.157 A 
ATOM     16  C   UNL     1     132.745 133.902 127.633  1.00  0.00     0.062 A 
ATOM     17  C   UNL     1     131.566 133.425 128.218  1.00  0.00     0.158 A 
BRANCH  15  18
ATOM     18  O   UNL     1     129.547 132.090 128.069  1.00  0.00    -0.504 OA
ATOM     19  H   UNL     1     129.248 131.130 127.943  1.00  0.00     0.293 HD
ENDBRANCH  15  18
BRANCH  17  20
ATOM     20  O   UNL     1     131.250 133.815 129.519  1.00  0.00    -0.504 OA
ATOM     21  H   UNL     1     130.873 133.166 130.199  1.00  0.00     0.293 HD
ENDBRANCH  17  20
ENDBRANCH   1  12
BRANCH   2  22
ATOM     22  O   UNL     1     135.699 132.278 126.659  1.00  0.00    -0.502 OA
ATOM     23  H   UNL     1     135.492 132.274 127.651  1.00  0.00     0.293 HD
ENDBRANCH   2  22
BRANCH   6  24
ATOM     24  O   UNL     1     138.945 135.240 123.877  1.00  0.00    -0.507 OA
ATOM     25  H   UNL     1     139.154 134.253 123.787  1.00  0.00     0.293 HD
ENDBRANCH   6  24
BRANCH   8  26
ATOM     26  O   UNL     1     135.889 138.477 121.975  1.00  0.00    -0.508 OA
ATOM     27  H   UNL     1     136.591 139.195 121.848  1.00  0.00     0.293 HD
ENDBRANCH   8  26
TORSDOF 6
ENDMDL
MODEL 9
REMARK VINA RESULT:    -6.080     11.202     13.043
REMARK INTER + INTRA:          -7.568
REMARK INTER:                  -7.333
REMARK INTRA:                  -0.235
REMARK UNBOUND:                -0.244
REMARK SMILES O=c1c(O)c(-c2ccc(O)c(O)c2)oc2cc(O)cc(O)c12
REMARK SMILES IDX 5 1 3 2 2 3 1 4 22 5 20 6 19 7 17 8 16 9 15 10 14 11 6 12
REMARK SMILES IDX 7 13 8 14 9 15 13 16 11 17 10 18 12 20 4 22 21 24 18 26
REMARK H PARENT 10 19 12 21 4 23 21 25 18 27
REMARK Flexibility Score: inf
ROOT
ATOM      1  C   UNL     1     132.849 133.774 126.428  1.00  0.00     0.180 A 
ATOM      2  C   UNL     1     132.654 134.883 125.582  1.00  0.00     0.208 A 
ATOM      3  C   UNL     1     133.755 135.409 124.888  1.00  0.00     0.238 A 
ATOM      4  O   UNL     1     133.590 136.395 124.119  1.00  0.00    -0.285 OA
ATOM      5  C   UNL     1     135.031 134.835 125.067  1.00  0.00     0.111 A 
ATOM      6  C   UNL     1     136.191 135.308 124.409  1.00  0.00     0.134 A 
ATOM      7  C   UNL     1     137.427 134.688 124.647  1.00  0.00     0.093 A 
ATOM      8  C   UNL     1     137.523 133.607 125.530  1.00  0.00     0.123 A 
ATOM      9  C   UNL     1     136.382 133.136 126.180  1.00  0.00     0.094 A 
ATOM     10  C   UNL     1     135.140 133.739 125.955  1.00  0.00     0.146 A 
ATOM     11  O   UNL     1     134.069 133.269 126.583  1.00  0.00    -0.452 OA
ENDROOT
BRANCH   1  12
ATOM     12  C   UNL     1     131.734 133.151 127.177  1.00  0.00     0.025 A 
ATOM     13  C   UNL     1     130.765 132.410 126.482  1.00  0.00     0.016 A 
ATOM     14  C   UNL     1     129.692 131.832 127.165  1.00  0.00     0.051 A 
ATOM     15  C   UNL     1     129.565 131.997 128.551  1.00  0.00     0.157 A 
ATOM     16  C   UNL     1     131.591 133.333 128.564  1.00  0.00     0.062 A 
ATOM     17  C   UNL     1     130.517 132.755 129.251  1.00  0.00     0.158 A 
BRANCH  15  18
ATOM     18  O   UNL     1     128.495 131.417 129.230  1.00  0.00    -0.504 OA
ATOM     19  H   UNL     1     127.608 131.242 128.772  1.00  0.00     0.293 HD
ENDBRANCH  15  18
BRANCH  17  20
ATOM     20  O   UNL     1     130.410 132.951 130.628  1.00  0.00    -0.504 OA
ATOM     21  H   UNL     1     129.567 132.724 131.140  1.00  0.00     0.293 HD
ENDBRANCH  17  20
ENDBRANCH   1  12
BRANCH   2  22
ATOM     22  O   UNL     1     131.389 135.464 125.460  1.00  0.00    -0.502 OA
ATOM     23  H   UNL     1     131.179 136.386 125.822  1.00  0.00     0.293 HD
ENDBRANCH   2  22
BRANCH   6  24
ATOM     24  O   UNL     1     136.128 136.385 123.524  1.00  0.00    -0.507 OA
ATOM     25  H   UNL     1     135.852 137.311 123.829  1.00  0.00     0.293 HD
ENDBRANCH   6  24
BRANCH   8  26
ATOM     26  O   UNL     1     138.751 132.991 125.766  1.00  0.00    -0.508 OA
ATOM     27  H   UNL     1     138.871 132.320 126.515  1.00  0.00     0.293 HD
ENDBRANCH   8  26
TORSDOF 6
ENDMDL
