MODEL 1
REMARK VINA RESULT:    -6.166      0.000      0.000
REMARK INTER + INTRA:          -6.527
REMARK INTER:                  -6.527
REMARK INTRA:                   0.000
REMARK UNBOUND:                 0.000
REMARK SMILES O=c1ccc2cc(O)c(O)cc2o1
REMARK SMILES IDX 4 1 3 2 2 3 1 4 13 5 12 6 11 7 9 8 7 9 6 10 5 11 8 12 10 14
REMARK H PARENT 8 13 10 15
REMARK Flexibility Score: inf
ROOT
ATOM      1  C   UNL     1      72.869  41.351  -3.696  1.00  0.00     0.019 A 
ATOM      2  C   UNL     1      73.267  40.882  -4.948  1.00  0.00     0.094 A 
ATOM      3  C   UNL     1      74.067  41.698  -5.755  1.00  0.00     0.336 A 
ATOM      4  O   UNL     1      74.437  41.293  -6.888  1.00  0.00    -0.246 OA
ATOM      5  O   UNL     1      74.441  42.903  -5.333  1.00  0.00    -0.423 OA
ATOM      6  C   UNL     1      74.085  43.389  -4.146  1.00  0.00     0.142 A 
ATOM      7  C   UNL     1      74.508  44.663  -3.755  1.00  0.00     0.098 A 
ATOM      8  C   UNL     1      74.134  45.179  -2.505  1.00  0.00     0.161 A 
ATOM      9  C   UNL     1      73.332  44.416  -1.643  1.00  0.00     0.158 A 
ATOM     10  C   UNL     1      72.905  43.137  -2.029  1.00  0.00     0.062 A 
ATOM     11  C   UNL     1      73.278  42.621  -3.278  1.00  0.00     0.022 A 
ENDROOT
BRANCH   9  12
ATOM     12  O   UNL     1      72.966  44.937  -0.403  1.00  0.00    -0.504 OA
ATOM     13  H   UNL     1      73.112  45.913  -0.174  1.00  0.00     0.293 HD
ENDBRANCH   9  12
BRANCH   8  14
ATOM     14  O   UNL     1      74.555  46.447  -2.113  1.00  0.00    -0.504 OA
ATOM     15  H   UNL     1      73.925  47.097  -1.655  1.00  0.00     0.293 HD
ENDBRANCH   8  14
TORSDOF 2
ENDMDL
MODEL 2
REMARK VINA RESULT:    -6.134      1.153      2.257
REMARK INTER + INTRA:          -6.492
REMARK INTER:                  -6.492
REMARK INTRA:                   0.000
REMARK UNBOUND:                 0.000
REMARK SMILES O=c1ccc2cc(O)c(O)cc2o1
REMARK SMILES IDX 4 1 3 2 2 3 1 4 13 5 12 6 11 7 9 8 7 9 6 10 5 11 8 12 10 14
REMARK H PARENT 8 13 10 15
REMARK Flexibility Score: inf
ROOT
ATOM      1  C   UNL     1      74.495  42.852  -5.372  1.00  0.00     0.019 A 
ATOM      2  C   UNL     1      73.989  41.615  -5.768  1.00  0.00     0.094 A 
ATOM      3  C   UNL     1      73.115  40.935  -4.913  1.00  0.00     0.336 A 
ATOM      4  O   UNL     1      72.647  39.816  -5.252  1.00  0.00    -0.246 OA
ATOM      5  O   UNL     1      72.773  41.463  -3.741  1.00  0.00    -0.423 OA
ATOM      6  C   UNL     1      73.233  42.641  -3.325  1.00  0.00     0.142 A 
ATOM      7  C   UNL     1      72.839  43.146  -2.081  1.00  0.00     0.098 A 
ATOM      8  C   UNL     1      73.321  44.387  -1.639  1.00  0.00     0.161 A 
ATOM      9  C   UNL     1      74.202  45.125  -2.443  1.00  0.00     0.158 A 
ATOM     10  C   UNL     1      74.600  44.623  -3.691  1.00  0.00     0.062 A 
ATOM     11  C   UNL     1      74.119  43.383  -4.135  1.00  0.00     0.022 A 
ENDROOT
BRANCH   9  12
ATOM     12  O   UNL     1      74.675  46.356  -1.996  1.00  0.00    -0.504 OA
ATOM     13  H   UNL     1      75.656  46.604  -2.061  1.00  0.00     0.293 HD
ENDBRANCH   9  12
BRANCH   8  14
ATOM     14  O   UNL     1      72.930  44.893  -0.401  1.00  0.00    -0.504 OA
ATOM     15  H   UNL     1      73.255  44.481   0.467  1.00  0.00     0.293 HD
ENDBRANCH   8  14
TORSDOF 2
ENDMDL
MODEL 3
REMARK VINA RESULT:    -6.096      3.322      4.641
REMARK INTER + INTRA:          -6.453
REMARK INTER:                  -6.453
REMARK INTRA:                   0.000
REMARK UNBOUND:                 0.000
REMARK SMILES O=c1ccc2cc(O)c(O)cc2o1
REMARK SMILES IDX 4 1 3 2 2 3 1 4 13 5 12 6 11 7 9 8 7 9 6 10 5 11 8 12 10 14
REMARK H PARENT 8 13 10 15
REMARK Flexibility Score: inf
ROOT
ATOM      1  C   UNL     1      71.510  39.377  -8.074  1.00  0.00     0.019 A 
ATOM      2  C   UNL     1      72.377  39.443  -9.165  1.00  0.00     0.094 A 
ATOM      3  C   UNL     1      73.641  40.015  -8.992  1.00  0.00     0.336 A 
ATOM      4  O   UNL     1      74.439  40.084  -9.964  1.00  0.00    -0.246 OA
ATOM      5  O   UNL     1      74.010  40.488  -7.804  1.00  0.00    -0.423 OA
ATOM      6  C   UNL     1      73.214  40.444  -6.738  1.00  0.00     0.142 A 
ATOM      7  C   UNL     1      73.656  40.957  -5.514  1.00  0.00     0.098 A 
ATOM      8  C   UNL     1      72.820  40.913  -4.387  1.00  0.00     0.161 A 
ATOM      9  C   UNL     1      71.537  40.354  -4.486  1.00  0.00     0.158 A 
ATOM     10  C   UNL     1      71.089  39.838  -5.711  1.00  0.00     0.062 A 
ATOM     11  C   UNL     1      71.923  39.881  -6.838  1.00  0.00     0.022 A 
ENDROOT
BRANCH   9  12
ATOM     12  O   UNL     1      70.715  40.315  -3.363  1.00  0.00    -0.504 OA
ATOM     13  H   UNL     1      70.790  39.573  -2.676  1.00  0.00     0.293 HD
ENDBRANCH   9  12
BRANCH   8  14
ATOM     14  O   UNL     1      73.257  41.423  -3.167  1.00  0.00    -0.504 OA
ATOM     15  H   UNL     1      74.243  41.560  -2.972  1.00  0.00     0.293 HD
ENDBRANCH   8  14
TORSDOF 2
ENDMDL
MODEL 4
REMARK VINA RESULT:    -6.045      2.415      6.103
REMARK INTER + INTRA:          -6.398
REMARK INTER:                  -6.398
REMARK INTRA:                   0.000
REMARK UNBOUND:                 0.000
REMARK SMILES O=c1ccc2cc(O)c(O)cc2o1
REMARK SMILES IDX 4 1 3 2 2 3 1 4 13 5 12 6 11 7 9 8 7 9 6 10 5 11 8 12 10 14
REMARK H PARENT 8 13 10 15
REMARK Flexibility Score: inf
ROOT
ATOM      1  C   UNL     1      75.033  42.207  -5.712  1.00  0.00     0.019 A 
ATOM      2  C   UNL     1      74.809  42.655  -4.410  1.00  0.00     0.094 A 
ATOM      3  C   UNL     1      73.735  42.127  -3.687  1.00  0.00     0.336 A 
ATOM      4  O   UNL     1      73.515  42.518  -2.510  1.00  0.00    -0.246 OA
ATOM      5  O   UNL     1      72.940  41.211  -4.233  1.00  0.00    -0.423 OA
ATOM      6  C   UNL     1      73.118  40.755  -5.471  1.00  0.00     0.142 A 
ATOM      7  C   UNL     1      72.250  39.790  -5.993  1.00  0.00     0.098 A 
ATOM      8  C   UNL     1      72.434  39.308  -7.298  1.00  0.00     0.161 A 
ATOM      9  C   UNL     1      73.491  39.792  -8.083  1.00  0.00     0.158 A 
ATOM     10  C   UNL     1      74.365  40.759  -7.564  1.00  0.00     0.062 A 
ATOM     11  C   UNL     1      74.182  41.243  -6.261  1.00  0.00     0.022 A 
ENDROOT
BRANCH   9  12
ATOM     12  O   UNL     1      73.666  39.307  -9.377  1.00  0.00    -0.504 OA
ATOM     13  H   UNL     1      73.290  39.794 -10.182  1.00  0.00     0.293 HD
ENDBRANCH   9  12
BRANCH   8  14
ATOM     14  O   UNL     1      71.572  38.347  -7.821  1.00  0.00    -0.504 OA
ATOM     15  H   UNL     1      71.682  37.362  -7.606  1.00  0.00     0.293 HD
ENDBRANCH   8  14
TORSDOF 2
ENDMDL
MODEL 5
REMARK VINA RESULT:    -5.933      2.907      6.032
REMARK INTER + INTRA:          -6.280
REMARK INTER:                  -6.280
REMARK INTRA:                   0.000
REMARK UNBOUND:                 0.000
REMARK SMILES O=c1ccc2cc(O)c(O)cc2o1
REMARK SMILES IDX 4 1 3 2 2 3 1 4 13 5 12 6 11 7 9 8 7 9 6 10 5 11 8 12 10 14
REMARK H PARENT 8 13 10 15
REMARK Flexibility Score: inf
ROOT
ATOM      1  C   UNL     1      71.169  39.854  -4.901  1.00  0.00     0.019 A 
ATOM      2  C   UNL     1      71.366  40.622  -3.753  1.00  0.00     0.094 A 
ATOM      3  C   UNL     1      72.538  41.377  -3.636  1.00  0.00     0.336 A 
ATOM      4  O   UNL     1      72.735  42.076  -2.608  1.00  0.00    -0.246 OA
ATOM      5  O   UNL     1      73.449  41.362  -4.605  1.00  0.00    -0.423 OA
ATOM      6  C   UNL     1      73.300  40.644  -5.717  1.00  0.00     0.142 A 
ATOM      7  C   UNL     1      74.292  40.668  -6.702  1.00  0.00     0.098 A 
ATOM      8  C   UNL     1      74.139  39.912  -7.875  1.00  0.00     0.161 A 
ATOM      9  C   UNL     1      72.990  39.131  -8.062  1.00  0.00     0.158 A 
ATOM     10  C   UNL     1      71.991  39.104  -7.076  1.00  0.00     0.062 A 
ATOM     11  C   UNL     1      72.143  39.858  -5.904  1.00  0.00     0.022 A 
ENDROOT
BRANCH   9  12
ATOM     12  O   UNL     1      72.846  38.385  -9.230  1.00  0.00    -0.504 OA
ATOM     13  H   UNL     1      73.344  38.627 -10.079  1.00  0.00     0.293 HD
ENDBRANCH   9  12
BRANCH   8  14
ATOM     14  O   UNL     1      75.125  39.934  -8.859  1.00  0.00    -0.504 OA
ATOM     15  H   UNL     1      75.578  40.798  -9.137  1.00  0.00     0.293 HD
ENDBRANCH   8  14
TORSDOF 2
ENDMDL
MODEL 6
REMARK VINA RESULT:    -5.932      3.315      4.890
REMARK INTER + INTRA:          -6.279
REMARK INTER:                  -6.279
REMARK INTRA:                   0.000
REMARK UNBOUND:                 0.000
REMARK SMILES O=c1ccc2cc(O)c(O)cc2o1
REMARK SMILES IDX 4 1 3 2 2 3 1 4 13 5 12 6 11 7 9 8 7 9 6 10 5 11 8 12 10 14
REMARK H PARENT 8 13 10 15
REMARK Flexibility Score: inf
ROOT
ATOM      1  C   UNL     1      74.574  40.630  -7.511  1.00  0.00     0.019 A 
ATOM      2  C   UNL     1      74.314  40.069  -8.762  1.00  0.00     0.094 A 
ATOM      3  C   UNL     1      73.086  39.437  -8.980  1.00  0.00     0.336 A 
ATOM      4  O   UNL     1      72.832  38.925 -10.102  1.00  0.00    -0.246 OA
ATOM      5  O   UNL     1      72.180  39.372  -8.007  1.00  0.00    -0.423 OA
ATOM      6  C   UNL     1      72.386  39.894  -6.800  1.00  0.00     0.142 A 
ATOM      7  C   UNL     1      71.397  39.795  -5.817  1.00  0.00     0.098 A 
ATOM      8  C   UNL     1      71.611  40.343  -4.543  1.00  0.00     0.161 A 
ATOM      9  C   UNL     1      72.820  40.992  -4.252  1.00  0.00     0.158 A 
ATOM     10  C   UNL     1      73.816  41.094  -5.235  1.00  0.00     0.062 A 
ATOM     11  C   UNL     1      73.604  40.547  -6.508  1.00  0.00     0.022 A 
ENDROOT
BRANCH   9  12
ATOM     12  O   UNL     1      73.023  41.533  -2.985  1.00  0.00    -0.504 OA
ATOM     13  H   UNL     1      73.249  42.513  -2.856  1.00  0.00     0.293 HD
ENDBRANCH   9  12
BRANCH   8  14
ATOM     14  O   UNL     1      70.627  40.246  -3.562  1.00  0.00    -0.504 OA
ATOM     15  H   UNL     1      70.754  40.653  -2.641  1.00  0.00     0.293 HD
ENDBRANCH   8  14
TORSDOF 2
ENDMDL
MODEL 7
REMARK VINA RESULT:    -5.826      1.158      5.021
REMARK INTER + INTRA:          -6.167
REMARK INTER:                  -6.167
REMARK INTRA:                   0.000
REMARK UNBOUND:                 0.000
REMARK SMILES O=c1ccc2cc(O)c(O)cc2o1
REMARK SMILES IDX 4 1 3 2 2 3 1 4 13 5 12 6 11 7 9 8 7 9 6 10 5 11 8 12 10 14
REMARK H PARENT 8 13 10 15
REMARK Flexibility Score: inf
ROOT
ATOM      1  C   UNL     1      74.322  45.110  -3.313  1.00  0.00     0.019 A 
ATOM      2  C   UNL     1      73.778  45.506  -2.091  1.00  0.00     0.094 A 
ATOM      3  C   UNL     1      72.968  44.608  -1.388  1.00  0.00     0.336 A 
ATOM      4  O   UNL     1      72.467  44.946  -0.283  1.00  0.00    -0.246 OA
ATOM      5  O   UNL     1      72.721  43.396  -1.878  1.00  0.00    -0.423 OA
ATOM      6  C   UNL     1      73.220  42.979  -3.039  1.00  0.00     0.142 A 
ATOM      7  C   UNL     1      72.927  41.694  -3.506  1.00  0.00     0.098 A 
ATOM      8  C   UNL     1      73.451  41.249  -4.729  1.00  0.00     0.161 A 
ATOM      9  C   UNL     1      74.271  42.095  -5.490  1.00  0.00     0.158 A 
ATOM     10  C   UNL     1      74.570  43.386  -5.027  1.00  0.00     0.062 A 
ATOM     11  C   UNL     1      74.047  43.831  -3.804  1.00  0.00     0.022 A 
ENDROOT
BRANCH   9  12
ATOM     12  O   UNL     1      74.787  41.646  -6.703  1.00  0.00    -0.504 OA
ATOM     13  H   UNL     1      75.692  41.953  -7.041  1.00  0.00     0.293 HD
ENDBRANCH   9  12
BRANCH   8  14
ATOM     14  O   UNL     1      73.160  39.970  -5.196  1.00  0.00    -0.504 OA
ATOM     15  H   UNL     1      72.372  39.440  -4.838  1.00  0.00     0.293 HD
ENDBRANCH   8  14
TORSDOF 2
ENDMDL
MODEL 8
REMARK VINA RESULT:    -5.592      1.964      2.887
REMARK INTER + INTRA:          -5.919
REMARK INTER:                  -5.919
REMARK INTRA:                   0.000
REMARK UNBOUND:                 0.000
REMARK SMILES O=c1ccc2cc(O)c(O)cc2o1
REMARK SMILES IDX 4 1 3 2 2 3 1 4 13 5 12 6 11 7 9 8 7 9 6 10 5 11 8 12 10 14
REMARK H PARENT 8 13 10 15
REMARK Flexibility Score: inf
ROOT
ATOM      1  C   UNL     1      71.162  39.689  -4.540  1.00  0.00     0.019 A 
ATOM      2  C   UNL     1      71.157  39.013  -5.759  1.00  0.00     0.094 A 
ATOM      3  C   UNL     1      72.135  39.321  -6.710  1.00  0.00     0.336 A 
ATOM      4  O   UNL     1      72.148  38.722  -7.817  1.00  0.00    -0.246 OA
ATOM      5  O   UNL     1      73.056  40.246  -6.453  1.00  0.00    -0.423 OA
ATOM      6  C   UNL     1      73.098  40.915  -5.302  1.00  0.00     0.142 A 
ATOM      7  C   UNL     1      74.090  41.877  -5.087  1.00  0.00     0.098 A 
ATOM      8  C   UNL     1      74.138  42.584  -3.876  1.00  0.00     0.161 A 
ATOM      9  C   UNL     1      73.188  42.327  -2.876  1.00  0.00     0.158 A 
ATOM     10  C   UNL     1      72.191  41.363  -3.086  1.00  0.00     0.062 A 
ATOM     11  C   UNL     1      72.142  40.656  -4.296  1.00  0.00     0.022 A 
ENDROOT
BRANCH   9  12
ATOM     12  O   UNL     1      73.243  43.034  -1.677  1.00  0.00    -0.504 OA
ATOM     13  H   UNL     1      73.476  42.578  -0.802  1.00  0.00     0.293 HD
ENDBRANCH   9  12
BRANCH   8  14
ATOM     14  O   UNL     1      75.125  43.542  -3.660  1.00  0.00    -0.504 OA
ATOM     15  H   UNL     1      74.891  44.506  -3.448  1.00  0.00     0.293 HD
ENDBRANCH   8  14
TORSDOF 2
ENDMDL
MODEL 9
REMARK VINA RESULT:    -5.555      3.821      6.595
REMARK INTER + INTRA:          -5.879
REMARK INTER:                  -5.879
REMARK INTRA:                   0.000
REMARK UNBOUND:                 0.000
REMARK SMILES O=c1ccc2cc(O)c(O)cc2o1
REMARK SMILES IDX 4 1 3 2 2 3 1 4 13 5 12 6 11 7 9 8 7 9 6 10 5 11 8 12 10 14
REMARK H PARENT 8 13 10 15
REMARK Flexibility Score: inf
ROOT
ATOM      1  C   UNL     1      73.827  41.358  -5.259  1.00  0.00     0.019 A 
ATOM      2  C   UNL     1      72.923  41.154  -4.217  1.00  0.00     0.094 A 
ATOM      3  C   UNL     1      71.826  40.312  -4.426  1.00  0.00     0.336 A 
ATOM      4  O   UNL     1      70.999  40.115  -3.498  1.00  0.00    -0.246 OA
ATOM      5  O   UNL     1      71.650  39.715  -5.602  1.00  0.00    -0.423 OA
ATOM      6  C   UNL     1      72.488  39.882  -6.623  1.00  0.00     0.142 A 
ATOM      7  C   UNL     1      72.252  39.229  -7.836  1.00  0.00     0.098 A 
ATOM      8  C   UNL     1      73.133  39.402  -8.915  1.00  0.00     0.161 A 
ATOM      9  C   UNL     1      74.255  40.233  -8.778  1.00  0.00     0.158 A 
ATOM     10  C   UNL     1      74.497  40.890  -7.563  1.00  0.00     0.062 A 
ATOM     11  C   UNL     1      73.617  40.718  -6.484  1.00  0.00     0.022 A 
ENDROOT
BRANCH   9  12
ATOM     12  O   UNL     1      75.124  40.398  -9.854  1.00  0.00    -0.504 OA
ATOM     13  H   UNL     1      75.465  41.314 -10.124  1.00  0.00     0.293 HD
ENDBRANCH   9  12
BRANCH   8  14
ATOM     14  O   UNL     1      72.900  38.752 -10.125  1.00  0.00    -0.504 OA
ATOM     15  H   UNL     1      72.609  39.261 -10.953  1.00  0.00     0.293 HD
ENDBRANCH   8  14
TORSDOF 2
ENDMDL
