MODEL 1
REMARK VINA RESULT:    -5.028      0.000      0.000
REMARK INTER + INTRA:         -16.180
REMARK INTER:                 -13.259
REMARK INTRA:                  -2.921
REMARK UNBOUND:                -2.921
REMARK SMILES CCCCCCCCCCCCCCCCCCCCCCCCCCCCCC(=O)[O-]
REMARK SMILES IDX 16 1 17 2 18 3 19 4 20 5 21 6 22 7 23 8 24 9 25 10 26 11
REMARK SMILES IDX 27 12 28 13 29 14 30 15 31 16 32 17 15 18 14 19 13 20 12 21
REMARK SMILES IDX 11 22 10 23 9 24 8 25 7 26 6 27 5 28 4 29 3 30 2 31 1 32
REMARK H PARENT
REMARK Flexibility Score: inf
ROOT
ATOM      1  C   UNL     1      64.883  31.090  23.509  1.00  0.00     0.000 C 
ENDROOT
BRANCH   1   2
ATOM      2  C   UNL     1      65.232  32.384  22.744  1.00  0.00     0.000 C 
BRANCH   2   3
ATOM      3  C   UNL     1      64.092  33.415  22.641  1.00  0.00     0.000 C 
BRANCH   3   4
ATOM      4  C   UNL     1      63.975  34.038  21.241  1.00  0.00     0.000 C 
BRANCH   4   5
ATOM      5  C   UNL     1      65.360  34.384  20.677  1.00  0.00     0.000 C 
BRANCH   5   6
ATOM      6  C   UNL     1      65.332  34.701  19.172  1.00  0.00     0.000 C 
BRANCH   6   7
ATOM      7  C   UNL     1      64.266  33.907  18.388  1.00  0.00     0.000 C 
BRANCH   7   8
ATOM      8  C   UNL     1      63.511  34.785  17.373  1.00  0.00     0.000 C 
BRANCH   8   9
ATOM      9  C   UNL     1      62.144  34.195  16.993  1.00  0.00     0.000 C 
BRANCH   9  10
ATOM     10  C   UNL     1      62.228  33.258  15.775  1.00  0.00     0.000 C 
BRANCH  10  11
ATOM     11  C   UNL     1      60.958  33.309  14.909  1.00  0.00     0.000 C 
BRANCH  11  12
ATOM     12  C   UNL     1      61.259  33.071  13.420  1.00  0.00     0.000 C 
BRANCH  12  13
ATOM     13  C   UNL     1      60.427  31.925  12.821  1.00  0.00     0.006 C 
BRANCH  13  14
ATOM     14  C   UNL     1      60.641  30.589  13.549  1.00  0.00     0.053 C 
BRANCH  14  15
ATOM     15  C   UNL     1      60.374  29.431  12.639  1.00  0.00     0.041 C 
ATOM     16  O   UNL     1      60.260  28.266  13.107  1.00  0.00    -0.550 OA
ATOM     17  O   UNL     1      60.279  29.632  11.266  1.00  0.00    -0.550 OA
ENDBRANCH  14  15
ENDBRANCH  13  14
ENDBRANCH  12  13
ENDBRANCH  11  12
ENDBRANCH  10  11
ENDBRANCH   9  10
ENDBRANCH   8   9
ENDBRANCH   7   8
ENDBRANCH   6   7
ENDBRANCH   5   6
ENDBRANCH   4   5
ENDBRANCH   3   4
ENDBRANCH   2   3
ENDBRANCH   1   2
BRANCH   1  18
ATOM     18  C   UNL     1      66.089  30.288  24.030  1.00  0.00     0.000 C 
BRANCH  18  19
ATOM     19  C   UNL     1      65.985  29.960  25.530  1.00  0.00     0.000 C 
BRANCH  19  20
ATOM     20  C   UNL     1      64.653  30.422  26.146  1.00  0.00     0.000 C 
BRANCH  20  21
ATOM     21  C   UNL     1      64.406  29.829  27.543  1.00  0.00     0.000 C 
BRANCH  21  22
ATOM     22  C   UNL     1      63.040  30.230  28.130  1.00  0.00     0.000 C 
BRANCH  22  23
ATOM     23  C   UNL     1      62.094  29.055  28.449  1.00  0.00     0.000 C 
BRANCH  23  24
ATOM     24  C   UNL     1      62.339  27.777  27.622  1.00  0.00    -0.000 C 
BRANCH  24  25
ATOM     25  C   UNL     1      61.089  27.208  26.923  1.00  0.00    -0.000 C 
BRANCH  25  26
ATOM     26  C   UNL     1      60.922  27.616  25.445  1.00  0.00    -0.000 C 
BRANCH  26  27
ATOM     27  C   UNL     1      61.990  28.584  24.909  1.00  0.00    -0.000 C 
BRANCH  27  28
ATOM     28  C   UNL     1      62.939  27.920  23.896  1.00  0.00    -0.000 C 
BRANCH  28  29
ATOM     29  C   UNL     1      63.587  26.634  24.440  1.00  0.00    -0.000 C 
BRANCH  29  30
ATOM     30  C   UNL     1      65.125  26.595  24.365  1.00  0.00    -0.000 C 
BRANCH  30  31
ATOM     31  C   UNL     1      65.673  26.008  23.047  1.00  0.00    -0.003 C 
ATOM     32  C   UNL     1      66.634  26.961  22.336  1.00  0.00     0.004 C 
ENDBRANCH  30  31
ENDBRANCH  29  30
ENDBRANCH  28  29
ENDBRANCH  27  28
ENDBRANCH  26  27
ENDBRANCH  25  26
ENDBRANCH  24  25
ENDBRANCH  23  24
ENDBRANCH  22  23
ENDBRANCH  21  22
ENDBRANCH  20  21
ENDBRANCH  19  20
ENDBRANCH  18  19
ENDBRANCH   1  18
TORSDOF 28
ENDMDL
MODEL 2
REMARK VINA RESULT:    -4.817      1.969      5.160
REMARK INTER + INTRA:         -15.623
REMARK INTER:                 -12.724
REMARK INTRA:                  -2.899
REMARK UNBOUND:                -2.921
REMARK SMILES CCCCCCCCCCCCCCCCCCCCCCCCCCCCCC(=O)[O-]
REMARK SMILES IDX 16 1 17 2 18 3 19 4 20 5 21 6 22 7 23 8 24 9 25 10 26 11
REMARK SMILES IDX 27 12 28 13 29 14 30 15 31 16 32 17 15 18 14 19 13 20 12 21
REMARK SMILES IDX 11 22 10 23 9 24 8 25 7 26 6 27 5 28 4 29 3 30 2 31 1 32
REMARK H PARENT
REMARK Flexibility Score: inf
ROOT
ATOM      1  C   UNL     1      62.348  33.910  19.854  1.00  0.00     0.000 C 
ENDROOT
BRANCH   1   2
ATOM      2  C   UNL     1      61.833  34.189  18.426  1.00  0.00     0.000 C 
BRANCH   2   3
ATOM      3  C   UNL     1      62.912  34.592  17.405  1.00  0.00     0.000 C 
BRANCH   3   4
ATOM      4  C   UNL     1      62.591  34.119  15.979  1.00  0.00     0.000 C 
BRANCH   4   5
ATOM      5  C   UNL     1      62.532  32.587  15.909  1.00  0.00     0.000 C 
BRANCH   5   6
ATOM      6  C   UNL     1      62.701  32.045  14.479  1.00  0.00     0.000 C 
BRANCH   6   7
ATOM      7  C   UNL     1      61.770  32.712  13.446  1.00  0.00     0.000 C 
BRANCH   7   8
ATOM      8  C   UNL     1      60.342  32.136  13.486  1.00  0.00     0.000 C 
BRANCH   8   9
ATOM      9  C   UNL     1      60.298  30.653  13.085  1.00  0.00     0.000 C 
BRANCH   9  10
ATOM     10  C   UNL     1      60.487  30.450  11.571  1.00  0.00     0.000 C 
BRANCH  10  11
ATOM     11  C   UNL     1      60.269  28.989  11.145  1.00  0.00     0.000 C 
BRANCH  11  12
ATOM     12  C   UNL     1      61.338  28.506  10.150  1.00  0.00     0.000 C 
BRANCH  12  13
ATOM     13  C   UNL     1      62.242  29.645   9.652  1.00  0.00     0.006 C 
BRANCH  13  14
ATOM     14  C   UNL     1      63.719  29.439  10.021  1.00  0.00     0.053 C 
BRANCH  14  15
ATOM     15  C   UNL     1      64.015  29.989  11.382  1.00  0.00     0.041 C 
ATOM     16  O   UNL     1      64.638  31.078  11.507  1.00  0.00    -0.550 OA
ATOM     17  O   UNL     1      63.629  29.284  12.517  1.00  0.00    -0.550 OA
ENDBRANCH  14  15
ENDBRANCH  13  14
ENDBRANCH  12  13
ENDBRANCH  11  12
ENDBRANCH  10  11
ENDBRANCH   9  10
ENDBRANCH   8   9
ENDBRANCH   7   8
ENDBRANCH   6   7
ENDBRANCH   5   6
ENDBRANCH   4   5
ENDBRANCH   3   4
ENDBRANCH   2   3
ENDBRANCH   1   2
BRANCH   1  18
ATOM     18  C   UNL     1      63.876  33.968  20.026  1.00  0.00     0.000 C 
BRANCH  18  19
ATOM     19  C   UNL     1      64.314  33.910  21.500  1.00  0.00     0.000 C 
BRANCH  19  20
ATOM     20  C   UNL     1      65.803  33.556  21.663  1.00  0.00     0.000 C 
BRANCH  20  21
ATOM     21  C   UNL     1      66.034  32.381  22.627  1.00  0.00     0.000 C 
BRANCH  21  22
ATOM     22  C   UNL     1      64.785  32.038  23.460  1.00  0.00     0.000 C 
BRANCH  22  23
ATOM     23  C   UNL     1      64.694  30.573  23.931  1.00  0.00     0.000 C 
BRANCH  23  24
ATOM     24  C   UNL     1      65.844  30.110  24.848  1.00  0.00    -0.000 C 
BRANCH  24  25
ATOM     25  C   UNL     1      66.580  28.841  24.375  1.00  0.00    -0.000 C 
BRANCH  25  26
ATOM     26  C   UNL     1      65.894  28.076  23.225  1.00  0.00    -0.000 C 
BRANCH  26  27
ATOM     27  C   UNL     1      65.427  26.652  23.574  1.00  0.00    -0.000 C 
BRANCH  27  28
ATOM     28  C   UNL     1      65.412  26.388  25.090  1.00  0.00    -0.000 C 
BRANCH  28  29
ATOM     29  C   UNL     1      63.990  26.364  25.677  1.00  0.00    -0.000 C 
BRANCH  29  30
ATOM     30  C   UNL     1      63.541  27.672  26.357  1.00  0.00    -0.000 C 
BRANCH  30  31
ATOM     31  C   UNL     1      62.204  28.227  25.823  1.00  0.00    -0.003 C 
ATOM     32  C   UNL     1      62.135  28.221  24.296  1.00  0.00     0.004 C 
ENDBRANCH  30  31
ENDBRANCH  29  30
ENDBRANCH  28  29
ENDBRANCH  27  28
ENDBRANCH  26  27
ENDBRANCH  25  26
ENDBRANCH  24  25
ENDBRANCH  23  24
ENDBRANCH  22  23
ENDBRANCH  21  22
ENDBRANCH  20  21
ENDBRANCH  19  20
ENDBRANCH  18  19
ENDBRANCH   1  18
TORSDOF 28
ENDMDL
MODEL 3
REMARK VINA RESULT:    -4.783      3.017     11.191
REMARK INTER + INTRA:         -15.532
REMARK INTER:                 -12.672
REMARK INTRA:                  -2.860
REMARK UNBOUND:                -2.921
REMARK SMILES CCCCCCCCCCCCCCCCCCCCCCCCCCCCCC(=O)[O-]
REMARK SMILES IDX 16 1 17 2 18 3 19 4 20 5 21 6 22 7 23 8 24 9 25 10 26 11
REMARK SMILES IDX 27 12 28 13 29 14 30 15 31 16 32 17 15 18 14 19 13 20 12 21
REMARK SMILES IDX 11 22 10 23 9 24 8 25 7 26 6 27 5 28 4 29 3 30 2 31 1 32
REMARK H PARENT
REMARK Flexibility Score: inf
ROOT
ATOM      1  C   UNL     1      64.103  33.863  21.428  1.00  0.00     0.000 C 
ENDROOT
BRANCH   1   2
ATOM      2  C   UNL     1      64.497  33.082  22.699  1.00  0.00     0.000 C 
BRANCH   2   3
ATOM      3  C   UNL     1      65.828  32.312  22.611  1.00  0.00     0.000 C 
BRANCH   3   4
ATOM      4  C   UNL     1      65.852  31.059  23.501  1.00  0.00     0.000 C 
BRANCH   4   5
ATOM      5  C   UNL     1      64.445  30.719  24.008  1.00  0.00     0.000 C 
BRANCH   5   6
ATOM      6  C   UNL     1      64.412  30.392  25.511  1.00  0.00     0.000 C 
BRANCH   6   7
ATOM      7  C   UNL     1      63.011  30.008  26.034  1.00  0.00     0.000 C 
BRANCH   7   8
ATOM      8  C   UNL     1      62.137  29.361  24.946  1.00  0.00     0.000 C 
BRANCH   8   9
ATOM      9  C   UNL     1      61.354  28.147  25.470  1.00  0.00     0.000 C 
BRANCH   9  10
ATOM     10  C   UNL     1      62.200  27.263  26.405  1.00  0.00     0.000 C 
BRANCH  10  11
ATOM     11  C   UNL     1      63.144  26.329  25.630  1.00  0.00     0.000 C 
BRANCH  11  12
ATOM     12  C   UNL     1      64.622  26.713  25.814  1.00  0.00     0.000 C 
BRANCH  12  13
ATOM     13  C   UNL     1      65.522  26.165  24.695  1.00  0.00     0.006 C 
BRANCH  13  14
ATOM     14  C   UNL     1      65.962  27.248  23.699  1.00  0.00     0.053 C 
BRANCH  14  15
ATOM     15  C   UNL     1      65.160  27.176  22.436  1.00  0.00     0.041 C 
ATOM     16  O   UNL     1      65.669  26.703  21.385  1.00  0.00    -0.550 OA
ATOM     17  O   UNL     1      63.857  27.660  22.411  1.00  0.00    -0.550 OA
ENDBRANCH  14  15
ENDBRANCH  13  14
ENDBRANCH  12  13
ENDBRANCH  11  12
ENDBRANCH  10  11
ENDBRANCH   9  10
ENDBRANCH   8   9
ENDBRANCH   7   8
ENDBRANCH   6   7
ENDBRANCH   5   6
ENDBRANCH   4   5
ENDBRANCH   3   4
ENDBRANCH   2   3
ENDBRANCH   1   2
BRANCH   1  18
ATOM     18  C   UNL     1      65.278  34.428  20.610  1.00  0.00     0.000 C 
BRANCH  18  19
ATOM     19  C   UNL     1      65.095  34.240  19.094  1.00  0.00     0.000 C 
BRANCH  19  20
ATOM     20  C   UNL     1      63.620  34.072  18.691  1.00  0.00     0.000 C 
BRANCH  20  21
ATOM     21  C   UNL     1      63.355  34.458  17.226  1.00  0.00     0.000 C 
BRANCH  21  22
ATOM     22  C   UNL     1      63.350  33.243  16.281  1.00  0.00     0.000 C 
BRANCH  22  23
ATOM     23  C   UNL     1      63.833  33.529  14.844  1.00  0.00     0.000 C 
BRANCH  23  24
ATOM     24  C   UNL     1      63.845  32.308  13.904  1.00  0.00    -0.000 C 
BRANCH  24  25
ATOM     25  C   UNL     1      64.685  32.483  12.625  1.00  0.00    -0.000 C 
BRANCH  25  26
ATOM     26  C   UNL     1      64.205  31.665  11.408  1.00  0.00    -0.000 C 
BRANCH  26  27
ATOM     27  C   UNL     1      63.877  30.191  11.699  1.00  0.00    -0.000 C 
BRANCH  27  28
ATOM     28  C   UNL     1      63.150  29.503  10.531  1.00  0.00    -0.000 C 
BRANCH  28  29
ATOM     29  C   UNL     1      61.701  29.117  10.874  1.00  0.00    -0.000 C 
BRANCH  29  30
ATOM     30  C   UNL     1      60.790  30.291  11.279  1.00  0.00    -0.000 C 
BRANCH  30  31
ATOM     31  C   UNL     1      60.549  30.401  12.800  1.00  0.00    -0.003 C 
ATOM     32  C   UNL     1      60.271  31.835  13.248  1.00  0.00     0.004 C 
ENDBRANCH  30  31
ENDBRANCH  29  30
ENDBRANCH  28  29
ENDBRANCH  27  28
ENDBRANCH  26  27
ENDBRANCH  25  26
ENDBRANCH  24  25
ENDBRANCH  23  24
ENDBRANCH  22  23
ENDBRANCH  21  22
ENDBRANCH  20  21
ENDBRANCH  19  20
ENDBRANCH  18  19
ENDBRANCH   1  18
TORSDOF 28
ENDMDL
MODEL 4
REMARK VINA RESULT:    -4.778      1.846      5.208
REMARK INTER + INTRA:         -15.521
REMARK INTER:                 -12.897
REMARK INTRA:                  -2.624
REMARK UNBOUND:                -2.921
REMARK SMILES CCCCCCCCCCCCCCCCCCCCCCCCCCCCCC(=O)[O-]
REMARK SMILES IDX 16 1 17 2 18 3 19 4 20 5 21 6 22 7 23 8 24 9 25 10 26 11
REMARK SMILES IDX 27 12 28 13 29 14 30 15 31 16 32 17 15 18 14 19 13 20 12 21
REMARK SMILES IDX 11 22 10 23 9 24 8 25 7 26 6 27 5 28 4 29 3 30 2 31 1 32
REMARK H PARENT
REMARK Flexibility Score: inf
ROOT
ATOM      1  C   UNL     1      62.455  33.906  19.738  1.00  0.00     0.000 C 
ENDROOT
BRANCH   1   2
ATOM      2  C   UNL     1      61.834  33.998  18.328  1.00  0.00     0.000 C 
BRANCH   2   3
ATOM      3  C   UNL     1      62.801  34.425  17.209  1.00  0.00     0.000 C 
BRANCH   3   4
ATOM      4  C   UNL     1      63.252  33.250  16.328  1.00  0.00     0.000 C 
BRANCH   4   5
ATOM      5  C   UNL     1      62.973  33.536  14.847  1.00  0.00     0.000 C 
BRANCH   5   6
ATOM      6  C   UNL     1      61.682  32.871  14.340  1.00  0.00     0.000 C 
BRANCH   6   7
ATOM      7  C   UNL     1      61.812  32.251  12.932  1.00  0.00     0.000 C 
BRANCH   7   8
ATOM      8  C   UNL     1      63.122  31.462  12.758  1.00  0.00     0.000 C 
BRANCH   8   9
ATOM      9  C   UNL     1      63.882  31.863  11.483  1.00  0.00     0.000 C 
BRANCH   9  10
ATOM     10  C   UNL     1      64.402  30.643  10.703  1.00  0.00     0.000 C 
BRANCH  10  11
ATOM     11  C   UNL     1      63.449  29.440  10.796  1.00  0.00     0.000 C 
BRANCH  11  12
ATOM     12  C   UNL     1      62.261  29.562   9.826  1.00  0.00     0.000 C 
BRANCH  12  13
ATOM     13  C   UNL     1      61.063  28.693  10.241  1.00  0.00     0.006 C 
BRANCH  13  14
ATOM     14  C   UNL     1      60.137  29.394  11.246  1.00  0.00     0.053 C 
BRANCH  14  15
ATOM     15  C   UNL     1      60.059  28.629  12.531  1.00  0.00     0.041 C 
ATOM     16  O   UNL     1      61.053  28.582  13.304  1.00  0.00    -0.550 OA
ATOM     17  O   UNL     1      58.897  27.943  12.863  1.00  0.00    -0.550 OA
ENDBRANCH  14  15
ENDBRANCH  13  14
ENDBRANCH  12  13
ENDBRANCH  11  12
ENDBRANCH  10  11
ENDBRANCH   9  10
ENDBRANCH   8   9
ENDBRANCH   7   8
ENDBRANCH   6   7
ENDBRANCH   5   6
ENDBRANCH   4   5
ENDBRANCH   3   4
ENDBRANCH   2   3
ENDBRANCH   1   2
BRANCH   1  18
ATOM     18  C   UNL     1      63.965  34.196  19.812  1.00  0.00     0.000 C 
BRANCH  18  19
ATOM     19  C   UNL     1      64.505  34.187  21.253  1.00  0.00     0.000 C 
BRANCH  19  20
ATOM     20  C   UNL     1      65.952  33.670  21.340  1.00  0.00     0.000 C 
BRANCH  20  21
ATOM     21  C   UNL     1      66.142  32.617  22.443  1.00  0.00     0.000 C 
BRANCH  21  22
ATOM     22  C   UNL     1      64.819  32.216  23.120  1.00  0.00     0.000 C 
BRANCH  22  23
ATOM     23  C   UNL     1      64.897  30.967  24.023  1.00  0.00     0.000 C 
BRANCH  23  24
ATOM     24  C   UNL     1      65.141  29.639  23.280  1.00  0.00    -0.000 C 
BRANCH  24  25
ATOM     25  C   UNL     1      66.307  28.794  23.829  1.00  0.00    -0.000 C 
BRANCH  25  26
ATOM     26  C   UNL     1      66.024  28.078  25.165  1.00  0.00    -0.000 C 
BRANCH  26  27
ATOM     27  C   UNL     1      65.352  26.700  25.040  1.00  0.00    -0.000 C 
BRANCH  27  28
ATOM     28  C   UNL     1      64.040  26.604  25.838  1.00  0.00    -0.000 C 
BRANCH  28  29
ATOM     29  C   UNL     1      62.795  26.869  24.973  1.00  0.00    -0.000 C 
BRANCH  29  30
ATOM     30  C   UNL     1      61.714  27.747  25.634  1.00  0.00    -0.000 C 
BRANCH  30  31
ATOM     31  C   UNL     1      62.155  29.206  25.874  1.00  0.00    -0.003 C 
ATOM     32  C   UNL     1      62.488  29.484  27.340  1.00  0.00     0.004 C 
ENDBRANCH  30  31
ENDBRANCH  29  30
ENDBRANCH  28  29
ENDBRANCH  27  28
ENDBRANCH  26  27
ENDBRANCH  25  26
ENDBRANCH  24  25
ENDBRANCH  23  24
ENDBRANCH  22  23
ENDBRANCH  21  22
ENDBRANCH  20  21
ENDBRANCH  19  20
ENDBRANCH  18  19
ENDBRANCH   1  18
TORSDOF 28
ENDMDL
MODEL 5
REMARK VINA RESULT:    -4.714      4.094     11.683
REMARK INTER + INTRA:         -15.351
REMARK INTER:                 -12.257
REMARK INTRA:                  -3.094
REMARK UNBOUND:                -2.921
REMARK SMILES CCCCCCCCCCCCCCCCCCCCCCCCCCCCCC(=O)[O-]
REMARK SMILES IDX 16 1 17 2 18 3 19 4 20 5 21 6 22 7 23 8 24 9 25 10 26 11
REMARK SMILES IDX 27 12 28 13 29 14 30 15 31 16 32 17 15 18 14 19 13 20 12 21
REMARK SMILES IDX 11 22 10 23 9 24 8 25 7 26 6 27 5 28 4 29 3 30 2 31 1 32
REMARK H PARENT
REMARK Flexibility Score: inf
ROOT
ATOM      1  C   UNL     1      61.996  33.518  17.013  1.00  0.00     0.000 C 
ENDROOT
BRANCH   1   2
ATOM      2  C   UNL     1      62.163  34.462  18.222  1.00  0.00     0.000 C 
BRANCH   2   3
ATOM      3  C   UNL     1      63.070  33.934  19.349  1.00  0.00     0.000 C 
BRANCH   3   4
ATOM      4  C   UNL     1      64.547  34.306  19.150  1.00  0.00     0.000 C 
BRANCH   4   5
ATOM      5  C   UNL     1      65.179  34.770  20.469  1.00  0.00     0.000 C 
BRANCH   5   6
ATOM      6  C   UNL     1      65.151  33.687  21.560  1.00  0.00     0.000 C 
BRANCH   6   7
ATOM      7  C   UNL     1      66.548  33.160  21.952  1.00  0.00     0.000 C 
BRANCH   7   8
ATOM      8  C   UNL     1      66.473  31.948  22.898  1.00  0.00     0.000 C 
BRANCH   8   9
ATOM      9  C   UNL     1      65.085  31.791  23.538  1.00  0.00     0.000 C 
BRANCH   9  10
ATOM     10  C   UNL     1      64.759  30.325  23.879  1.00  0.00     0.000 C 
BRANCH  10  11
ATOM     11  C   UNL     1      64.053  30.184  25.237  1.00  0.00     0.000 C 
BRANCH  11  12
ATOM     12  C   UNL     1      62.560  29.851  25.084  1.00  0.00     0.000 C 
BRANCH  12  13
ATOM     13  C   UNL     1      62.318  28.535  24.327  1.00  0.00     0.006 C 
BRANCH  13  14
ATOM     14  C   UNL     1      61.936  27.374  25.257  1.00  0.00     0.053 C 
BRANCH  14  15
ATOM     15  C   UNL     1      62.965  27.180  26.327  1.00  0.00     0.041 C 
ATOM     16  O   UNL     1      64.038  26.570  26.074  1.00  0.00    -0.550 OA
ATOM     17  O   UNL     1      62.727  27.647  27.615  1.00  0.00    -0.550 OA
ENDBRANCH  14  15
ENDBRANCH  13  14
ENDBRANCH  12  13
ENDBRANCH  11  12
ENDBRANCH  10  11
ENDBRANCH   9  10
ENDBRANCH   8   9
ENDBRANCH   7   8
ENDBRANCH   6   7
ENDBRANCH   5   6
ENDBRANCH   4   5
ENDBRANCH   3   4
ENDBRANCH   2   3
ENDBRANCH   1   2
BRANCH   1  18
ATOM     18  C   UNL     1      62.899  33.828  15.806  1.00  0.00     0.000 C 
BRANCH  18  19
ATOM     19  C   UNL     1      64.208  33.020  15.816  1.00  0.00     0.000 C 
BRANCH  19  20
ATOM     20  C   UNL     1      64.523  32.384  14.450  1.00  0.00     0.000 C 
BRANCH  20  21
ATOM     21  C   UNL     1      64.790  33.430  13.355  1.00  0.00     0.000 C 
BRANCH  21  22
ATOM     22  C   UNL     1      64.613  32.864  11.934  1.00  0.00     0.000 C 
BRANCH  22  23
ATOM     23  C   UNL     1      64.319  31.352  11.863  1.00  0.00     0.000 C 
BRANCH  23  24
ATOM     24  C   UNL     1      64.112  30.793  10.442  1.00  0.00    -0.000 C 
BRANCH  24  25
ATOM     25  C   UNL     1      63.328  29.468  10.373  1.00  0.00    -0.000 C 
BRANCH  25  26
ATOM     26  C   UNL     1      61.807  29.618  10.161  1.00  0.00    -0.000 C 
BRANCH  26  27
ATOM     27  C   UNL     1      60.930  29.036  11.282  1.00  0.00    -0.000 C 
BRANCH  27  28
ATOM     28  C   UNL     1      61.738  28.667  12.537  1.00  0.00    -0.000 C 
BRANCH  28  29
ATOM     29  C   UNL     1      61.107  29.204  13.833  1.00  0.00    -0.000 C 
BRANCH  29  30
ATOM     30  C   UNL     1      61.478  30.657  14.188  1.00  0.00    -0.000 C 
BRANCH  30  31
ATOM     31  C   UNL     1      60.410  31.693  13.779  1.00  0.00    -0.003 C 
ATOM     32  C   UNL     1      60.974  32.793  12.881  1.00  0.00     0.004 C 
ENDBRANCH  30  31
ENDBRANCH  29  30
ENDBRANCH  28  29
ENDBRANCH  27  28
ENDBRANCH  26  27
ENDBRANCH  25  26
ENDBRANCH  24  25
ENDBRANCH  23  24
ENDBRANCH  22  23
ENDBRANCH  21  22
ENDBRANCH  20  21
ENDBRANCH  19  20
ENDBRANCH  18  19
ENDBRANCH   1  18
TORSDOF 28
ENDMDL
MODEL 6
REMARK VINA RESULT:    -4.701      1.205      3.201
REMARK INTER + INTRA:         -15.316
REMARK INTER:                 -12.487
REMARK INTRA:                  -2.829
REMARK UNBOUND:                -2.921
REMARK SMILES CCCCCCCCCCCCCCCCCCCCCCCCCCCCCC(=O)[O-]
REMARK SMILES IDX 16 1 17 2 18 3 19 4 20 5 21 6 22 7 23 8 24 9 25 10 26 11
REMARK SMILES IDX 27 12 28 13 29 14 30 15 31 16 32 17 15 18 14 19 13 20 12 21
REMARK SMILES IDX 11 22 10 23 9 24 8 25 7 26 6 27 5 28 4 29 3 30 2 31 1 32
REMARK H PARENT
REMARK Flexibility Score: inf
ROOT
ATOM      1  C   UNL     1      64.908  31.976  23.258  1.00  0.00     0.000 C 
ENDROOT
BRANCH   1   2
ATOM      2  C   UNL     1      65.493  33.088  22.363  1.00  0.00     0.000 C 
BRANCH   2   3
ATOM      3  C   UNL     1      64.463  33.863  21.520  1.00  0.00     0.000 C 
BRANCH   3   4
ATOM      4  C   UNL     1      65.106  34.949  20.643  1.00  0.00     0.000 C 
BRANCH   4   5
ATOM      5  C   UNL     1      65.940  34.324  19.518  1.00  0.00     0.000 C 
BRANCH   5   6
ATOM      6  C   UNL     1      65.353  34.585  18.120  1.00  0.00     0.000 C 
BRANCH   6   7
ATOM      7  C   UNL     1      64.023  33.850  17.854  1.00  0.00     0.000 C 
BRANCH   7   8
ATOM      8  C   UNL     1      63.289  34.396  16.616  1.00  0.00     0.000 C 
BRANCH   8   9
ATOM      9  C   UNL     1      63.585  33.575  15.351  1.00  0.00     0.000 C 
BRANCH   9  10
ATOM     10  C   UNL     1      62.322  32.906  14.778  1.00  0.00     0.000 C 
BRANCH  10  11
ATOM     11  C   UNL     1      61.692  31.906  15.762  1.00  0.00     0.000 C 
BRANCH  11  12
ATOM     12  C   UNL     1      61.767  30.459  15.247  1.00  0.00     0.000 C 
BRANCH  12  13
ATOM     13  C   UNL     1      62.811  30.277  14.133  1.00  0.00     0.006 C 
BRANCH  13  14
ATOM     14  C   UNL     1      62.565  29.021  13.284  1.00  0.00     0.053 C 
BRANCH  14  15
ATOM     15  C   UNL     1      61.788  29.351  12.047  1.00  0.00     0.041 C 
ATOM     16  O   UNL     1      60.919  28.551  11.609  1.00  0.00    -0.550 OA
ATOM     17  O   UNL     1      62.044  30.532  11.359  1.00  0.00    -0.550 OA
ENDBRANCH  14  15
ENDBRANCH  13  14
ENDBRANCH  12  13
ENDBRANCH  11  12
ENDBRANCH  10  11
ENDBRANCH   9  10
ENDBRANCH   8   9
ENDBRANCH   7   8
ENDBRANCH   6   7
ENDBRANCH   5   6
ENDBRANCH   4   5
ENDBRANCH   3   4
ENDBRANCH   2   3
ENDBRANCH   1   2
BRANCH   1  18
ATOM     18  C   UNL     1      65.840  30.778  23.515  1.00  0.00     0.000 C 
BRANCH  18  19
ATOM     19  C   UNL     1      65.143  29.423  23.303  1.00  0.00     0.000 C 
BRANCH  19  20
ATOM     20  C   UNL     1      66.098  28.344  22.762  1.00  0.00     0.000 C 
BRANCH  20  21
ATOM     21  C   UNL     1      66.099  27.067  23.619  1.00  0.00     0.000 C 
BRANCH  21  22
ATOM     22  C   UNL     1      65.482  27.283  25.013  1.00  0.00     0.000 C 
BRANCH  22  23
ATOM     23  C   UNL     1      64.407  26.254  25.420  1.00  0.00     0.000 C 
BRANCH  23  24
ATOM     24  C   UNL     1      63.033  26.446  24.748  1.00  0.00    -0.000 C 
BRANCH  24  25
ATOM     25  C   UNL     1      62.408  27.841  24.936  1.00  0.00    -0.000 C 
BRANCH  25  26
ATOM     26  C   UNL     1      61.052  27.858  25.671  1.00  0.00    -0.000 C 
BRANCH  26  27
ATOM     27  C   UNL     1      61.029  27.117  27.018  1.00  0.00    -0.000 C 
BRANCH  27  28
ATOM     28  C   UNL     1      62.095  27.634  27.999  1.00  0.00    -0.000 C 
BRANCH  28  29
ATOM     29  C   UNL     1      61.839  29.082  28.450  1.00  0.00    -0.000 C 
BRANCH  29  30
ATOM     30  C   UNL     1      63.096  29.966  28.558  1.00  0.00    -0.000 C 
BRANCH  30  31
ATOM     31  C   UNL     1      63.693  30.374  27.194  1.00  0.00    -0.003 C 
ATOM     32  C   UNL     1      65.212  30.211  27.148  1.00  0.00     0.004 C 
ENDBRANCH  30  31
ENDBRANCH  29  30
ENDBRANCH  28  29
ENDBRANCH  27  28
ENDBRANCH  26  27
ENDBRANCH  25  26
ENDBRANCH  24  25
ENDBRANCH  23  24
ENDBRANCH  22  23
ENDBRANCH  21  22
ENDBRANCH  20  21
ENDBRANCH  19  20
ENDBRANCH  18  19
ENDBRANCH   1  18
TORSDOF 28
ENDMDL
MODEL 7
REMARK VINA RESULT:    -4.671      1.302      2.242
REMARK INTER + INTRA:         -15.236
REMARK INTER:                 -12.580
REMARK INTRA:                  -2.657
REMARK UNBOUND:                -2.921
REMARK SMILES CCCCCCCCCCCCCCCCCCCCCCCCCCCCCC(=O)[O-]
REMARK SMILES IDX 16 1 17 2 18 3 19 4 20 5 21 6 22 7 23 8 24 9 25 10 26 11
REMARK SMILES IDX 27 12 28 13 29 14 30 15 31 16 32 17 15 18 14 19 13 20 12 21
REMARK SMILES IDX 11 22 10 23 9 24 8 25 7 26 6 27 5 28 4 29 3 30 2 31 1 32
REMARK H PARENT
REMARK Flexibility Score: inf
ROOT
ATOM      1  C   UNL     1      67.007  32.222  22.737  1.00  0.00     0.000 C 
ENDROOT
BRANCH   1   2
ATOM      2  C   UNL     1      67.106  33.256  21.596  1.00  0.00     0.000 C 
BRANCH   2   3
ATOM      3  C   UNL     1      65.791  33.978  21.248  1.00  0.00     0.000 C 
BRANCH   3   4
ATOM      4  C   UNL     1      65.839  34.679  19.881  1.00  0.00     0.000 C 
BRANCH   4   5
ATOM      5  C   UNL     1      64.666  34.238  18.997  1.00  0.00     0.000 C 
BRANCH   5   6
ATOM      6  C   UNL     1      65.014  34.231  17.498  1.00  0.00     0.000 C 
BRANCH   6   7
ATOM      7  C   UNL     1      63.800  34.468  16.576  1.00  0.00     0.000 C 
BRANCH   7   8
ATOM      8  C   UNL     1      64.000  33.860  15.176  1.00  0.00     0.000 C 
BRANCH   8   9
ATOM      9  C   UNL     1      63.206  32.559  14.983  1.00  0.00     0.000 C 
BRANCH   9  10
ATOM     10  C   UNL     1      61.741  32.820  14.590  1.00  0.00     0.000 C 
BRANCH  10  11
ATOM     11  C   UNL     1      61.495  32.616  13.086  1.00  0.00     0.000 C 
BRANCH  11  12
ATOM     12  C   UNL     1      60.310  31.673  12.813  1.00  0.00     0.000 C 
BRANCH  12  13
ATOM     13  C   UNL     1      60.699  30.188  12.904  1.00  0.00     0.006 C 
BRANCH  13  14
ATOM     14  C   UNL     1      60.107  29.346  11.765  1.00  0.00     0.053 C 
BRANCH  14  15
ATOM     15  C   UNL     1      60.755  29.679  10.456  1.00  0.00     0.041 C 
ATOM     16  O   UNL     1      60.058  30.079   9.485  1.00  0.00    -0.550 OA
ATOM     17  O   UNL     1      62.126  29.519  10.298  1.00  0.00    -0.550 OA
ENDBRANCH  14  15
ENDBRANCH  13  14
ENDBRANCH  12  13
ENDBRANCH  11  12
ENDBRANCH  10  11
ENDBRANCH   9  10
ENDBRANCH   8   9
ENDBRANCH   7   8
ENDBRANCH   6   7
ENDBRANCH   5   6
ENDBRANCH   4   5
ENDBRANCH   3   4
ENDBRANCH   2   3
ENDBRANCH   1   2
BRANCH   1  18
ATOM     18  C   UNL     1      65.578  31.864  23.181  1.00  0.00     0.000 C 
BRANCH  18  19
ATOM     19  C   UNL     1      65.480  30.463  23.809  1.00  0.00     0.000 C 
BRANCH  19  20
ATOM     20  C   UNL     1      66.851  29.905  24.229  1.00  0.00     0.000 C 
BRANCH  20  21
ATOM     21  C   UNL     1      67.043  29.883  25.754  1.00  0.00     0.000 C 
BRANCH  21  22
ATOM     22  C   UNL     1      65.861  29.230  26.495  1.00  0.00     0.000 C 
BRANCH  22  23
ATOM     23  C   UNL     1      65.102  30.160  27.463  1.00  0.00     0.000 C 
BRANCH  23  24
ATOM     24  C   UNL     1      63.624  30.413  27.102  1.00  0.00    -0.000 C 
BRANCH  24  25
ATOM     25  C   UNL     1      62.648  29.309  27.553  1.00  0.00    -0.000 C 
BRANCH  25  26
ATOM     26  C   UNL     1      61.918  28.573  26.410  1.00  0.00    -0.000 C 
BRANCH  26  27
ATOM     27  C   UNL     1      62.136  29.165  25.007  1.00  0.00    -0.000 C 
BRANCH  27  28
ATOM     28  C   UNL     1      62.633  28.120  23.993  1.00  0.00    -0.000 C 
BRANCH  28  29
ATOM     29  C   UNL     1      63.870  27.351  24.486  1.00  0.00    -0.000 C 
BRANCH  29  30
ATOM     30  C   UNL     1      64.144  26.018  23.763  1.00  0.00    -0.000 C 
BRANCH  30  31
ATOM     31  C   UNL     1      65.637  25.763  23.465  1.00  0.00    -0.003 C 
ATOM     32  C   UNL     1      66.187  26.699  22.388  1.00  0.00     0.004 C 
ENDBRANCH  30  31
ENDBRANCH  29  30
ENDBRANCH  28  29
ENDBRANCH  27  28
ENDBRANCH  26  27
ENDBRANCH  25  26
ENDBRANCH  24  25
ENDBRANCH  23  24
ENDBRANCH  22  23
ENDBRANCH  21  22
ENDBRANCH  20  21
ENDBRANCH  19  20
ENDBRANCH  18  19
ENDBRANCH   1  18
TORSDOF 28
ENDMDL
MODEL 8
REMARK VINA RESULT:    -4.670      4.045     12.270
REMARK INTER + INTRA:         -15.234
REMARK INTER:                 -12.012
REMARK INTRA:                  -3.222
REMARK UNBOUND:                -2.921
REMARK SMILES CCCCCCCCCCCCCCCCCCCCCCCCCCCCCC(=O)[O-]
REMARK SMILES IDX 16 1 17 2 18 3 19 4 20 5 21 6 22 7 23 8 24 9 25 10 26 11
REMARK SMILES IDX 27 12 28 13 29 14 30 15 31 16 32 17 15 18 14 19 13 20 12 21
REMARK SMILES IDX 11 22 10 23 9 24 8 25 7 26 6 27 5 28 4 29 3 30 2 31 1 32
REMARK H PARENT
REMARK Flexibility Score: inf
ROOT
ATOM      1  C   UNL     1      60.340  32.399  14.485  1.00  0.00     0.000 C 
ENDROOT
BRANCH   1   2
ATOM      2  C   UNL     1      61.326  33.467  15.002  1.00  0.00     0.000 C 
BRANCH   2   3
ATOM      3  C   UNL     1      61.946  33.177  16.381  1.00  0.00     0.000 C 
BRANCH   3   4
ATOM      4  C   UNL     1      62.733  34.371  16.945  1.00  0.00     0.000 C 
BRANCH   4   5
ATOM      5  C   UNL     1      63.944  33.895  17.758  1.00  0.00     0.000 C 
BRANCH   5   6
ATOM      6  C   UNL     1      64.856  35.049  18.208  1.00  0.00     0.000 C 
BRANCH   6   7
ATOM      7  C   UNL     1      65.612  34.769  19.523  1.00  0.00     0.000 C 
BRANCH   7   8
ATOM      8  C   UNL     1      64.674  34.301  20.650  1.00  0.00     0.000 C 
BRANCH   8   9
ATOM      9  C   UNL     1      65.409  33.479  21.720  1.00  0.00     0.000 C 
BRANCH   9  10
ATOM     10  C   UNL     1      64.449  32.883  22.765  1.00  0.00     0.000 C 
BRANCH  10  11
ATOM     11  C   UNL     1      65.055  31.673  23.494  1.00  0.00     0.000 C 
BRANCH  11  12
ATOM     12  C   UNL     1      64.118  31.119  24.580  1.00  0.00     0.000 C 
BRANCH  12  13
ATOM     13  C   UNL     1      63.599  29.708  24.255  1.00  0.00     0.006 C 
BRANCH  13  14
ATOM     14  C   UNL     1      62.290  29.371  24.985  1.00  0.00     0.053 C 
BRANCH  14  15
ATOM     15  C   UNL     1      62.326  27.980  25.539  1.00  0.00     0.041 C 
ATOM     16  O   UNL     1      61.270  27.296  25.610  1.00  0.00    -0.550 OA
ATOM     17  O   UNL     1      63.522  27.448  26.007  1.00  0.00    -0.550 OA
ENDBRANCH  14  15
ENDBRANCH  13  14
ENDBRANCH  12  13
ENDBRANCH  11  12
ENDBRANCH  10  11
ENDBRANCH   9  10
ENDBRANCH   8   9
ENDBRANCH   7   8
ENDBRANCH   6   7
ENDBRANCH   5   6
ENDBRANCH   4   5
ENDBRANCH   3   4
ENDBRANCH   2   3
ENDBRANCH   1   2
BRANCH   1  18
ATOM     18  C   UNL     1      60.727  31.736  13.150  1.00  0.00     0.000 C 
BRANCH  18  19
ATOM     19  C   UNL     1      61.114  30.255  13.309  1.00  0.00     0.000 C 
BRANCH  19  20
ATOM     20  C   UNL     1      60.100  29.303  12.652  1.00  0.00     0.000 C 
BRANCH  20  21
ATOM     21  C   UNL     1      60.589  28.752  11.302  1.00  0.00     0.000 C 
BRANCH  21  22
ATOM     22  C   UNL     1      60.349  29.730  10.136  1.00  0.00     0.000 C 
BRANCH  22  23
ATOM     23  C   UNL     1      61.602  30.082   9.309  1.00  0.00     0.000 C 
BRANCH  23  24
ATOM     24  C   UNL     1      62.688  28.988   9.272  1.00  0.00    -0.000 C 
BRANCH  24  25
ATOM     25  C   UNL     1      64.097  29.459   9.679  1.00  0.00    -0.000 C 
BRANCH  25  26
ATOM     26  C   UNL     1      64.381  30.957   9.444  1.00  0.00    -0.000 C 
BRANCH  26  27
ATOM     27  C   UNL     1      65.044  31.689  10.623  1.00  0.00    -0.000 C 
BRANCH  27  28
ATOM     28  C   UNL     1      64.053  32.015  11.753  1.00  0.00    -0.000 C 
BRANCH  28  29
ATOM     29  C   UNL     1      64.466  31.404  13.104  1.00  0.00    -0.000 C 
BRANCH  29  30
ATOM     30  C   UNL     1      64.833  32.424  14.198  1.00  0.00    -0.000 C 
BRANCH  30  31
ATOM     31  C   UNL     1      64.834  33.889  13.713  1.00  0.00    -0.003 C 
ATOM     32  C   UNL     1      65.722  34.791  14.570  1.00  0.00     0.004 C 
ENDBRANCH  30  31
ENDBRANCH  29  30
ENDBRANCH  28  29
ENDBRANCH  27  28
ENDBRANCH  26  27
ENDBRANCH  25  26
ENDBRANCH  24  25
ENDBRANCH  23  24
ENDBRANCH  22  23
ENDBRANCH  21  22
ENDBRANCH  20  21
ENDBRANCH  19  20
ENDBRANCH  18  19
ENDBRANCH   1  18
TORSDOF 28
ENDMDL
