MODEL 1
REMARK VINA RESULT:    -3.642      0.000      0.000
REMARK INTER + INTRA:          -5.171
REMARK INTER:                  -4.493
REMARK INTRA:                  -0.677
REMARK UNBOUND:                -0.677
REMARK SMILES C=CC(=C)CCC=C(C)C
REMARK SMILES IDX 5 1 6 2 7 3 9 4 8 5 10 6 3 7 4 8 2 9 1 10
REMARK H PARENT
REMARK Flexibility Score: inf
ROOT
ATOM      1  C   UNL     1     139.730 133.265 135.745  1.00  0.00     0.039 C 
ENDROOT
BRANCH   1   2
ATOM      2  C   UNL     1     139.785 134.744 135.334  1.00  0.00     0.032 C 
BRANCH   2   3
ATOM      3  C   UNL     1     140.732 134.981 134.181  1.00  0.00    -0.028 C 
ATOM      4  C   UNL     1     138.990 136.078 132.757  1.00  0.00     0.039 C 
ATOM      5  C   UNL     1     140.396 135.599 133.028  1.00  0.00    -0.080 C 
ATOM      6  C   UNL     1     141.464 135.803 131.985  1.00  0.00     0.039 C 
ENDBRANCH   2   3
ENDBRANCH   1   2
BRANCH   1   7
ATOM      7  C   UNL     1     138.366 132.652 135.487  1.00  0.00    -0.055 C 
ATOM      8  C   UNL     1     137.867 131.794 136.385  1.00  0.00     0.012 C 
BRANCH   7   9
ATOM      9  C   UNL     1     137.539 132.993 134.298  1.00  0.00    -0.005 C 
ATOM     10  C   UNL     1     137.777 132.556 133.061  1.00  0.00     0.009 C 
ENDBRANCH   7   9
ENDBRANCH   1   7
TORSDOF 4
ENDMDL
MODEL 2
REMARK VINA RESULT:    -3.615      1.901      4.221
REMARK INTER + INTRA:          -5.138
REMARK INTER:                  -4.560
REMARK INTRA:                  -0.578
REMARK UNBOUND:                -0.677
REMARK SMILES C=CC(=C)CCC=C(C)C
REMARK SMILES IDX 5 1 6 2 7 3 9 4 8 5 10 6 3 7 4 8 2 9 1 10
REMARK H PARENT
REMARK Flexibility Score: inf
ROOT
ATOM      1  C   UNL     1     137.515 131.919 136.279  1.00  0.00     0.039 C 
ENDROOT
BRANCH   1   2
ATOM      2  C   UNL     1     136.298 132.581 135.615  1.00  0.00     0.032 C 
BRANCH   2   3
ATOM      3  C   UNL     1     135.842 131.832 134.385  1.00  0.00    -0.028 C 
ATOM      4  C   UNL     1     137.188 133.246 132.819  1.00  0.00     0.039 C 
ATOM      5  C   UNL     1     136.250 132.104 133.126  1.00  0.00    -0.080 C 
ATOM      6  C   UNL     1     135.742 131.238 132.004  1.00  0.00     0.039 C 
ENDBRANCH   2   3
ENDBRANCH   1   2
BRANCH   1   7
ATOM      7  C   UNL     1     138.627 132.914 136.553  1.00  0.00    -0.055 C 
ATOM      8  C   UNL     1     138.645 133.550 137.731  1.00  0.00     0.012 C 
BRANCH   7   9
ATOM      9  C   UNL     1     139.722 133.188 135.584  1.00  0.00    -0.005 C 
ATOM     10  C   UNL     1     140.049 134.400 135.135  1.00  0.00     0.009 C 
ENDBRANCH   7   9
ENDBRANCH   1   7
TORSDOF 4
ENDMDL
MODEL 3
REMARK VINA RESULT:    -3.604      6.820      8.602
REMARK INTER + INTRA:          -5.124
REMARK INTER:                  -4.395
REMARK INTRA:                  -0.730
REMARK UNBOUND:                -0.677
REMARK SMILES C=CC(=C)CCC=C(C)C
REMARK SMILES IDX 5 1 6 2 7 3 9 4 8 5 10 6 3 7 4 8 2 9 1 10
REMARK H PARENT
REMARK Flexibility Score: inf
ROOT
ATOM      1  C   UNL     1     132.910 139.434 135.902  1.00  0.00     0.039 C 
ENDROOT
BRANCH   1   2
ATOM      2  C   UNL     1     133.164 138.261 134.944  1.00  0.00     0.032 C 
BRANCH   2   3
ATOM      3  C   UNL     1     132.324 137.053 135.285  1.00  0.00    -0.028 C 
ATOM      4  C   UNL     1     134.219 135.838 136.382  1.00  0.00     0.039 C 
ATOM      5  C   UNL     1     132.777 135.968 135.951  1.00  0.00    -0.080 C 
ATOM      6  C   UNL     1     131.807 134.858 136.260  1.00  0.00     0.039 C 
ENDBRANCH   2   3
ENDBRANCH   1   2
BRANCH   1   7
ATOM      7  C   UNL     1     134.165 139.837 136.655  1.00  0.00    -0.055 C 
ATOM      8  C   UNL     1     134.940 140.800 136.142  1.00  0.00     0.012 C 
BRANCH   7   9
ATOM      9  C   UNL     1     134.552 139.236 137.959  1.00  0.00    -0.005 C 
ATOM     10  C   UNL     1     133.711 138.611 138.784  1.00  0.00     0.009 C 
ENDBRANCH   7   9
ENDBRANCH   1   7
TORSDOF 4
ENDMDL
MODEL 4
REMARK VINA RESULT:    -3.601      2.102      3.168
REMARK INTER + INTRA:          -5.121
REMARK INTER:                  -4.392
REMARK INTRA:                  -0.729
REMARK UNBOUND:                -0.677
REMARK SMILES C=CC(=C)CCC=C(C)C
REMARK SMILES IDX 5 1 6 2 7 3 9 4 8 5 10 6 3 7 4 8 2 9 1 10
REMARK H PARENT
REMARK Flexibility Score: inf
ROOT
ATOM      1  C   UNL     1     139.660 133.219 135.736  1.00  0.00     0.039 C 
ENDROOT
BRANCH   1   2
ATOM      2  C   UNL     1     139.350 134.487 134.928  1.00  0.00     0.032 C 
BRANCH   2   3
ATOM      3  C   UNL     1     140.253 135.639 135.304  1.00  0.00    -0.028 C 
ATOM      4  C   UNL     1     138.413 136.946 136.387  1.00  0.00     0.039 C 
ATOM      5  C   UNL     1     139.852 136.738 135.979  1.00  0.00    -0.080 C 
ATOM      6  C   UNL     1     140.880 137.784 136.322  1.00  0.00     0.039 C 
ENDBRANCH   2   3
ENDBRANCH   1   2
BRANCH   1   7
ATOM      7  C   UNL     1     138.495 132.802 136.614  1.00  0.00    -0.055 C 
ATOM      8  C   UNL     1     137.808 131.701 136.290  1.00  0.00     0.012 C 
BRANCH   7   9
ATOM      9  C   UNL     1     138.106 133.543 137.844  1.00  0.00    -0.005 C 
ATOM     10  C   UNL     1     138.966 134.030 138.739  1.00  0.00     0.009 C 
ENDBRANCH   7   9
ENDBRANCH   1   7
TORSDOF 4
ENDMDL
MODEL 5
REMARK VINA RESULT:    -3.598      4.269      6.024
REMARK INTER + INTRA:          -5.116
REMARK INTER:                  -4.450
REMARK INTRA:                  -0.666
REMARK UNBOUND:                -0.677
REMARK SMILES C=CC(=C)CCC=C(C)C
REMARK SMILES IDX 5 1 6 2 7 3 9 4 8 5 10 6 3 7 4 8 2 9 1 10
REMARK H PARENT
REMARK Flexibility Score: inf
ROOT
ATOM      1  C   UNL     1     139.073 139.757 135.821  1.00  0.00     0.039 C 
ENDROOT
BRANCH   1   2
ATOM      2  C   UNL     1     137.646 139.794 135.252  1.00  0.00     0.032 C 
BRANCH   2   3
ATOM      3  C   UNL     1     137.513 140.771 134.109  1.00  0.00    -0.028 C 
ATOM      4  C   UNL     1     136.502 139.081 132.562  1.00  0.00     0.039 C 
ATOM      5  C   UNL     1     136.980 140.473 132.903  1.00  0.00    -0.080 C 
ATOM      6  C   UNL     1     136.872 141.568 131.875  1.00  0.00     0.039 C 
ENDBRANCH   2   3
ENDBRANCH   1   2
BRANCH   1   7
ATOM      7  C   UNL     1     139.794 138.470 135.468  1.00  0.00    -0.055 C 
ATOM      8  C   UNL     1     140.743 138.016 136.296  1.00  0.00     0.012 C 
BRANCH   7   9
ATOM      9  C   UNL     1     139.467 137.666 134.259  1.00  0.00    -0.005 C 
ATOM     10  C   UNL     1     140.044 137.823 133.067  1.00  0.00     0.009 C 
ENDBRANCH   7   9
ENDBRANCH   1   7
TORSDOF 4
ENDMDL
MODEL 6
REMARK VINA RESULT:    -3.594      1.354      2.256
REMARK INTER + INTRA:          -5.111
REMARK INTER:                  -4.192
REMARK INTRA:                  -0.919
REMARK UNBOUND:                -0.677
REMARK SMILES C=CC(=C)CCC=C(C)C
REMARK SMILES IDX 5 1 6 2 7 3 9 4 8 5 10 6 3 7 4 8 2 9 1 10
REMARK H PARENT
REMARK Flexibility Score: inf
ROOT
ATOM      1  C   UNL     1     137.864 131.872 136.347  1.00  0.00     0.039 C 
ENDROOT
BRANCH   1   2
ATOM      2  C   UNL     1     138.782 132.970 136.905  1.00  0.00     0.032 C 
BRANCH   2   3
ATOM      3  C   UNL     1     139.754 133.483 135.869  1.00  0.00    -0.028 C 
ATOM      4  C   UNL     1     138.590 135.686 135.624  1.00  0.00     0.039 C 
ATOM      5  C   UNL     1     139.695 134.707 135.302  1.00  0.00    -0.080 C 
ATOM      6  C   UNL     1     140.765 135.094 134.316  1.00  0.00     0.039 C 
ENDBRANCH   2   3
ENDBRANCH   1   2
BRANCH   1   7
ATOM      7  C   UNL     1     136.689 132.446 135.579  1.00  0.00    -0.055 C 
ATOM      8  C   UNL     1     135.798 133.199 136.236  1.00  0.00     0.012 C 
BRANCH   7   9
ATOM      9  C   UNL     1     136.502 132.242 134.117  1.00  0.00    -0.005 C 
ATOM     10  C   UNL     1     137.358 132.652 133.181  1.00  0.00     0.009 C 
ENDBRANCH   7   9
ENDBRANCH   1   7
TORSDOF 4
ENDMDL
MODEL 7
REMARK VINA RESULT:    -3.593      5.064      6.846
REMARK INTER + INTRA:          -5.110
REMARK INTER:                  -4.377
REMARK INTRA:                  -0.734
REMARK UNBOUND:                -0.677
REMARK SMILES C=CC(=C)CCC=C(C)C
REMARK SMILES IDX 5 1 6 2 7 3 9 4 8 5 10 6 3 7 4 8 2 9 1 10
REMARK H PARENT
REMARK Flexibility Score: inf
ROOT
ATOM      1  C   UNL     1     139.441 139.742 135.878  1.00  0.00     0.039 C 
ENDROOT
BRANCH   1   2
ATOM      2  C   UNL     1     138.277 139.482 134.910  1.00  0.00     0.032 C 
BRANCH   2   3
ATOM      3  C   UNL     1     137.057 140.304 135.249  1.00  0.00    -0.028 C 
ATOM      4  C   UNL     1     135.872 138.396 136.355  1.00  0.00     0.039 C 
ATOM      5  C   UNL     1     135.980 139.837 135.918  1.00  0.00    -0.080 C 
ATOM      6  C   UNL     1     134.856 140.792 136.224  1.00  0.00     0.039 C 
ENDBRANCH   2   3
ENDBRANCH   1   2
BRANCH   1   7
ATOM      7  C   UNL     1     139.834 138.494 136.645  1.00  0.00    -0.055 C 
ATOM      8  C   UNL     1     140.803 137.714 136.151  1.00  0.00     0.012 C 
BRANCH   7   9
ATOM      9  C   UNL     1     139.217 138.117 137.946  1.00  0.00    -0.005 C 
ATOM     10  C   UNL     1     138.624 138.974 138.778  1.00  0.00     0.009 C 
ENDBRANCH   7   9
ENDBRANCH   1   7
TORSDOF 4
ENDMDL
MODEL 8
REMARK VINA RESULT:    -3.582      4.108      6.097
REMARK INTER + INTRA:          -5.097
REMARK INTER:                  -4.372
REMARK INTRA:                  -0.725
REMARK UNBOUND:                -0.677
REMARK SMILES C=CC(=C)CCC=C(C)C
REMARK SMILES IDX 5 1 6 2 7 3 9 4 8 5 10 6 3 7 4 8 2 9 1 10
REMARK H PARENT
REMARK Flexibility Score: inf
ROOT
ATOM      1  C   UNL     1     133.204 132.868 135.950  1.00  0.00     0.039 C 
ENDROOT
BRANCH   1   2
ATOM      2  C   UNL     1     134.347 133.127 134.957  1.00  0.00     0.032 C 
BRANCH   2   3
ATOM      3  C   UNL     1     135.570 132.295 135.264  1.00  0.00    -0.028 C 
ATOM      4  C   UNL     1     136.778 134.181 136.383  1.00  0.00     0.039 C 
ATOM      5  C   UNL     1     136.659 132.747 135.924  1.00  0.00    -0.080 C 
ATOM      6  C   UNL     1     137.784 131.784 136.198  1.00  0.00     0.039 C 
ENDBRANCH   2   3
ENDBRANCH   1   2
BRANCH   1   7
ATOM      7  C   UNL     1     132.801 134.126 136.695  1.00  0.00    -0.055 C 
ATOM      8  C   UNL     1     131.868 134.921 136.157  1.00  0.00     0.012 C 
BRANCH   7   9
ATOM      9  C   UNL     1     133.368 134.497 138.020  1.00  0.00    -0.005 C 
ATOM     10  C   UNL     1     134.052 133.668 138.809  1.00  0.00     0.009 C 
ENDBRANCH   7   9
ENDBRANCH   1   7
TORSDOF 4
ENDMDL
MODEL 9
REMARK VINA RESULT:    -3.567      6.611      7.674
REMARK INTER + INTRA:          -5.078
REMARK INTER:                  -4.547
REMARK INTRA:                  -0.531
REMARK UNBOUND:                -0.677
REMARK SMILES C=CC(=C)CCC=C(C)C
REMARK SMILES IDX 5 1 6 2 7 3 9 4 8 5 10 6 3 7 4 8 2 9 1 10
REMARK H PARENT
REMARK Flexibility Score: inf
ROOT
ATOM      1  C   UNL     1     132.903 136.897 134.195  1.00  0.00     0.039 C 
ENDROOT
BRANCH   1   2
ATOM      2  C   UNL     1     132.244 137.996 135.042  1.00  0.00     0.032 C 
BRANCH   2   3
ATOM      3  C   UNL     1     133.135 139.206 135.198  1.00  0.00    -0.028 C 
ATOM      4  C   UNL     1     133.724 138.674 137.572  1.00  0.00     0.039 C 
ATOM      5  C   UNL     1     133.824 139.512 136.319  1.00  0.00    -0.080 C 
ATOM      6  C   UNL     1     134.708 140.730 136.309  1.00  0.00     0.039 C 
ENDBRANCH   2   3
ENDBRANCH   1   2
BRANCH   1   7
ATOM      7  C   UNL     1     132.642 135.512 134.757  1.00  0.00    -0.055 C 
ATOM      8  C   UNL     1     133.126 134.451 134.100  1.00  0.00     0.012 C 
BRANCH   7   9
ATOM      9  C   UNL     1     131.905 135.282 136.028  1.00  0.00    -0.005 C 
ATOM     10  C   UNL     1     132.476 134.934 137.182  1.00  0.00     0.009 C 
ENDBRANCH   7   9
ENDBRANCH   1   7
TORSDOF 4
ENDMDL
