MODEL 1
REMARK VINA RESULT:    -4.242      0.000      0.000
REMARK INTER + INTRA:         -12.194
REMARK INTER:                  -9.697
REMARK INTRA:                  -2.497
REMARK UNBOUND:                -2.497
REMARK SMILES CCCCCCCCCCCCCCCCCCCCCCCC(=O)[O-]
REMARK SMILES IDX 13 1 14 2 15 3 16 4 17 5 18 6 19 7 20 8 21 9 22 10 23 11
REMARK SMILES IDX 24 12 25 13 26 14 12 15 11 16 10 17 9 18 8 19 7 20 6 21 5 22
REMARK SMILES IDX 4 23 3 24 2 25 1 26
REMARK H PARENT
REMARK Flexibility Score: inf
ROOT
ATOM      1  C   UNL     1       4.142   7.990   8.644  1.00  0.00     0.000 C 
ENDROOT
BRANCH   1   2
ATOM      2  C   UNL     1       4.687   6.879   9.558  1.00  0.00     0.000 C 
BRANCH   2   3
ATOM      3  C   UNL     1       3.782   5.636   9.595  1.00  0.00     0.000 C 
BRANCH   3   4
ATOM      4  C   UNL     1       3.071   5.298   8.269  1.00  0.00     0.000 C 
BRANCH   4   5
ATOM      5  C   UNL     1       3.525   3.968   7.632  1.00  0.00     0.000 C 
BRANCH   5   6
ATOM      6  C   UNL     1       4.788   4.129   6.767  1.00  0.00     0.000 C 
BRANCH   6   7
ATOM      7  C   UNL     1       6.040   3.531   7.439  1.00  0.00     0.000 C 
BRANCH   7   8
ATOM      8  C   UNL     1       5.730   2.470   8.513  1.00  0.00     0.000 C 
BRANCH   8   9
ATOM      9  C   UNL     1       6.787   1.354   8.622  1.00  0.00     0.000 C 
BRANCH   9  10
ATOM     10  C   UNL     1       7.641   1.223   7.351  1.00  0.00     0.006 C 
BRANCH  10  11
ATOM     11  C   UNL     1       7.413  -0.130   6.671  1.00  0.00     0.053 C 
BRANCH  11  12
ATOM     12  C   UNL     1       7.684  -0.044   5.201  1.00  0.00     0.041 C 
ATOM     13  O   UNL     1       8.262   0.966   4.718  1.00  0.00    -0.550 OA
ATOM     14  O   UNL     1       7.304  -1.084   4.360  1.00  0.00    -0.550 OA
ENDBRANCH  11  12
ENDBRANCH  10  11
ENDBRANCH   9  10
ENDBRANCH   8   9
ENDBRANCH   7   8
ENDBRANCH   6   7
ENDBRANCH   5   6
ENDBRANCH   4   5
ENDBRANCH   3   4
ENDBRANCH   2   3
ENDBRANCH   1   2
BRANCH   1  15
ATOM     15  C   UNL     1       4.102   9.366   9.335  1.00  0.00     0.000 C 
BRANCH  15  16
ATOM     16  C   UNL     1       4.879  10.482   8.612  1.00  0.00     0.000 C 
BRANCH  16  17
ATOM     17  C   UNL     1       5.199  10.138   7.150  1.00  0.00     0.000 C 
BRANCH  17  18
ATOM     18  C   UNL     1       4.979  11.353   6.235  1.00  0.00    -0.000 C 
BRANCH  18  19
ATOM     19  C   UNL     1       4.071  12.418   6.871  1.00  0.00    -0.000 C 
BRANCH  19  20
ATOM     20  C   UNL     1       4.535  13.852   6.562  1.00  0.00    -0.000 C 
BRANCH  20  21
ATOM     21  C   UNL     1       5.366  14.462   7.703  1.00  0.00    -0.000 C 
BRANCH  21  22
ATOM     22  C   UNL     1       6.878  14.285   7.499  1.00  0.00    -0.000 C 
BRANCH  22  23
ATOM     23  C   UNL     1       7.428  13.186   8.419  1.00  0.00    -0.000 C 
BRANCH  23  24
ATOM     24  C   UNL     1       8.759  12.600   7.924  1.00  0.00    -0.000 C 
BRANCH  24  25
ATOM     25  C   UNL     1       8.656  11.124   7.482  1.00  0.00    -0.003 C 
ATOM     26  C   UNL     1       8.851  10.955   5.976  1.00  0.00     0.004 C 
ENDBRANCH  24  25
ENDBRANCH  23  24
ENDBRANCH  22  23
ENDBRANCH  21  22
ENDBRANCH  20  21
ENDBRANCH  19  20
ENDBRANCH  18  19
ENDBRANCH  17  18
ENDBRANCH  16  17
ENDBRANCH  15  16
ENDBRANCH   1  15
TORSDOF 22
ENDMDL
MODEL 2
REMARK VINA RESULT:    -4.221      1.236      2.740
REMARK INTER + INTRA:         -12.145
REMARK INTER:                  -9.247
REMARK INTRA:                  -2.899
REMARK UNBOUND:                -2.497
REMARK SMILES CCCCCCCCCCCCCCCCCCCCCCCC(=O)[O-]
REMARK SMILES IDX 13 1 14 2 15 3 16 4 17 5 18 6 19 7 20 8 21 9 22 10 23 11
REMARK SMILES IDX 24 12 25 13 26 14 12 15 11 16 10 17 9 18 8 19 7 20 6 21 5 22
REMARK SMILES IDX 4 23 3 24 2 25 1 26
REMARK H PARENT
REMARK Flexibility Score: inf
ROOT
ATOM      1  C   UNL     1       4.137   8.272   8.739  1.00  0.00     0.000 C 
ENDROOT
BRANCH   1   2
ATOM      2  C   UNL     1       4.087   7.037   9.655  1.00  0.00     0.000 C 
BRANCH   2   3
ATOM      3  C   UNL     1       4.496   5.740   8.936  1.00  0.00     0.000 C 
BRANCH   3   4
ATOM      4  C   UNL     1       3.386   5.070   8.101  1.00  0.00     0.000 C 
BRANCH   4   5
ATOM      5  C   UNL     1       3.043   3.633   8.547  1.00  0.00     0.000 C 
BRANCH   5   6
ATOM      6  C   UNL     1       4.208   2.950   9.285  1.00  0.00     0.000 C 
BRANCH   6   7
ATOM      7  C   UNL     1       4.845   1.817   8.455  1.00  0.00     0.000 C 
BRANCH   7   8
ATOM      8  C   UNL     1       6.312   2.076   8.060  1.00  0.00     0.000 C 
BRANCH   8   9
ATOM      9  C   UNL     1       6.490   3.114   6.935  1.00  0.00     0.000 C 
BRANCH   9  10
ATOM     10  C   UNL     1       7.925   3.657   6.854  1.00  0.00     0.006 C 
BRANCH  10  11
ATOM     11  C   UNL     1       8.893   2.581   6.349  1.00  0.00     0.053 C 
BRANCH  11  12
ATOM     12  C   UNL     1       8.522   2.131   4.970  1.00  0.00     0.041 C 
ATOM     13  O   UNL     1       8.275   0.916   4.742  1.00  0.00    -0.550 OA
ATOM     14  O   UNL     1       8.442   3.053   3.934  1.00  0.00    -0.550 OA
ENDBRANCH  11  12
ENDBRANCH  10  11
ENDBRANCH   9  10
ENDBRANCH   8   9
ENDBRANCH   7   8
ENDBRANCH   6   7
ENDBRANCH   5   6
ENDBRANCH   4   5
ENDBRANCH   3   4
ENDBRANCH   2   3
ENDBRANCH   1   2
BRANCH   1  15
ATOM     15  C   UNL     1       4.141   9.597   9.523  1.00  0.00     0.000 C 
BRANCH  15  16
ATOM     16  C   UNL     1       5.514  10.285   9.635  1.00  0.00     0.000 C 
BRANCH  16  17
ATOM     17  C   UNL     1       6.611   9.564   8.838  1.00  0.00     0.000 C 
BRANCH  17  18
ATOM     18  C   UNL     1       7.862  10.445   8.700  1.00  0.00    -0.000 C 
BRANCH  18  19
ATOM     19  C   UNL     1       8.263  10.681   7.234  1.00  0.00    -0.000 C 
BRANCH  19  20
ATOM     20  C   UNL     1       8.556  12.160   6.931  1.00  0.00    -0.000 C 
BRANCH  20  21
ATOM     21  C   UNL     1       7.963  13.107   7.988  1.00  0.00    -0.000 C 
BRANCH  21  22
ATOM     22  C   UNL     1       6.976  14.121   7.391  1.00  0.00    -0.000 C 
BRANCH  22  23
ATOM     23  C   UNL     1       5.556  13.879   7.924  1.00  0.00    -0.000 C 
BRANCH  23  24
ATOM     24  C   UNL     1       4.547  13.547   6.813  1.00  0.00    -0.000 C 
BRANCH  24  25
ATOM     25  C   UNL     1       4.086  12.074   6.819  1.00  0.00    -0.003 C 
ATOM     26  C   UNL     1       4.939  11.196   5.904  1.00  0.00     0.004 C 
ENDBRANCH  24  25
ENDBRANCH  23  24
ENDBRANCH  22  23
ENDBRANCH  21  22
ENDBRANCH  20  21
ENDBRANCH  19  20
ENDBRANCH  18  19
ENDBRANCH  17  18
ENDBRANCH  16  17
ENDBRANCH  15  16
ENDBRANCH   1  15
TORSDOF 22
ENDMDL
MODEL 3
REMARK VINA RESULT:    -4.168      1.708      4.196
REMARK INTER + INTRA:         -12.024
REMARK INTER:                  -9.874
REMARK INTRA:                  -2.150
REMARK UNBOUND:                -2.497
REMARK SMILES CCCCCCCCCCCCCCCCCCCCCCCC(=O)[O-]
REMARK SMILES IDX 13 1 14 2 15 3 16 4 17 5 18 6 19 7 20 8 21 9 22 10 23 11
REMARK SMILES IDX 24 12 25 13 26 14 12 15 11 16 10 17 9 18 8 19 7 20 6 21 5 22
REMARK SMILES IDX 4 23 3 24 2 25 1 26
REMARK H PARENT
REMARK Flexibility Score: inf
ROOT
ATOM      1  C   UNL     1       3.401   3.469   7.510  1.00  0.00     0.000 C 
ENDROOT
BRANCH   1   2
ATOM      2  C   UNL     1       4.024   2.333   8.338  1.00  0.00     0.000 C 
BRANCH   2   3
ATOM      3  C   UNL     1       5.554   2.442   8.449  1.00  0.00     0.000 C 
BRANCH   3   4
ATOM      4  C   UNL     1       6.135   3.849   8.207  1.00  0.00     0.000 C 
BRANCH   4   5
ATOM      5  C   UNL     1       7.518   3.850   7.522  1.00  0.00     0.000 C 
BRANCH   5   6
ATOM      6  C   UNL     1       7.455   3.359   6.065  1.00  0.00     0.000 C 
BRANCH   6   7
ATOM      7  C   UNL     1       8.189   2.018   5.865  1.00  0.00     0.000 C 
BRANCH   7   8
ATOM      8  C   UNL     1       8.907   1.501   7.128  1.00  0.00     0.000 C 
BRANCH   8   9
ATOM      9  C   UNL     1       8.676   0.005   7.417  1.00  0.00     0.000 C 
BRANCH   9  10
ATOM     10  C   UNL     1       7.855  -0.689   6.319  1.00  0.00     0.006 C 
BRANCH  10  11
ATOM     11  C   UNL     1       7.506  -2.127   6.717  1.00  0.00     0.053 C 
BRANCH  11  12
ATOM     12  C   UNL     1       6.864  -2.858   5.579  1.00  0.00     0.041 C 
ATOM     13  O   UNL     1       6.514  -2.236   4.540  1.00  0.00    -0.550 OA
ATOM     14  O   UNL     1       6.657  -4.230   5.660  1.00  0.00    -0.550 OA
ENDBRANCH  11  12
ENDBRANCH  10  11
ENDBRANCH   9  10
ENDBRANCH   8   9
ENDBRANCH   7   8
ENDBRANCH   6   7
ENDBRANCH   5   6
ENDBRANCH   4   5
ENDBRANCH   3   4
ENDBRANCH   2   3
ENDBRANCH   1   2
BRANCH   1  15
ATOM     15  C   UNL     1       2.374   4.296   8.307  1.00  0.00     0.000 C 
BRANCH  15  16
ATOM     16  C   UNL     1       2.971   5.180   9.418  1.00  0.00     0.000 C 
BRANCH  16  17
ATOM     17  C   UNL     1       3.682   6.427   8.872  1.00  0.00     0.000 C 
BRANCH  17  18
ATOM     18  C   UNL     1       4.758   6.923   9.851  1.00  0.00    -0.000 C 
BRANCH  18  19
ATOM     19  C   UNL     1       5.280   8.325   9.499  1.00  0.00    -0.000 C 
BRANCH  19  20
ATOM     20  C   UNL     1       4.179   9.398   9.552  1.00  0.00    -0.000 C 
BRANCH  20  21
ATOM     21  C   UNL     1       3.930  10.055   8.184  1.00  0.00    -0.000 C 
BRANCH  21  22
ATOM     22  C   UNL     1       5.230  10.364   7.427  1.00  0.00    -0.000 C 
BRANCH  22  23
ATOM     23  C   UNL     1       4.968  11.331   6.264  1.00  0.00    -0.000 C 
BRANCH  23  24
ATOM     24  C   UNL     1       4.061  12.508   6.655  1.00  0.00    -0.000 C 
BRANCH  24  25
ATOM     25  C   UNL     1       4.787  13.869   6.663  1.00  0.00    -0.003 C 
ATOM     26  C   UNL     1       5.801  13.978   7.801  1.00  0.00     0.004 C 
ENDBRANCH  24  25
ENDBRANCH  23  24
ENDBRANCH  22  23
ENDBRANCH  21  22
ENDBRANCH  20  21
ENDBRANCH  19  20
ENDBRANCH  18  19
ENDBRANCH  17  18
ENDBRANCH  16  17
ENDBRANCH  15  16
ENDBRANCH   1  15
TORSDOF 22
ENDMDL
MODEL 4
REMARK VINA RESULT:    -4.028     13.321     15.088
REMARK INTER + INTRA:         -11.705
REMARK INTER:                  -9.079
REMARK INTRA:                  -2.626
REMARK UNBOUND:                -2.497
REMARK SMILES CCCCCCCCCCCCCCCCCCCCCCCC(=O)[O-]
REMARK SMILES IDX 13 1 14 2 15 3 16 4 17 5 18 6 19 7 20 8 21 9 22 10 23 11
REMARK SMILES IDX 24 12 25 13 26 14 12 15 11 16 10 17 9 18 8 19 7 20 6 21 5 22
REMARK SMILES IDX 4 23 3 24 2 25 1 26
REMARK H PARENT
REMARK Flexibility Score: inf
ROOT
ATOM      1  C   UNL     1       6.535   9.079  -8.662  1.00  0.00     0.000 C 
ENDROOT
BRANCH   1   2
ATOM      2  C   UNL     1       6.254   7.586  -8.420  1.00  0.00     0.000 C 
BRANCH   2   3
ATOM      3  C   UNL     1       4.850   7.325  -7.849  1.00  0.00     0.000 C 
BRANCH   3   4
ATOM      4  C   UNL     1       3.828   8.460  -8.063  1.00  0.00     0.000 C 
BRANCH   4   5
ATOM      5  C   UNL     1       2.834   8.203  -9.215  1.00  0.00     0.000 C 
BRANCH   5   6
ATOM      6  C   UNL     1       1.937   6.978  -8.959  1.00  0.00     0.000 C 
BRANCH   6   7
ATOM      7  C   UNL     1       2.220   5.828  -9.946  1.00  0.00     0.000 C 
BRANCH   7   8
ATOM      8  C   UNL     1       2.522   4.478  -9.267  1.00  0.00     0.000 C 
BRANCH   8   9
ATOM      9  C   UNL     1       3.865   3.848  -9.685  1.00  0.00     0.000 C 
BRANCH   9  10
ATOM     10  C   UNL     1       4.509   3.028  -8.556  1.00  0.00     0.006 C 
BRANCH  10  11
ATOM     11  C   UNL     1       5.783   3.705  -8.041  1.00  0.00     0.053 C 
BRANCH  11  12
ATOM     12  C   UNL     1       6.289   3.028  -6.805  1.00  0.00     0.041 C 
ATOM     13  O   UNL     1       5.674   2.039  -6.325  1.00  0.00    -0.550 OA
ATOM     14  O   UNL     1       7.445   3.485  -6.184  1.00  0.00    -0.550 OA
ENDBRANCH  11  12
ENDBRANCH  10  11
ENDBRANCH   9  10
ENDBRANCH   8   9
ENDBRANCH   7   8
ENDBRANCH   6   7
ENDBRANCH   5   6
ENDBRANCH   4   5
ENDBRANCH   3   4
ENDBRANCH   2   3
ENDBRANCH   1   2
BRANCH   1  15
ATOM     15  C   UNL     1       7.602   9.648  -7.708  1.00  0.00     0.000 C 
BRANCH  15  16
ATOM     16  C   UNL     1       8.064   8.687  -6.598  1.00  0.00     0.000 C 
BRANCH  16  17
ATOM     17  C   UNL     1       7.606   9.125  -5.199  1.00  0.00     0.000 C 
BRANCH  17  18
ATOM     18  C   UNL     1       8.664   8.782  -4.138  1.00  0.00    -0.000 C 
BRANCH  18  19
ATOM     19  C   UNL     1       9.704   9.899  -3.954  1.00  0.00    -0.000 C 
BRANCH  19  20
ATOM     20  C   UNL     1       9.089  11.195  -3.399  1.00  0.00    -0.000 C 
BRANCH  20  21
ATOM     21  C   UNL     1       9.535  12.441  -4.180  1.00  0.00    -0.000 C 
BRANCH  21  22
ATOM     22  C   UNL     1       8.829  12.576  -5.538  1.00  0.00    -0.000 C 
BRANCH  22  23
ATOM     23  C   UNL     1       7.503  13.336  -5.391  1.00  0.00    -0.000 C 
BRANCH  23  24
ATOM     24  C   UNL     1       6.415  12.837  -6.355  1.00  0.00    -0.000 C 
BRANCH  24  25
ATOM     25  C   UNL     1       5.079  13.598  -6.224  1.00  0.00    -0.003 C 
ATOM     26  C   UNL     1       5.142  14.702  -5.170  1.00  0.00     0.004 C 
ENDBRANCH  24  25
ENDBRANCH  23  24
ENDBRANCH  22  23
ENDBRANCH  21  22
ENDBRANCH  20  21
ENDBRANCH  19  20
ENDBRANCH  18  19
ENDBRANCH  17  18
ENDBRANCH  16  17
ENDBRANCH  15  16
ENDBRANCH   1  15
TORSDOF 22
ENDMDL
MODEL 5
REMARK VINA RESULT:    -3.991      1.474      3.146
REMARK INTER + INTRA:         -11.621
REMARK INTER:                  -9.421
REMARK INTRA:                  -2.200
REMARK UNBOUND:                -2.497
REMARK SMILES CCCCCCCCCCCCCCCCCCCCCCCC(=O)[O-]
REMARK SMILES IDX 13 1 14 2 15 3 16 4 17 5 18 6 19 7 20 8 21 9 22 10 23 11
REMARK SMILES IDX 24 12 25 13 26 14 12 15 11 16 10 17 9 18 8 19 7 20 6 21 5 22
REMARK SMILES IDX 4 23 3 24 2 25 1 26
REMARK H PARENT
REMARK Flexibility Score: inf
ROOT
ATOM      1  C   UNL     1       4.061   5.366   8.519  1.00  0.00     0.000 C 
ENDROOT
BRANCH   1   2
ATOM      2  C   UNL     1       2.853   4.627   7.920  1.00  0.00     0.000 C 
BRANCH   2   3
ATOM      3  C   UNL     1       2.018   3.885   8.978  1.00  0.00     0.000 C 
BRANCH   3   4
ATOM      4  C   UNL     1       2.794   2.867   9.837  1.00  0.00     0.000 C 
BRANCH   4   5
ATOM      5  C   UNL     1       3.282   1.627   9.057  1.00  0.00     0.000 C 
BRANCH   5   6
ATOM      6  C   UNL     1       4.638   1.106   9.566  1.00  0.00     0.000 C 
BRANCH   6   7
ATOM      7  C   UNL     1       5.693   1.024   8.445  1.00  0.00     0.000 C 
BRANCH   7   8
ATOM      8  C   UNL     1       6.009   2.378   7.779  1.00  0.00     0.000 C 
BRANCH   8   9
ATOM      9  C   UNL     1       7.474   2.832   7.936  1.00  0.00     0.000 C 
BRANCH   9  10
ATOM     10  C   UNL     1       7.909   3.812   6.835  1.00  0.00     0.006 C 
BRANCH  10  11
ATOM     11  C   UNL     1       7.625   3.238   5.443  1.00  0.00     0.053 C 
BRANCH  11  12
ATOM     12  C   UNL     1       8.631   2.192   5.078  1.00  0.00     0.041 C 
ATOM     13  O   UNL     1       8.255   1.060   4.671  1.00  0.00    -0.550 OA
ATOM     14  O   UNL     1       9.990   2.466   5.181  1.00  0.00    -0.550 OA
ENDBRANCH  11  12
ENDBRANCH  10  11
ENDBRANCH   9  10
ENDBRANCH   8   9
ENDBRANCH   7   8
ENDBRANCH   6   7
ENDBRANCH   5   6
ENDBRANCH   4   5
ENDBRANCH   3   4
ENDBRANCH   2   3
ENDBRANCH   1   2
BRANCH   1  15
ATOM     15  C   UNL     1       3.664   6.363   9.624  1.00  0.00     0.000 C 
BRANCH  15  16
ATOM     16  C   UNL     1       4.568   7.604   9.738  1.00  0.00     0.000 C 
BRANCH  16  17
ATOM     17  C   UNL     1       3.911   8.875   9.179  1.00  0.00     0.000 C 
BRANCH  17  18
ATOM     18  C   UNL     1       4.732  10.124   9.537  1.00  0.00    -0.000 C 
BRANCH  18  19
ATOM     19  C   UNL     1       5.740  10.506   8.440  1.00  0.00    -0.000 C 
BRANCH  19  20
ATOM     20  C   UNL     1       5.247  10.141   7.030  1.00  0.00    -0.000 C 
BRANCH  20  21
ATOM     21  C   UNL     1       5.077  11.373   6.127  1.00  0.00    -0.000 C 
BRANCH  21  22
ATOM     22  C   UNL     1       4.087  12.398   6.699  1.00  0.00    -0.000 C 
BRANCH  22  23
ATOM     23  C   UNL     1       4.564  13.831   6.423  1.00  0.00    -0.000 C 
BRANCH  23  24
ATOM     24  C   UNL     1       5.288  14.462   7.623  1.00  0.00    -0.000 C 
BRANCH  24  25
ATOM     25  C   UNL     1       6.783  14.742   7.363  1.00  0.00    -0.003 C 
ATOM     26  C   UNL     1       7.666  13.545   7.715  1.00  0.00     0.004 C 
ENDBRANCH  24  25
ENDBRANCH  23  24
ENDBRANCH  22  23
ENDBRANCH  21  22
ENDBRANCH  20  21
ENDBRANCH  19  20
ENDBRANCH  18  19
ENDBRANCH  17  18
ENDBRANCH  16  17
ENDBRANCH  15  16
ENDBRANCH   1  15
TORSDOF 22
ENDMDL
MODEL 6
REMARK VINA RESULT:    -3.959      1.885      3.971
REMARK INTER + INTRA:         -11.547
REMARK INTER:                  -9.621
REMARK INTRA:                  -1.926
REMARK UNBOUND:                -2.497
REMARK SMILES CCCCCCCCCCCCCCCCCCCCCCCC(=O)[O-]
REMARK SMILES IDX 13 1 14 2 15 3 16 4 17 5 18 6 19 7 20 8 21 9 22 10 23 11
REMARK SMILES IDX 24 12 25 13 26 14 12 15 11 16 10 17 9 18 8 19 7 20 6 21 5 22
REMARK SMILES IDX 4 23 3 24 2 25 1 26
REMARK H PARENT
REMARK Flexibility Score: inf
ROOT
ATOM      1  C   UNL     1       3.381   3.836   7.912  1.00  0.00     0.000 C 
ENDROOT
BRANCH   1   2
ATOM      2  C   UNL     1       4.807   3.273   8.031  1.00  0.00     0.000 C 
BRANCH   2   3
ATOM      3  C   UNL     1       4.850   1.887   8.698  1.00  0.00     0.000 C 
BRANCH   3   4
ATOM      4  C   UNL     1       3.610   1.001   8.461  1.00  0.00     0.000 C 
BRANCH   4   5
ATOM      5  C   UNL     1       3.925  -0.504   8.342  1.00  0.00     0.000 C 
BRANCH   5   6
ATOM      6  C   UNL     1       5.432  -0.782   8.192  1.00  0.00     0.000 C 
BRANCH   6   7
ATOM      7  C   UNL     1       5.794  -1.313   6.790  1.00  0.00     0.000 C 
BRANCH   7   8
ATOM      8  C   UNL     1       7.187  -0.878   6.294  1.00  0.00     0.000 C 
BRANCH   8   9
ATOM      9  C   UNL     1       7.940   0.053   7.264  1.00  0.00     0.000 C 
BRANCH   9  10
ATOM     10  C   UNL     1       7.935   1.518   6.801  1.00  0.00     0.006 C 
BRANCH  10  11
ATOM     11  C   UNL     1       8.225   1.622   5.300  1.00  0.00     0.053 C 
BRANCH  11  12
ATOM     12  C   UNL     1       7.995   3.016   4.805  1.00  0.00     0.041 C 
ATOM     13  O   UNL     1       7.214   3.789   5.420  1.00  0.00    -0.550 OA
ATOM     14  O   UNL     1       8.650   3.467   3.665  1.00  0.00    -0.550 OA
ENDBRANCH  11  12
ENDBRANCH  10  11
ENDBRANCH   9  10
ENDBRANCH   8   9
ENDBRANCH   7   8
ENDBRANCH   6   7
ENDBRANCH   5   6
ENDBRANCH   4   5
ENDBRANCH   3   4
ENDBRANCH   2   3
ENDBRANCH   1   2
BRANCH   1  15
ATOM     15  C   UNL     1       3.276   5.301   8.378  1.00  0.00     0.000 C 
BRANCH  15  16
ATOM     16  C   UNL     1       4.481   5.816   9.186  1.00  0.00     0.000 C 
BRANCH  16  17
ATOM     17  C   UNL     1       4.221   7.177   9.847  1.00  0.00     0.000 C 
BRANCH  17  18
ATOM     18  C   UNL     1       4.073   8.285   8.792  1.00  0.00    -0.000 C 
BRANCH  18  19
ATOM     19  C   UNL     1       5.313   9.188   8.702  1.00  0.00    -0.000 C 
BRANCH  19  20
ATOM     20  C   UNL     1       4.953  10.682   8.628  1.00  0.00    -0.000 C 
BRANCH  20  21
ATOM     21  C   UNL     1       4.064  11.016   7.419  1.00  0.00    -0.000 C 
BRANCH  21  22
ATOM     22  C   UNL     1       4.732  11.996   6.443  1.00  0.00    -0.000 C 
BRANCH  22  23
ATOM     23  C   UNL     1       4.366  13.446   6.791  1.00  0.00    -0.000 C 
BRANCH  23  24
ATOM     24  C   UNL     1       5.588  14.378   6.839  1.00  0.00    -0.000 C 
BRANCH  24  25
ATOM     25  C   UNL     1       5.951  14.846   8.264  1.00  0.00    -0.003 C 
ATOM     26  C   UNL     1       6.672  13.762   9.063  1.00  0.00     0.004 C 
ENDBRANCH  24  25
ENDBRANCH  23  24
ENDBRANCH  22  23
ENDBRANCH  21  22
ENDBRANCH  20  21
ENDBRANCH  19  20
ENDBRANCH  18  19
ENDBRANCH  17  18
ENDBRANCH  16  17
ENDBRANCH  15  16
ENDBRANCH   1  15
TORSDOF 22
ENDMDL
MODEL 7
REMARK VINA RESULT:    -3.951     13.538     15.209
REMARK INTER + INTRA:         -11.530
REMARK INTER:                  -8.700
REMARK INTRA:                  -2.829
REMARK UNBOUND:                -2.497
REMARK SMILES CCCCCCCCCCCCCCCCCCCCCCCC(=O)[O-]
REMARK SMILES IDX 13 1 14 2 15 3 16 4 17 5 18 6 19 7 20 8 21 9 22 10 23 11
REMARK SMILES IDX 24 12 25 13 26 14 12 15 11 16 10 17 9 18 8 19 7 20 6 21 5 22
REMARK SMILES IDX 4 23 3 24 2 25 1 26
REMARK H PARENT
REMARK Flexibility Score: inf
ROOT
ATOM      1  C   UNL     1       6.113   7.871  -7.062  1.00  0.00     0.000 C 
ENDROOT
BRANCH   1   2
ATOM      2  C   UNL     1       5.273   7.375  -8.251  1.00  0.00     0.000 C 
BRANCH   2   3
ATOM      3  C   UNL     1       3.840   7.935  -8.248  1.00  0.00     0.000 C 
BRANCH   3   4
ATOM      4  C   UNL     1       2.958   7.498  -9.434  1.00  0.00     0.000 C 
BRANCH   4   5
ATOM      5  C   UNL     1       1.838   6.507  -9.054  1.00  0.00     0.000 C 
BRANCH   5   6
ATOM      6  C   UNL     1       1.973   5.157  -9.781  1.00  0.00     0.000 C 
BRANCH   6   7
ATOM      7  C   UNL     1       3.007   4.230  -9.109  1.00  0.00     0.000 C 
BRANCH   7   8
ATOM      8  C   UNL     1       4.290   4.016  -9.936  1.00  0.00     0.000 C 
BRANCH   8   9
ATOM      9  C   UNL     1       5.415   3.287  -9.177  1.00  0.00     0.000 C 
BRANCH   9  10
ATOM     10  C   UNL     1       4.963   2.773  -7.801  1.00  0.00     0.006 C 
BRANCH  10  11
ATOM     11  C   UNL     1       4.787   1.251  -7.812  1.00  0.00     0.053 C 
BRANCH  11  12
ATOM     12  C   UNL     1       4.548   0.729  -6.430  1.00  0.00     0.041 C 
ATOM     13  O   UNL     1       3.659  -0.140  -6.222  1.00  0.00    -0.550 OA
ATOM     14  O   UNL     1       5.313   1.195  -5.367  1.00  0.00    -0.550 OA
ENDBRANCH  11  12
ENDBRANCH  10  11
ENDBRANCH   9  10
ENDBRANCH   8   9
ENDBRANCH   7   8
ENDBRANCH   6   7
ENDBRANCH   5   6
ENDBRANCH   4   5
ENDBRANCH   3   4
ENDBRANCH   2   3
ENDBRANCH   1   2
BRANCH   1  15
ATOM     15  C   UNL     1       7.609   8.005  -7.403  1.00  0.00     0.000 C 
BRANCH  15  16
ATOM     16  C   UNL     1       8.410   8.934  -6.472  1.00  0.00     0.000 C 
BRANCH  16  17
ATOM     17  C   UNL     1       7.838   8.991  -5.048  1.00  0.00     0.000 C 
BRANCH  17  18
ATOM     18  C   UNL     1       8.651   9.950  -4.164  1.00  0.00    -0.000 C 
BRANCH  18  19
ATOM     19  C   UNL     1       9.763  10.674  -4.940  1.00  0.00    -0.000 C 
BRANCH  19  20
ATOM     20  C   UNL     1       9.515  12.188  -5.055  1.00  0.00    -0.000 C 
BRANCH  20  21
ATOM     21  C   UNL     1       8.147  12.606  -4.493  1.00  0.00    -0.000 C 
BRANCH  21  22
ATOM     22  C   UNL     1       7.284  13.352  -5.521  1.00  0.00    -0.000 C 
BRANCH  22  23
ATOM     23  C   UNL     1       6.896  12.427  -6.683  1.00  0.00    -0.000 C 
BRANCH  23  24
ATOM     24  C   UNL     1       5.383  12.414  -6.959  1.00  0.00    -0.000 C 
BRANCH  24  25
ATOM     25  C   UNL     1       4.966  11.410  -8.054  1.00  0.00    -0.003 C 
ATOM     26  C   UNL     1       6.122  11.060  -8.990  1.00  0.00     0.004 C 
ENDBRANCH  24  25
ENDBRANCH  23  24
ENDBRANCH  22  23
ENDBRANCH  21  22
ENDBRANCH  20  21
ENDBRANCH  19  20
ENDBRANCH  18  19
ENDBRANCH  17  18
ENDBRANCH  16  17
ENDBRANCH  15  16
ENDBRANCH   1  15
TORSDOF 22
ENDMDL
MODEL 8
REMARK VINA RESULT:    -3.941      4.353     10.628
REMARK INTER + INTRA:         -11.505
REMARK INTER:                  -9.262
REMARK INTRA:                  -2.243
REMARK UNBOUND:                -2.497
REMARK SMILES CCCCCCCCCCCCCCCCCCCCCCCC(=O)[O-]
REMARK SMILES IDX 13 1 14 2 15 3 16 4 17 5 18 6 19 7 20 8 21 9 22 10 23 11
REMARK SMILES IDX 24 12 25 13 26 14 12 15 11 16 10 17 9 18 8 19 7 20 6 21 5 22
REMARK SMILES IDX 4 23 3 24 2 25 1 26
REMARK H PARENT
REMARK Flexibility Score: inf
ROOT
ATOM      1  C   UNL     1       3.573   3.632   7.330  1.00  0.00     0.000 C 
ENDROOT
BRANCH   1   2
ATOM      2  C   UNL     1       2.641   4.702   7.922  1.00  0.00     0.000 C 
BRANCH   2   3
ATOM      3  C   UNL     1       2.739   4.802   9.453  1.00  0.00     0.000 C 
BRANCH   3   4
ATOM      4  C   UNL     1       3.446   6.063   9.989  1.00  0.00     0.000 C 
BRANCH   4   5
ATOM      5  C   UNL     1       4.227   6.851   8.916  1.00  0.00     0.000 C 
BRANCH   5   6
ATOM      6  C   UNL     1       4.595   8.273   9.379  1.00  0.00     0.000 C 
BRANCH   6   7
ATOM      7  C   UNL     1       3.770   9.357   8.658  1.00  0.00     0.000 C 
BRANCH   7   8
ATOM      8  C   UNL     1       4.623  10.403   7.913  1.00  0.00     0.000 C 
BRANCH   8   9
ATOM      9  C   UNL     1       3.802  11.503   7.212  1.00  0.00     0.000 C 
BRANCH   9  10
ATOM     10  C   UNL     1       4.631  12.300   6.192  1.00  0.00     0.006 C 
BRANCH  10  11
ATOM     11  C   UNL     1       4.693  13.783   6.571  1.00  0.00     0.053 C 
BRANCH  11  12
ATOM     12  C   UNL     1       5.828  14.049   7.511  1.00  0.00     0.041 C 
ATOM     13  O   UNL     1       6.857  14.656   7.110  1.00  0.00    -0.550 OA
ATOM     14  O   UNL     1       5.747  13.635   8.835  1.00  0.00    -0.550 OA
ENDBRANCH  11  12
ENDBRANCH  10  11
ENDBRANCH   9  10
ENDBRANCH   8   9
ENDBRANCH   7   8
ENDBRANCH   6   7
ENDBRANCH   5   6
ENDBRANCH   4   5
ENDBRANCH   3   4
ENDBRANCH   2   3
ENDBRANCH   1   2
BRANCH   1  15
ATOM     15  C   UNL     1       4.047   2.607   8.377  1.00  0.00     0.000 C 
BRANCH  15  16
ATOM     16  C   UNL     1       5.541   2.688   8.739  1.00  0.00     0.000 C 
BRANCH  16  17
ATOM     17  C   UNL     1       6.254   3.875   8.075  1.00  0.00     0.000 C 
BRANCH  17  18
ATOM     18  C   UNL     1       7.558   3.427   7.395  1.00  0.00    -0.000 C 
BRANCH  18  19
ATOM     19  C   UNL     1       7.350   3.010   5.931  1.00  0.00    -0.000 C 
BRANCH  19  20
ATOM     20  C   UNL     1       7.760   1.550   5.668  1.00  0.00    -0.000 C 
BRANCH  20  21
ATOM     21  C   UNL     1       8.165   0.811   6.953  1.00  0.00    -0.000 C 
BRANCH  21  22
ATOM     22  C   UNL     1       8.113  -0.717   6.803  1.00  0.00    -0.000 C 
BRANCH  22  23
ATOM     23  C   UNL     1       7.425  -1.362   8.014  1.00  0.00    -0.000 C 
BRANCH  23  24
ATOM     24  C   UNL     1       6.023  -0.790   8.282  1.00  0.00    -0.000 C 
BRANCH  24  25
ATOM     25  C   UNL     1       4.964  -1.254   7.261  1.00  0.00    -0.003 C 
ATOM     26  C   UNL     1       3.896  -2.143   7.896  1.00  0.00     0.004 C 
ENDBRANCH  24  25
ENDBRANCH  23  24
ENDBRANCH  22  23
ENDBRANCH  21  22
ENDBRANCH  20  21
ENDBRANCH  19  20
ENDBRANCH  18  19
ENDBRANCH  17  18
ENDBRANCH  16  17
ENDBRANCH  15  16
ENDBRANCH   1  15
TORSDOF 22
ENDMDL
MODEL 9
REMARK VINA RESULT:    -3.881     14.194     17.572
REMARK INTER + INTRA:         -11.370
REMARK INTER:                  -7.853
REMARK INTRA:                  -3.517
REMARK UNBOUND:                -2.497
REMARK SMILES CCCCCCCCCCCCCCCCCCCCCCCC(=O)[O-]
REMARK SMILES IDX 13 1 14 2 15 3 16 4 17 5 18 6 19 7 20 8 21 9 22 10 23 11
REMARK SMILES IDX 24 12 25 13 26 14 12 15 11 16 10 17 9 18 8 19 7 20 6 21 5 22
REMARK SMILES IDX 4 23 3 24 2 25 1 26
REMARK H PARENT
REMARK Flexibility Score: inf
ROOT
ATOM      1  C   UNL     1       1.943   6.811  -9.043  1.00  0.00     0.000 C 
ENDROOT
BRANCH   1   2
ATOM      2  C   UNL     1       2.445   7.933  -9.966  1.00  0.00     0.000 C 
BRANCH   2   3
ATOM      3  C   UNL     1       3.695   8.644  -9.421  1.00  0.00     0.000 C 
BRANCH   3   4
ATOM      4  C   UNL     1       3.861   8.606  -7.889  1.00  0.00     0.000 C 
BRANCH   4   5
ATOM      5  C   UNL     1       5.322   8.453  -7.417  1.00  0.00     0.000 C 
BRANCH   5   6
ATOM      6  C   UNL     1       6.337   8.915  -8.479  1.00  0.00     0.000 C 
BRANCH   6   7
ATOM      7  C   UNL     1       7.795   8.662  -8.046  1.00  0.00     0.000 C 
BRANCH   7   8
ATOM      8  C   UNL     1       7.933   7.787  -6.785  1.00  0.00     0.000 C 
BRANCH   8   9
ATOM      9  C   UNL     1       8.795   8.416  -5.673  1.00  0.00     0.000 C 
BRANCH   9  10
ATOM     10  C   UNL     1       7.992   9.362  -4.767  1.00  0.00     0.006 C 
BRANCH  10  11
ATOM     11  C   UNL     1       8.147  10.818  -5.216  1.00  0.00     0.053 C 
BRANCH  11  12
ATOM     12  C   UNL     1       8.619  11.680  -4.087  1.00  0.00     0.041 C 
ATOM     13  O   UNL     1       8.500  12.933  -4.149  1.00  0.00    -0.550 OA
ATOM     14  O   UNL     1       9.187  11.101  -2.958  1.00  0.00    -0.550 OA
ENDBRANCH  11  12
ENDBRANCH  10  11
ENDBRANCH   9  10
ENDBRANCH   8   9
ENDBRANCH   7   8
ENDBRANCH   6   7
ENDBRANCH   5   6
ENDBRANCH   4   5
ENDBRANCH   3   4
ENDBRANCH   2   3
ENDBRANCH   1   2
BRANCH   1  15
ATOM     15  C   UNL     1       1.886   5.441  -9.744  1.00  0.00     0.000 C 
BRANCH  15  16
ATOM     16  C   UNL     1       2.934   4.419  -9.265  1.00  0.00     0.000 C 
BRANCH  16  17
ATOM     17  C   UNL     1       4.353   4.741  -9.758  1.00  0.00     0.000 C 
BRANCH  17  18
ATOM     18  C   UNL     1       5.268   5.137  -8.589  1.00  0.00    -0.000 C 
BRANCH  18  19
ATOM     19  C   UNL     1       6.746   5.239  -9.000  1.00  0.00    -0.000 C 
BRANCH  19  20
ATOM     20  C   UNL     1       7.620   4.160  -8.339  1.00  0.00    -0.000 C 
BRANCH  20  21
ATOM     21  C   UNL     1       7.932   2.992  -9.288  1.00  0.00    -0.000 C 
BRANCH  21  22
ATOM     22  C   UNL     1       7.388   1.649  -8.778  1.00  0.00    -0.000 C 
BRANCH  22  23
ATOM     23  C   UNL     1       5.994   1.369  -9.357  1.00  0.00    -0.000 C 
BRANCH  23  24
ATOM     24  C   UNL     1       4.989   0.892  -8.297  1.00  0.00    -0.000 C 
BRANCH  24  25
ATOM     25  C   UNL     1       4.959   1.777  -7.033  1.00  0.00    -0.003 C 
ATOM     26  C   UNL     1       4.183   1.127  -5.889  1.00  0.00     0.004 C 
ENDBRANCH  24  25
ENDBRANCH  23  24
ENDBRANCH  22  23
ENDBRANCH  21  22
ENDBRANCH  20  21
ENDBRANCH  19  20
ENDBRANCH  18  19
ENDBRANCH  17  18
ENDBRANCH  16  17
ENDBRANCH  15  16
ENDBRANCH   1  15
TORSDOF 22
ENDMDL
