MODEL 1
REMARK VINA RESULT:    66.879      0.000      0.000
REMARK INTER + INTRA:          72.890
REMARK INTER:                  72.743
REMARK INTRA:                   0.147
REMARK UNBOUND:                 0.147
REMARK SMILES C[C@@H]1[C@H](C)CC[C@@]2(C(=O)[O-])CC[C@]3(C)C(=CC[C@H]4[C@@]5(C)CC[C@@H](O)C(C)(C)[C@H]5CC[C@]43C)[C@@H]12
REMARK SMILES IDX 7 1 6 2 11 3 33 4 5 5 12 6 15 7 2 8 3 9 13 10 16 11 1 12
REMARK SMILES IDX 4 13 14 14 31 15 17 16 18 17 30 18 32 19 19 20 29 21 28 22
REMARK SMILES IDX 21 23 20 24 25 25 22 26 23 27 26 28 27 29 8 30 9 31 10 32
REMARK SMILES IDX 24 33
REMARK H PARENT 24 34
REMARK Flexibility Score: inf
ROOT
ATOM      1  C   UNL     1      10.024   4.770   1.357  1.00  0.00     0.017 C 
ATOM      2  C   UNL     1      10.314   3.508   2.216  1.00  0.00     0.014 C 
ATOM      3  C   UNL     1      11.374   5.240   0.712  1.00  0.00     0.014 C 
ATOM      4  C   UNL     1       8.936   4.482   0.232  1.00  0.00     0.030 C 
ATOM      5  C   UNL     1      10.408   2.238   1.374  1.00  0.00     0.004 C 
ATOM      6  C   UNL     1      11.230   6.395  -0.307  1.00  0.00     0.013 C 
ATOM      7  C   UNL     1       9.497   4.813  -1.169  1.00  0.00    -0.063 C 
ATOM      8  C   UNL     1       8.152   3.120   0.386  1.00  0.00    -0.003 C 
ATOM      9  C   UNL     1       9.066   1.874   0.705  1.00  0.00    -0.011 C 
ATOM     10  C   UNL     1      10.051   6.240  -1.351  1.00  0.00    -0.006 C 
ATOM     11  C   UNL     1       9.838   3.831  -2.020  1.00  0.00    -0.027 C 
ATOM     12  C   UNL     1       6.975   3.288   1.382  1.00  0.00     0.008 C 
ATOM     13  C   UNL     1       8.359   0.746   1.484  1.00  0.00     0.008 C 
ATOM     14  C   UNL     1       8.919   7.254  -0.959  1.00  0.00     0.017 C 
ATOM     15  C   UNL     1      10.535   6.551  -2.862  1.00  0.00    -0.020 C 
ATOM     16  C   UNL     1      10.545   4.036  -3.316  1.00  0.00     0.032 C 
ATOM     17  C   UNL     1      11.369   5.350  -3.441  1.00  0.00     0.006 C 
ATOM     18  C   UNL     1       9.306   6.764  -3.812  1.00  0.00     0.008 C 
ATOM     19  C   UNL     1      11.394   7.870  -2.830  1.00  0.00     0.012 C 
ATOM     20  C   UNL     1      11.955   5.595  -4.934  1.00  0.00    -0.025 C 
ATOM     21  C   UNL     1       9.520   6.443  -5.315  1.00  0.00     0.005 C 
ATOM     22  C   UNL     1      10.993   6.532  -5.801  1.00  0.00     0.003 C 
ATOM     23  C   UNL     1      12.198   4.221  -5.659  1.00  0.00     0.010 C 
ATOM     24  C   UNL     1      13.360   6.275  -4.786  1.00  0.00     0.012 C 
ATOM     25  C   UNL     1      11.189   6.483  -7.393  1.00  0.00    -0.006 C 
ATOM     26  C   UNL     1      12.561   4.312  -7.142  1.00  0.00     0.033 C 
ATOM     27  C   UNL     1      11.486   5.049  -7.944  1.00  0.00     0.120 C 
ATOM     28  C   UNL     1       9.960   7.051  -8.156  1.00  0.00     0.014 C 
ATOM     29  C   UNL     1      12.369   7.416  -7.799  1.00  0.00     0.014 C 
ENDROOT
BRANCH   1  30
ATOM     30  C   UNL     1       9.534   5.849   2.322  1.00  0.00     0.048 C 
ATOM     31  O   UNL     1       8.652   5.583   3.183  1.00  0.00    -0.550 OA
ATOM     32  O   UNL     1      10.118   7.112   2.339  1.00  0.00    -0.550 OA
ENDBRANCH   1  30
BRANCH  27  33
ATOM     33  O   UNL     1      10.330   4.255  -8.081  1.00  0.00    -0.393 OA
ATOM     34  H   UNL     1       9.943   4.108  -7.185  1.00  0.00     0.210 HD
ENDBRANCH  27  33
TORSDOF 2
ENDMDL
