MODEL 1
REMARK VINA RESULT:    -5.250      0.000      0.000
REMARK INTER + INTRA:         -11.042
REMARK INTER:                  -9.546
REMARK INTRA:                  -1.496
REMARK UNBOUND:                -1.496
REMARK SMILES CCCCCCCCCCCCCCCC(=O)[O-]
REMARK SMILES IDX 9 1 10 2 11 3 12 4 13 5 14 6 15 7 16 8 17 9 18 10 8 11 7 12
REMARK SMILES IDX 6 13 5 14 4 15 3 16 2 17 1 18
REMARK H PARENT
REMARK Flexibility Score: inf
ROOT
ATOM      1  C   UNL     1      29.666  30.678  15.697  1.00  0.00     0.000 C 
ENDROOT
BRANCH   1   2
ATOM      2  C   UNL     1      30.174  30.508  17.139  1.00  0.00     0.000 C 
BRANCH   2   3
ATOM      3  C   UNL     1      31.470  31.288  17.403  1.00  0.00     0.000 C 
BRANCH   3   4
ATOM      4  C   UNL     1      31.917  32.117  16.184  1.00  0.00     0.000 C 
BRANCH   4   5
ATOM      5  C   UNL     1      33.090  31.456  15.429  1.00  0.00     0.000 C 
BRANCH   5   6
ATOM      6  C   UNL     1      33.392  30.021  15.896  1.00  0.00     0.006 C 
BRANCH   6   7
ATOM      7  C   UNL     1      33.461  29.019  14.737  1.00  0.00     0.053 C 
BRANCH   7   8
ATOM      8  C   UNL     1      34.078  27.734  15.193  1.00  0.00     0.041 C 
ATOM      9  O   UNL     1      33.611  27.126  16.192  1.00  0.00    -0.550 OA
ATOM     10  O   UNL     1      35.199  27.232  14.545  1.00  0.00    -0.550 OA
ENDBRANCH   7   8
ENDBRANCH   6   7
ENDBRANCH   5   6
ENDBRANCH   4   5
ENDBRANCH   3   4
ENDBRANCH   2   3
ENDBRANCH   1   2
BRANCH   1  11
ATOM     11  C   UNL     1      29.542  29.336  14.957  1.00  0.00     0.000 C 
BRANCH  11  12
ATOM     12  C   UNL     1      30.204  28.179  15.720  1.00  0.00    -0.000 C 
BRANCH  12  13
ATOM     13  C   UNL     1      29.886  26.829  15.059  1.00  0.00    -0.000 C 
BRANCH  13  14
ATOM     14  C   UNL     1      28.386  26.659  14.752  1.00  0.00    -0.000 C 
BRANCH  14  15
ATOM     15  C   UNL     1      27.639  25.772  15.769  1.00  0.00    -0.000 C 
BRANCH  15  16
ATOM     16  C   UNL     1      28.586  25.022  16.735  1.00  0.00    -0.000 C 
BRANCH  16  17
ATOM     17  C   UNL     1      27.866  24.422  17.954  1.00  0.00    -0.003 C 
ATOM     18  C   UNL     1      28.229  25.123  19.263  1.00  0.00     0.004 C 
ENDBRANCH  16  17
ENDBRANCH  15  16
ENDBRANCH  14  15
ENDBRANCH  13  14
ENDBRANCH  12  13
ENDBRANCH  11  12
ENDBRANCH   1  11
TORSDOF 14
ENDMDL
MODEL 2
REMARK VINA RESULT:    -5.244      2.927      5.064
REMARK INTER + INTRA:         -11.033
REMARK INTER:                  -8.717
REMARK INTRA:                  -2.316
REMARK UNBOUND:                -1.496
REMARK SMILES CCCCCCCCCCCCCCCC(=O)[O-]
REMARK SMILES IDX 9 1 10 2 11 3 12 4 13 5 14 6 15 7 16 8 17 9 18 10 8 11 7 12
REMARK SMILES IDX 6 13 5 14 4 15 3 16 2 17 1 18
REMARK H PARENT
REMARK Flexibility Score: inf
ROOT
ATOM      1  C   UNL     1      29.540  30.630  15.777  1.00  0.00     0.000 C 
ENDROOT
BRANCH   1   2
ATOM      2  C   UNL     1      29.330  29.318  15.002  1.00  0.00     0.000 C 
BRANCH   2   3
ATOM      3  C   UNL     1      29.655  29.458  13.507  1.00  0.00     0.000 C 
BRANCH   3   4
ATOM      4  C   UNL     1      29.969  30.911  13.106  1.00  0.00     0.000 C 
BRANCH   4   5
ATOM      5  C   UNL     1      30.675  30.998  11.736  1.00  0.00     0.000 C 
BRANCH   5   6
ATOM      6  C   UNL     1      32.149  30.558  11.775  1.00  0.00     0.006 C 
BRANCH   6   7
ATOM      7  C   UNL     1      32.791  30.495  10.384  1.00  0.00     0.053 C 
BRANCH   7   8
ATOM      8  C   UNL     1      33.639  29.269  10.253  1.00  0.00     0.041 C 
ATOM      9  O   UNL     1      34.327  28.868  11.228  1.00  0.00    -0.550 OA
ATOM     10  O   UNL     1      33.707  28.597   9.040  1.00  0.00    -0.550 OA
ENDBRANCH   7   8
ENDBRANCH   6   7
ENDBRANCH   5   6
ENDBRANCH   4   5
ENDBRANCH   3   4
ENDBRANCH   2   3
ENDBRANCH   1   2
BRANCH   1  11
ATOM     11  C   UNL     1      30.218  30.406  17.138  1.00  0.00     0.000 C 
BRANCH  11  12
ATOM     12  C   UNL     1      31.451  31.302  17.336  1.00  0.00    -0.000 C 
BRANCH  12  13
ATOM     13  C   UNL     1      31.748  32.117  16.067  1.00  0.00    -0.000 C 
BRANCH  13  14
ATOM     14  C   UNL     1      32.967  31.584  15.292  1.00  0.00    -0.000 C 
BRANCH  14  15
ATOM     15  C   UNL     1      33.510  30.245  15.831  1.00  0.00    -0.000 C 
BRANCH  15  16
ATOM     16  C   UNL     1      33.150  29.036  14.936  1.00  0.00    -0.000 C 
BRANCH  16  17
ATOM     17  C   UNL     1      33.085  27.705  15.703  1.00  0.00    -0.003 C 
ATOM     18  C   UNL     1      31.937  26.808  15.241  1.00  0.00     0.004 C 
ENDBRANCH  16  17
ENDBRANCH  15  16
ENDBRANCH  14  15
ENDBRANCH  13  14
ENDBRANCH  12  13
ENDBRANCH  11  12
ENDBRANCH   1  11
TORSDOF 14
ENDMDL
MODEL 3
REMARK VINA RESULT:    -5.220      2.800      4.876
REMARK INTER + INTRA:         -10.989
REMARK INTER:                  -8.776
REMARK INTRA:                  -2.212
REMARK UNBOUND:                -1.496
REMARK SMILES CCCCCCCCCCCCCCCC(=O)[O-]
REMARK SMILES IDX 9 1 10 2 11 3 12 4 13 5 14 6 15 7 16 8 17 9 18 10 8 11 7 12
REMARK SMILES IDX 6 13 5 14 4 15 3 16 2 17 1 18
REMARK H PARENT
REMARK Flexibility Score: inf
ROOT
ATOM      1  C   UNL     1      31.446  31.362  17.284  1.00  0.00     0.000 C 
ENDROOT
BRANCH   1   2
ATOM      2  C   UNL     1      31.734  32.199  16.026  1.00  0.00     0.000 C 
BRANCH   2   3
ATOM      3  C   UNL     1      32.940  31.675  15.233  1.00  0.00     0.000 C 
BRANCH   3   4
ATOM      4  C   UNL     1      33.450  30.321  15.761  1.00  0.00     0.000 C 
BRANCH   4   5
ATOM      5  C   UNL     1      33.224  29.179  14.748  1.00  0.00     0.000 C 
BRANCH   5   6
ATOM      6  C   UNL     1      32.630  27.906  15.379  1.00  0.00     0.006 C 
BRANCH   6   7
ATOM      7  C   UNL     1      33.687  27.023  16.051  1.00  0.00     0.053 C 
BRANCH   7   8
ATOM      8  C   UNL     1      33.659  25.642  15.475  1.00  0.00     0.041 C 
ATOM      9  O   UNL     1      34.713  25.123  15.023  1.00  0.00    -0.550 OA
ATOM     10  O   UNL     1      32.459  24.947  15.392  1.00  0.00    -0.550 OA
ENDBRANCH   7   8
ENDBRANCH   6   7
ENDBRANCH   5   6
ENDBRANCH   4   5
ENDBRANCH   3   4
ENDBRANCH   2   3
ENDBRANCH   1   2
BRANCH   1  11
ATOM     11  C   UNL     1      30.260  30.402  17.092  1.00  0.00     0.000 C 
BRANCH  11  12
ATOM     12  C   UNL     1      29.492  30.670  15.789  1.00  0.00    -0.000 C 
BRANCH  12  13
ATOM     13  C   UNL     1      29.245  29.364  15.017  1.00  0.00    -0.000 C 
BRANCH  13  14
ATOM     14  C   UNL     1      29.642  29.468  13.533  1.00  0.00    -0.000 C 
BRANCH  14  15
ATOM     15  C   UNL     1      29.796  30.918  13.030  1.00  0.00    -0.000 C 
BRANCH  15  16
ATOM     16  C   UNL     1      30.457  31.013  11.636  1.00  0.00    -0.000 C 
BRANCH  16  17
ATOM     17  C   UNL     1      31.973  30.751  11.658  1.00  0.00    -0.003 C 
ATOM     18  C   UNL     1      32.569  30.594  10.260  1.00  0.00     0.004 C 
ENDBRANCH  16  17
ENDBRANCH  15  16
ENDBRANCH  14  15
ENDBRANCH  13  14
ENDBRANCH  12  13
ENDBRANCH  11  12
ENDBRANCH   1  11
TORSDOF 14
ENDMDL
MODEL 4
REMARK VINA RESULT:    -5.192      2.937      4.975
REMARK INTER + INTRA:         -10.937
REMARK INTER:                  -8.904
REMARK INTRA:                  -2.033
REMARK UNBOUND:                -1.496
REMARK SMILES CCCCCCCCCCCCCCCC(=O)[O-]
REMARK SMILES IDX 9 1 10 2 11 3 12 4 13 5 14 6 15 7 16 8 17 9 18 10 8 11 7 12
REMARK SMILES IDX 6 13 5 14 4 15 3 16 2 17 1 18
REMARK H PARENT
REMARK Flexibility Score: inf
ROOT
ATOM      1  C   UNL     1      31.519  31.244  17.366  1.00  0.00     0.000 C 
ENDROOT
BRANCH   1   2
ATOM      2  C   UNL     1      31.842  32.184  16.192  1.00  0.00     0.000 C 
BRANCH   2   3
ATOM      3  C   UNL     1      32.948  31.631  15.281  1.00  0.00     0.000 C 
BRANCH   3   4
ATOM      4  C   UNL     1      33.376  30.204  15.674  1.00  0.00     0.000 C 
BRANCH   4   5
ATOM      5  C   UNL     1      32.897  29.150  14.653  1.00  0.00     0.000 C 
BRANCH   5   6
ATOM      6  C   UNL     1      34.000  28.169  14.218  1.00  0.00     0.006 C 
BRANCH   6   7
ATOM      7  C   UNL     1      33.956  27.847  12.720  1.00  0.00     0.053 C 
BRANCH   7   8
ATOM      8  C   UNL     1      35.305  27.415  12.237  1.00  0.00     0.041 C 
ATOM      9  O   UNL     1      35.770  27.876  11.161  1.00  0.00    -0.550 OA
ATOM     10  O   UNL     1      36.029  26.468  12.949  1.00  0.00    -0.550 OA
ENDBRANCH   7   8
ENDBRANCH   6   7
ENDBRANCH   5   6
ENDBRANCH   4   5
ENDBRANCH   3   4
ENDBRANCH   2   3
ENDBRANCH   1   2
BRANCH   1  11
ATOM     11  C   UNL     1      30.183  30.507  17.177  1.00  0.00     0.000 C 
BRANCH  11  12
ATOM     12  C   UNL     1      29.539  30.798  15.813  1.00  0.00    -0.000 C 
BRANCH  12  13
ATOM     13  C   UNL     1      29.242  29.494  15.055  1.00  0.00    -0.000 C 
BRANCH  13  14
ATOM     14  C   UNL     1      29.486  29.621  13.540  1.00  0.00    -0.000 C 
BRANCH  14  15
ATOM     15  C   UNL     1      29.706  31.072  13.064  1.00  0.00    -0.000 C 
BRANCH  15  16
ATOM     16  C   UNL     1      30.363  31.162  11.667  1.00  0.00    -0.000 C 
BRANCH  16  17
ATOM     17  C   UNL     1      31.866  30.835  11.676  1.00  0.00    -0.003 C 
ATOM     18  C   UNL     1      32.333  30.152  10.391  1.00  0.00     0.004 C 
ENDBRANCH  16  17
ENDBRANCH  15  16
ENDBRANCH  14  15
ENDBRANCH  13  14
ENDBRANCH  12  13
ENDBRANCH  11  12
ENDBRANCH   1  11
TORSDOF 14
ENDMDL
MODEL 5
REMARK VINA RESULT:    -5.168      2.547      5.424
REMARK INTER + INTRA:         -10.894
REMARK INTER:                  -8.493
REMARK INTRA:                  -2.401
REMARK UNBOUND:                -1.496
REMARK SMILES CCCCCCCCCCCCCCCC(=O)[O-]
REMARK SMILES IDX 9 1 10 2 11 3 12 4 13 5 14 6 15 7 16 8 17 9 18 10 8 11 7 12
REMARK SMILES IDX 6 13 5 14 4 15 3 16 2 17 1 18
REMARK H PARENT
REMARK Flexibility Score: inf
ROOT
ATOM      1  C   UNL     1      33.086  31.098  15.352  1.00  0.00     0.000 C 
ENDROOT
BRANCH   1   2
ATOM      2  C   UNL     1      32.028  31.974  16.045  1.00  0.00     0.000 C 
BRANCH   2   3
ATOM      3  C   UNL     1      31.428  31.300  17.288  1.00  0.00     0.000 C 
BRANCH   3   4
ATOM      4  C   UNL     1      30.157  30.493  16.965  1.00  0.00     0.000 C 
BRANCH   4   5
ATOM      5  C   UNL     1      29.626  30.785  15.545  1.00  0.00     0.000 C 
BRANCH   5   6
ATOM      6  C   UNL     1      29.153  29.528  14.794  1.00  0.00     0.006 C 
BRANCH   6   7
ATOM      7  C   UNL     1      29.772  28.237  15.343  1.00  0.00     0.053 C 
BRANCH   7   8
ATOM      8  C   UNL     1      28.825  27.090  15.175  1.00  0.00     0.041 C 
ATOM      9  O   UNL     1      29.111  25.959  15.649  1.00  0.00    -0.550 OA
ATOM     10  O   UNL     1      27.651  27.257  14.453  1.00  0.00    -0.550 OA
ENDBRANCH   7   8
ENDBRANCH   6   7
ENDBRANCH   5   6
ENDBRANCH   4   5
ENDBRANCH   3   4
ENDBRANCH   2   3
ENDBRANCH   1   2
BRANCH   1  11
ATOM     11  C   UNL     1      33.520  29.904  16.219  1.00  0.00     0.000 C 
BRANCH  11  12
ATOM     12  C   UNL     1      33.283  28.555  15.523  1.00  0.00    -0.000 C 
BRANCH  12  13
ATOM     13  C   UNL     1      33.605  28.646  14.023  1.00  0.00    -0.000 C 
BRANCH  13  14
ATOM     14  C   UNL     1      32.689  27.753  13.166  1.00  0.00    -0.000 C 
BRANCH  14  15
ATOM     15  C   UNL     1      31.748  28.541  12.231  1.00  0.00    -0.000 C 
BRANCH  15  16
ATOM     16  C   UNL     1      32.242  29.976  11.938  1.00  0.00    -0.000 C 
BRANCH  16  17
ATOM     17  C   UNL     1      31.129  31.034  12.019  1.00  0.00    -0.003 C 
ATOM     18  C   UNL     1      29.841  30.596  11.322  1.00  0.00     0.004 C 
ENDBRANCH  16  17
ENDBRANCH  15  16
ENDBRANCH  14  15
ENDBRANCH  13  14
ENDBRANCH  12  13
ENDBRANCH  11  12
ENDBRANCH   1  11
TORSDOF 14
ENDMDL
MODEL 6
REMARK VINA RESULT:    -5.152      2.317      5.346
REMARK INTER + INTRA:         -10.865
REMARK INTER:                  -8.483
REMARK INTRA:                  -2.382
REMARK UNBOUND:                -1.496
REMARK SMILES CCCCCCCCCCCCCCCC(=O)[O-]
REMARK SMILES IDX 9 1 10 2 11 3 12 4 13 5 14 6 15 7 16 8 17 9 18 10 8 11 7 12
REMARK SMILES IDX 6 13 5 14 4 15 3 16 2 17 1 18
REMARK H PARENT
REMARK Flexibility Score: inf
ROOT
ATOM      1  C   UNL     1      33.179  31.175  15.383  1.00  0.00     0.000 C 
ENDROOT
BRANCH   1   2
ATOM      2  C   UNL     1      33.576  29.924  16.185  1.00  0.00     0.000 C 
BRANCH   2   3
ATOM      3  C   UNL     1      33.523  28.642  15.341  1.00  0.00     0.000 C 
BRANCH   3   4
ATOM      4  C   UNL     1      32.638  28.795  14.090  1.00  0.00     0.000 C 
BRANCH   4   5
ATOM      5  C   UNL     1      31.468  27.788  14.077  1.00  0.00     0.000 C 
BRANCH   5   6
ATOM      6  C   UNL     1      31.304  27.019  15.400  1.00  0.00     0.006 C 
BRANCH   6   7
ATOM      7  C   UNL     1      29.838  26.843  15.810  1.00  0.00     0.053 C 
BRANCH   7   8
ATOM      8  C   UNL     1      29.473  25.392  15.841  1.00  0.00     0.041 C 
ATOM      9  O   UNL     1      28.576  24.981  16.624  1.00  0.00    -0.550 OA
ATOM     10  O   UNL     1      30.155  24.485  15.040  1.00  0.00    -0.550 OA
ENDBRANCH   7   8
ENDBRANCH   6   7
ENDBRANCH   5   6
ENDBRANCH   4   5
ENDBRANCH   3   4
ENDBRANCH   2   3
ENDBRANCH   1   2
BRANCH   1  11
ATOM     11  C   UNL     1      32.117  32.022  16.103  1.00  0.00     0.000 C 
BRANCH  11  12
ATOM     12  C   UNL     1      31.405  31.245  17.222  1.00  0.00    -0.000 C 
BRANCH  12  13
ATOM     13  C   UNL     1      30.144  30.545  16.689  1.00  0.00    -0.000 C 
BRANCH  13  14
ATOM     14  C   UNL     1      29.688  31.102  15.327  1.00  0.00    -0.000 C 
BRANCH  14  15
ATOM     15  C   UNL     1      28.784  30.138  14.532  1.00  0.00    -0.000 C 
BRANCH  15  16
ATOM     16  C   UNL     1      28.841  30.370  13.004  1.00  0.00    -0.000 C 
BRANCH  16  17
ATOM     17  C   UNL     1      30.184  30.946  12.523  1.00  0.00    -0.003 C 
ATOM     18  C   UNL     1      30.256  31.093  11.003  1.00  0.00     0.004 C 
ENDBRANCH  16  17
ENDBRANCH  15  16
ENDBRANCH  14  15
ENDBRANCH  13  14
ENDBRANCH  12  13
ENDBRANCH  11  12
ENDBRANCH   1  11
TORSDOF 14
ENDMDL
MODEL 7
REMARK VINA RESULT:    -5.100      3.219      6.092
REMARK INTER + INTRA:         -10.770
REMARK INTER:                  -7.965
REMARK INTRA:                  -2.805
REMARK UNBOUND:                -1.496
REMARK SMILES CCCCCCCCCCCCCCCC(=O)[O-]
REMARK SMILES IDX 9 1 10 2 11 3 12 4 13 5 14 6 15 7 16 8 17 9 18 10 8 11 7 12
REMARK SMILES IDX 6 13 5 14 4 15 3 16 2 17 1 18
REMARK H PARENT
REMARK Flexibility Score: inf
ROOT
ATOM      1  C   UNL     1      33.520  30.251  15.520  1.00  0.00     0.000 C 
ENDROOT
BRANCH   1   2
ATOM      2  C   UNL     1      33.458  28.881  14.824  1.00  0.00     0.000 C 
BRANCH   2   3
ATOM      3  C   UNL     1      32.554  27.884  15.564  1.00  0.00     0.000 C 
BRANCH   3   4
ATOM      4  C   UNL     1      31.278  27.544  14.771  1.00  0.00     0.000 C 
BRANCH   4   5
ATOM      5  C   UNL     1      30.145  27.028  15.684  1.00  0.00     0.000 C 
BRANCH   5   6
ATOM      6  C   UNL     1      28.742  27.179  15.068  1.00  0.00     0.006 C 
BRANCH   6   7
ATOM      7  C   UNL     1      28.778  27.639  13.606  1.00  0.00     0.053 C 
BRANCH   7   8
ATOM      8  C   UNL     1      27.431  28.132  13.179  1.00  0.00     0.041 C 
ATOM      9  O   UNL     1      26.419  27.393  13.303  1.00  0.00    -0.550 OA
ATOM     10  O   UNL     1      27.301  29.387  12.600  1.00  0.00    -0.550 OA
ENDBRANCH   7   8
ENDBRANCH   6   7
ENDBRANCH   5   6
ENDBRANCH   4   5
ENDBRANCH   3   4
ENDBRANCH   2   3
ENDBRANCH   1   2
BRANCH   1  11
ATOM     11  C   UNL     1      32.764  30.263  16.860  1.00  0.00     0.000 C 
BRANCH  11  12
ATOM     12  C   UNL     1      31.643  31.313  16.892  1.00  0.00    -0.000 C 
BRANCH  12  13
ATOM     13  C   UNL     1      30.261  30.641  16.921  1.00  0.00    -0.000 C 
BRANCH  13  14
ATOM     14  C   UNL     1      29.529  30.730  15.569  1.00  0.00    -0.000 C 
BRANCH  14  15
ATOM     15  C   UNL     1      30.188  31.701  14.568  1.00  0.00    -0.000 C 
BRANCH  15  16
ATOM     16  C   UNL     1      30.087  31.225  13.100  1.00  0.00    -0.000 C 
BRANCH  16  17
ATOM     17  C   UNL     1      31.430  30.758  12.515  1.00  0.00    -0.003 C 
ATOM     18  C   UNL     1      31.290  29.530  11.615  1.00  0.00     0.004 C 
ENDBRANCH  16  17
ENDBRANCH  15  16
ENDBRANCH  14  15
ENDBRANCH  13  14
ENDBRANCH  12  13
ENDBRANCH  11  12
ENDBRANCH   1  11
TORSDOF 14
ENDMDL
MODEL 8
REMARK VINA RESULT:    -5.074      1.963      3.542
REMARK INTER + INTRA:         -10.722
REMARK INTER:                  -8.697
REMARK INTRA:                  -2.025
REMARK UNBOUND:                -1.496
REMARK SMILES CCCCCCCCCCCCCCCC(=O)[O-]
REMARK SMILES IDX 9 1 10 2 11 3 12 4 13 5 14 6 15 7 16 8 17 9 18 10 8 11 7 12
REMARK SMILES IDX 6 13 5 14 4 15 3 16 2 17 1 18
REMARK H PARENT
REMARK Flexibility Score: inf
ROOT
ATOM      1  C   UNL     1      32.078  32.049  16.070  1.00  0.00     0.000 C 
ENDROOT
BRANCH   1   2
ATOM      2  C   UNL     1      33.191  31.226  15.399  1.00  0.00     0.000 C 
BRANCH   2   3
ATOM      3  C   UNL     1      33.463  29.901  16.125  1.00  0.00     0.000 C 
BRANCH   3   4
ATOM      4  C   UNL     1      33.284  28.678  15.207  1.00  0.00     0.000 C 
BRANCH   4   5
ATOM      5  C   UNL     1      32.771  29.072  13.805  1.00  0.00     0.000 C 
BRANCH   5   6
ATOM      6  C   UNL     1      33.103  28.037  12.716  1.00  0.00     0.006 C 
BRANCH   6   7
ATOM      7  C   UNL     1      34.355  28.401  11.909  1.00  0.00     0.053 C 
BRANCH   7   8
ATOM      8  C   UNL     1      35.406  27.347  12.068  1.00  0.00     0.041 C 
ATOM      9  O   UNL     1      35.703  26.918  13.214  1.00  0.00    -0.550 OA
ATOM     10  O   UNL     1      36.090  26.873  10.957  1.00  0.00    -0.550 OA
ENDBRANCH   7   8
ENDBRANCH   6   7
ENDBRANCH   5   6
ENDBRANCH   4   5
ENDBRANCH   3   4
ENDBRANCH   2   3
ENDBRANCH   1   2
BRANCH   1  11
ATOM     11  C   UNL     1      31.383  31.281  17.206  1.00  0.00     0.000 C 
BRANCH  11  12
ATOM     12  C   UNL     1      30.080  30.608  16.750  1.00  0.00    -0.000 C 
BRANCH  12  13
ATOM     13  C   UNL     1      29.698  31.056  15.329  1.00  0.00    -0.000 C 
BRANCH  13  14
ATOM     14  C   UNL     1      28.682  30.109  14.663  1.00  0.00    -0.000 C 
BRANCH  14  15
ATOM     15  C   UNL     1      29.311  28.819  14.098  1.00  0.00    -0.000 C 
BRANCH  15  16
ATOM     16  C   UNL     1      28.912  27.551  14.888  1.00  0.00    -0.000 C 
BRANCH  16  17
ATOM     17  C   UNL     1      30.018  27.042  15.828  1.00  0.00    -0.003 C 
ATOM     18  C   UNL     1      30.742  25.812  15.282  1.00  0.00     0.004 C 
ENDBRANCH  16  17
ENDBRANCH  15  16
ENDBRANCH  14  15
ENDBRANCH  13  14
ENDBRANCH  12  13
ENDBRANCH  11  12
ENDBRANCH   1  11
TORSDOF 14
ENDMDL
MODEL 9
REMARK VINA RESULT:    -5.069      2.892      6.030
REMARK INTER + INTRA:         -10.714
REMARK INTER:                  -8.459
REMARK INTRA:                  -2.255
REMARK UNBOUND:                -1.496
REMARK SMILES CCCCCCCCCCCCCCCC(=O)[O-]
REMARK SMILES IDX 9 1 10 2 11 3 12 4 13 5 14 6 15 7 16 8 17 9 18 10 8 11 7 12
REMARK SMILES IDX 6 13 5 14 4 15 3 16 2 17 1 18
REMARK H PARENT
REMARK Flexibility Score: inf
ROOT
ATOM      1  C   UNL     1      32.532  30.408  16.827  1.00  0.00     0.000 C 
ENDROOT
BRANCH   1   2
ATOM      2  C   UNL     1      33.605  30.325  15.728  1.00  0.00     0.000 C 
BRANCH   2   3
ATOM      3  C   UNL     1      33.613  28.966  15.014  1.00  0.00     0.000 C 
BRANCH   3   4
ATOM      4  C   UNL     1      32.700  27.933  15.700  1.00  0.00     0.000 C 
BRANCH   4   5
ATOM      5  C   UNL     1      31.451  27.607  14.854  1.00  0.00     0.000 C 
BRANCH   5   6
ATOM      6  C   UNL     1      30.125  27.847  15.598  1.00  0.00     0.006 C 
BRANCH   6   7
ATOM      7  C   UNL     1      28.896  27.666  14.699  1.00  0.00     0.053 C 
BRANCH   7   8
ATOM      8  C   UNL     1      28.055  26.528  15.186  1.00  0.00     0.041 C 
ATOM      9  O   UNL     1      26.834  26.468  14.882  1.00  0.00    -0.550 OA
ATOM     10  O   UNL     1      28.606  25.559  16.014  1.00  0.00    -0.550 OA
ENDBRANCH   7   8
ENDBRANCH   6   7
ENDBRANCH   5   6
ENDBRANCH   4   5
ENDBRANCH   3   4
ENDBRANCH   2   3
ENDBRANCH   1   2
BRANCH   1  11
ATOM     11  C   UNL     1      31.762  31.739  16.798  1.00  0.00     0.000 C 
BRANCH  11  12
ATOM     12  C   UNL     1      31.336  32.140  15.377  1.00  0.00    -0.000 C 
BRANCH  12  13
ATOM     13  C   UNL     1      30.005  31.474  14.993  1.00  0.00    -0.000 C 
BRANCH  13  14
ATOM     14  C   UNL     1      29.905  31.175  13.485  1.00  0.00    -0.000 C 
BRANCH  14  15
ATOM     15  C   UNL     1      31.234  30.712  12.853  1.00  0.00    -0.000 C 
BRANCH  15  16
ATOM     16  C   UNL     1      31.221  30.755  11.308  1.00  0.00    -0.000 C 
BRANCH  16  17
ATOM     17  C   UNL     1      32.570  30.376  10.674  1.00  0.00    -0.003 C 
ATOM     18  C   UNL     1      33.187  29.124  11.295  1.00  0.00     0.004 C 
ENDBRANCH  16  17
ENDBRANCH  15  16
ENDBRANCH  14  15
ENDBRANCH  13  14
ENDBRANCH  12  13
ENDBRANCH  11  12
ENDBRANCH   1  11
TORSDOF 14
ENDMDL
