MODEL 1
REMARK VINA RESULT:    -3.113      0.000      0.000
REMARK INTER + INTRA:          -7.149
REMARK INTER:                  -5.296
REMARK INTRA:                  -1.853
REMARK UNBOUND:                -1.853
REMARK SMILES CCCCCCCCCCCCCC(=O)[O-]
REMARK SMILES IDX 8 1 9 2 10 3 11 4 12 5 13 6 14 7 15 8 16 9 7 10 6 11 5 12
REMARK SMILES IDX 4 13 3 14 2 15 1 16
REMARK H PARENT
REMARK Flexibility Score: inf
ROOT
ATOM      1  C   UNL     1      -7.760  31.439 105.484  1.00  0.00     0.000 C 
ENDROOT
BRANCH   1   2
ATOM      2  C   UNL     1      -6.928  30.743 104.396  1.00  0.00     0.000 C 
BRANCH   2   3
ATOM      3  C   UNL     1      -5.747  31.604 103.914  1.00  0.00     0.000 C 
BRANCH   3   4
ATOM      4  C   UNL     1      -4.527  30.759 103.514  1.00  0.00     0.000 C 
BRANCH   4   5
ATOM      5  C   UNL     1      -3.576  31.506 102.563  1.00  0.00     0.006 C 
BRANCH   5   6
ATOM      6  C   UNL     1      -3.504  33.005 102.876  1.00  0.00     0.053 C 
BRANCH   6   7
ATOM      7  C   UNL     1      -2.258  33.356 103.630  1.00  0.00     0.041 C 
ATOM      8  O   UNL     1      -1.239  33.766 103.016  1.00  0.00    -0.550 OA
ATOM      9  O   UNL     1      -2.212  33.195 105.009  1.00  0.00    -0.550 OA
ENDBRANCH   6   7
ENDBRANCH   5   6
ENDBRANCH   4   5
ENDBRANCH   3   4
ENDBRANCH   2   3
ENDBRANCH   1   2
BRANCH   1  10
ATOM     10  C   UNL     1      -8.217  30.472 106.588  1.00  0.00     0.000 C 
BRANCH  10  11
ATOM     11  C   UNL     1      -7.613  29.076 106.378  1.00  0.00    -0.000 C 
BRANCH  11  12
ATOM     12  C   UNL     1      -6.810  28.580 107.594  1.00  0.00    -0.000 C 
BRANCH  12  13
ATOM     13  C   UNL     1      -5.725  29.551 108.097  1.00  0.00    -0.000 C 
BRANCH  13  14
ATOM     14  C   UNL     1      -4.534  29.750 107.141  1.00  0.00    -0.000 C 
BRANCH  14  15
ATOM     15  C   UNL     1      -3.975  31.189 107.136  1.00  0.00    -0.003 C 
ATOM     16  C   UNL     1      -4.896  32.183 107.844  1.00  0.00     0.004 C 
ENDBRANCH  14  15
ENDBRANCH  13  14
ENDBRANCH  12  13
ENDBRANCH  11  12
ENDBRANCH  10  11
ENDBRANCH   1  10
TORSDOF 12
ENDMDL
MODEL 2
REMARK VINA RESULT:    -2.947      3.183      5.614
REMARK INTER + INTRA:          -6.868
REMARK INTER:                  -4.934
REMARK INTRA:                  -1.934
REMARK UNBOUND:                -1.853
REMARK SMILES CCCCCCCCCCCCCC(=O)[O-]
REMARK SMILES IDX 8 1 9 2 10 3 11 4 12 5 13 6 14 7 15 8 16 9 7 10 6 11 5 12
REMARK SMILES IDX 4 13 3 14 2 15 1 16
REMARK H PARENT
REMARK Flexibility Score: inf
ROOT
ATOM      1  C   UNL     1      -4.335  33.539 106.884  1.00  0.00     0.000 C 
ENDROOT
BRANCH   1   2
ATOM      2  C   UNL     1      -3.651  32.200 106.563  1.00  0.00     0.000 C 
BRANCH   2   3
ATOM      3  C   UNL     1      -3.860  31.150 107.668  1.00  0.00     0.000 C 
BRANCH   3   4
ATOM      4  C   UNL     1      -4.694  29.951 107.191  1.00  0.00     0.000 C 
BRANCH   4   5
ATOM      5  C   UNL     1      -6.086  29.900 107.845  1.00  0.00     0.006 C 
BRANCH   5   6
ATOM      6  C   UNL     1      -6.854  28.626 107.474  1.00  0.00     0.053 C 
BRANCH   6   7
ATOM      7  C   UNL     1      -8.021  28.920 106.584  1.00  0.00     0.041 C 
ATOM      8  O   UNL     1      -8.802  29.870 106.853  1.00  0.00    -0.550 OA
ATOM      9  O   UNL     1      -8.267  28.122 105.474  1.00  0.00    -0.550 OA
ENDBRANCH   6   7
ENDBRANCH   5   6
ENDBRANCH   4   5
ENDBRANCH   3   4
ENDBRANCH   2   3
ENDBRANCH   1   2
BRANCH   1  10
ATOM     10  C   UNL     1      -5.827  33.375 107.220  1.00  0.00     0.000 C 
BRANCH  10  11
ATOM     11  C   UNL     1      -6.706  33.858 106.057  1.00  0.00    -0.000 C 
BRANCH  11  12
ATOM     12  C   UNL     1      -7.438  32.709 105.340  1.00  0.00    -0.000 C 
BRANCH  12  13
ATOM     13  C   UNL     1      -6.782  32.238 104.029  1.00  0.00    -0.000 C 
BRANCH  13  14
ATOM     14  C   UNL     1      -6.205  30.810 104.063  1.00  0.00    -0.000 C 
BRANCH  14  15
ATOM     15  C   UNL     1      -4.773  30.704 103.497  1.00  0.00    -0.003 C 
ATOM     16  C   UNL     1      -4.219  32.052 103.036  1.00  0.00     0.004 C 
ENDBRANCH  14  15
ENDBRANCH  13  14
ENDBRANCH  12  13
ENDBRANCH  11  12
ENDBRANCH  10  11
ENDBRANCH   1  10
TORSDOF 12
ENDMDL
MODEL 3
REMARK VINA RESULT:    -2.915      4.087      6.542
REMARK INTER + INTRA:          -6.814
REMARK INTER:                  -4.854
REMARK INTRA:                  -1.960
REMARK UNBOUND:                -1.853
REMARK SMILES CCCCCCCCCCCCCC(=O)[O-]
REMARK SMILES IDX 8 1 9 2 10 3 11 4 12 5 13 6 14 7 15 8 16 9 7 10 6 11 5 12
REMARK SMILES IDX 4 13 3 14 2 15 1 16
REMARK H PARENT
REMARK Flexibility Score: inf
ROOT
ATOM      1  C   UNL     1      -5.992  29.818 107.828  1.00  0.00     0.000 C 
ENDROOT
BRANCH   1   2
ATOM      2  C   UNL     1      -6.951  28.833 107.141  1.00  0.00     0.000 C 
BRANCH   2   3
ATOM      3  C   UNL     1      -8.184  29.530 106.541  1.00  0.00     0.000 C 
BRANCH   3   4
ATOM      4  C   UNL     1      -8.533  30.838 107.269  1.00  0.00     0.000 C 
BRANCH   4   5
ATOM      5  C   UNL     1      -9.560  31.688 106.500  1.00  0.00     0.006 C 
BRANCH   5   6
ATOM      6  C   UNL     1     -10.969  31.085 106.556  1.00  0.00     0.053 C 
BRANCH   6   7
ATOM      7  C   UNL     1     -11.540  31.139 107.939  1.00  0.00     0.041 C 
ATOM      8  O   UNL     1     -12.139  30.141 108.418  1.00  0.00    -0.550 OA
ATOM      9  O   UNL     1     -11.442  32.306 108.686  1.00  0.00    -0.550 OA
ENDBRANCH   6   7
ENDBRANCH   5   6
ENDBRANCH   4   5
ENDBRANCH   3   4
ENDBRANCH   2   3
ENDBRANCH   1   2
BRANCH   1  10
ATOM     10  C   UNL     1      -4.592  29.822 107.191  1.00  0.00     0.000 C 
BRANCH  10  11
ATOM     11  C   UNL     1      -4.056  31.255 107.056  1.00  0.00    -0.000 C 
BRANCH  11  12
ATOM     12  C   UNL     1      -5.167  32.290 106.798  1.00  0.00    -0.000 C 
BRANCH  12  13
ATOM     13  C   UNL     1      -5.254  32.803 105.349  1.00  0.00    -0.000 C 
BRANCH  13  14
ATOM     14  C   UNL     1      -6.395  32.198 104.509  1.00  0.00    -0.000 C 
BRANCH  14  15
ATOM     15  C   UNL     1      -6.055  30.823 103.897  1.00  0.00    -0.003 C 
ATOM     16  C   UNL     1      -4.610  30.735 103.409  1.00  0.00     0.004 C 
ENDBRANCH  14  15
ENDBRANCH  13  14
ENDBRANCH  12  13
ENDBRANCH  11  12
ENDBRANCH  10  11
ENDBRANCH   1  10
TORSDOF 12
ENDMDL
MODEL 4
REMARK VINA RESULT:    -2.912     18.212     19.895
REMARK INTER + INTRA:          -6.808
REMARK INTER:                  -4.893
REMARK INTRA:                  -1.914
REMARK UNBOUND:                -1.853
REMARK SMILES CCCCCCCCCCCCCC(=O)[O-]
REMARK SMILES IDX 8 1 9 2 10 3 11 4 12 5 13 6 14 7 15 8 16 9 7 10 6 11 5 12
REMARK SMILES IDX 4 13 3 14 2 15 1 16
REMARK H PARENT
REMARK Flexibility Score: inf
ROOT
ATOM      1  C   UNL     1     -17.483  41.100  95.940  1.00  0.00     0.000 C 
ENDROOT
BRANCH   1   2
ATOM      2  C   UNL     1     -18.896  41.164  95.340  1.00  0.00     0.000 C 
BRANCH   2   3
ATOM      3  C   UNL     1     -18.883  41.270  93.805  1.00  0.00     0.000 C 
BRANCH   3   4
ATOM      4  C   UNL     1     -20.188  40.767  93.168  1.00  0.00     0.000 C 
BRANCH   4   5
ATOM      5  C   UNL     1     -20.098  39.300  92.715  1.00  0.00     0.006 C 
BRANCH   5   6
ATOM      6  C   UNL     1     -19.130  39.115  91.540  1.00  0.00     0.053 C 
BRANCH   6   7
ATOM      7  C   UNL     1     -19.331  37.797  90.858  1.00  0.00     0.041 C 
ATOM      8  O   UNL     1     -19.569  37.752  89.622  1.00  0.00    -0.550 OA
ATOM      9  O   UNL     1     -19.290  36.620  91.594  1.00  0.00    -0.550 OA
ENDBRANCH   6   7
ENDBRANCH   5   6
ENDBRANCH   4   5
ENDBRANCH   3   4
ENDBRANCH   2   3
ENDBRANCH   1   2
BRANCH   1  10
ATOM     10  C   UNL     1     -16.382  41.153  94.867  1.00  0.00     0.000 C 
BRANCH  10  11
ATOM     11  C   UNL     1     -15.584  39.842  94.836  1.00  0.00    -0.000 C 
BRANCH  11  12
ATOM     12  C   UNL     1     -15.800  39.039  93.540  1.00  0.00    -0.000 C 
BRANCH  12  13
ATOM     13  C   UNL     1     -16.643  37.760  93.699  1.00  0.00    -0.000 C 
BRANCH  13  14
ATOM     14  C   UNL     1     -17.449  37.668  95.009  1.00  0.00    -0.000 C 
BRANCH  14  15
ATOM     15  C   UNL     1     -18.475  36.516  95.028  1.00  0.00    -0.003 C 
ATOM     16  C   UNL     1     -19.829  36.940  95.596  1.00  0.00     0.004 C 
ENDBRANCH  14  15
ENDBRANCH  13  14
ENDBRANCH  12  13
ENDBRANCH  11  12
ENDBRANCH  10  11
ENDBRANCH   1  10
TORSDOF 12
ENDMDL
MODEL 5
REMARK VINA RESULT:    -2.903     13.618     16.142
REMARK INTER + INTRA:          -6.793
REMARK INTER:                  -5.488
REMARK INTRA:                  -1.304
REMARK UNBOUND:                -1.853
REMARK SMILES CCCCCCCCCCCCCC(=O)[O-]
REMARK SMILES IDX 8 1 9 2 10 3 11 4 12 5 13 6 14 7 15 8 16 9 7 10 6 11 5 12
REMARK SMILES IDX 4 13 3 14 2 15 1 16
REMARK H PARENT
REMARK Flexibility Score: inf
ROOT
ATOM      1  C   UNL     1      -4.687  43.626  95.475  1.00  0.00     0.000 C 
ENDROOT
BRANCH   1   2
ATOM      2  C   UNL     1      -3.993  43.118  96.748  1.00  0.00     0.000 C 
BRANCH   2   3
ATOM      3  C   UNL     1      -3.801  41.591  96.748  1.00  0.00     0.000 C 
BRANCH   3   4
ATOM      4  C   UNL     1      -2.341  41.181  97.000  1.00  0.00     0.000 C 
BRANCH   4   5
ATOM      5  C   UNL     1      -1.853  40.100  96.020  1.00  0.00     0.006 C 
BRANCH   5   6
ATOM      6  C   UNL     1      -2.480  40.255  94.628  1.00  0.00     0.053 C 
BRANCH   6   7
ATOM      7  C   UNL     1      -1.850  39.332  93.631  1.00  0.00     0.041 C 
ATOM      8  O   UNL     1      -1.002  38.479  94.002  1.00  0.00    -0.550 OA
ATOM      9  O   UNL     1      -2.174  39.439  92.285  1.00  0.00    -0.550 OA
ENDBRANCH   6   7
ENDBRANCH   5   6
ENDBRANCH   4   5
ENDBRANCH   3   4
ENDBRANCH   2   3
ENDBRANCH   1   2
BRANCH   1  10
ATOM     10  C   UNL     1      -3.775  44.526  94.624  1.00  0.00     0.000 C 
BRANCH  10  11
ATOM     11  C   UNL     1      -2.378  44.638  95.250  1.00  0.00    -0.000 C 
BRANCH  11  12
ATOM     12  C   UNL     1      -1.726  46.013  95.020  1.00  0.00    -0.000 C 
BRANCH  12  13
ATOM     13  C   UNL     1      -2.099  47.092  96.054  1.00  0.00    -0.000 C 
BRANCH  13  14
ATOM     14  C   UNL     1      -2.375  46.567  97.475  1.00  0.00    -0.000 C 
BRANCH  14  15
ATOM     15  C   UNL     1      -3.847  46.706  97.916  1.00  0.00    -0.003 C 
ATOM     16  C   UNL     1      -4.006  46.767  99.434  1.00  0.00     0.004 C 
ENDBRANCH  14  15
ENDBRANCH  13  14
ENDBRANCH  12  13
ENDBRANCH  11  12
ENDBRANCH  10  11
ENDBRANCH   1  10
TORSDOF 12
ENDMDL
MODEL 6
REMARK VINA RESULT:    -2.867     12.204     14.615
REMARK INTER + INTRA:          -6.732
REMARK INTER:                  -5.112
REMARK INTRA:                  -1.620
REMARK UNBOUND:                -1.853
REMARK SMILES CCCCCCCCCCCCCC(=O)[O-]
REMARK SMILES IDX 8 1 9 2 10 3 11 4 12 5 13 6 14 7 15 8 16 9 7 10 6 11 5 12
REMARK SMILES IDX 4 13 3 14 2 15 1 16
REMARK H PARENT
REMARK Flexibility Score: inf
ROOT
ATOM      1  C   UNL     1      -3.408  39.979  97.299  1.00  0.00     0.000 C 
ENDROOT
BRANCH   1   2
ATOM      2  C   UNL     1      -2.236  40.860  96.838  1.00  0.00     0.000 C 
BRANCH   2   3
ATOM      3  C   UNL     1      -2.704  42.161  96.163  1.00  0.00     0.000 C 
BRANCH   3   4
ATOM      4  C   UNL     1      -4.148  42.532  96.537  1.00  0.00     0.000 C 
BRANCH   4   5
ATOM      5  C   UNL     1      -4.263  43.954  97.115  1.00  0.00     0.006 C 
BRANCH   5   6
ATOM      6  C   UNL     1      -3.103  44.854  96.673  1.00  0.00     0.053 C 
BRANCH   6   7
ATOM      7  C   UNL     1      -3.009  46.090  97.513  1.00  0.00     0.041 C 
ATOM      8  O   UNL     1      -3.870  46.322  98.401  1.00  0.00    -0.550 OA
ATOM      9  O   UNL     1      -1.988  47.006  97.289  1.00  0.00    -0.550 OA
ENDBRANCH   6   7
ENDBRANCH   5   6
ENDBRANCH   4   5
ENDBRANCH   3   4
ENDBRANCH   2   3
ENDBRANCH   1   2
BRANCH   1  10
ATOM     10  C   UNL     1      -3.134  38.480  97.102  1.00  0.00     0.000 C 
BRANCH  10  11
ATOM     11  C   UNL     1      -1.652  38.231  96.783  1.00  0.00    -0.000 C 
BRANCH  11  12
ATOM     12  C   UNL     1      -1.441  37.115  95.744  1.00  0.00    -0.000 C 
BRANCH  12  13
ATOM     13  C   UNL     1      -1.756  37.512  94.290  1.00  0.00    -0.000 C 
BRANCH  13  14
ATOM     14  C   UNL     1      -1.228  38.894  93.861  1.00  0.00    -0.000 C 
BRANCH  14  15
ATOM     15  C   UNL     1      -2.248  39.727  93.055  1.00  0.00    -0.003 C 
ATOM     16  C   UNL     1      -3.683  39.538  93.546  1.00  0.00     0.004 C 
ENDBRANCH  14  15
ENDBRANCH  13  14
ENDBRANCH  12  13
ENDBRANCH  11  12
ENDBRANCH  10  11
ENDBRANCH   1  10
TORSDOF 12
ENDMDL
MODEL 7
REMARK VINA RESULT:    -2.865     13.182     15.418
REMARK INTER + INTRA:          -6.728
REMARK INTER:                  -5.222
REMARK INTRA:                  -1.506
REMARK UNBOUND:                -1.853
REMARK SMILES CCCCCCCCCCCCCC(=O)[O-]
REMARK SMILES IDX 8 1 9 2 10 3 11 4 12 5 13 6 14 7 15 8 16 9 7 10 6 11 5 12
REMARK SMILES IDX 4 13 3 14 2 15 1 16
REMARK H PARENT
REMARK Flexibility Score: inf
ROOT
ATOM      1  C   UNL     1      -1.598  39.649  96.001  1.00  0.00     0.000 C 
ENDROOT
BRANCH   1   2
ATOM      2  C   UNL     1      -2.591  39.842  97.158  1.00  0.00     0.000 C 
BRANCH   2   3
ATOM      3  C   UNL     1      -3.380  41.158  97.047  1.00  0.00     0.000 C 
BRANCH   3   4
ATOM      4  C   UNL     1      -2.753  42.137  96.040  1.00  0.00     0.000 C 
BRANCH   4   5
ATOM      5  C   UNL     1      -3.020  43.608  96.402  1.00  0.00     0.006 C 
BRANCH   5   6
ATOM      6  C   UNL     1      -2.850  44.541  95.196  1.00  0.00     0.053 C 
BRANCH   6   7
ATOM      7  C   UNL     1      -2.102  45.786  95.558  1.00  0.00     0.041 C 
ATOM      8  O   UNL     1      -2.594  46.608  96.375  1.00  0.00    -0.550 OA
ATOM      9  O   UNL     1      -0.875  46.056  94.966  1.00  0.00    -0.550 OA
ENDBRANCH   6   7
ENDBRANCH   5   6
ENDBRANCH   4   5
ENDBRANCH   3   4
ENDBRANCH   2   3
ENDBRANCH   1   2
BRANCH   1  10
ATOM     10  C   UNL     1      -1.342  38.168  95.682  1.00  0.00     0.000 C 
BRANCH  10  11
ATOM     11  C   UNL     1      -1.100  37.965  94.179  1.00  0.00    -0.000 C 
BRANCH  11  12
ATOM     12  C   UNL     1      -1.326  39.247  93.357  1.00  0.00    -0.000 C 
BRANCH  12  13
ATOM     13  C   UNL     1      -2.359  39.118  92.221  1.00  0.00    -0.000 C 
BRANCH  13  14
ATOM     14  C   UNL     1      -3.782  38.742  92.673  1.00  0.00    -0.000 C 
BRANCH  14  15
ATOM     15  C   UNL     1      -4.427  39.774  93.622  1.00  0.00    -0.003 C 
ATOM     16  C   UNL     1      -4.565  41.156  92.986  1.00  0.00     0.004 C 
ENDBRANCH  14  15
ENDBRANCH  13  14
ENDBRANCH  12  13
ENDBRANCH  11  12
ENDBRANCH  10  11
ENDBRANCH   1  10
TORSDOF 12
ENDMDL
MODEL 8
REMARK VINA RESULT:    -2.863      3.178      5.995
REMARK INTER + INTRA:          -6.724
REMARK INTER:                  -4.630
REMARK INTRA:                  -2.094
REMARK UNBOUND:                -1.853
REMARK SMILES CCCCCCCCCCCCCC(=O)[O-]
REMARK SMILES IDX 8 1 9 2 10 3 11 4 12 5 13 6 14 7 15 8 16 9 7 10 6 11 5 12
REMARK SMILES IDX 4 13 3 14 2 15 1 16
REMARK H PARENT
REMARK Flexibility Score: inf
ROOT
ATOM      1  C   UNL     1      -4.378  33.777 106.632  1.00  0.00     0.000 C 
ENDROOT
BRANCH   1   2
ATOM      2  C   UNL     1      -3.962  32.330 106.938  1.00  0.00     0.000 C 
BRANCH   2   3
ATOM      3  C   UNL     1      -5.120  31.489 107.504  1.00  0.00     0.000 C 
BRANCH   3   4
ATOM      4  C   UNL     1      -4.823  29.981 107.471  1.00  0.00     0.000 C 
BRANCH   4   5
ATOM      5  C   UNL     1      -6.088  29.134 107.245  1.00  0.00     0.006 C 
BRANCH   5   6
ATOM      6  C   UNL     1      -7.369  29.974 107.325  1.00  0.00     0.053 C 
BRANCH   6   7
ATOM      7  C   UNL     1      -8.479  29.371 106.521  1.00  0.00     0.041 C 
ATOM      8  O   UNL     1      -8.272  28.343 105.824  1.00  0.00    -0.550 OA
ATOM      9  O   UNL     1      -9.734  29.966 106.514  1.00  0.00    -0.550 OA
ENDBRANCH   6   7
ENDBRANCH   5   6
ENDBRANCH   4   5
ENDBRANCH   3   4
ENDBRANCH   2   3
ENDBRANCH   1   2
BRANCH   1  10
ATOM     10  C   UNL     1      -3.854  34.268 105.272  1.00  0.00     0.000 C 
BRANCH  10  11
ATOM     11  C   UNL     1      -2.670  33.412 104.800  1.00  0.00    -0.000 C 
BRANCH  11  12
ATOM     12  C   UNL     1      -2.883  32.815 103.397  1.00  0.00    -0.000 C 
BRANCH  12  13
ATOM     13  C   UNL     1      -4.314  32.326 103.108  1.00  0.00    -0.000 C 
BRANCH  13  14
ATOM     14  C   UNL     1      -4.630  30.901 103.601  1.00  0.00    -0.000 C 
BRANCH  14  15
ATOM     15  C   UNL     1      -6.121  30.672 103.927  1.00  0.00    -0.003 C 
ATOM     16  C   UNL     1      -6.872  31.974 104.202  1.00  0.00     0.004 C 
ENDBRANCH  14  15
ENDBRANCH  13  14
ENDBRANCH  12  13
ENDBRANCH  11  12
ENDBRANCH  10  11
ENDBRANCH   1  10
TORSDOF 12
ENDMDL
MODEL 9
REMARK VINA RESULT:    -2.829     18.004     19.720
REMARK INTER + INTRA:          -6.667
REMARK INTER:                  -5.055
REMARK INTRA:                  -1.612
REMARK UNBOUND:                -1.853
REMARK SMILES CCCCCCCCCCCCCC(=O)[O-]
REMARK SMILES IDX 8 1 9 2 10 3 11 4 12 5 13 6 14 7 15 8 16 9 7 10 6 11 5 12
REMARK SMILES IDX 4 13 3 14 2 15 1 16
REMARK H PARENT
REMARK Flexibility Score: inf
ROOT
ATOM      1  C   UNL     1     -18.345  41.442  95.038  1.00  0.00     0.000 C 
ENDROOT
BRANCH   1   2
ATOM      2  C   UNL     1     -16.864  41.093  94.821  1.00  0.00     0.000 C 
BRANCH   2   3
ATOM      3  C   UNL     1     -16.497  39.704  95.373  1.00  0.00     0.000 C 
BRANCH   3   4
ATOM      4  C   UNL     1     -16.632  38.596  94.317  1.00  0.00     0.000 C 
BRANCH   4   5
ATOM      5  C   UNL     1     -16.462  39.123  92.881  1.00  0.00     0.006 C 
BRANCH   5   6
ATOM      6  C   UNL     1     -15.370  38.369  92.113  1.00  0.00     0.053 C 
BRANCH   6   7
ATOM      7  C   UNL     1     -14.135  39.199  91.946  1.00  0.00     0.041 C 
ATOM      8  O   UNL     1     -13.472  39.561  92.954  1.00  0.00    -0.550 OA
ATOM      9  O   UNL     1     -13.735  39.604  90.679  1.00  0.00    -0.550 OA
ENDBRANCH   6   7
ENDBRANCH   5   6
ENDBRANCH   4   5
ENDBRANCH   3   4
ENDBRANCH   2   3
ENDBRANCH   1   2
BRANCH   1  10
ATOM     10  C   UNL     1     -19.142  41.483  93.725  1.00  0.00     0.000 C 
BRANCH  10  11
ATOM     11  C   UNL     1     -20.136  40.315  93.650  1.00  0.00    -0.000 C 
BRANCH  11  12
ATOM     12  C   UNL     1     -20.248  39.711  92.238  1.00  0.00    -0.000 C 
BRANCH  12  13
ATOM     13  C   UNL     1     -19.926  38.208  92.146  1.00  0.00    -0.000 C 
BRANCH  13  14
ATOM     14  C   UNL     1     -19.325  37.750  90.803  1.00  0.00    -0.000 C 
BRANCH  14  15
ATOM     15  C   UNL     1     -18.638  36.370  90.868  1.00  0.00    -0.003 C 
ATOM     16  C   UNL     1     -17.513  36.222  89.844  1.00  0.00     0.004 C 
ENDBRANCH  14  15
ENDBRANCH  13  14
ENDBRANCH  12  13
ENDBRANCH  11  12
ENDBRANCH  10  11
ENDBRANCH   1  10
TORSDOF 12
ENDMDL
