MODEL 1
REMARK VINA RESULT:    -6.145      0.000      0.000
REMARK INTER + INTRA:          -6.325
REMARK INTER:                  -6.325
REMARK INTRA:                   0.000
REMARK UNBOUND:                 0.000
REMARK SMILES O=c1ccc2ccc(O)cc2o1
REMARK SMILES IDX 6 1 7 2 8 3 10 4 11 5 5 6 4 7 3 8 2 9 1 10 12 11 9 12
REMARK H PARENT 9 13
REMARK Flexibility Score: inf
ROOT
ATOM      1  C   UNL     1     -32.235   9.031 -33.839  1.00  0.00     0.016 A 
ATOM      2  C   UNL     1     -32.174   9.402 -32.492  1.00  0.00     0.047 A 
ATOM      3  C   UNL     1     -32.712  10.625 -32.070  1.00  0.00     0.119 A 
ATOM      4  C   UNL     1     -33.315  11.482 -33.000  1.00  0.00     0.094 A 
ATOM      5  C   UNL     1     -33.382  11.120 -34.350  1.00  0.00     0.142 A 
ATOM      6  C   UNL     1     -32.837   9.886 -34.773  1.00  0.00     0.018 A 
ATOM      7  C   UNL     1     -32.918   9.551 -36.127  1.00  0.00     0.019 A 
ATOM      8  C   UNL     1     -33.528  10.436 -37.016  1.00  0.00     0.094 A 
ATOM      9  C   UNL     1     -34.044  11.641 -36.526  1.00  0.00     0.336 A 
ATOM     10  O   UNL     1     -34.599  12.453 -37.312  1.00  0.00    -0.246 OA
ATOM     11  O   UNL     1     -33.955  11.935 -35.231  1.00  0.00    -0.423 OA
ENDROOT
BRANCH   3  12
ATOM     12  O   UNL     1     -32.640  10.976 -30.724  1.00  0.00    -0.508 OA
ATOM     13  H   UNL     1     -33.070  11.825 -30.375  1.00  0.00     0.293 HD
ENDBRANCH   3  12
TORSDOF 1
ENDMDL
MODEL 2
REMARK VINA RESULT:    -6.077      0.830      4.224
REMARK INTER + INTRA:          -6.254
REMARK INTER:                  -6.254
REMARK INTRA:                   0.000
REMARK UNBOUND:                 0.000
REMARK SMILES O=c1ccc2ccc(O)cc2o1
REMARK SMILES IDX 6 1 7 2 8 3 10 4 11 5 5 6 4 7 3 8 2 9 1 10 12 11 9 12
REMARK H PARENT 9 13
REMARK Flexibility Score: inf
ROOT
ATOM      1  C   UNL     1     -33.195   9.505 -36.188  1.00  0.00     0.016 A 
ATOM      2  C   UNL     1     -33.761  10.467 -37.031  1.00  0.00     0.047 A 
ATOM      3  C   UNL     1     -34.091  11.735 -36.536  1.00  0.00     0.119 A 
ATOM      4  C   UNL     1     -33.853  12.044 -35.189  1.00  0.00     0.094 A 
ATOM      5  C   UNL     1     -33.288  11.088 -34.339  1.00  0.00     0.142 A 
ATOM      6  C   UNL     1     -32.956   9.810 -34.841  1.00  0.00     0.018 A 
ATOM      7  C   UNL     1     -32.392   8.876 -33.967  1.00  0.00     0.019 A 
ATOM      8  C   UNL     1     -32.175   9.229 -32.635  1.00  0.00     0.094 A 
ATOM      9  C   UNL     1     -32.529  10.513 -32.208  1.00  0.00     0.336 A 
ATOM     10  O   UNL     1     -32.339  10.851 -31.010  1.00  0.00    -0.246 OA
ATOM     11  O   UNL     1     -33.063  11.384 -33.060  1.00  0.00    -0.423 OA
ENDROOT
BRANCH   3  12
ATOM     12  O   UNL     1     -34.654  12.679 -37.392  1.00  0.00    -0.508 OA
ATOM     13  H   UNL     1     -34.145  13.041 -38.189  1.00  0.00     0.293 HD
ENDBRANCH   3  12
TORSDOF 1
ENDMDL
MODEL 3
REMARK VINA RESULT:    -5.917      1.462      4.062
REMARK INTER + INTRA:          -6.090
REMARK INTER:                  -6.090
REMARK INTRA:                   0.000
REMARK UNBOUND:                 0.000
REMARK SMILES O=c1ccc2ccc(O)cc2o1
REMARK SMILES IDX 6 1 7 2 8 3 10 4 11 5 5 6 4 7 3 8 2 9 1 10 12 11 9 12
REMARK H PARENT 9 13
REMARK Flexibility Score: inf
ROOT
ATOM      1  C   UNL     1     -31.668   8.875 -34.446  1.00  0.00     0.016 A 
ATOM      2  C   UNL     1     -31.872   8.935 -35.828  1.00  0.00     0.047 A 
ATOM      3  C   UNL     1     -32.704   9.918 -36.379  1.00  0.00     0.119 A 
ATOM      4  C   UNL     1     -33.337  10.848 -35.542  1.00  0.00     0.094 A 
ATOM      5  C   UNL     1     -33.139  10.796 -34.158  1.00  0.00     0.142 A 
ATOM      6  C   UNL     1     -32.300   9.803 -33.606  1.00  0.00     0.018 A 
ATOM      7  C   UNL     1     -32.122   9.776 -32.219  1.00  0.00     0.019 A 
ATOM      8  C   UNL     1     -32.772  10.721 -31.427  1.00  0.00     0.094 A 
ATOM      9  C   UNL     1     -33.589  11.675 -32.043  1.00  0.00     0.336 A 
ATOM     10  O   UNL     1     -34.184  12.538 -31.345  1.00  0.00    -0.246 OA
ATOM     11  O   UNL     1     -33.741  11.679 -33.365  1.00  0.00    -0.423 OA
ENDROOT
BRANCH   3  12
ATOM     12  O   UNL     1     -32.894   9.961 -37.758  1.00  0.00    -0.508 OA
ATOM     13  H   UNL     1     -33.708  10.405 -38.167  1.00  0.00     0.293 HD
ENDBRANCH   3  12
TORSDOF 1
ENDMDL
MODEL 4
REMARK VINA RESULT:    -5.868      1.445      1.895
REMARK INTER + INTRA:          -6.039
REMARK INTER:                  -6.039
REMARK INTRA:                   0.000
REMARK UNBOUND:                 0.000
REMARK SMILES O=c1ccc2ccc(O)cc2o1
REMARK SMILES IDX 6 1 7 2 8 3 10 4 11 5 5 6 4 7 3 8 2 9 1 10 12 11 9 12
REMARK H PARENT 9 13
REMARK Flexibility Score: inf
ROOT
ATOM      1  C   UNL     1     -31.935   9.772 -32.522  1.00  0.00     0.016 A 
ATOM      2  C   UNL     1     -32.694  10.611 -31.700  1.00  0.00     0.047 A 
ATOM      3  C   UNL     1     -33.712  11.403 -32.245  1.00  0.00     0.119 A 
ATOM      4  C   UNL     1     -33.975  11.356 -33.621  1.00  0.00     0.094 A 
ATOM      5  C   UNL     1     -33.222  10.520 -34.451  1.00  0.00     0.142 A 
ATOM      6  C   UNL     1     -32.194   9.723 -33.899  1.00  0.00     0.018 A 
ATOM      7  C   UNL     1     -31.458   8.897 -34.754  1.00  0.00     0.019 A 
ATOM      8  C   UNL     1     -31.756   8.884 -36.116  1.00  0.00     0.094 A 
ATOM      9  C   UNL     1     -32.787   9.700 -36.593  1.00  0.00     0.336 A 
ATOM     10  O   UNL     1     -33.071   9.702 -37.820  1.00  0.00    -0.246 OA
ATOM     11  O   UNL     1     -33.473  10.476 -35.758  1.00  0.00    -0.423 OA
ENDROOT
BRANCH   3  12
ATOM     12  O   UNL     1     -34.457  12.232 -31.409  1.00  0.00    -0.508 OA
ATOM     13  H   UNL     1     -35.460  12.128 -31.317  1.00  0.00     0.293 HD
ENDBRANCH   3  12
TORSDOF 1
ENDMDL
MODEL 5
REMARK VINA RESULT:    -5.828      1.744      2.316
REMARK INTER + INTRA:          -5.999
REMARK INTER:                  -5.999
REMARK INTRA:                   0.000
REMARK UNBOUND:                 0.000
REMARK SMILES O=c1ccc2ccc(O)cc2o1
REMARK SMILES IDX 6 1 7 2 8 3 10 4 11 5 5 6 4 7 3 8 2 9 1 10 12 11 9 12
REMARK H PARENT 9 13
REMARK Flexibility Score: inf
ROOT
ATOM      1  C   UNL     1     -33.418  11.925 -33.869  1.00  0.00     0.016 A 
ATOM      2  C   UNL     1     -33.234  11.271 -32.647  1.00  0.00     0.047 A 
ATOM      3  C   UNL     1     -33.399   9.884 -32.555  1.00  0.00     0.119 A 
ATOM      4  C   UNL     1     -33.750   9.144 -33.693  1.00  0.00     0.094 A 
ATOM      5  C   UNL     1     -33.937   9.789 -34.920  1.00  0.00     0.142 A 
ATOM      6  C   UNL     1     -33.771  11.190 -35.009  1.00  0.00     0.018 A 
ATOM      7  C   UNL     1     -33.964  11.807 -36.248  1.00  0.00     0.019 A 
ATOM      8  C   UNL     1     -34.312  11.030 -37.353  1.00  0.00     0.094 A 
ATOM      9  C   UNL     1     -34.461   9.648 -37.190  1.00  0.00     0.336 A 
ATOM     10  O   UNL     1     -34.774   8.929 -38.175  1.00  0.00    -0.246 OA
ATOM     11  O   UNL     1     -34.270   9.086 -35.999  1.00  0.00    -0.423 OA
ENDROOT
BRANCH   3  12
ATOM     12  O   UNL     1     -33.211   9.251 -31.328  1.00  0.00    -0.508 OA
ATOM     13  H   UNL     1     -33.902   8.613 -30.950  1.00  0.00     0.293 HD
ENDBRANCH   3  12
TORSDOF 1
ENDMDL
MODEL 6
REMARK VINA RESULT:    -5.338      1.713      4.638
REMARK INTER + INTRA:          -5.494
REMARK INTER:                  -5.494
REMARK INTRA:                   0.000
REMARK UNBOUND:                 0.000
REMARK SMILES O=c1ccc2ccc(O)cc2o1
REMARK SMILES IDX 6 1 7 2 8 3 10 4 11 5 5 6 4 7 3 8 2 9 1 10 12 11 9 12
REMARK H PARENT 9 13
REMARK Flexibility Score: inf
ROOT
ATOM      1  C   UNL     1     -33.988  11.612 -35.843  1.00  0.00     0.016 A 
ATOM      2  C   UNL     1     -33.603  10.865 -36.961  1.00  0.00     0.047 A 
ATOM      3  C   UNL     1     -32.766   9.753 -36.814  1.00  0.00     0.119 A 
ATOM      4  C   UNL     1     -32.309   9.383 -35.541  1.00  0.00     0.094 A 
ATOM      5  C   UNL     1     -32.688  10.124 -34.417  1.00  0.00     0.142 A 
ATOM      6  C   UNL     1     -33.532  11.247 -34.568  1.00  0.00     0.018 A 
ATOM      7  C   UNL     1     -33.894  11.968 -33.426  1.00  0.00     0.019 A 
ATOM      8  C   UNL     1     -33.415  11.563 -32.181  1.00  0.00     0.094 A 
ATOM      9  C   UNL     1     -32.581  10.442 -32.107  1.00  0.00     0.336 A 
ATOM     10  O   UNL     1     -32.139  10.060 -30.992  1.00  0.00    -0.246 OA
ATOM     11  O   UNL     1     -32.253   9.772 -33.209  1.00  0.00    -0.423 OA
ENDROOT
BRANCH   3  12
ATOM     12  O   UNL     1     -32.394   9.022 -37.941  1.00  0.00    -0.508 OA
ATOM     13  H   UNL     1     -32.696   9.291 -38.870  1.00  0.00     0.293 HD
ENDBRANCH   3  12
TORSDOF 1
ENDMDL
MODEL 7
REMARK VINA RESULT:    -5.271      1.816      4.911
REMARK INTER + INTRA:          -5.425
REMARK INTER:                  -5.425
REMARK INTRA:                   0.000
REMARK UNBOUND:                 0.000
REMARK SMILES O=c1ccc2ccc(O)cc2o1
REMARK SMILES IDX 6 1 7 2 8 3 10 4 11 5 5 6 4 7 3 8 2 9 1 10 12 11 9 12
REMARK H PARENT 9 13
REMARK Flexibility Score: inf
ROOT
ATOM      1  C   UNL     1     -34.338  12.048 -36.566  1.00  0.00     0.016 A 
ATOM      2  C   UNL     1     -34.748  11.435 -37.754  1.00  0.00     0.047 A 
ATOM      3  C   UNL     1     -34.681  10.043 -37.892  1.00  0.00     0.119 A 
ATOM      4  C   UNL     1     -34.201   9.258 -36.835  1.00  0.00     0.094 A 
ATOM      5  C   UNL     1     -33.788   9.862 -35.642  1.00  0.00     0.142 A 
ATOM      6  C   UNL     1     -33.856  11.266 -35.507  1.00  0.00     0.018 A 
ATOM      7  C   UNL     1     -33.437  11.841 -34.304  1.00  0.00     0.019 A 
ATOM      8  C   UNL     1     -32.967  11.019 -33.280  1.00  0.00     0.094 A 
ATOM      9  C   UNL     1     -32.927   9.636 -33.485  1.00  0.00     0.336 A 
ATOM     10  O   UNL     1     -32.506   8.877 -32.572  1.00  0.00    -0.246 OA
ATOM     11  O   UNL     1     -33.333   9.114 -34.640  1.00  0.00    -0.423 OA
ENDROOT
BRANCH   3  12
ATOM     12  O   UNL     1     -35.094   9.452 -39.084  1.00  0.00    -0.508 OA
ATOM     13  H   UNL     1     -34.781   8.526 -39.352  1.00  0.00     0.293 HD
ENDBRANCH   3  12
TORSDOF 1
ENDMDL
MODEL 8
REMARK VINA RESULT:    -4.686      2.109      2.862
REMARK INTER + INTRA:          -4.823
REMARK INTER:                  -4.823
REMARK INTRA:                   0.000
REMARK UNBOUND:                 0.000
REMARK SMILES O=c1ccc2ccc(O)cc2o1
REMARK SMILES IDX 6 1 7 2 8 3 10 4 11 5 5 6 4 7 3 8 2 9 1 10 12 11 9 12
REMARK H PARENT 9 13
REMARK Flexibility Score: inf
ROOT
ATOM      1  C   UNL     1     -34.048  12.212 -32.753  1.00  0.00     0.016 A 
ATOM      2  C   UNL     1     -33.766  12.245 -31.384  1.00  0.00     0.047 A 
ATOM      3  C   UNL     1     -32.756  11.434 -30.850  1.00  0.00     0.119 A 
ATOM      4  C   UNL     1     -32.024  10.584 -31.691  1.00  0.00     0.094 A 
ATOM      5  C   UNL     1     -32.299  10.544 -33.062  1.00  0.00     0.142 A 
ATOM      6  C   UNL     1     -33.318  11.363 -33.597  1.00  0.00     0.018 A 
ATOM      7  C   UNL     1     -33.570  11.301 -34.971  1.00  0.00     0.019 A 
ATOM      8  C   UNL     1     -32.815  10.440 -35.767  1.00  0.00     0.094 A 
ATOM      9  C   UNL     1     -31.822   9.658 -35.168  1.00  0.00     0.336 A 
ATOM     10  O   UNL     1     -31.130   8.875 -35.870  1.00  0.00    -0.246 OA
ATOM     11  O   UNL     1     -31.602   9.736 -33.858  1.00  0.00    -0.423 OA
ENDROOT
BRANCH   3  12
ATOM     12  O   UNL     1     -32.491  11.481 -29.484  1.00  0.00    -0.508 OA
ATOM     13  H   UNL     1     -31.619  11.854 -29.126  1.00  0.00     0.293 HD
ENDBRANCH   3  12
TORSDOF 1
ENDMDL
