MODEL 1
REMARK VINA RESULT:    -4.780      0.000      0.000
REMARK INTER + INTRA:          -5.228
REMARK INTER:                  -5.059
REMARK INTRA:                  -0.169
REMARK UNBOUND:                -0.169
REMARK SMILES CC1=CC[C@H](C(C)C)C=C1
REMARK SMILES IDX 1 1 2 2 3 3 4 4 5 5 9 6 10 7 6 8 7 9 8 10
REMARK H PARENT
REMARK Flexibility Score: inf
ROOT
ATOM      1  C   UNL     1     -57.125 -47.134  20.944  1.00  0.00     0.044 C 
ATOM      2  C   UNL     1     -55.757 -47.499  21.439  1.00  0.00    -0.055 C 
ATOM      3  C   UNL     1     -55.320 -48.765  21.349  1.00  0.00    -0.023 C 
ATOM      4  C   UNL     1     -54.012 -49.173  21.977  1.00  0.00     0.035 C 
ATOM      5  C   UNL     1     -52.982 -48.020  21.908  1.00  0.00     0.018 C 
ATOM      6  C   UNL     1     -53.622 -46.719  22.355  1.00  0.00    -0.023 C 
ATOM      7  C   UNL     1     -54.908 -46.471  22.084  1.00  0.00    -0.001 C 
ENDROOT
BRANCH   5   8
ATOM      8  C   UNL     1     -51.665 -48.361  22.665  1.00  0.00    -0.010 C 
ATOM      9  C   UNL     1     -51.935 -48.658  24.149  1.00  0.00     0.008 C 
ATOM     10  C   UNL     1     -50.869 -49.516  22.030  1.00  0.00     0.008 C 
ENDBRANCH   5   8
TORSDOF 1
ENDMDL
MODEL 2
REMARK VINA RESULT:    -4.731      1.238      4.452
REMARK INTER + INTRA:          -5.176
REMARK INTER:                  -4.990
REMARK INTRA:                  -0.187
REMARK UNBOUND:                -0.169
REMARK SMILES CC1=CC[C@H](C(C)C)C=C1
REMARK SMILES IDX 1 1 2 2 3 3 4 4 5 5 9 6 10 7 6 8 7 9 8 10
REMARK H PARENT
REMARK Flexibility Score: inf
ROOT
ATOM      1  C   UNL     1     -51.274 -47.792  24.442  1.00  0.00     0.044 C 
ATOM      2  C   UNL     1     -52.447 -47.682  23.514  1.00  0.00    -0.055 C 
ATOM      3  C   UNL     1     -53.045 -46.495  23.315  1.00  0.00    -0.023 C 
ATOM      4  C   UNL     1     -54.313 -46.400  22.506  1.00  0.00     0.035 C 
ATOM      5  C   UNL     1     -54.317 -47.441  21.361  1.00  0.00     0.018 C 
ATOM      6  C   UNL     1     -53.899 -48.801  21.887  1.00  0.00    -0.023 C 
ATOM      7  C   UNL     1     -52.987 -48.896  22.861  1.00  0.00    -0.001 C 
ENDROOT
BRANCH   5   8
ATOM      8  C   UNL     1     -55.669 -47.459  20.587  1.00  0.00    -0.010 C 
ATOM      9  C   UNL     1     -56.566 -48.615  21.058  1.00  0.00     0.008 C 
ATOM     10  C   UNL     1     -56.439 -46.128  20.660  1.00  0.00     0.008 C 
ENDBRANCH   5   8
TORSDOF 1
ENDMDL
MODEL 3
REMARK VINA RESULT:    -4.703      4.823      6.929
REMARK INTER + INTRA:          -5.146
REMARK INTER:                  -4.956
REMARK INTRA:                  -0.190
REMARK UNBOUND:                -0.169
REMARK SMILES CC1=CC[C@H](C(C)C)C=C1
REMARK SMILES IDX 1 1 2 2 3 3 4 4 5 5 9 6 10 7 6 8 7 9 8 10
REMARK H PARENT
REMARK Flexibility Score: inf
ROOT
ATOM      1  C   UNL     1     -51.435 -48.936  20.884  1.00  0.00     0.044 C 
ATOM      2  C   UNL     1     -50.420 -48.995  19.782  1.00  0.00    -0.055 C 
ATOM      3  C   UNL     1     -49.545 -47.991  19.612  1.00  0.00    -0.023 C 
ATOM      4  C   UNL     1     -48.622 -47.969  18.420  1.00  0.00     0.035 C 
ATOM      5  C   UNL     1     -48.201 -49.403  18.021  1.00  0.00     0.018 C 
ATOM      6  C   UNL     1     -49.414 -50.312  17.975  1.00  0.00    -0.023 C 
ATOM      7  C   UNL     1     -50.422 -50.137  18.839  1.00  0.00    -0.001 C 
ENDROOT
BRANCH   5   8
ATOM      8  C   UNL     1     -47.355 -49.425  16.714  1.00  0.00    -0.010 C 
ATOM      9  C   UNL     1     -47.816 -50.546  15.769  1.00  0.00     0.008 C 
ATOM     10  C   UNL     1     -47.337 -48.078  15.968  1.00  0.00     0.008 C 
ENDBRANCH   5   8
TORSDOF 1
ENDMDL
MODEL 4
REMARK VINA RESULT:    -4.640     13.087     15.272
REMARK INTER + INTRA:          -5.080
REMARK INTER:                  -4.925
REMARK INTRA:                  -0.155
REMARK UNBOUND:                -0.169
REMARK SMILES CC1=CC[C@H](C(C)C)C=C1
REMARK SMILES IDX 1 1 2 2 3 3 4 4 5 5 9 6 10 7 6 8 7 9 8 10
REMARK H PARENT
REMARK Flexibility Score: inf
ROOT
ATOM      1  C   UNL     1     -43.477 -50.365  29.411  1.00  0.00     0.044 C 
ATOM      2  C   UNL     1     -42.200 -49.628  29.137  1.00  0.00    -0.055 C 
ATOM      3  C   UNL     1     -42.000 -49.037  27.948  1.00  0.00    -0.023 C 
ATOM      4  C   UNL     1     -40.665 -48.425  27.608  1.00  0.00     0.035 C 
ATOM      5  C   UNL     1     -40.000 -47.818  28.867  1.00  0.00     0.018 C 
ATOM      6  C   UNL     1     -40.070 -48.798  30.022  1.00  0.00    -0.023 C 
ATOM      7  C   UNL     1     -41.129 -49.604  30.160  1.00  0.00    -0.001 C 
ENDROOT
BRANCH   5   8
ATOM      8  C   UNL     1     -38.561 -47.296  28.578  1.00  0.00    -0.010 C 
ATOM      9  C   UNL     1     -38.231 -46.065  29.437  1.00  0.00     0.008 C 
ATOM     10  C   UNL     1     -37.469 -48.368  28.748  1.00  0.00     0.008 C 
ENDBRANCH   5   8
TORSDOF 1
ENDMDL
MODEL 5
REMARK VINA RESULT:    -4.639      0.864      1.950
REMARK INTER + INTRA:          -5.078
REMARK INTER:                  -4.912
REMARK INTRA:                  -0.166
REMARK UNBOUND:                -0.169
REMARK SMILES CC1=CC[C@H](C(C)C)C=C1
REMARK SMILES IDX 1 1 2 2 3 3 4 4 5 5 9 6 10 7 6 8 7 9 8 10
REMARK H PARENT
REMARK Flexibility Score: inf
ROOT
ATOM      1  C   UNL     1     -57.076 -46.699  20.626  1.00  0.00     0.044 C 
ATOM      2  C   UNL     1     -55.700 -47.129  21.039  1.00  0.00    -0.055 C 
ATOM      3  C   UNL     1     -55.092 -46.544  22.084  1.00  0.00    -0.023 C 
ATOM      4  C   UNL     1     -53.655 -46.861  22.414  1.00  0.00     0.035 C 
ATOM      5  C   UNL     1     -53.327 -48.338  22.089  1.00  0.00     0.018 C 
ATOM      6  C   UNL     1     -53.846 -48.699  20.710  1.00  0.00    -0.023 C 
ATOM      7  C   UNL     1     -54.983 -48.161  20.255  1.00  0.00    -0.001 C 
ENDROOT
BRANCH   5   8
ATOM      8  C   UNL     1     -51.818 -48.664  22.293  1.00  0.00    -0.010 C 
ATOM      9  C   UNL     1     -50.925 -47.686  21.514  1.00  0.00     0.008 C 
ATOM     10  C   UNL     1     -51.391 -48.707  23.772  1.00  0.00     0.008 C 
ENDBRANCH   5   8
TORSDOF 1
ENDMDL
MODEL 6
REMARK VINA RESULT:    -4.629     12.646     13.796
REMARK INTER + INTRA:          -5.068
REMARK INTER:                  -4.878
REMARK INTRA:                  -0.190
REMARK UNBOUND:                -0.169
REMARK SMILES CC1=CC[C@H](C(C)C)C=C1
REMARK SMILES IDX 1 1 2 2 3 3 4 4 5 5 9 6 10 7 6 8 7 9 8 10
REMARK H PARENT
REMARK Flexibility Score: inf
ROOT
ATOM      1  C   UNL     1     -41.954 -49.382  29.260  1.00  0.00     0.044 C 
ATOM      2  C   UNL     1     -43.127 -49.628  30.161  1.00  0.00    -0.055 C 
ATOM      3  C   UNL     1     -44.191 -48.810  30.128  1.00  0.00    -0.023 C 
ATOM      4  C   UNL     1     -45.307 -48.958  31.131  1.00  0.00     0.035 C 
ATOM      5  C   UNL     1     -45.518 -50.444  31.507  1.00  0.00     0.018 C 
ATOM      6  C   UNL     1     -44.186 -51.103  31.808  1.00  0.00    -0.023 C 
ATOM      7  C   UNL     1     -43.087 -50.743  31.135  1.00  0.00    -0.001 C 
ENDROOT
BRANCH   5   8
ATOM      8  C   UNL     1     -46.572 -50.620  32.639  1.00  0.00    -0.010 C 
ATOM      9  C   UNL     1     -46.089 -51.621  33.701  1.00  0.00     0.008 C 
ATOM     10  C   UNL     1     -46.986 -49.297  33.308  1.00  0.00     0.008 C 
ENDBRANCH   5   8
TORSDOF 1
ENDMDL
MODEL 7
REMARK VINA RESULT:    -4.606     12.714     15.070
REMARK INTER + INTRA:          -5.044
REMARK INTER:                  -4.875
REMARK INTRA:                  -0.169
REMARK UNBOUND:                -0.169
REMARK SMILES CC1=CC[C@H](C(C)C)C=C1
REMARK SMILES IDX 1 1 2 2 3 3 4 4 5 5 9 6 10 7 6 8 7 9 8 10
REMARK H PARENT
REMARK Flexibility Score: inf
ROOT
ATOM      1  C   UNL     1     -43.784 -49.850  29.327  1.00  0.00     0.044 C 
ATOM      2  C   UNL     1     -42.449 -49.182  29.178  1.00  0.00    -0.055 C 
ATOM      3  C   UNL     1     -41.405 -49.580  29.923  1.00  0.00    -0.023 C 
ATOM      4  C   UNL     1     -40.104 -48.821  29.891  1.00  0.00     0.035 C 
ATOM      5  C   UNL     1     -39.838 -48.240  28.481  1.00  0.00     0.018 C 
ATOM      6  C   UNL     1     -41.085 -47.556  27.953  1.00  0.00    -0.023 C 
ATOM      7  C   UNL     1     -42.297 -48.039  28.249  1.00  0.00    -0.001 C 
ENDROOT
BRANCH   5   8
ATOM      8  C   UNL     1     -38.569 -47.338  28.446  1.00  0.00    -0.010 C 
ATOM      9  C   UNL     1     -38.716 -46.130  29.384  1.00  0.00     0.008 C 
ATOM     10  C   UNL     1     -37.265 -48.095  28.760  1.00  0.00     0.008 C 
ENDBRANCH   5   8
TORSDOF 1
ENDMDL
MODEL 8
REMARK VINA RESULT:    -4.580      1.134      4.366
REMARK INTER + INTRA:          -5.016
REMARK INTER:                  -4.877
REMARK INTRA:                  -0.139
REMARK UNBOUND:                -0.169
REMARK SMILES CC1=CC[C@H](C(C)C)C=C1
REMARK SMILES IDX 1 1 2 2 3 3 4 4 5 5 9 6 10 7 6 8 7 9 8 10
REMARK H PARENT
REMARK Flexibility Score: inf
ROOT
ATOM      1  C   UNL     1     -50.207 -49.630  22.587  1.00  0.00     0.044 C 
ATOM      2  C   UNL     1     -51.513 -49.111  22.063  1.00  0.00    -0.055 C 
ATOM      3  C   UNL     1     -52.026 -49.595  20.921  1.00  0.00    -0.023 C 
ATOM      4  C   UNL     1     -53.257 -48.977  20.308  1.00  0.00     0.035 C 
ATOM      5  C   UNL     1     -54.222 -48.467  21.404  1.00  0.00     0.018 C 
ATOM      6  C   UNL     1     -53.459 -47.671  22.446  1.00  0.00    -0.023 C 
ATOM      7  C   UNL     1     -52.210 -48.016  22.777  1.00  0.00    -0.001 C 
ENDROOT
BRANCH   5   8
ATOM      8  C   UNL     1     -55.441 -47.704  20.806  1.00  0.00    -0.010 C 
ATOM      9  C   UNL     1     -56.744 -48.497  20.998  1.00  0.00     0.008 C 
ATOM     10  C   UNL     1     -55.605 -46.275  21.355  1.00  0.00     0.008 C 
ENDBRANCH   5   8
TORSDOF 1
ENDMDL
MODEL 9
REMARK VINA RESULT:    -4.496     11.898     14.621
REMARK INTER + INTRA:          -4.927
REMARK INTER:                  -4.761
REMARK INTRA:                  -0.166
REMARK UNBOUND:                -0.169
REMARK SMILES CC1=CC[C@H](C(C)C)C=C1
REMARK SMILES IDX 1 1 2 2 3 3 4 4 5 5 9 6 10 7 6 8 7 9 8 10
REMARK H PARENT
REMARK Flexibility Score: inf
ROOT
ATOM      1  C   UNL     1     -37.953 -46.684  29.237  1.00  0.00     0.044 C 
ATOM      2  C   UNL     1     -39.195 -47.228  28.596  1.00  0.00    -0.055 C 
ATOM      3  C   UNL     1     -39.355 -48.553  28.445  1.00  0.00    -0.023 C 
ATOM      4  C   UNL     1     -40.526 -49.101  27.670  1.00  0.00     0.035 C 
ATOM      5  C   UNL     1     -41.779 -48.213  27.859  1.00  0.00     0.018 C 
ATOM      6  C   UNL     1     -41.417 -46.751  27.678  1.00  0.00    -0.023 C 
ATOM      7  C   UNL     1     -40.222 -46.298  28.073  1.00  0.00    -0.001 C 
ENDROOT
BRANCH   5   8
ATOM      8  C   UNL     1     -42.969 -48.676  26.967  1.00  0.00    -0.010 C 
ATOM      9  C   UNL     1     -42.543 -48.817  25.497  1.00  0.00     0.008 C 
ATOM     10  C   UNL     1     -43.633 -49.978  27.453  1.00  0.00     0.008 C 
ENDBRANCH   5   8
TORSDOF 1
ENDMDL
