MODEL 1
REMARK VINA RESULT:    -6.642      0.000      0.000
REMARK INTER + INTRA:          -8.014
REMARK INTER:                  -7.806
REMARK INTRA:                  -0.207
REMARK UNBOUND:                -0.207
REMARK SMILES O=c1c(O)c(-c2ccc(O)cc2)oc2cc(O)cc(O)c12
REMARK SMILES IDX 5 1 3 2 2 3 1 4 21 5 19 6 18 7 16 8 15 9 14 10 13 11 6 12
REMARK SMILES IDX 7 13 8 14 9 15 12 16 11 17 10 18 4 20 20 22 17 24
REMARK H PARENT 10 19 4 21 20 23 17 25
REMARK Flexibility Score: inf
ROOT
ATOM      1  C   UNL     1       1.655  40.026  34.380  1.00  0.00     0.180 A 
ATOM      2  C   UNL     1       1.837  38.853  33.628  1.00  0.00     0.208 A 
ATOM      3  C   UNL     1       0.848  38.475  32.704  1.00  0.00     0.238 A 
ATOM      4  O   UNL     1       0.982  37.387  32.089  1.00  0.00    -0.285 OA
ATOM      5  C   UNL     1      -0.284  39.303  32.505  1.00  0.00     0.111 A 
ATOM      6  C   UNL     1      -1.325  39.042  31.565  1.00  0.00     0.134 A 
ATOM      7  C   UNL     1      -2.450  39.876  31.530  1.00  0.00     0.093 A 
ATOM      8  C   UNL     1      -2.543  40.996  32.355  1.00  0.00     0.123 A 
ATOM      9  C   UNL     1      -1.504  41.292  33.239  1.00  0.00     0.094 A 
ATOM     10  C   UNL     1      -0.387  40.458  33.325  1.00  0.00     0.146 A 
ATOM     11  O   UNL     1       0.567  40.765  34.195  1.00  0.00    -0.452 OA
ENDROOT
BRANCH   1  12
ATOM     12  C   UNL     1       2.645  40.482  35.381  1.00  0.00     0.021 A 
ATOM     13  C   UNL     1       2.832  39.793  36.594  1.00  0.00     0.016 A 
ATOM     14  C   UNL     1       3.756  40.257  37.535  1.00  0.00     0.047 A 
ATOM     15  C   UNL     1       4.492  41.420  37.285  1.00  0.00     0.115 A 
ATOM     16  C   UNL     1       3.372  41.661  35.148  1.00  0.00     0.016 A 
ATOM     17  C   UNL     1       4.296  42.122  36.090  1.00  0.00     0.047 A 
BRANCH  15  18
ATOM     18  O   UNL     1       5.410  41.870  38.233  1.00  0.00    -0.508 OA
ATOM     19  H   UNL     1       6.188  41.293  38.531  1.00  0.00     0.293 HD
ENDBRANCH  15  18
ENDBRANCH   1  12
BRANCH   2  20
ATOM     20  O   UNL     1       2.997  38.090  33.784  1.00  0.00    -0.502 OA
ATOM     21  H   UNL     1       3.537  38.089  34.641  1.00  0.00     0.293 HD
ENDBRANCH   2  20
BRANCH   6  22
ATOM     22  O   UNL     1      -1.296  38.001  30.632  1.00  0.00    -0.507 OA
ATOM     23  H   UNL     1      -1.281  38.122  29.631  1.00  0.00     0.293 HD
ENDBRANCH   6  22
BRANCH   8  24
ATOM     24  O   UNL     1      -3.668  41.814  32.281  1.00  0.00    -0.508 OA
ATOM     25  H   UNL     1      -3.778  42.620  32.885  1.00  0.00     0.293 HD
ENDBRANCH   8  24
TORSDOF 5
ENDMDL
MODEL 2
REMARK VINA RESULT:    -5.865     12.829     14.468
REMARK INTER + INTRA:          -7.102
REMARK INTER:                  -6.920
REMARK INTRA:                  -0.182
REMARK UNBOUND:                -0.207
REMARK SMILES O=c1c(O)c(-c2ccc(O)cc2)oc2cc(O)cc(O)c12
REMARK SMILES IDX 5 1 3 2 2 3 1 4 21 5 19 6 18 7 16 8 15 9 14 10 13 11 6 12
REMARK SMILES IDX 7 13 8 14 9 15 12 16 11 17 10 18 4 20 20 22 17 24
REMARK H PARENT 10 19 4 21 20 23 17 25
REMARK Flexibility Score: inf
ROOT
ATOM      1  C   UNL     1      -1.231  26.215  36.911  1.00  0.00     0.180 A 
ATOM      2  C   UNL     1      -0.520  25.183  36.277  1.00  0.00     0.208 A 
ATOM      3  C   UNL     1       0.117  25.445  35.053  1.00  0.00     0.238 A 
ATOM      4  O   UNL     1       0.688  24.498  34.455  1.00  0.00    -0.285 OA
ATOM      5  C   UNL     1       0.082  26.752  34.506  1.00  0.00     0.111 A 
ATOM      6  C   UNL     1       0.730  27.143  33.296  1.00  0.00     0.134 A 
ATOM      7  C   UNL     1       0.538  28.437  32.796  1.00  0.00     0.093 A 
ATOM      8  C   UNL     1      -0.225  29.373  33.494  1.00  0.00     0.123 A 
ATOM      9  C   UNL     1      -0.817  29.018  34.707  1.00  0.00     0.094 A 
ATOM     10  C   UNL     1      -0.676  27.723  35.211  1.00  0.00     0.146 A 
ATOM     11  O   UNL     1      -1.274  27.422  36.358  1.00  0.00    -0.452 OA
ENDROOT
BRANCH   1  12
ATOM     12  C   UNL     1      -1.940  26.012  38.194  1.00  0.00     0.021 A 
ATOM     13  C   UNL     1      -3.070  25.178  38.285  1.00  0.00     0.016 A 
ATOM     14  C   UNL     1      -3.737  25.021  39.503  1.00  0.00     0.047 A 
ATOM     15  C   UNL     1      -3.296  25.704  40.641  1.00  0.00     0.115 A 
ATOM     16  C   UNL     1      -1.516  26.711  39.337  1.00  0.00     0.016 A 
ATOM     17  C   UNL     1      -2.185  26.551  40.554  1.00  0.00     0.047 A 
BRANCH  15  18
ATOM     18  O   UNL     1      -3.971  25.536  41.848  1.00  0.00    -0.508 OA
ATOM     19  H   UNL     1      -4.515  24.703  42.039  1.00  0.00     0.293 HD
ENDBRANCH  15  18
ENDBRANCH   1  12
BRANCH   2  20
ATOM     20  O   UNL     1      -0.433  23.920  36.871  1.00  0.00    -0.502 OA
ATOM     21  H   UNL     1      -1.249  23.352  37.063  1.00  0.00     0.293 HD
ENDBRANCH   2  20
BRANCH   6  22
ATOM     22  O   UNL     1       1.586  26.315  32.562  1.00  0.00    -0.507 OA
ATOM     23  H   UNL     1       1.844  26.461  31.598  1.00  0.00     0.293 HD
ENDBRANCH   6  22
BRANCH   8  24
ATOM     24  O   UNL     1      -0.380  30.657  32.977  1.00  0.00    -0.508 OA
ATOM     25  H   UNL     1       0.115  31.449  33.369  1.00  0.00     0.293 HD
ENDBRANCH   8  24
TORSDOF 5
ENDMDL
MODEL 3
REMARK VINA RESULT:    -5.676     12.940     14.975
REMARK INTER + INTRA:          -6.878
REMARK INTER:                  -6.607
REMARK INTRA:                  -0.271
REMARK UNBOUND:                -0.207
REMARK SMILES O=c1c(O)c(-c2ccc(O)cc2)oc2cc(O)cc(O)c12
REMARK SMILES IDX 5 1 3 2 2 3 1 4 21 5 19 6 18 7 16 8 15 9 14 10 13 11 6 12
REMARK SMILES IDX 7 13 8 14 9 15 12 16 11 17 10 18 4 20 20 22 17 24
REMARK H PARENT 10 19 4 21 20 23 17 25
REMARK Flexibility Score: inf
ROOT
ATOM      1  C   UNL     1      -1.314  26.757  35.575  1.00  0.00     0.180 A 
ATOM      2  C   UNL     1      -2.674  26.443  35.415  1.00  0.00     0.208 A 
ATOM      3  C   UNL     1      -3.369  25.859  36.487  1.00  0.00     0.238 A 
ATOM      4  O   UNL     1      -4.566  25.513  36.313  1.00  0.00    -0.285 OA
ATOM      5  C   UNL     1      -2.710  25.647  37.723  1.00  0.00     0.111 A 
ATOM      6  C   UNL     1      -3.327  25.103  38.889  1.00  0.00     0.134 A 
ATOM      7  C   UNL     1      -2.549  24.839  40.023  1.00  0.00     0.093 A 
ATOM      8  C   UNL     1      -1.192  25.157  40.057  1.00  0.00     0.123 A 
ATOM      9  C   UNL     1      -0.590  25.740  38.940  1.00  0.00     0.094 A 
ATOM     10  C   UNL     1      -1.331  25.979  37.781  1.00  0.00     0.146 A 
ATOM     11  O   UNL     1      -0.714  26.516  36.734  1.00  0.00    -0.452 OA
ENDROOT
BRANCH   1  12
ATOM     12  C   UNL     1      -0.511  27.361  34.488  1.00  0.00     0.021 A 
ATOM     13  C   UNL     1       0.350  26.583  33.693  1.00  0.00     0.016 A 
ATOM     14  C   UNL     1       1.117  27.180  32.687  1.00  0.00     0.047 A 
ATOM     15  C   UNL     1       1.045  28.560  32.473  1.00  0.00     0.115 A 
ATOM     16  C   UNL     1      -0.562  28.750  34.280  1.00  0.00     0.016 A 
ATOM     17  C   UNL     1       0.205  29.344  33.274  1.00  0.00     0.047 A 
BRANCH  15  18
ATOM     18  O   UNL     1       1.814  29.141  31.467  1.00  0.00    -0.508 OA
ATOM     19  H   UNL     1       1.454  29.258  30.527  1.00  0.00     0.293 HD
ENDBRANCH  15  18
ENDBRANCH   1  12
BRANCH   2  20
ATOM     20  O   UNL     1      -3.327  26.731  34.214  1.00  0.00    -0.502 OA
ATOM     21  H   UNL     1      -3.918  26.059  33.740  1.00  0.00     0.293 HD
ENDBRANCH   2  20
BRANCH   6  22
ATOM     22  O   UNL     1      -4.694  24.829  38.997  1.00  0.00    -0.507 OA
ATOM     23  H   UNL     1      -5.258  25.014  39.813  1.00  0.00     0.293 HD
ENDBRANCH   6  22
BRANCH   8  24
ATOM     24  O   UNL     1      -0.452  24.897  41.207  1.00  0.00    -0.508 OA
ATOM     25  H   UNL     1      -0.602  24.058  41.756  1.00  0.00     0.293 HD
ENDBRANCH   8  24
TORSDOF 5
ENDMDL
MODEL 4
REMARK VINA RESULT:    -5.675     12.830     14.775
REMARK INTER + INTRA:          -6.877
REMARK INTER:                  -6.619
REMARK INTRA:                  -0.258
REMARK UNBOUND:                -0.207
REMARK SMILES O=c1c(O)c(-c2ccc(O)cc2)oc2cc(O)cc(O)c12
REMARK SMILES IDX 5 1 3 2 2 3 1 4 21 5 19 6 18 7 16 8 15 9 14 10 13 11 6 12
REMARK SMILES IDX 7 13 8 14 9 15 12 16 11 17 10 18 4 20 20 22 17 24
REMARK H PARENT 10 19 4 21 20 23 17 25
REMARK Flexibility Score: inf
ROOT
ATOM      1  C   UNL     1      -1.166  26.708  36.745  1.00  0.00     0.180 A 
ATOM      2  C   UNL     1      -1.394  27.885  36.013  1.00  0.00     0.208 A 
ATOM      3  C   UNL     1      -0.712  28.077  34.800  1.00  0.00     0.238 A 
ATOM      4  O   UNL     1      -0.864  29.164  34.188  1.00  0.00    -0.285 OA
ATOM      5  C   UNL     1       0.147  27.064  34.307  1.00  0.00     0.111 A 
ATOM      6  C   UNL     1       0.854  27.131  33.069  1.00  0.00     0.134 A 
ATOM      7  C   UNL     1       1.759  26.116  32.735  1.00  0.00     0.093 A 
ATOM      8  C   UNL     1       1.935  25.006  33.560  1.00  0.00     0.123 A 
ATOM      9  C   UNL     1       1.207  24.903  34.746  1.00  0.00     0.094 A 
ATOM     10  C   UNL     1       0.326  25.918  35.127  1.00  0.00     0.146 A 
ATOM     11  O   UNL     1      -0.330  25.790  36.274  1.00  0.00    -0.452 OA
ENDROOT
BRANCH   1  12
ATOM     12  C   UNL     1      -1.837  26.441  38.038  1.00  0.00     0.021 A 
ATOM     13  C   UNL     1      -1.413  27.063  39.226  1.00  0.00     0.016 A 
ATOM     14  C   UNL     1      -2.046  26.776  40.440  1.00  0.00     0.047 A 
ATOM     15  C   UNL     1      -3.097  25.856  40.484  1.00  0.00     0.115 A 
ATOM     16  C   UNL     1      -2.880  25.501  38.095  1.00  0.00     0.016 A 
ATOM     17  C   UNL     1      -3.511  25.217  39.309  1.00  0.00     0.047 A 
BRANCH  15  18
ATOM     18  O   UNL     1      -3.720  25.580  41.701  1.00  0.00    -0.508 OA
ATOM     19  H   UNL     1      -3.374  24.856  42.319  1.00  0.00     0.293 HD
ENDBRANCH  15  18
ENDBRANCH   1  12
BRANCH   2  20
ATOM     20  O   UNL     1      -2.304  28.838  36.479  1.00  0.00    -0.502 OA
ATOM     21  H   UNL     1      -3.148  29.078  35.972  1.00  0.00     0.293 HD
ENDBRANCH   2  20
BRANCH   6  22
ATOM     22  O   UNL     1       0.690  28.150  32.127  1.00  0.00    -0.507 OA
ATOM     23  H   UNL     1       1.174  28.205  31.244  1.00  0.00     0.293 HD
ENDBRANCH   6  22
BRANCH   8  24
ATOM     24  O   UNL     1       2.830  24.006  33.187  1.00  0.00    -0.508 OA
ATOM     25  H   UNL     1       3.731  23.906  33.640  1.00  0.00     0.293 HD
ENDBRANCH   8  24
TORSDOF 5
ENDMDL
MODEL 5
REMARK VINA RESULT:    -5.648     11.673     14.247
REMARK INTER + INTRA:          -6.847
REMARK INTER:                  -6.555
REMARK INTRA:                  -0.292
REMARK UNBOUND:                -0.207
REMARK SMILES O=c1c(O)c(-c2ccc(O)cc2)oc2cc(O)cc(O)c12
REMARK SMILES IDX 5 1 3 2 2 3 1 4 21 5 19 6 18 7 16 8 15 9 14 10 13 11 6 12
REMARK SMILES IDX 7 13 8 14 9 15 12 16 11 17 10 18 4 20 20 22 17 24
REMARK H PARENT 10 19 4 21 20 23 17 25
REMARK Flexibility Score: inf
ROOT
ATOM      1  C   UNL     1       1.200  27.228  31.353  1.00  0.00     0.180 A 
ATOM      2  C   UNL     1       1.375  28.467  31.993  1.00  0.00     0.208 A 
ATOM      3  C   UNL     1       0.581  28.776  33.110  1.00  0.00     0.238 A 
ATOM      4  O   UNL     1       0.691  29.915  33.631  1.00  0.00    -0.285 OA
ATOM      5  C   UNL     1      -0.338  27.819  33.607  1.00  0.00     0.111 A 
ATOM      6  C   UNL     1      -1.161  28.007  34.758  1.00  0.00     0.134 A 
ATOM      7  C   UNL     1      -2.111  27.034  35.094  1.00  0.00     0.093 A 
ATOM      8  C   UNL     1      -2.224  25.853  34.361  1.00  0.00     0.123 A 
ATOM      9  C   UNL     1      -1.385  25.635  33.267  1.00  0.00     0.094 A 
ATOM     10  C   UNL     1      -0.455  26.604  32.883  1.00  0.00     0.146 A 
ATOM     11  O   UNL     1       0.307  26.365  31.822  1.00  0.00    -0.452 OA
ENDROOT
BRANCH   1  12
ATOM     12  C   UNL     1       1.989  26.837  30.163  1.00  0.00     0.021 A 
ATOM     13  C   UNL     1       1.602  27.223  28.867  1.00  0.00     0.016 A 
ATOM     14  C   UNL     1       2.349  26.821  27.756  1.00  0.00     0.047 A 
ATOM     15  C   UNL     1       3.481  26.017  27.923  1.00  0.00     0.115 A 
ATOM     16  C   UNL     1       3.115  26.012  30.320  1.00  0.00     0.016 A 
ATOM     17  C   UNL     1       3.861  25.611  29.208  1.00  0.00     0.047 A 
BRANCH  15  18
ATOM     18  O   UNL     1       4.216  25.625  26.806  1.00  0.00    -0.508 OA
ATOM     19  H   UNL     1       5.229  25.678  26.794  1.00  0.00     0.293 HD
ENDBRANCH  15  18
ENDBRANCH   1  12
BRANCH   2  20
ATOM     20  O   UNL     1       2.342  29.366  31.533  1.00  0.00    -0.502 OA
ATOM     21  H   UNL     1       2.627  29.409  30.562  1.00  0.00     0.293 HD
ENDBRANCH   2  20
BRANCH   6  22
ATOM     22  O   UNL     1      -1.072  29.109  35.614  1.00  0.00    -0.507 OA
ATOM     23  H   UNL     1      -1.248  30.065  35.345  1.00  0.00     0.293 HD
ENDBRANCH   6  22
BRANCH   8  24
ATOM     24  O   UNL     1      -3.167  24.899  34.734  1.00  0.00    -0.508 OA
ATOM     25  H   UNL     1      -3.290  24.042  34.208  1.00  0.00     0.293 HD
ENDBRANCH   8  24
TORSDOF 5
ENDMDL
MODEL 6
REMARK VINA RESULT:    -5.447     12.479     15.088
REMARK INTER + INTRA:          -6.610
REMARK INTER:                  -6.314
REMARK INTRA:                  -0.296
REMARK UNBOUND:                -0.207
REMARK SMILES O=c1c(O)c(-c2ccc(O)cc2)oc2cc(O)cc(O)c12
REMARK SMILES IDX 5 1 3 2 2 3 1 4 21 5 19 6 18 7 16 8 15 9 14 10 13 11 6 12
REMARK SMILES IDX 7 13 8 14 9 15 12 16 11 17 10 18 4 20 20 22 17 24
REMARK H PARENT 10 19 4 21 20 23 17 25
REMARK Flexibility Score: inf
ROOT
ATOM      1  C   UNL     1       2.280  26.821  30.958  1.00  0.00     0.180 A 
ATOM      2  C   UNL     1       1.951  26.699  29.598  1.00  0.00     0.208 A 
ATOM      3  C   UNL     1       2.878  26.111  28.721  1.00  0.00     0.238 A 
ATOM      4  O   UNL     1       2.607  26.073  27.494  1.00  0.00    -0.285 OA
ATOM      5  C   UNL     1       4.099  25.602  29.226  1.00  0.00     0.111 A 
ATOM      6  C   UNL     1       5.093  24.946  28.438  1.00  0.00     0.134 A 
ATOM      7  C   UNL     1       6.309  24.579  29.026  1.00  0.00     0.093 A 
ATOM      8  C   UNL     1       6.545  24.784  30.385  1.00  0.00     0.123 A 
ATOM      9  C   UNL     1       5.558  25.374  31.176  1.00  0.00     0.094 A 
ATOM     10  C   UNL     1       4.350  25.787  30.611  1.00  0.00     0.146 A 
ATOM     11  O   UNL     1       3.448  26.364  31.396  1.00  0.00    -0.452 OA
ENDROOT
BRANCH   1  12
ATOM     12  C   UNL     1       1.362  27.442  31.939  1.00  0.00     0.021 A 
ATOM     13  C   UNL     1       1.382  28.826  32.188  1.00  0.00     0.016 A 
ATOM     14  C   UNL     1       0.522  29.386  33.138  1.00  0.00     0.047 A 
ATOM     15  C   UNL     1      -0.356  28.571  33.860  1.00  0.00     0.115 A 
ATOM     16  C   UNL     1       0.493  26.627  32.684  1.00  0.00     0.016 A 
ATOM     17  C   UNL     1      -0.366  27.190  33.632  1.00  0.00     0.047 A 
BRANCH  15  18
ATOM     18  O   UNL     1      -1.208  29.144  34.803  1.00  0.00    -0.508 OA
ATOM     19  H   UNL     1      -1.417  28.678  35.678  1.00  0.00     0.293 HD
ENDBRANCH  15  18
ENDBRANCH   1  12
BRANCH   2  20
ATOM     20  O   UNL     1       0.708  27.139  29.133  1.00  0.00    -0.502 OA
ATOM     21  H   UNL     1       0.158  26.610  28.466  1.00  0.00     0.293 HD
ENDBRANCH   2  20
BRANCH   6  22
ATOM     22  O   UNL     1       4.929  24.611  27.090  1.00  0.00    -0.507 OA
ATOM     23  H   UNL     1       5.475  23.922  26.596  1.00  0.00     0.293 HD
ENDBRANCH   6  22
BRANCH   8  24
ATOM     24  O   UNL     1       7.759  24.390  30.940  1.00  0.00    -0.508 OA
ATOM     25  H   UNL     1       8.641  24.750  30.595  1.00  0.00     0.293 HD
ENDBRANCH   8  24
TORSDOF 5
ENDMDL
MODEL 7
REMARK VINA RESULT:    -5.305     12.636     14.407
REMARK INTER + INTRA:          -6.443
REMARK INTER:                  -6.164
REMARK INTRA:                  -0.280
REMARK UNBOUND:                -0.207
REMARK SMILES O=c1c(O)c(-c2ccc(O)cc2)oc2cc(O)cc(O)c12
REMARK SMILES IDX 5 1 3 2 2 3 1 4 21 5 19 6 18 7 16 8 15 9 14 10 13 11 6 12
REMARK SMILES IDX 7 13 8 14 9 15 12 16 11 17 10 18 4 20 20 22 17 24
REMARK H PARENT 10 19 4 21 20 23 17 25
REMARK Flexibility Score: inf
ROOT
ATOM      1  C   UNL     1      -1.828  26.951  34.865  1.00  0.00     0.180 A 
ATOM      2  C   UNL     1      -1.582  26.388  36.128  1.00  0.00     0.208 A 
ATOM      3  C   UNL     1      -2.652  25.829  36.846  1.00  0.00     0.238 A 
ATOM      4  O   UNL     1      -2.439  25.394  38.007  1.00  0.00    -0.285 OA
ATOM      5  C   UNL     1      -3.944  25.789  36.267  1.00  0.00     0.111 A 
ATOM      6  C   UNL     1      -5.093  25.207  36.883  1.00  0.00     0.134 A 
ATOM      7  C   UNL     1      -6.343  25.322  36.262  1.00  0.00     0.093 A 
ATOM      8  C   UNL     1      -6.477  25.939  35.019  1.00  0.00     0.123 A 
ATOM      9  C   UNL     1      -5.351  26.462  34.382  1.00  0.00     0.094 A 
ATOM     10  C   UNL     1      -4.097  26.399  34.994  1.00  0.00     0.146 A 
ATOM     11  O   UNL     1      -3.056  26.929  34.362  1.00  0.00    -0.452 OA
ENDROOT
BRANCH   1  12
ATOM     12  C   UNL     1      -0.755  27.571  34.055  1.00  0.00     0.021 A 
ATOM     13  C   UNL     1      -0.559  28.964  34.041  1.00  0.00     0.016 A 
ATOM     14  C   UNL     1       0.446  29.529  33.250  1.00  0.00     0.047 A 
ATOM     15  C   UNL     1       1.256  28.714  32.453  1.00  0.00     0.115 A 
ATOM     16  C   UNL     1       0.049  26.762  33.235  1.00  0.00     0.016 A 
ATOM     17  C   UNL     1       1.053  27.329  32.446  1.00  0.00     0.047 A 
BRANCH  15  18
ATOM     18  O   UNL     1       2.254  29.291  31.670  1.00  0.00    -0.508 OA
ATOM     19  H   UNL     1       3.125  29.613  32.076  1.00  0.00     0.293 HD
ENDBRANCH  15  18
ENDBRANCH   1  12
BRANCH   2  20
ATOM     20  O   UNL     1      -0.285  26.368  36.650  1.00  0.00    -0.502 OA
ATOM     21  H   UNL     1       0.518  26.084  36.101  1.00  0.00     0.293 HD
ENDBRANCH   2  20
BRANCH   6  22
ATOM     22  O   UNL     1      -5.059  24.490  38.083  1.00  0.00    -0.507 OA
ATOM     23  H   UNL     1      -5.624  23.680  38.287  1.00  0.00     0.293 HD
ENDBRANCH   6  22
BRANCH   8  24
ATOM     24  O   UNL     1      -7.732  26.019  34.422  1.00  0.00    -0.508 OA
ATOM     25  H   UNL     1      -8.504  25.439  34.731  1.00  0.00     0.293 HD
ENDBRANCH   8  24
TORSDOF 5
ENDMDL
MODEL 8
REMARK VINA RESULT:    -5.300     13.312     15.056
REMARK INTER + INTRA:          -6.436
REMARK INTER:                  -6.165
REMARK INTRA:                  -0.272
REMARK UNBOUND:                -0.207
REMARK SMILES O=c1c(O)c(-c2ccc(O)cc2)oc2cc(O)cc(O)c12
REMARK SMILES IDX 5 1 3 2 2 3 1 4 21 5 19 6 18 7 16 8 15 9 14 10 13 11 6 12
REMARK SMILES IDX 7 13 8 14 9 15 12 16 11 17 10 18 4 20 20 22 17 24
REMARK H PARENT 10 19 4 21 20 23 17 25
REMARK Flexibility Score: inf
ROOT
ATOM      1  C   UNL     1      -1.515  26.575  36.034  1.00  0.00     0.180 A 
ATOM      2  C   UNL     1      -0.956  26.352  37.303  1.00  0.00     0.208 A 
ATOM      3  C   UNL     1      -1.746  25.755  38.300  1.00  0.00     0.238 A 
ATOM      4  O   UNL     1      -1.264  25.626  39.455  1.00  0.00    -0.285 OA
ATOM      5  C   UNL     1      -3.065  25.337  37.998  1.00  0.00     0.111 A 
ATOM      6  C   UNL     1      -3.939  24.681  38.917  1.00  0.00     0.134 A 
ATOM      7  C   UNL     1      -5.260  24.410  38.540  1.00  0.00     0.093 A 
ATOM      8  C   UNL     1      -5.721  24.712  37.259  1.00  0.00     0.123 A 
ATOM      9  C   UNL     1      -4.858  25.303  36.335  1.00  0.00     0.094 A 
ATOM     10  C   UNL     1      -3.546  25.621  36.693  1.00  0.00     0.146 A 
ATOM     11  O   UNL     1      -2.766  26.203  35.790  1.00  0.00    -0.452 OA
ENDROOT
BRANCH   1  12
ATOM     12  C   UNL     1      -0.751  27.211  34.937  1.00  0.00     0.021 A 
ATOM     13  C   UNL     1       0.140  26.472  34.138  1.00  0.00     0.016 A 
ATOM     14  C   UNL     1       0.868  27.099  33.123  1.00  0.00     0.047 A 
ATOM     15  C   UNL     1       0.728  28.473  32.903  1.00  0.00     0.115 A 
ATOM     16  C   UNL     1      -0.870  28.595  34.723  1.00  0.00     0.016 A 
ATOM     17  C   UNL     1      -0.141  29.220  33.708  1.00  0.00     0.047 A 
BRANCH  15  18
ATOM     18  O   UNL     1       1.460  29.085  31.887  1.00  0.00    -0.508 OA
ATOM     19  H   UNL     1       2.050  29.889  32.071  1.00  0.00     0.293 HD
ENDBRANCH  15  18
ENDBRANCH   1  12
BRANCH   2  20
ATOM     20  O   UNL     1       0.373  26.701  37.558  1.00  0.00    -0.502 OA
ATOM     21  H   UNL     1       1.054  26.036  37.904  1.00  0.00     0.293 HD
ENDBRANCH   2  20
BRANCH   6  22
ATOM     22  O   UNL     1      -3.558  24.255  40.193  1.00  0.00    -0.507 OA
ATOM     23  H   UNL     1      -3.960  23.471  40.684  1.00  0.00     0.293 HD
ENDBRANCH   6  22
BRANCH   8  24
ATOM     24  O   UNL     1      -7.036  24.412  36.912  1.00  0.00    -0.508 OA
ATOM     25  H   UNL     1      -7.277  24.082  35.985  1.00  0.00     0.293 HD
ENDBRANCH   8  24
TORSDOF 5
ENDMDL
MODEL 9
REMARK VINA RESULT:    -5.252     14.021     15.577
REMARK INTER + INTRA:          -6.380
REMARK INTER:                  -6.095
REMARK INTRA:                  -0.286
REMARK UNBOUND:                -0.207
REMARK SMILES O=c1c(O)c(-c2ccc(O)cc2)oc2cc(O)cc(O)c12
REMARK SMILES IDX 5 1 3 2 2 3 1 4 21 5 19 6 18 7 16 8 15 9 14 10 13 11 6 12
REMARK SMILES IDX 7 13 8 14 9 15 12 16 11 17 10 18 4 20 20 22 17 24
REMARK H PARENT 10 19 4 21 20 23 17 25
REMARK Flexibility Score: inf
ROOT
ATOM      1  C   UNL     1      -0.588  25.498  38.293  1.00  0.00     0.180 A 
ATOM      2  C   UNL     1      -1.078  26.808  38.425  1.00  0.00     0.208 A 
ATOM      3  C   UNL     1      -1.138  27.631  37.287  1.00  0.00     0.238 A 
ATOM      4  O   UNL     1      -1.508  28.825  37.426  1.00  0.00    -0.285 OA
ATOM      5  C   UNL     1      -0.760  27.115  36.024  1.00  0.00     0.111 A 
ATOM      6  C   UNL     1      -0.822  27.843  34.798  1.00  0.00     0.134 A 
ATOM      7  C   UNL     1      -0.321  27.266  33.625  1.00  0.00     0.093 A 
ATOM      8  C   UNL     1       0.181  25.965  33.619  1.00  0.00     0.123 A 
ATOM      9  C   UNL     1       0.196  25.224  34.801  1.00  0.00     0.094 A 
ATOM     10  C   UNL     1      -0.261  25.786  35.995  1.00  0.00     0.146 A 
ATOM     11  O   UNL     1      -0.209  25.053  37.101  1.00  0.00    -0.452 OA
ENDROOT
BRANCH   1  12
ATOM     12  C   UNL     1      -0.481  24.576  39.447  1.00  0.00     0.021 A 
ATOM     13  C   UNL     1      -1.531  23.705  39.789  1.00  0.00     0.016 A 
ATOM     14  C   UNL     1      -1.417  22.861  40.898  1.00  0.00     0.047 A 
ATOM     15  C   UNL     1      -0.263  22.886  41.686  1.00  0.00     0.115 A 
ATOM     16  C   UNL     1       0.667  24.611  40.257  1.00  0.00     0.016 A 
ATOM     17  C   UNL     1       0.778  23.766  41.364  1.00  0.00     0.047 A 
BRANCH  15  18
ATOM     18  O   UNL     1      -0.163  22.039  42.787  1.00  0.00    -0.508 OA
ATOM     19  H   UNL     1       0.726  21.868  43.245  1.00  0.00     0.293 HD
ENDBRANCH  15  18
ENDBRANCH   1  12
BRANCH   2  20
ATOM     20  O   UNL     1      -1.519  27.273  39.666  1.00  0.00    -0.502 OA
ATOM     21  H   UNL     1      -1.332  28.213  39.993  1.00  0.00     0.293 HD
ENDBRANCH   2  20
BRANCH   6  22
ATOM     22  O   UNL     1      -1.385  29.117  34.671  1.00  0.00    -0.507 OA
ATOM     23  H   UNL     1      -1.371  29.829  35.386  1.00  0.00     0.293 HD
ENDBRANCH   6  22
BRANCH   8  24
ATOM     24  O   UNL     1       0.656  25.416  32.430  1.00  0.00    -0.508 OA
ATOM     25  H   UNL     1       1.462  25.802  31.953  1.00  0.00     0.293 HD
ENDBRANCH   8  24
TORSDOF 5
ENDMDL
