MODEL 1
REMARK VINA RESULT:    -4.457      0.000      0.000
REMARK INTER + INTRA:          -7.988
REMARK INTER:                  -7.062
REMARK INTRA:                  -0.926
REMARK UNBOUND:                -0.926
REMARK SMILES CCCCCCCCCCCC(=O)[O-]
REMARK SMILES IDX 7 1 8 2 9 3 10 4 11 5 12 6 13 7 14 8 6 9 5 10 4 11 3 12 2 13
REMARK SMILES IDX 1 14
REMARK H PARENT
REMARK Flexibility Score: inf
ROOT
ATOM      1  C   UNL     1      10.837  78.860   1.191  1.00  0.00     0.000 C 
ENDROOT
BRANCH   1   2
ATOM      2  C   UNL     1      10.995  79.715  -0.075  1.00  0.00     0.000 C 
BRANCH   2   3
ATOM      3  C   UNL     1      12.462  80.067  -0.371  1.00  0.00     0.000 C 
BRANCH   3   4
ATOM      4  C   UNL     1      13.414  79.197   0.465  1.00  0.00     0.006 C 
BRANCH   4   5
ATOM      5  C   UNL     1      14.383  78.392  -0.410  1.00  0.00     0.053 C 
BRANCH   5   6
ATOM      6  C   UNL     1      13.698  77.241  -1.082  1.00  0.00     0.041 C 
ATOM      7  O   UNL     1      13.812  77.073  -2.325  1.00  0.00    -0.550 OA
ATOM      8  O   UNL     1      12.958  76.338  -0.330  1.00  0.00    -0.550 OA
ENDBRANCH   5   6
ENDBRANCH   4   5
ENDBRANCH   3   4
ENDBRANCH   2   3
ENDBRANCH   1   2
BRANCH   1   9
ATOM      9  C   UNL     1      10.252  79.652   2.371  1.00  0.00     0.000 C 
BRANCH   9  10
ATOM     10  C   UNL     1       9.368  78.758   3.248  1.00  0.00    -0.000 C 
BRANCH  10  11
ATOM     11  C   UNL     1       7.950  79.337   3.375  1.00  0.00    -0.000 C 
BRANCH  11  12
ATOM     12  C   UNL     1       6.920  78.546   2.542  1.00  0.00    -0.000 C 
BRANCH  12  13
ATOM     13  C   UNL     1       6.296  79.362   1.398  1.00  0.00    -0.003 C 
ATOM     14  C   UNL     1       7.296  79.715   0.299  1.00  0.00     0.004 C 
ENDBRANCH  12  13
ENDBRANCH  11  12
ENDBRANCH  10  11
ENDBRANCH   9  10
ENDBRANCH   1   9
TORSDOF 10
ENDMDL
MODEL 2
REMARK VINA RESULT:    -4.401      2.821      6.331
REMARK INTER + INTRA:          -7.900
REMARK INTER:                  -7.127
REMARK INTRA:                  -0.773
REMARK UNBOUND:                -0.926
REMARK SMILES CCCCCCCCCCCC(=O)[O-]
REMARK SMILES IDX 7 1 8 2 9 3 10 4 11 5 12 6 13 7 14 8 6 9 5 10 4 11 3 12 2 13
REMARK SMILES IDX 1 14
REMARK H PARENT
REMARK Flexibility Score: inf
ROOT
ATOM      1  C   UNL     1      10.818  79.132   1.291  1.00  0.00     0.000 C 
ENDROOT
BRANCH   1   2
ATOM      2  C   UNL     1      10.064  79.683   2.511  1.00  0.00     0.000 C 
BRANCH   2   3
ATOM      3  C   UNL     1       9.259  78.600   3.247  1.00  0.00     0.000 C 
BRANCH   3   4
ATOM      4  C   UNL     1       7.766  78.960   3.288  1.00  0.00     0.006 C 
BRANCH   4   5
ATOM      5  C   UNL     1       7.420  80.111   2.334  1.00  0.00     0.053 C 
BRANCH   5   6
ATOM      6  C   UNL     1       6.898  79.607   1.024  1.00  0.00     0.041 C 
ATOM      7  O   UNL     1       5.839  78.927   0.982  1.00  0.00    -0.550 OA
ATOM      8  O   UNL     1       7.564  79.916  -0.155  1.00  0.00    -0.550 OA
ENDBRANCH   5   6
ENDBRANCH   4   5
ENDBRANCH   3   4
ENDBRANCH   2   3
ENDBRANCH   1   2
BRANCH   1   9
ATOM      9  C   UNL     1      11.883  80.106   0.764  1.00  0.00     0.000 C 
BRANCH   9  10
ATOM     10  C   UNL     1      13.146  80.060   1.633  1.00  0.00    -0.000 C 
BRANCH  10  11
ATOM     11  C   UNL     1      14.386  79.726   0.788  1.00  0.00    -0.000 C 
BRANCH  11  12
ATOM     12  C   UNL     1      14.035  79.483  -0.695  1.00  0.00    -0.000 C 
BRANCH  12  13
ATOM     13  C   UNL     1      14.392  78.072  -1.189  1.00  0.00    -0.003 C 
ATOM     14  C   UNL     1      13.309  77.039  -0.883  1.00  0.00     0.004 C 
ENDBRANCH  12  13
ENDBRANCH  11  12
ENDBRANCH  10  11
ENDBRANCH   9  10
ENDBRANCH   1   9
TORSDOF 10
ENDMDL
MODEL 3
REMARK VINA RESULT:    -4.240      2.716      6.113
REMARK INTER + INTRA:          -7.644
REMARK INTER:                  -6.834
REMARK INTRA:                  -0.810
REMARK UNBOUND:                -0.926
REMARK SMILES CCCCCCCCCCCC(=O)[O-]
REMARK SMILES IDX 7 1 8 2 9 3 10 4 11 5 12 6 13 7 14 8 6 9 5 10 4 11 3 12 2 13
REMARK SMILES IDX 1 14
REMARK H PARENT
REMARK Flexibility Score: inf
ROOT
ATOM      1  C   UNL     1       8.530  79.430  -0.896  1.00  0.00     0.000 C 
ENDROOT
BRANCH   1   2
ATOM      2  C   UNL     1       7.627  80.123   0.136  1.00  0.00     0.000 C 
BRANCH   2   3
ATOM      3  C   UNL     1       6.470  79.227   0.606  1.00  0.00     0.000 C 
BRANCH   3   4
ATOM      4  C   UNL     1       6.768  78.625   1.988  1.00  0.00     0.006 C 
BRANCH   4   5
ATOM      5  C   UNL     1       7.489  79.617   2.910  1.00  0.00     0.053 C 
BRANCH   5   6
ATOM      6  C   UNL     1       8.401  78.918   3.871  1.00  0.00     0.041 C 
ATOM      7  O   UNL     1       9.563  78.586   3.516  1.00  0.00    -0.550 OA
ATOM      8  O   UNL     1       7.978  78.662   5.169  1.00  0.00    -0.550 OA
ENDBRANCH   5   6
ENDBRANCH   4   5
ENDBRANCH   3   4
ENDBRANCH   2   3
ENDBRANCH   1   2
BRANCH   1   9
ATOM      9  C   UNL     1       9.993  79.890  -0.807  1.00  0.00     0.000 C 
BRANCH   9  10
ATOM     10  C   UNL     1      10.431  80.048   0.654  1.00  0.00    -0.000 C 
BRANCH  10  11
ATOM     11  C   UNL     1      11.832  79.456   0.878  1.00  0.00    -0.000 C 
BRANCH  11  12
ATOM     12  C   UNL     1      12.553  79.145  -0.449  1.00  0.00    -0.000 C 
BRANCH  12  13
ATOM     13  C   UNL     1      13.571  77.998  -0.343  1.00  0.00    -0.003 C 
ATOM     14  C   UNL     1      13.312  76.875  -1.346  1.00  0.00     0.004 C 
ENDBRANCH  12  13
ENDBRANCH  11  12
ENDBRANCH  10  11
ENDBRANCH   9  10
ENDBRANCH   1   9
TORSDOF 10
ENDMDL
MODEL 4
REMARK VINA RESULT:    -4.135      1.862      2.673
REMARK INTER + INTRA:          -7.478
REMARK INTER:                  -7.090
REMARK INTRA:                  -0.389
REMARK UNBOUND:                -0.926
REMARK SMILES CCCCCCCCCCCC(=O)[O-]
REMARK SMILES IDX 7 1 8 2 9 3 10 4 11 5 12 6 13 7 14 8 6 9 5 10 4 11 3 12 2 13
REMARK SMILES IDX 1 14
REMARK H PARENT
REMARK Flexibility Score: inf
ROOT
ATOM      1  C   UNL     1       9.400  78.908   3.108  1.00  0.00     0.000 C 
ENDROOT
BRANCH   1   2
ATOM      2  C   UNL     1       9.662  79.531   1.728  1.00  0.00     0.000 C 
BRANCH   2   3
ATOM      3  C   UNL     1      11.158  79.745   1.450  1.00  0.00     0.000 C 
BRANCH   3   4
ATOM      4  C   UNL     1      11.677  78.725   0.424  1.00  0.00     0.006 C 
BRANCH   4   5
ATOM      5  C   UNL     1      13.001  79.165  -0.212  1.00  0.00     0.053 C 
BRANCH   5   6
ATOM      6  C   UNL     1      13.686  78.029  -0.908  1.00  0.00     0.041 C 
ATOM      7  O   UNL     1      13.236  76.857  -0.804  1.00  0.00    -0.550 OA
ATOM      8  O   UNL     1      14.804  78.269  -1.696  1.00  0.00    -0.550 OA
ENDBRANCH   5   6
ENDBRANCH   4   5
ENDBRANCH   3   4
ENDBRANCH   2   3
ENDBRANCH   1   2
BRANCH   1   9
ATOM      9  C   UNL     1       7.929  79.020   3.538  1.00  0.00     0.000 C 
BRANCH   9  10
ATOM     10  C   UNL     1       7.002  79.057   2.318  1.00  0.00    -0.000 C 
BRANCH  10  11
ATOM     11  C   UNL     1       5.999  77.892   2.350  1.00  0.00    -0.000 C 
BRANCH  11  12
ATOM     12  C   UNL     1       5.786  77.266   0.956  1.00  0.00    -0.000 C 
BRANCH  12  13
ATOM     13  C   UNL     1       5.444  75.768   0.999  1.00  0.00    -0.003 C 
ATOM     14  C   UNL     1       4.925  75.234  -0.335  1.00  0.00     0.004 C 
ENDBRANCH  12  13
ENDBRANCH  11  12
ENDBRANCH  10  11
ENDBRANCH   9  10
ENDBRANCH   1   9
TORSDOF 10
ENDMDL
MODEL 5
REMARK VINA RESULT:    -4.002      3.264      6.292
REMARK INTER + INTRA:          -7.267
REMARK INTER:                  -6.679
REMARK INTRA:                  -0.588
REMARK UNBOUND:                -0.926
REMARK SMILES CCCCCCCCCCCC(=O)[O-]
REMARK SMILES IDX 7 1 8 2 9 3 10 4 11 5 12 6 13 7 14 8 6 9 5 10 4 11 3 12 2 13
REMARK SMILES IDX 1 14
REMARK H PARENT
REMARK Flexibility Score: inf
ROOT
ATOM      1  C   UNL     1      11.891  79.573   0.860  1.00  0.00     0.000 C 
ENDROOT
BRANCH   1   2
ATOM      2  C   UNL     1      10.724  79.539  -0.139  1.00  0.00     0.000 C 
BRANCH   2   3
ATOM      3  C   UNL     1       9.385  79.935   0.502  1.00  0.00     0.000 C 
BRANCH   3   4
ATOM      4  C   UNL     1       9.538  80.125   2.020  1.00  0.00     0.006 C 
BRANCH   4   5
ATOM      5  C   UNL     1       9.330  78.816   2.792  1.00  0.00     0.053 C 
BRANCH   5   6
ATOM      6  C   UNL     1       8.017  78.800   3.513  1.00  0.00     0.041 C 
ATOM      7  O   UNL     1       6.941  78.679   2.869  1.00  0.00    -0.550 OA
ATOM      8  O   UNL     1       7.984  78.889   4.899  1.00  0.00    -0.550 OA
ENDBRANCH   5   6
ENDBRANCH   4   5
ENDBRANCH   3   4
ENDBRANCH   2   3
ENDBRANCH   1   2
BRANCH   1   9
ATOM      9  C   UNL     1      13.198  80.071   0.225  1.00  0.00     0.000 C 
BRANCH   9  10
ATOM     10  C   UNL     1      14.413  79.380   0.857  1.00  0.00    -0.000 C 
BRANCH  10  11
ATOM     11  C   UNL     1      15.111  78.455  -0.153  1.00  0.00    -0.000 C 
BRANCH  11  12
ATOM     12  C   UNL     1      14.342  78.361  -1.487  1.00  0.00    -0.000 C 
BRANCH  12  13
ATOM     13  C   UNL     1      13.666  77.000  -1.714  1.00  0.00    -0.003 C 
ATOM     14  C   UNL     1      13.166  76.357  -0.422  1.00  0.00     0.004 C 
ENDBRANCH  12  13
ENDBRANCH  11  12
ENDBRANCH  10  11
ENDBRANCH   9  10
ENDBRANCH   1   9
TORSDOF 10
ENDMDL
MODEL 6
REMARK VINA RESULT:    -3.777      3.443      6.687
REMARK INTER + INTRA:          -6.911
REMARK INTER:                  -6.526
REMARK INTRA:                  -0.386
REMARK UNBOUND:                -0.926
REMARK SMILES CCCCCCCCCCCC(=O)[O-]
REMARK SMILES IDX 7 1 8 2 9 3 10 4 11 5 12 6 13 7 14 8 6 9 5 10 4 11 3 12 2 13
REMARK SMILES IDX 1 14
REMARK H PARENT
REMARK Flexibility Score: inf
ROOT
ATOM      1  C   UNL     1       9.151  78.909   3.127  1.00  0.00     0.000 C 
ENDROOT
BRANCH   1   2
ATOM      2  C   UNL     1       7.661  78.872   3.497  1.00  0.00     0.000 C 
BRANCH   2   3
ATOM      3  C   UNL     1       6.745  78.865   2.263  1.00  0.00     0.000 C 
BRANCH   3   4
ATOM      4  C   UNL     1       5.987  77.532   2.150  1.00  0.00     0.006 C 
BRANCH   4   5
ATOM      5  C   UNL     1       5.658  77.173   0.696  1.00  0.00     0.053 C 
BRANCH   5   6
ATOM      6  C   UNL     1       5.246  75.740   0.558  1.00  0.00     0.041 C 
ATOM      7  O   UNL     1       5.310  74.963   1.547  1.00  0.00    -0.550 OA
ATOM      8  O   UNL     1       4.762  75.269  -0.656  1.00  0.00    -0.550 OA
ENDBRANCH   5   6
ENDBRANCH   4   5
ENDBRANCH   3   4
ENDBRANCH   2   3
ENDBRANCH   1   2
BRANCH   1   9
ATOM      9  C   UNL     1       9.416  79.659   1.812  1.00  0.00     0.000 C 
BRANCH   9  10
ATOM     10  C   UNL     1      10.916  79.707   1.500  1.00  0.00    -0.000 C 
BRANCH  10  11
ATOM     11  C   UNL     1      11.319  78.572   0.544  1.00  0.00    -0.000 C 
BRANCH  11  12
ATOM     12  C   UNL     1      12.524  78.954  -0.340  1.00  0.00    -0.000 C 
BRANCH  12  13
ATOM     13  C   UNL     1      13.639  77.895  -0.353  1.00  0.00    -0.003 C 
ATOM     14  C   UNL     1      13.658  77.062  -1.633  1.00  0.00     0.004 C 
ENDBRANCH  12  13
ENDBRANCH  11  12
ENDBRANCH  10  11
ENDBRANCH   9  10
ENDBRANCH   1   9
TORSDOF 10
ENDMDL
MODEL 7
REMARK VINA RESULT:    -3.733      1.484      2.332
REMARK INTER + INTRA:          -6.841
REMARK INTER:                  -5.927
REMARK INTRA:                  -0.914
REMARK UNBOUND:                -0.926
REMARK SMILES CCCCCCCCCCCC(=O)[O-]
REMARK SMILES IDX 7 1 8 2 9 3 10 4 11 5 12 6 13 7 14 8 6 9 5 10 4 11 3 12 2 13
REMARK SMILES IDX 1 14
REMARK H PARENT
REMARK Flexibility Score: inf
ROOT
ATOM      1  C   UNL     1      10.004  79.666   3.353  1.00  0.00     0.000 C 
ENDROOT
BRANCH   1   2
ATOM      2  C   UNL     1      11.032  79.958   2.249  1.00  0.00     0.000 C 
BRANCH   2   3
ATOM      3  C   UNL     1      11.058  78.871   1.163  1.00  0.00     0.000 C 
BRANCH   3   4
ATOM      4  C   UNL     1      11.635  79.421  -0.150  1.00  0.00     0.006 C 
BRANCH   4   5
ATOM      5  C   UNL     1      12.815  78.585  -0.661  1.00  0.00     0.053 C 
BRANCH   5   6
ATOM      6  C   UNL     1      14.131  79.203  -0.297  1.00  0.00     0.041 C 
ATOM      7  O   UNL     1      14.565  79.122   0.882  1.00  0.00    -0.550 OA
ATOM      8  O   UNL     1      14.891  79.841  -1.268  1.00  0.00    -0.550 OA
ENDBRANCH   5   6
ENDBRANCH   4   5
ENDBRANCH   3   4
ENDBRANCH   2   3
ENDBRANCH   1   2
BRANCH   1   9
ATOM      9  C   UNL     1       8.947  78.638   2.921  1.00  0.00     0.000 C 
BRANCH   9  10
ATOM     10  C   UNL     1       7.531  79.192   3.117  1.00  0.00    -0.000 C 
BRANCH  10  11
ATOM     11  C   UNL     1       6.488  78.301   2.422  1.00  0.00    -0.000 C 
BRANCH  11  12
ATOM     12  C   UNL     1       6.345  78.630   0.922  1.00  0.00    -0.000 C 
BRANCH  12  13
ATOM     13  C   UNL     1       6.759  80.066   0.563  1.00  0.00    -0.003 C 
ATOM     14  C   UNL     1       7.964  80.125  -0.375  1.00  0.00     0.004 C 
ENDBRANCH  12  13
ENDBRANCH  11  12
ENDBRANCH  10  11
ENDBRANCH   9  10
ENDBRANCH   1   9
TORSDOF 10
ENDMDL
MODEL 8
REMARK VINA RESULT:    -1.901      0.928      2.210
REMARK INTER + INTRA:          -3.938
REMARK INTER:                  -3.074
REMARK INTRA:                  -0.864
REMARK UNBOUND:                -0.926
REMARK SMILES CCCCCCCCCCCC(=O)[O-]
REMARK SMILES IDX 7 1 8 2 9 3 10 4 11 5 12 6 13 7 14 8 6 9 5 10 4 11 3 12 2 13
REMARK SMILES IDX 1 14
REMARK H PARENT
REMARK Flexibility Score: inf
ROOT
ATOM      1  C   UNL     1      10.353  79.471  -0.652  1.00  0.00     0.000 C 
ENDROOT
BRANCH   1   2
ATOM      2  C   UNL     1      11.007  79.158   0.702  1.00  0.00     0.000 C 
BRANCH   2   3
ATOM      3  C   UNL     1      12.437  79.710   0.810  1.00  0.00     0.000 C 
BRANCH   3   4
ATOM      4  C   UNL     1      13.140  79.681  -0.556  1.00  0.00     0.006 C 
BRANCH   4   5
ATOM      5  C   UNL     1      14.293  78.670  -0.595  1.00  0.00     0.053 C 
BRANCH   5   6
ATOM      6  C   UNL     1      13.857  77.353  -1.159  1.00  0.00     0.041 C 
ATOM      7  O   UNL     1      13.284  76.506  -0.423  1.00  0.00    -0.550 OA
ATOM      8  O   UNL     1      14.055  77.073  -2.505  1.00  0.00    -0.550 OA
ENDBRANCH   5   6
ENDBRANCH   4   5
ENDBRANCH   3   4
ENDBRANCH   2   3
ENDBRANCH   1   2
BRANCH   1   9
ATOM      9  C   UNL     1       8.918  79.999  -0.509  1.00  0.00     0.000 C 
BRANCH   9  10
ATOM     10  C   UNL     1       8.524  80.125   0.968  1.00  0.00    -0.000 C 
BRANCH  10  11
ATOM     11  C   UNL     1       7.049  79.748   1.181  1.00  0.00    -0.000 C 
BRANCH  11  12
ATOM     12  C   UNL     1       6.869  78.704   2.301  1.00  0.00    -0.000 C 
BRANCH  12  13
ATOM     13  C   UNL     1       8.135  78.477   3.143  1.00  0.00    -0.003 C 
ATOM     14  C   UNL     1       8.072  79.151   4.513  1.00  0.00     0.004 C 
ENDBRANCH  12  13
ENDBRANCH  11  12
ENDBRANCH  10  11
ENDBRANCH   9  10
ENDBRANCH   1   9
TORSDOF 10
ENDMDL
