MODEL 1
REMARK VINA RESULT:    -5.065      0.000      0.000
REMARK INTER + INTRA:         -10.409
REMARK INTER:                  -9.507
REMARK INTRA:                  -0.903
REMARK UNBOUND:                -0.903
REMARK SMILES CCCCCCCCC=CCCCCCCCC(=O)[O-]
REMARK SMILES IDX 10 1 9 2 11 3 12 4 13 5 14 6 15 7 16 8 17 9 18 10 19 11
REMARK SMILES IDX 20 12 8 13 7 14 6 15 5 16 4 17 3 18 2 19 1 20
REMARK H PARENT
REMARK Flexibility Score: inf
ROOT
ATOM      1  C   UNL     1      -1.252  -7.147  -2.998  1.00  0.00    -0.031 C 
ATOM      2  C   UNL     1      -2.435  -7.688  -3.324  1.00  0.00    -0.031 C 
ENDROOT
BRANCH   1   3
ATOM      3  C   UNL     1      -0.063  -8.002  -2.656  1.00  0.00     0.027 C 
BRANCH   3   4
ATOM      4  C   UNL     1       1.235  -7.183  -2.701  1.00  0.00     0.004 C 
BRANCH   4   5
ATOM      5  C   UNL     1       2.466  -8.042  -3.032  1.00  0.00     0.000 C 
BRANCH   5   6
ATOM      6  C   UNL     1       3.756  -7.207  -3.118  1.00  0.00     0.000 C 
BRANCH   6   7
ATOM      7  C   UNL     1       5.007  -8.073  -3.339  1.00  0.00     0.000 C 
BRANCH   7   8
ATOM      8  C   UNL     1       5.678  -8.495  -2.024  1.00  0.00     0.006 C 
BRANCH   8   9
ATOM      9  C   UNL     1       5.541  -7.400  -0.961  1.00  0.00     0.053 C 
BRANCH   9  10
ATOM     10  C   UNL     1       4.938  -7.957   0.290  1.00  0.00     0.041 C 
ATOM     11  O   UNL     1       3.754  -7.665   0.608  1.00  0.00    -0.550 OA
ATOM     12  O   UNL     1       5.702  -8.750   1.137  1.00  0.00    -0.550 OA
ENDBRANCH   9  10
ENDBRANCH   8   9
ENDBRANCH   7   8
ENDBRANCH   6   7
ENDBRANCH   5   6
ENDBRANCH   4   5
ENDBRANCH   3   4
ENDBRANCH   1   3
BRANCH   2  13
ATOM     13  C   UNL     1      -3.627  -6.838  -3.673  1.00  0.00     0.027 C 
BRANCH  13  14
ATOM     14  C   UNL     1      -4.850  -7.677  -4.072  1.00  0.00     0.004 C 
BRANCH  14  15
ATOM     15  C   UNL     1      -5.499  -7.176  -5.375  1.00  0.00     0.000 C 
BRANCH  15  16
ATOM     16  C   UNL     1      -4.576  -6.236  -6.167  1.00  0.00     0.000 C 
BRANCH  16  17
ATOM     17  C   UNL     1      -4.167  -6.821  -7.530  1.00  0.00    -0.000 C 
BRANCH  17  18
ATOM     18  C   UNL     1      -5.208  -6.521  -8.630  1.00  0.00    -0.000 C 
BRANCH  18  19
ATOM     19  C   UNL     1      -5.989  -5.218  -8.397  1.00  0.00    -0.003 C 
ATOM     20  C   UNL     1      -7.502  -5.396  -8.505  1.00  0.00     0.004 C 
ENDBRANCH  18  19
ENDBRANCH  17  18
ENDBRANCH  16  17
ENDBRANCH  15  16
ENDBRANCH  14  15
ENDBRANCH  13  14
ENDBRANCH   2  13
TORSDOF 15
ENDMDL
MODEL 2
REMARK VINA RESULT:    -4.876      1.298      1.900
REMARK INTER + INTRA:         -10.055
REMARK INTER:                  -8.903
REMARK INTRA:                  -1.152
REMARK UNBOUND:                -0.903
REMARK SMILES CCCCCCCCC=CCCCCCCCC(=O)[O-]
REMARK SMILES IDX 10 1 9 2 11 3 12 4 13 5 14 6 15 7 16 8 17 9 18 10 19 11
REMARK SMILES IDX 20 12 8 13 7 14 6 15 5 16 4 17 3 18 2 19 1 20
REMARK H PARENT
REMARK Flexibility Score: inf
ROOT
ATOM      1  C   UNL     1      -0.136  -8.263  -3.007  1.00  0.00    -0.031 C 
ATOM      2  C   UNL     1      -0.993  -7.244  -2.842  1.00  0.00    -0.031 C 
ENDROOT
BRANCH   1   3
ATOM      3  C   UNL     1       1.262  -8.213  -2.455  1.00  0.00     0.027 C 
BRANCH   3   4
ATOM      4  C   UNL     1       1.871  -6.815  -2.629  1.00  0.00     0.004 C 
BRANCH   4   5
ATOM      5  C   UNL     1       3.348  -6.861  -3.055  1.00  0.00     0.000 C 
BRANCH   5   6
ATOM      6  C   UNL     1       3.709  -8.174  -3.772  1.00  0.00     0.000 C 
BRANCH   6   7
ATOM      7  C   UNL     1       5.195  -8.539  -3.626  1.00  0.00     0.000 C 
BRANCH   7   8
ATOM      8  C   UNL     1       5.649  -8.608  -2.160  1.00  0.00     0.006 C 
BRANCH   8   9
ATOM      9  C   UNL     1       6.992  -7.899  -1.966  1.00  0.00     0.053 C 
BRANCH   9  10
ATOM     10  C   UNL     1       6.899  -6.892  -0.862  1.00  0.00     0.041 C 
ATOM     11  O   UNL     1       7.936  -6.314  -0.442  1.00  0.00    -0.550 OA
ATOM     12  O   UNL     1       5.676  -6.637  -0.257  1.00  0.00    -0.550 OA
ENDBRANCH   9  10
ENDBRANCH   8   9
ENDBRANCH   7   8
ENDBRANCH   6   7
ENDBRANCH   5   6
ENDBRANCH   4   5
ENDBRANCH   3   4
ENDBRANCH   1   3
BRANCH   2  13
ATOM     13  C   UNL     1      -2.396  -7.291  -3.386  1.00  0.00     0.027 C 
BRANCH  13  14
ATOM     14  C   UNL     1      -2.920  -5.901  -3.778  1.00  0.00     0.004 C 
BRANCH  14  15
ATOM     15  C   UNL     1      -4.164  -5.983  -4.680  1.00  0.00     0.000 C 
BRANCH  15  16
ATOM     16  C   UNL     1      -4.608  -7.431  -4.939  1.00  0.00     0.000 C 
BRANCH  16  17
ATOM     17  C   UNL     1      -4.802  -7.729  -6.437  1.00  0.00    -0.000 C 
BRANCH  17  18
ATOM     18  C   UNL     1      -4.208  -6.622  -7.334  1.00  0.00    -0.000 C 
BRANCH  18  19
ATOM     19  C   UNL     1      -5.084  -6.283  -8.552  1.00  0.00    -0.003 C 
ATOM     20  C   UNL     1      -6.145  -5.226  -8.253  1.00  0.00     0.004 C 
ENDBRANCH  18  19
ENDBRANCH  17  18
ENDBRANCH  16  17
ENDBRANCH  15  16
ENDBRANCH  14  15
ENDBRANCH  13  14
ENDBRANCH   2  13
TORSDOF 15
ENDMDL
MODEL 3
REMARK VINA RESULT:    -4.842      3.900     10.031
REMARK INTER + INTRA:          -9.991
REMARK INTER:                  -8.882
REMARK INTRA:                  -1.110
REMARK UNBOUND:                -0.903
REMARK SMILES CCCCCCCCC=CCCCCCCCC(=O)[O-]
REMARK SMILES IDX 10 1 9 2 11 3 12 4 13 5 14 6 15 7 16 8 17 9 18 10 19 11
REMARK SMILES IDX 20 12 8 13 7 14 6 15 5 16 4 17 3 18 2 19 1 20
REMARK H PARENT
REMARK Flexibility Score: inf
ROOT
ATOM      1  C   UNL     1      -1.533  -7.866  -3.105  1.00  0.00    -0.031 C 
ATOM      2  C   UNL     1      -0.346  -7.251  -3.000  1.00  0.00    -0.031 C 
ENDROOT
BRANCH   1   3
ATOM      3  C   UNL     1      -2.778  -7.114  -3.484  1.00  0.00     0.027 C 
BRANCH   3   4
ATOM      4  C   UNL     1      -4.035  -7.851  -3.000  1.00  0.00     0.004 C 
BRANCH   4   5
ATOM      5  C   UNL     1      -4.744  -8.617  -4.129  1.00  0.00     0.000 C 
BRANCH   5   6
ATOM      6  C   UNL     1      -6.138  -8.042  -4.440  1.00  0.00     0.000 C 
BRANCH   6   7
ATOM      7  C   UNL     1      -6.405  -7.924  -5.950  1.00  0.00     0.000 C 
BRANCH   7   8
ATOM      8  C   UNL     1      -5.236  -8.440  -6.802  1.00  0.00     0.006 C 
BRANCH   8   9
ATOM      9  C   UNL     1      -4.979  -7.518  -7.998  1.00  0.00     0.053 C 
BRANCH   9  10
ATOM     10  C   UNL     1      -3.927  -6.507  -7.664  1.00  0.00     0.041 C 
ATOM     11  O   UNL     1      -3.912  -5.959  -6.530  1.00  0.00    -0.550 OA
ATOM     12  O   UNL     1      -3.001  -6.124  -8.626  1.00  0.00    -0.550 OA
ENDBRANCH   9  10
ENDBRANCH   8   9
ENDBRANCH   7   8
ENDBRANCH   6   7
ENDBRANCH   5   6
ENDBRANCH   4   5
ENDBRANCH   3   4
ENDBRANCH   1   3
BRANCH   2  13
ATOM     13  C   UNL     1       0.906  -8.000  -2.627  1.00  0.00     0.027 C 
BRANCH  13  14
ATOM     14  C   UNL     1       2.080  -7.060  -2.315  1.00  0.00     0.004 C 
BRANCH  14  15
ATOM     15  C   UNL     1       3.244  -7.234  -3.308  1.00  0.00     0.000 C 
BRANCH  15  16
ATOM     16  C   UNL     1       3.577  -8.711  -3.569  1.00  0.00     0.000 C 
BRANCH  16  17
ATOM     17  C   UNL     1       5.030  -9.062  -3.200  1.00  0.00    -0.000 C 
BRANCH  17  18
ATOM     18  C   UNL     1       5.671  -8.000  -2.281  1.00  0.00    -0.000 C 
BRANCH  18  19
ATOM     19  C   UNL     1       5.899  -8.491  -0.842  1.00  0.00    -0.003 C 
ATOM     20  C   UNL     1       4.658  -8.369   0.039  1.00  0.00     0.004 C 
ENDBRANCH  18  19
ENDBRANCH  17  18
ENDBRANCH  16  17
ENDBRANCH  15  16
ENDBRANCH  14  15
ENDBRANCH  13  14
ENDBRANCH   2  13
TORSDOF 15
ENDMDL
MODEL 4
REMARK VINA RESULT:    -4.776      4.607     11.126
REMARK INTER + INTRA:          -9.866
REMARK INTER:                  -9.088
REMARK INTRA:                  -0.778
REMARK UNBOUND:                -0.903
REMARK SMILES CCCCCCCCC=CCCCCCCCC(=O)[O-]
REMARK SMILES IDX 10 1 9 2 11 3 12 4 13 5 14 6 15 7 16 8 17 9 18 10 19 11
REMARK SMILES IDX 20 12 8 13 7 14 6 15 5 16 4 17 3 18 2 19 1 20
REMARK H PARENT
REMARK Flexibility Score: inf
ROOT
ATOM      1  C   UNL     1       0.242  -7.840  -2.585  1.00  0.00    -0.031 C 
ATOM      2  C   UNL     1       1.394  -7.224  -2.891  1.00  0.00    -0.031 C 
ENDROOT
BRANCH   1   3
ATOM      3  C   UNL     1      -1.090  -7.228  -2.920  1.00  0.00     0.027 C 
BRANCH   3   4
ATOM      4  C   UNL     1      -2.097  -8.305  -3.348  1.00  0.00     0.004 C 
BRANCH   4   5
ATOM      5  C   UNL     1      -3.447  -7.713  -3.784  1.00  0.00     0.000 C 
BRANCH   5   6
ATOM      6  C   UNL     1      -3.432  -6.174  -3.805  1.00  0.00     0.000 C 
BRANCH   6   7
ATOM      7  C   UNL     1      -4.139  -5.592  -5.040  1.00  0.00     0.000 C 
BRANCH   7   8
ATOM      8  C   UNL     1      -4.703  -6.677  -5.969  1.00  0.00     0.006 C 
BRANCH   8   9
ATOM      9  C   UNL     1      -4.009  -6.647  -7.334  1.00  0.00     0.053 C 
BRANCH   9  10
ATOM     10  C   UNL     1      -4.972  -6.236  -8.403  1.00  0.00     0.041 C 
ATOM     11  O   UNL     1      -5.797  -7.068  -8.868  1.00  0.00    -0.550 OA
ATOM     12  O   UNL     1      -4.919  -4.952  -8.930  1.00  0.00    -0.550 OA
ENDBRANCH   9  10
ENDBRANCH   8   9
ENDBRANCH   7   8
ENDBRANCH   6   7
ENDBRANCH   5   6
ENDBRANCH   4   5
ENDBRANCH   3   4
ENDBRANCH   1   3
BRANCH   2  13
ATOM     13  C   UNL     1       2.731  -7.835  -2.565  1.00  0.00     0.027 C 
BRANCH  13  14
ATOM     14  C   UNL     1       3.863  -6.796  -2.555  1.00  0.00     0.004 C 
BRANCH  14  15
ATOM     15  C   UNL     1       5.015  -7.202  -1.618  1.00  0.00     0.000 C 
BRANCH  15  16
ATOM     16  C   UNL     1       6.014  -8.154  -2.295  1.00  0.00     0.000 C 
BRANCH  16  17
ATOM     17  C   UNL     1       7.469  -7.883  -1.868  1.00  0.00    -0.000 C 
BRANCH  17  18
ATOM     18  C   UNL     1       7.587  -6.646  -0.952  1.00  0.00    -0.000 C 
BRANCH  18  19
ATOM     19  C   UNL     1       9.035  -6.305  -0.565  1.00  0.00    -0.003 C 
ATOM     20  C   UNL     1      10.066  -6.859  -1.545  1.00  0.00     0.004 C 
ENDBRANCH  18  19
ENDBRANCH  17  18
ENDBRANCH  16  17
ENDBRANCH  15  16
ENDBRANCH  14  15
ENDBRANCH  13  14
ENDBRANCH   2  13
TORSDOF 15
ENDMDL
MODEL 5
REMARK VINA RESULT:    -4.713      1.549      2.880
REMARK INTER + INTRA:          -9.748
REMARK INTER:                  -8.473
REMARK INTRA:                  -1.275
REMARK UNBOUND:                -0.903
REMARK SMILES CCCCCCCCC=CCCCCCCCC(=O)[O-]
REMARK SMILES IDX 10 1 9 2 11 3 12 4 13 5 14 6 15 7 16 8 17 9 18 10 19 11
REMARK SMILES IDX 20 12 8 13 7 14 6 15 5 16 4 17 3 18 2 19 1 20
REMARK H PARENT
REMARK Flexibility Score: inf
ROOT
ATOM      1  C   UNL     1      -4.071  -8.329  -4.160  1.00  0.00    -0.031 C 
ATOM      2  C   UNL     1      -5.370  -8.068  -3.948  1.00  0.00    -0.031 C 
ENDROOT
BRANCH   1   3
ATOM      3  C   UNL     1      -2.995  -7.373  -3.726  1.00  0.00     0.027 C 
BRANCH   3   4
ATOM      4  C   UNL     1      -1.810  -8.124  -3.102  1.00  0.00     0.004 C 
BRANCH   4   5
ATOM      5  C   UNL     1      -0.592  -7.217  -2.865  1.00  0.00     0.000 C 
BRANCH   5   6
ATOM      6  C   UNL     1       0.731  -8.003  -2.857  1.00  0.00     0.000 C 
BRANCH   6   7
ATOM      7  C   UNL     1       1.960  -7.091  -2.709  1.00  0.00     0.000 C 
BRANCH   7   8
ATOM      8  C   UNL     1       3.270  -7.879  -2.558  1.00  0.00     0.006 C 
BRANCH   8   9
ATOM      9  C   UNL     1       3.324  -8.604  -1.210  1.00  0.00     0.053 C 
BRANCH   9  10
ATOM     10  C   UNL     1       4.212  -7.870  -0.255  1.00  0.00     0.041 C 
ATOM     11  O   UNL     1       5.129  -7.123  -0.689  1.00  0.00    -0.550 OA
ATOM     12  O   UNL     1       4.068  -8.059   1.113  1.00  0.00    -0.550 OA
ENDBRANCH   9  10
ENDBRANCH   8   9
ENDBRANCH   7   8
ENDBRANCH   6   7
ENDBRANCH   5   6
ENDBRANCH   4   5
ENDBRANCH   3   4
ENDBRANCH   1   3
BRANCH   2  13
ATOM     13  C   UNL     1      -6.451  -9.024  -4.373  1.00  0.00     0.027 C 
BRANCH  13  14
ATOM     14  C   UNL     1      -7.590  -8.323  -5.129  1.00  0.00     0.004 C 
BRANCH  14  15
ATOM     15  C   UNL     1      -7.744  -8.851  -6.567  1.00  0.00     0.000 C 
BRANCH  15  16
ATOM     16  C   UNL     1      -6.470  -8.657  -7.404  1.00  0.00     0.000 C 
BRANCH  16  17
ATOM     17  C   UNL     1      -6.371  -7.244  -8.009  1.00  0.00    -0.000 C 
BRANCH  17  18
ATOM     18  C   UNL     1      -5.430  -6.327  -7.199  1.00  0.00    -0.000 C 
BRANCH  18  19
ATOM     19  C   UNL     1      -3.938  -6.581  -7.474  1.00  0.00    -0.003 C 
ATOM     20  C   UNL     1      -3.649  -6.942  -8.929  1.00  0.00     0.004 C 
ENDBRANCH  18  19
ENDBRANCH  17  18
ENDBRANCH  16  17
ENDBRANCH  15  16
ENDBRANCH  14  15
ENDBRANCH  13  14
ENDBRANCH   2  13
TORSDOF 15
ENDMDL
MODEL 6
REMARK VINA RESULT:    -4.608      4.782     10.835
REMARK INTER + INTRA:          -9.551
REMARK INTER:                  -8.556
REMARK INTRA:                  -0.995
REMARK UNBOUND:                -0.903
REMARK SMILES CCCCCCCCC=CCCCCCCCC(=O)[O-]
REMARK SMILES IDX 10 1 9 2 11 3 12 4 13 5 14 6 15 7 16 8 17 9 18 10 19 11
REMARK SMILES IDX 20 12 8 13 7 14 6 15 5 16 4 17 3 18 2 19 1 20
REMARK H PARENT
REMARK Flexibility Score: inf
ROOT
ATOM      1  C   UNL     1      -3.354  -6.659  -4.530  1.00  0.00    -0.031 C 
ATOM      2  C   UNL     1      -2.914  -7.134  -3.355  1.00  0.00    -0.031 C 
ENDROOT
BRANCH   1   3
ATOM      3  C   UNL     1      -4.601  -5.825  -4.624  1.00  0.00     0.027 C 
BRANCH   3   4
ATOM      4  C   UNL     1      -5.387  -6.152  -5.902  1.00  0.00     0.004 C 
BRANCH   4   5
ATOM      5  C   UNL     1      -5.082  -7.559  -6.440  1.00  0.00     0.000 C 
BRANCH   5   6
ATOM      6  C   UNL     1      -5.351  -7.680  -7.951  1.00  0.00     0.000 C 
BRANCH   6   7
ATOM      7  C   UNL     1      -6.832  -7.470  -8.306  1.00  0.00     0.000 C 
BRANCH   7   8
ATOM      8  C   UNL     1      -7.033  -6.447  -9.434  1.00  0.00     0.006 C 
BRANCH   8   9
ATOM      9  C   UNL     1      -7.499  -5.098  -8.877  1.00  0.00     0.053 C 
BRANCH   9  10
ATOM     10  C   UNL     1      -6.442  -4.057  -9.073  1.00  0.00     0.041 C 
ATOM     11  O   UNL     1      -5.242  -4.397  -9.253  1.00  0.00    -0.550 OA
ATOM     12  O   UNL     1      -6.771  -2.710  -8.995  1.00  0.00    -0.550 OA
ENDBRANCH   9  10
ENDBRANCH   8   9
ENDBRANCH   7   8
ENDBRANCH   6   7
ENDBRANCH   5   6
ENDBRANCH   4   5
ENDBRANCH   3   4
ENDBRANCH   1   3
BRANCH   2  13
ATOM     13  C   UNL     1      -1.662  -7.964  -3.253  1.00  0.00     0.027 C 
BRANCH  13  14
ATOM     14  C   UNL     1      -0.476  -7.170  -2.686  1.00  0.00     0.004 C 
BRANCH  14  15
ATOM     15  C   UNL     1       0.877  -7.801  -3.058  1.00  0.00     0.000 C 
BRANCH  15  16
ATOM     16  C   UNL     1       2.056  -7.134  -2.332  1.00  0.00     0.000 C 
BRANCH  16  17
ATOM     17  C   UNL     1       3.275  -6.929  -3.250  1.00  0.00    -0.000 C 
BRANCH  17  18
ATOM     18  C   UNL     1       4.576  -7.472  -2.621  1.00  0.00    -0.000 C 
BRANCH  18  19
ATOM     19  C   UNL     1       4.338  -8.365  -1.392  1.00  0.00    -0.003 C 
ATOM     20  C   UNL     1       5.168  -7.951  -0.179  1.00  0.00     0.004 C 
ENDBRANCH  18  19
ENDBRANCH  17  18
ENDBRANCH  16  17
ENDBRANCH  15  16
ENDBRANCH  14  15
ENDBRANCH  13  14
ENDBRANCH   2  13
TORSDOF 15
ENDMDL
MODEL 7
REMARK VINA RESULT:    -4.567     11.350     15.223
REMARK INTER + INTRA:          -9.474
REMARK INTER:                  -8.060
REMARK INTRA:                  -1.414
REMARK UNBOUND:                -0.903
REMARK SMILES CCCCCCCCC=CCCCCCCCC(=O)[O-]
REMARK SMILES IDX 10 1 9 2 11 3 12 4 13 5 14 6 15 7 16 8 17 9 18 10 19 11
REMARK SMILES IDX 20 12 8 13 7 14 6 15 5 16 4 17 3 18 2 19 1 20
REMARK H PARENT
REMARK Flexibility Score: inf
ROOT
ATOM      1  C   UNL     1       7.716   1.297  -4.267  1.00  0.00    -0.031 C 
ATOM      2  C   UNL     1       8.457   1.357  -3.151  1.00  0.00    -0.031 C 
ENDROOT
BRANCH   1   3
ATOM      3  C   UNL     1       7.553   0.014  -5.035  1.00  0.00     0.027 C 
BRANCH   3   4
ATOM      4  C   UNL     1       7.624   0.266  -6.548  1.00  0.00     0.004 C 
BRANCH   4   5
ATOM      5  C   UNL     1       7.164   1.681  -6.934  1.00  0.00     0.000 C 
BRANCH   5   6
ATOM      6  C   UNL     1       6.330   1.693  -8.228  1.00  0.00     0.000 C 
BRANCH   6   7
ATOM      7  C   UNL     1       6.322   0.330  -8.939  1.00  0.00     0.000 C 
BRANCH   7   8
ATOM      8  C   UNL     1       4.947  -0.026  -9.525  1.00  0.00     0.006 C 
BRANCH   8   9
ATOM      9  C   UNL     1       4.170   1.237  -9.910  1.00  0.00     0.053 C 
BRANCH   9  10
ATOM     10  C   UNL     1       2.774   1.177  -9.375  1.00  0.00     0.041 C 
ATOM     11  O   UNL     1       2.353   2.076  -8.599  1.00  0.00    -0.550 OA
ATOM     12  O   UNL     1       1.958   0.096  -9.681  1.00  0.00    -0.550 OA
ENDBRANCH   9  10
ENDBRANCH   8   9
ENDBRANCH   7   8
ENDBRANCH   6   7
ENDBRANCH   5   6
ENDBRANCH   4   5
ENDBRANCH   3   4
ENDBRANCH   1   3
BRANCH   2  13
ATOM     13  C   UNL     1       8.618   2.637  -2.373  1.00  0.00     0.027 C 
BRANCH  13  14
ATOM     14  C   UNL     1       7.977   3.839  -3.083  1.00  0.00     0.004 C 
BRANCH  14  15
ATOM     15  C   UNL     1       8.991   4.967  -3.344  1.00  0.00     0.000 C 
BRANCH  15  16
ATOM     16  C   UNL     1       9.747   5.383  -2.072  1.00  0.00     0.000 C 
BRANCH  16  17
ATOM     17  C   UNL     1       8.842   6.107  -1.058  1.00  0.00    -0.000 C 
BRANCH  17  18
ATOM     18  C   UNL     1       8.937   5.489   0.353  1.00  0.00    -0.000 C 
BRANCH  18  19
ATOM     19  C   UNL     1       7.629   4.831   0.825  1.00  0.00    -0.003 C 
ATOM     20  C   UNL     1       7.792   3.354   1.176  1.00  0.00     0.004 C 
ENDBRANCH  18  19
ENDBRANCH  17  18
ENDBRANCH  16  17
ENDBRANCH  15  16
ENDBRANCH  14  15
ENDBRANCH  13  14
ENDBRANCH   2  13
TORSDOF 15
ENDMDL
MODEL 8
REMARK VINA RESULT:    -4.518     11.975     13.738
REMARK INTER + INTRA:          -9.382
REMARK INTER:                  -8.299
REMARK INTRA:                  -1.083
REMARK UNBOUND:                -0.903
REMARK SMILES CCCCCCCCC=CCCCCCCCC(=O)[O-]
REMARK SMILES IDX 10 1 9 2 11 3 12 4 13 5 14 6 15 7 16 8 17 9 18 10 19 11
REMARK SMILES IDX 20 12 8 13 7 14 6 15 5 16 4 17 3 18 2 19 1 20
REMARK H PARENT
REMARK Flexibility Score: inf
ROOT
ATOM      1  C   UNL     1       7.934   1.889  -4.696  1.00  0.00    -0.031 C 
ATOM      2  C   UNL     1       8.330   2.562  -5.786  1.00  0.00    -0.031 C 
ENDROOT
BRANCH   1   3
ATOM      3  C   UNL     1       8.379   2.292  -3.317  1.00  0.00     0.027 C 
BRANCH   3   4
ATOM      4  C   UNL     1       7.871   3.697  -2.964  1.00  0.00     0.004 C 
BRANCH   4   5
ATOM      5  C   UNL     1       9.012   4.685  -2.673  1.00  0.00     0.000 C 
BRANCH   5   6
ATOM      6  C   UNL     1       8.552   5.876  -1.815  1.00  0.00     0.000 C 
BRANCH   6   7
ATOM      7  C   UNL     1       9.470   6.126  -0.607  1.00  0.00     0.000 C 
BRANCH   7   8
ATOM      8  C   UNL     1       9.514   4.935   0.362  1.00  0.00     0.006 C 
BRANCH   8   9
ATOM      9  C   UNL     1       8.728   5.238   1.641  1.00  0.00     0.053 C 
BRANCH   9  10
ATOM     10  C   UNL     1       7.383   4.584   1.598  1.00  0.00     0.041 C 
ATOM     11  O   UNL     1       6.415   5.081   2.232  1.00  0.00    -0.550 OA
ATOM     12  O   UNL     1       7.213   3.391   0.907  1.00  0.00    -0.550 OA
ENDBRANCH   9  10
ENDBRANCH   8   9
ENDBRANCH   7   8
ENDBRANCH   6   7
ENDBRANCH   5   6
ENDBRANCH   4   5
ENDBRANCH   3   4
ENDBRANCH   1   3
BRANCH   2  13
ATOM     13  C   UNL     1       7.883   2.167  -7.168  1.00  0.00     0.027 C 
BRANCH  13  14
ATOM     14  C   UNL     1       6.778   1.100  -7.145  1.00  0.00     0.004 C 
BRANCH  14  15
ATOM     15  C   UNL     1       5.811   1.239  -8.334  1.00  0.00     0.000 C 
BRANCH  15  16
ATOM     16  C   UNL     1       6.109   2.478  -9.192  1.00  0.00     0.000 C 
BRANCH  16  17
ATOM     17  C   UNL     1       4.838   3.273  -9.542  1.00  0.00    -0.000 C 
BRANCH  17  18
ATOM     18  C   UNL     1       3.560   2.596  -9.003  1.00  0.00    -0.000 C 
BRANCH  18  19
ATOM     19  C   UNL     1       2.261   3.241  -9.513  1.00  0.00    -0.003 C 
ATOM     20  C   UNL     1       2.382   4.748  -9.729  1.00  0.00     0.004 C 
ENDBRANCH  18  19
ENDBRANCH  17  18
ENDBRANCH  16  17
ENDBRANCH  15  16
ENDBRANCH  14  15
ENDBRANCH  13  14
ENDBRANCH   2  13
TORSDOF 15
ENDMDL
MODEL 9
REMARK VINA RESULT:    -4.515     10.978     12.579
REMARK INTER + INTRA:          -9.377
REMARK INTER:                  -7.996
REMARK INTRA:                  -1.381
REMARK UNBOUND:                -0.903
REMARK SMILES CCCCCCCCC=CCCCCCCCC(=O)[O-]
REMARK SMILES IDX 10 1 9 2 11 3 12 4 13 5 14 6 15 7 16 8 17 9 18 10 19 11
REMARK SMILES IDX 20 12 8 13 7 14 6 15 5 16 4 17 3 18 2 19 1 20
REMARK H PARENT
REMARK Flexibility Score: inf
ROOT
ATOM      1  C   UNL     1       7.471   2.190  -6.758  1.00  0.00    -0.031 C 
ATOM      2  C   UNL     1       6.761   1.086  -7.036  1.00  0.00    -0.031 C 
ENDROOT
BRANCH   1   3
ATOM      3  C   UNL     1       7.968   2.476  -5.368  1.00  0.00     0.027 C 
BRANCH   3   4
ATOM      4  C   UNL     1       7.679   1.298  -4.427  1.00  0.00     0.004 C 
BRANCH   4   5
ATOM      5  C   UNL     1       8.292   1.491  -3.031  1.00  0.00     0.000 C 
BRANCH   5   6
ATOM      6  C   UNL     1       9.183   2.743  -2.950  1.00  0.00     0.000 C 
BRANCH   6   7
ATOM      7  C   UNL     1       9.518   3.139  -1.503  1.00  0.00     0.000 C 
BRANCH   7   8
ATOM      8  C   UNL     1       8.271   3.243  -0.612  1.00  0.00     0.006 C 
BRANCH   8   9
ATOM      9  C   UNL     1       8.194   4.613   0.068  1.00  0.00     0.053 C 
BRANCH   9  10
ATOM     10  C   UNL     1       7.671   4.477   1.464  1.00  0.00     0.041 C 
ATOM     11  O   UNL     1       7.164   3.389   1.847  1.00  0.00    -0.550 OA
ATOM     12  O   UNL     1       7.685   5.569   2.321  1.00  0.00    -0.550 OA
ENDBRANCH   9  10
ENDBRANCH   8   9
ENDBRANCH   7   8
ENDBRANCH   6   7
ENDBRANCH   5   6
ENDBRANCH   4   5
ENDBRANCH   3   4
ENDBRANCH   1   3
BRANCH   2  13
ATOM     13  C   UNL     1       6.267   0.791  -8.427  1.00  0.00     0.027 C 
BRANCH  13  14
ATOM     14  C   UNL     1       6.406   1.997  -9.368  1.00  0.00     0.004 C 
BRANCH  14  15
ATOM     15  C   UNL     1       5.069   2.373 -10.032  1.00  0.00     0.000 C 
BRANCH  15  16
ATOM     16  C   UNL     1       4.009   2.814  -9.011  1.00  0.00     0.000 C 
BRANCH  16  17
ATOM     17  C   UNL     1       2.640   2.155  -9.260  1.00  0.00    -0.000 C 
BRANCH  17  18
ATOM     18  C   UNL     1       2.765   0.822 -10.028  1.00  0.00    -0.000 C 
BRANCH  18  19
ATOM     19  C   UNL     1       2.860  -0.408  -9.111  1.00  0.00    -0.003 C 
ATOM     20  C   UNL     1       3.478  -1.624  -9.799  1.00  0.00     0.004 C 
ENDBRANCH  18  19
ENDBRANCH  17  18
ENDBRANCH  16  17
ENDBRANCH  15  16
ENDBRANCH  14  15
ENDBRANCH  13  14
ENDBRANCH   2  13
TORSDOF 15
ENDMDL
