MODEL 1
REMARK VINA RESULT:    -5.279      0.000      0.000
REMARK INTER + INTRA:          -6.302
REMARK INTER:                  -6.051
REMARK INTRA:                  -0.251
REMARK UNBOUND:                -0.251
REMARK SMILES O=C([O-])C=Cc1ccc(O)cc1
REMARK SMILES IDX 6 1 7 2 12 3 8 4 11 5 9 6 5 7 4 8 2 9 1 10 3 11 10 12
REMARK H PARENT 10 13
REMARK Flexibility Score: inf
ROOT
ATOM      1  C   UNL     1      21.498  43.266  16.817  1.00  0.00    -0.025 A 
ATOM      2  C   UNL     1      20.577  43.976  17.608  1.00  0.00     0.012 A 
ATOM      3  C   UNL     1      21.201  43.027  15.467  1.00  0.00     0.012 A 
ATOM      4  C   UNL     1      19.357  44.391  17.068  1.00  0.00     0.047 A 
ATOM      5  C   UNL     1      19.980  43.443  14.929  1.00  0.00     0.047 A 
ATOM      6  C   UNL     1      19.054  44.122  15.726  1.00  0.00     0.115 A 
ENDROOT
BRANCH   1   7
ATOM      7  C   UNL     1      22.817  42.864  17.350  1.00  0.00     0.010 C 
ATOM      8  C   UNL     1      23.038  41.840  18.190  1.00  0.00     0.025 C 
BRANCH   8   9
ATOM      9  C   UNL     1      22.044  40.825  18.591  1.00  0.00     0.064 C 
ATOM     10  O   UNL     1      22.004  39.690  18.047  1.00  0.00    -0.545 OA
ATOM     11  O   UNL     1      21.178  41.104  19.641  1.00  0.00    -0.545 OA
ENDBRANCH   8   9
ENDBRANCH   1   7
BRANCH   6  12
ATOM     12  O   UNL     1      17.840  44.530  15.177  1.00  0.00    -0.508 OA
ATOM     13  H   UNL     1      16.955  44.218  15.559  1.00  0.00     0.293 HD
ENDBRANCH   6  12
TORSDOF 3
ENDMDL
MODEL 2
REMARK VINA RESULT:    -5.216      0.137      1.405
REMARK INTER + INTRA:          -6.229
REMARK INTER:                  -5.994
REMARK INTRA:                  -0.235
REMARK UNBOUND:                -0.251
REMARK SMILES O=C([O-])C=Cc1ccc(O)cc1
REMARK SMILES IDX 6 1 7 2 12 3 8 4 11 5 9 6 5 7 4 8 2 9 1 10 3 11 10 12
REMARK H PARENT 10 13
REMARK Flexibility Score: inf
ROOT
ATOM      1  C   UNL     1      21.535  43.326  16.834  1.00  0.00    -0.025 A 
ATOM      2  C   UNL     1      21.221  43.013  15.500  1.00  0.00     0.012 A 
ATOM      3  C   UNL     1      20.595  44.008  17.619  1.00  0.00     0.012 A 
ATOM      4  C   UNL     1      20.005  43.424  14.948  1.00  0.00     0.047 A 
ATOM      5  C   UNL     1      19.379  44.419  17.065  1.00  0.00     0.047 A 
ATOM      6  C   UNL     1      19.081  44.133  15.729  1.00  0.00     0.115 A 
ENDROOT
BRANCH   1   7
ATOM      7  C   UNL     1      22.791  42.855  17.457  1.00  0.00     0.010 C 
ATOM      8  C   UNL     1      22.901  41.810  18.293  1.00  0.00     0.025 C 
BRANCH   8   9
ATOM      9  C   UNL     1      21.834  40.838  18.603  1.00  0.00     0.064 C 
ATOM     10  O   UNL     1      21.748  39.738  17.997  1.00  0.00    -0.545 OA
ATOM     11  O   UNL     1      20.947  41.114  19.637  1.00  0.00    -0.545 OA
ENDBRANCH   8   9
ENDBRANCH   1   7
BRANCH   6  12
ATOM     12  O   UNL     1      17.866  44.549  15.189  1.00  0.00    -0.508 OA
ATOM     13  H   UNL     1      17.818  45.304  14.515  1.00  0.00     0.293 HD
ENDBRANCH   6  12
TORSDOF 3
ENDMDL
MODEL 3
REMARK VINA RESULT:    -5.190      2.189      3.103
REMARK INTER + INTRA:          -6.200
REMARK INTER:                  -5.949
REMARK INTRA:                  -0.251
REMARK UNBOUND:                -0.251
REMARK SMILES O=C([O-])C=Cc1ccc(O)cc1
REMARK SMILES IDX 6 1 7 2 12 3 8 4 11 5 9 6 5 7 4 8 2 9 1 10 3 11 10 12
REMARK H PARENT 10 13
REMARK Flexibility Score: inf
ROOT
ATOM      1  C   UNL     1      19.628  44.038  16.733  1.00  0.00    -0.025 A 
ATOM      2  C   UNL     1      20.775  43.389  16.244  1.00  0.00     0.012 A 
ATOM      3  C   UNL     1      18.653  44.483  15.829  1.00  0.00     0.012 A 
ATOM      4  C   UNL     1      20.966  43.237  14.868  1.00  0.00     0.047 A 
ATOM      5  C   UNL     1      18.845  44.330  14.453  1.00  0.00     0.047 A 
ATOM      6  C   UNL     1      20.001  43.711  13.968  1.00  0.00     0.115 A 
ENDROOT
BRANCH   1   7
ATOM      7  C   UNL     1      19.378  44.163  18.185  1.00  0.00     0.010 C 
ATOM      8  C   UNL     1      18.877  43.199  18.974  1.00  0.00     0.025 C 
BRANCH   8   9
ATOM      9  C   UNL     1      18.652  41.794  18.582  1.00  0.00     0.064 C 
ATOM     10  O   UNL     1      17.576  41.424  18.042  1.00  0.00    -0.545 OA
ATOM     11  O   UNL     1      19.679  40.873  18.747  1.00  0.00    -0.545 OA
ENDBRANCH   8   9
ENDBRANCH   1   7
BRANCH   6  12
ATOM     12  O   UNL     1      20.181  43.566  12.593  1.00  0.00    -0.508 OA
ATOM     13  H   UNL     1      19.458  43.831  11.935  1.00  0.00     0.293 HD
ENDBRANCH   6  12
TORSDOF 3
ENDMDL
MODEL 4
REMARK VINA RESULT:    -5.024      1.327      1.678
REMARK INTER + INTRA:          -6.010
REMARK INTER:                  -5.710
REMARK INTRA:                  -0.299
REMARK UNBOUND:                -0.251
REMARK SMILES O=C([O-])C=Cc1ccc(O)cc1
REMARK SMILES IDX 6 1 7 2 12 3 8 4 11 5 9 6 5 7 4 8 2 9 1 10 3 11 10 12
REMARK H PARENT 10 13
REMARK Flexibility Score: inf
ROOT
ATOM      1  C   UNL     1      21.038  43.009  16.854  1.00  0.00    -0.025 A 
ATOM      2  C   UNL     1      20.055  43.907  17.306  1.00  0.00     0.012 A 
ATOM      3  C   UNL     1      21.323  42.937  15.482  1.00  0.00     0.012 A 
ATOM      4  C   UNL     1      19.334  44.681  16.393  1.00  0.00     0.047 A 
ATOM      5  C   UNL     1      20.601  43.713  14.571  1.00  0.00     0.047 A 
ATOM      6  C   UNL     1      19.603  44.583  15.021  1.00  0.00     0.115 A 
ENDROOT
BRANCH   1   7
ATOM      7  C   UNL     1      21.851  42.219  17.803  1.00  0.00     0.010 C 
ATOM      8  C   UNL     1      21.500  41.035  18.330  1.00  0.00     0.025 C 
BRANCH   8   9
ATOM      9  C   UNL     1      20.335  40.223  17.927  1.00  0.00     0.064 C 
ATOM     10  O   UNL     1      19.226  40.325  18.514  1.00  0.00    -0.545 OA
ATOM     11  O   UNL     1      20.446  39.379  16.829  1.00  0.00    -0.545 OA
ENDBRANCH   8   9
ENDBRANCH   1   7
BRANCH   6  12
ATOM     12  O   UNL     1      18.889  45.349  14.101  1.00  0.00    -0.508 OA
ATOM     13  H   UNL     1      19.121  45.343  13.115  1.00  0.00     0.293 HD
ENDBRANCH   6  12
TORSDOF 3
ENDMDL
MODEL 5
REMARK VINA RESULT:    -4.866      1.795      2.021
REMARK INTER + INTRA:          -5.828
REMARK INTER:                  -5.556
REMARK INTRA:                  -0.272
REMARK UNBOUND:                -0.251
REMARK SMILES O=C([O-])C=Cc1ccc(O)cc1
REMARK SMILES IDX 6 1 7 2 12 3 8 4 11 5 9 6 5 7 4 8 2 9 1 10 3 11 10 12
REMARK H PARENT 10 13
REMARK Flexibility Score: inf
ROOT
ATOM      1  C   UNL     1      20.403  42.004  15.765  1.00  0.00    -0.025 A 
ATOM      2  C   UNL     1      19.604  42.790  16.614  1.00  0.00     0.012 A 
ATOM      3  C   UNL     1      20.771  42.509  14.509  1.00  0.00     0.012 A 
ATOM      4  C   UNL     1      19.138  44.037  16.190  1.00  0.00     0.047 A 
ATOM      5  C   UNL     1      20.305  43.757  14.086  1.00  0.00     0.047 A 
ATOM      6  C   UNL     1      19.486  44.522  14.921  1.00  0.00     0.115 A 
ENDROOT
BRANCH   1   7
ATOM      7  C   UNL     1      20.951  40.706  16.213  1.00  0.00     0.010 C 
ATOM      8  C   UNL     1      22.139  40.529  16.812  1.00  0.00     0.025 C 
BRANCH   8   9
ATOM      9  C   UNL     1      23.031  41.602  17.293  1.00  0.00     0.064 C 
ATOM     10  O   UNL     1      23.797  42.224  16.511  1.00  0.00    -0.545 OA
ATOM     11  O   UNL     1      22.972  41.983  18.628  1.00  0.00    -0.545 OA
ENDBRANCH   8   9
ENDBRANCH   1   7
BRANCH   6  12
ATOM     12  O   UNL     1      19.026  45.764  14.486  1.00  0.00    -0.508 OA
ATOM     13  H   UNL     1      19.591  46.358  13.890  1.00  0.00     0.293 HD
ENDBRANCH   6  12
TORSDOF 3
ENDMDL
MODEL 6
REMARK VINA RESULT:    -4.690      2.384      3.138
REMARK INTER + INTRA:          -5.627
REMARK INTER:                  -5.360
REMARK INTRA:                  -0.266
REMARK UNBOUND:                -0.251
REMARK SMILES O=C([O-])C=Cc1ccc(O)cc1
REMARK SMILES IDX 6 1 7 2 12 3 8 4 11 5 9 6 5 7 4 8 2 9 1 10 3 11 10 12
REMARK H PARENT 10 13
REMARK Flexibility Score: inf
ROOT
ATOM      1  C   UNL     1      21.350  42.921  17.531  1.00  0.00    -0.025 A 
ATOM      2  C   UNL     1      20.859  41.902  18.366  1.00  0.00     0.012 A 
ATOM      3  C   UNL     1      20.590  44.086  17.351  1.00  0.00     0.012 A 
ATOM      4  C   UNL     1      19.604  42.027  18.967  1.00  0.00     0.047 A 
ATOM      5  C   UNL     1      19.335  44.209  17.953  1.00  0.00     0.047 A 
ATOM      6  C   UNL     1      18.836  43.181  18.759  1.00  0.00     0.115 A 
ENDROOT
BRANCH   1   7
ATOM      7  C   UNL     1      22.697  42.836  16.928  1.00  0.00     0.010 C 
ATOM      8  C   UNL     1      23.029  42.080  15.869  1.00  0.00     0.025 C 
BRANCH   8   9
ATOM      9  C   UNL     1      22.085  41.341  15.008  1.00  0.00     0.064 C 
ATOM     10  O   UNL     1      21.939  40.094  15.108  1.00  0.00    -0.545 OA
ATOM     11  O   UNL     1      21.289  42.047  14.116  1.00  0.00    -0.545 OA
ENDBRANCH   8   9
ENDBRANCH   1   7
BRANCH   6  12
ATOM     12  O   UNL     1      17.582  43.316  19.352  1.00  0.00    -0.508 OA
ATOM     13  H   UNL     1      16.744  42.968  18.902  1.00  0.00     0.293 HD
ENDBRANCH   6  12
TORSDOF 3
ENDMDL
MODEL 7
REMARK VINA RESULT:    -4.685      2.021      3.572
REMARK INTER + INTRA:          -5.621
REMARK INTER:                  -5.350
REMARK INTRA:                  -0.271
REMARK UNBOUND:                -0.251
REMARK SMILES O=C([O-])C=Cc1ccc(O)cc1
REMARK SMILES IDX 6 1 7 2 12 3 8 4 11 5 9 6 5 7 4 8 2 9 1 10 3 11 10 12
REMARK H PARENT 10 13
REMARK Flexibility Score: inf
ROOT
ATOM      1  C   UNL     1      20.970  43.419  16.675  1.00  0.00    -0.025 A 
ATOM      2  C   UNL     1      22.241  42.992  17.099  1.00  0.00     0.012 A 
ATOM      3  C   UNL     1      20.450  42.933  15.467  1.00  0.00     0.012 A 
ATOM      4  C   UNL     1      23.000  42.134  16.297  1.00  0.00     0.047 A 
ATOM      5  C   UNL     1      21.210  42.075  14.666  1.00  0.00     0.047 A 
ATOM      6  C   UNL     1      22.486  41.676  15.075  1.00  0.00     0.115 A 
ENDROOT
BRANCH   1   7
ATOM      7  C   UNL     1      20.127  44.282  17.531  1.00  0.00     0.010 C 
ATOM      8  C   UNL     1      19.180  43.850  18.378  1.00  0.00     0.025 C 
BRANCH   8   9
ATOM      9  C   UNL     1      18.929  42.442  18.745  1.00  0.00     0.064 C 
ATOM     10  O   UNL     1      17.926  41.816  18.311  1.00  0.00    -0.545 OA
ATOM     11  O   UNL     1      19.858  41.772  19.531  1.00  0.00    -0.545 OA
ENDBRANCH   8   9
ENDBRANCH   1   7
BRANCH   6  12
ATOM     12  O   UNL     1      23.234  40.822  14.267  1.00  0.00    -0.508 OA
ATOM     13  H   UNL     1      23.154  40.845  13.257  1.00  0.00     0.293 HD
ENDBRANCH   6  12
TORSDOF 3
ENDMDL
MODEL 8
REMARK VINA RESULT:    -4.681      2.289      4.854
REMARK INTER + INTRA:          -5.616
REMARK INTER:                  -5.342
REMARK INTRA:                  -0.275
REMARK UNBOUND:                -0.251
REMARK SMILES O=C([O-])C=Cc1ccc(O)cc1
REMARK SMILES IDX 6 1 7 2 12 3 8 4 11 5 9 6 5 7 4 8 2 9 1 10 3 11 10 12
REMARK H PARENT 10 13
REMARK Flexibility Score: inf
ROOT
ATOM      1  C   UNL     1      19.640  42.362  17.201  1.00  0.00    -0.025 A 
ATOM      2  C   UNL     1      18.487  41.616  17.499  1.00  0.00     0.012 A 
ATOM      3  C   UNL     1      20.794  41.697  16.761  1.00  0.00     0.012 A 
ATOM      4  C   UNL     1      18.507  40.221  17.409  1.00  0.00     0.047 A 
ATOM      5  C   UNL     1      20.812  40.302  16.672  1.00  0.00     0.047 A 
ATOM      6  C   UNL     1      19.673  39.560  16.998  1.00  0.00     0.115 A 
ENDROOT
BRANCH   1   7
ATOM      7  C   UNL     1      19.627  43.841  17.237  1.00  0.00     0.010 C 
ATOM      8  C   UNL     1      19.435  44.643  16.177  1.00  0.00     0.025 C 
BRANCH   8   9
ATOM      9  C   UNL     1      19.026  44.205  14.828  1.00  0.00     0.064 C 
ATOM     10  O   UNL     1      17.819  44.208  14.471  1.00  0.00    -0.545 OA
ATOM     11  O   UNL     1      20.004  43.850  13.907  1.00  0.00    -0.545 OA
ENDBRANCH   8   9
ENDBRANCH   1   7
BRANCH   6  12
ATOM     12  O   UNL     1      19.705  38.170  16.906  1.00  0.00    -0.508 OA
ATOM     13  H   UNL     1      20.521  37.640  17.190  1.00  0.00     0.293 HD
ENDBRANCH   6  12
TORSDOF 3
ENDMDL
MODEL 9
REMARK VINA RESULT:    -4.616      2.706      3.864
REMARK INTER + INTRA:          -5.543
REMARK INTER:                  -5.271
REMARK INTRA:                  -0.272
REMARK UNBOUND:                -0.251
REMARK SMILES O=C([O-])C=Cc1ccc(O)cc1
REMARK SMILES IDX 6 1 7 2 12 3 8 4 11 5 9 6 5 7 4 8 2 9 1 10 3 11 10 12
REMARK H PARENT 10 13
REMARK Flexibility Score: inf
ROOT
ATOM      1  C   UNL     1      19.021  43.167  16.649  1.00  0.00    -0.025 A 
ATOM      2  C   UNL     1      19.128  44.172  17.626  1.00  0.00     0.012 A 
ATOM      3  C   UNL     1      18.497  41.916  17.005  1.00  0.00     0.012 A 
ATOM      4  C   UNL     1      18.765  43.910  18.950  1.00  0.00     0.047 A 
ATOM      5  C   UNL     1      18.134  41.656  18.330  1.00  0.00     0.047 A 
ATOM      6  C   UNL     1      18.269  42.648  19.306  1.00  0.00     0.115 A 
ENDROOT
BRANCH   1   7
ATOM      7  C   UNL     1      19.348  43.437  15.232  1.00  0.00     0.010 C 
ATOM      8  C   UNL     1      20.519  43.159  14.637  1.00  0.00     0.025 C 
BRANCH   8   9
ATOM      9  C   UNL     1      21.623  42.378  15.230  1.00  0.00     0.064 C 
ATOM     10  O   UNL     1      22.514  42.923  15.932  1.00  0.00    -0.545 OA
ATOM     11  O   UNL     1      21.638  40.998  15.067  1.00  0.00    -0.545 OA
ENDBRANCH   8   9
ENDBRANCH   1   7
BRANCH   6  12
ATOM     12  O   UNL     1      17.905  42.374  20.623  1.00  0.00    -0.508 OA
ATOM     13  H   UNL     1      17.407  43.053  21.186  1.00  0.00     0.293 HD
ENDBRANCH   6  12
TORSDOF 3
ENDMDL
