MODEL 1
REMARK VINA RESULT:    -5.570      0.000      0.000
REMARK INTER + INTRA:          -5.733
REMARK INTER:                  -5.733
REMARK INTRA:                   0.000
REMARK UNBOUND:                 0.000
REMARK SMILES O=c1ccc2ccc(O)cc2o1
REMARK SMILES IDX 6 1 7 2 8 3 10 4 11 5 5 6 4 7 3 8 2 9 1 10 12 11 9 12
REMARK H PARENT 9 13
REMARK Flexibility Score: inf
ROOT
ATOM      1  C   UNL     1      30.039  -0.473  30.608  1.00  0.00     0.016 A 
ATOM      2  C   UNL     1      29.429   0.724  30.997  1.00  0.00     0.047 A 
ATOM      3  C   UNL     1      28.061   0.756  31.299  1.00  0.00     0.119 A 
ATOM      4  C   UNL     1      27.298  -0.417  31.211  1.00  0.00     0.094 A 
ATOM      5  C   UNL     1      27.899  -1.619  30.822  1.00  0.00     0.142 A 
ATOM      6  C   UNL     1      29.279  -1.648  30.519  1.00  0.00     0.018 A 
ATOM      7  C   UNL     1      29.852  -2.863  30.134  1.00  0.00     0.019 A 
ATOM      8  C   UNL     1      29.053  -4.003  30.061  1.00  0.00     0.094 A 
ATOM      9  C   UNL     1      27.693  -3.900  30.376  1.00  0.00     0.336 A 
ATOM     10  O   UNL     1      26.956  -4.919  30.316  1.00  0.00    -0.246 OA
ATOM     11  O   UNL     1      27.173  -2.731  30.740  1.00  0.00    -0.423 OA
ENDROOT
BRANCH   3  12
ATOM     12  O   UNL     1      27.473   1.958  31.684  1.00  0.00    -0.508 OA
ATOM     13  H   UNL     1      26.536   1.989  32.073  1.00  0.00     0.293 HD
ENDBRANCH   3  12
TORSDOF 1
ENDMDL
MODEL 2
REMARK VINA RESULT:    -5.537      1.933      2.558
REMARK INTER + INTRA:          -5.699
REMARK INTER:                  -5.699
REMARK INTRA:                   0.000
REMARK UNBOUND:                 0.000
REMARK SMILES O=c1ccc2ccc(O)cc2o1
REMARK SMILES IDX 6 1 7 2 8 3 10 4 11 5 5 6 4 7 3 8 2 9 1 10 12 11 9 12
REMARK H PARENT 9 13
REMARK Flexibility Score: inf
ROOT
ATOM      1  C   UNL     1      26.472  -0.513  29.999  1.00  0.00     0.016 A 
ATOM      2  C   UNL     1      26.859   0.775  29.614  1.00  0.00     0.047 A 
ATOM      3  C   UNL     1      28.194   1.043  29.283  1.00  0.00     0.119 A 
ATOM      4  C   UNL     1      29.148   0.016  29.337  1.00  0.00     0.094 A 
ATOM      5  C   UNL     1      28.770  -1.275  29.722  1.00  0.00     0.142 A 
ATOM      6  C   UNL     1      27.423  -1.542  30.055  1.00  0.00     0.018 A 
ATOM      7  C   UNL     1      27.075  -2.841  30.434  1.00  0.00     0.019 A 
ATOM      8  C   UNL     1      28.058  -3.829  30.474  1.00  0.00     0.094 A 
ATOM      9  C   UNL     1      29.372  -3.492  30.130  1.00  0.00     0.336 A 
ATOM     10  O   UNL     1      30.273  -4.370  30.159  1.00  0.00    -0.246 OA
ATOM     11  O   UNL     1      29.677  -2.247  29.772  1.00  0.00    -0.423 OA
ENDROOT
BRANCH   3  12
ATOM     12  O   UNL     1      28.560   2.331  28.902  1.00  0.00    -0.508 OA
ATOM     13  H   UNL     1      29.108   2.929  29.511  1.00  0.00     0.293 HD
ENDBRANCH   3  12
TORSDOF 1
ENDMDL
MODEL 3
REMARK VINA RESULT:    -5.345      1.714      2.466
REMARK INTER + INTRA:          -5.501
REMARK INTER:                  -5.501
REMARK INTRA:                   0.000
REMARK UNBOUND:                 0.000
REMARK SMILES O=c1ccc2ccc(O)cc2o1
REMARK SMILES IDX 6 1 7 2 8 3 10 4 11 5 5 6 4 7 3 8 2 9 1 10 12 11 9 12
REMARK H PARENT 9 13
REMARK Flexibility Score: inf
ROOT
ATOM      1  C   UNL     1      26.954  -1.307  30.394  1.00  0.00     0.016 A 
ATOM      2  C   UNL     1      27.692  -0.127  30.260  1.00  0.00     0.047 A 
ATOM      3  C   UNL     1      29.083  -0.176  30.101  1.00  0.00     0.119 A 
ATOM      4  C   UNL     1      29.741  -1.414  30.075  1.00  0.00     0.094 A 
ATOM      5  C   UNL     1      29.011  -2.601  30.209  1.00  0.00     0.142 A 
ATOM      6  C   UNL     1      27.608  -2.547  30.369  1.00  0.00     0.018 A 
ATOM      7  C   UNL     1      26.906  -3.748  30.500  1.00  0.00     0.019 A 
ATOM      8  C   UNL     1      27.604  -4.955  30.469  1.00  0.00     0.094 A 
ATOM      9  C   UNL     1      28.993  -4.932  30.307  1.00  0.00     0.336 A 
ATOM     10  O   UNL     1      29.640  -6.011  30.276  1.00  0.00    -0.246 OA
ATOM     11  O   UNL     1      29.637  -3.774  30.185  1.00  0.00    -0.423 OA
ENDROOT
BRANCH   3  12
ATOM     12  O   UNL     1      29.800   1.011  29.969  1.00  0.00    -0.508 OA
ATOM     13  H   UNL     1      29.462   1.881  30.365  1.00  0.00     0.293 HD
ENDBRANCH   3  12
TORSDOF 1
ENDMDL
MODEL 4
REMARK VINA RESULT:    -5.312      1.786      4.505
REMARK INTER + INTRA:          -5.468
REMARK INTER:                  -5.468
REMARK INTRA:                   0.000
REMARK UNBOUND:                 0.000
REMARK SMILES O=c1ccc2ccc(O)cc2o1
REMARK SMILES IDX 6 1 7 2 8 3 10 4 11 5 5 6 4 7 3 8 2 9 1 10 12 11 9 12
REMARK H PARENT 9 13
REMARK Flexibility Score: inf
ROOT
ATOM      1  C   UNL     1      30.123  -4.039  30.089  1.00  0.00     0.016 A 
ATOM      2  C   UNL     1      29.921  -5.372  30.463  1.00  0.00     0.047 A 
ATOM      3  C   UNL     1      28.646  -5.816  30.838  1.00  0.00     0.119 A 
ATOM      4  C   UNL     1      27.566  -4.922  30.839  1.00  0.00     0.094 A 
ATOM      5  C   UNL     1      27.758  -3.587  30.467  1.00  0.00     0.142 A 
ATOM      6  C   UNL     1      29.045  -3.142  30.089  1.00  0.00     0.018 A 
ATOM      7  C   UNL     1      29.207  -1.804  29.721  1.00  0.00     0.019 A 
ATOM      8  C   UNL     1      28.103  -0.952  29.738  1.00  0.00     0.094 A 
ATOM      9  C   UNL     1      26.858  -1.461  30.123  1.00  0.00     0.336 A 
ATOM     10  O   UNL     1      25.851  -0.707  30.144  1.00  0.00    -0.246 OA
ATOM     11  O   UNL     1      26.732  -2.740  30.468  1.00  0.00    -0.423 OA
ENDROOT
BRANCH   3  12
ATOM     12  O   UNL     1      28.465  -7.146  31.208  1.00  0.00    -0.508 OA
ATOM     13  H   UNL     1      28.112  -7.399  32.124  1.00  0.00     0.293 HD
ENDBRANCH   3  12
TORSDOF 1
ENDMDL
MODEL 5
REMARK VINA RESULT:    -5.299      2.027      5.188
REMARK INTER + INTRA:          -5.454
REMARK INTER:                  -5.454
REMARK INTRA:                   0.000
REMARK UNBOUND:                 0.000
REMARK SMILES O=c1ccc2ccc(O)cc2o1
REMARK SMILES IDX 6 1 7 2 8 3 10 4 11 5 5 6 4 7 3 8 2 9 1 10 12 11 9 12
REMARK H PARENT 9 13
REMARK Flexibility Score: inf
ROOT
ATOM      1  C   UNL     1      26.856  -4.529  30.444  1.00  0.00     0.016 A 
ATOM      2  C   UNL     1      27.285  -5.798  30.043  1.00  0.00     0.047 A 
ATOM      3  C   UNL     1      28.619  -6.007  29.667  1.00  0.00     0.119 A 
ATOM      4  C   UNL     1      29.529  -4.940  29.694  1.00  0.00     0.094 A 
ATOM      5  C   UNL     1      29.108  -3.667  30.094  1.00  0.00     0.142 A 
ATOM      6  C   UNL     1      27.762  -3.460  30.472  1.00  0.00     0.018 A 
ATOM      7  C   UNL     1      27.371  -2.178  30.868  1.00  0.00     0.019 A 
ATOM      8  C   UNL     1      28.312  -1.148  30.879  1.00  0.00     0.094 A 
ATOM      9  C   UNL     1      29.627  -1.427  30.491  1.00  0.00     0.336 A 
ATOM     10  O   UNL     1      30.490  -0.511  30.495  1.00  0.00    -0.246 OA
ATOM     11  O   UNL     1      29.973  -2.657  30.119  1.00  0.00    -0.423 OA
ENDROOT
BRANCH   3  12
ATOM     12  O   UNL     1      29.027  -7.278  29.270  1.00  0.00    -0.508 OA
ATOM     13  H   UNL     1      29.551  -7.885  29.892  1.00  0.00     0.293 HD
ENDBRANCH   3  12
TORSDOF 1
ENDMDL
MODEL 6
REMARK VINA RESULT:    -5.289      2.017      5.210
REMARK INTER + INTRA:          -5.444
REMARK INTER:                  -5.444
REMARK INTRA:                   0.000
REMARK UNBOUND:                 0.000
REMARK SMILES O=c1ccc2ccc(O)cc2o1
REMARK SMILES IDX 6 1 7 2 8 3 10 4 11 5 5 6 4 7 3 8 2 9 1 10 12 11 9 12
REMARK H PARENT 9 13
REMARK Flexibility Score: inf
ROOT
ATOM      1  C   UNL     1      26.927  -0.336  29.052  1.00  0.00     0.016 A 
ATOM      2  C   UNL     1      27.070  -1.482  29.841  1.00  0.00     0.047 A 
ATOM      3  C   UNL     1      27.592  -1.387  31.138  1.00  0.00     0.119 A 
ATOM      4  C   UNL     1      27.974  -0.138  31.649  1.00  0.00     0.094 A 
ATOM      5  C   UNL     1      27.834   1.014  30.866  1.00  0.00     0.142 A 
ATOM      6  C   UNL     1      27.307   0.914  29.559  1.00  0.00     0.018 A 
ATOM      7  C   UNL     1      27.179   2.082  28.802  1.00  0.00     0.019 A 
ATOM      8  C   UNL     1      27.572   3.301  29.352  1.00  0.00     0.094 A 
ATOM      9  C   UNL     1      28.086   3.324  30.654  1.00  0.00     0.336 A 
ATOM     10  O   UNL     1      28.446   4.415  31.167  1.00  0.00    -0.246 OA
ATOM     11  O   UNL     1      28.197   2.198  31.353  1.00  0.00    -0.423 OA
ENDROOT
BRANCH   3  12
ATOM     12  O   UNL     1      27.727  -2.539  31.908  1.00  0.00    -0.508 OA
ATOM     13  H   UNL     1      28.496  -3.185  31.767  1.00  0.00     0.293 HD
ENDBRANCH   3  12
TORSDOF 1
ENDMDL
MODEL 7
REMARK VINA RESULT:    -5.248      2.180      5.124
REMARK INTER + INTRA:          -5.401
REMARK INTER:                  -5.401
REMARK INTRA:                   0.000
REMARK UNBOUND:                 0.000
REMARK SMILES O=c1ccc2ccc(O)cc2o1
REMARK SMILES IDX 6 1 7 2 8 3 10 4 11 5 5 6 4 7 3 8 2 9 1 10 12 11 9 12
REMARK H PARENT 9 13
REMARK Flexibility Score: inf
ROOT
ATOM      1  C   UNL     1      29.532  -0.250  31.508  1.00  0.00     0.016 A 
ATOM      2  C   UNL     1      29.550  -1.384  30.688  1.00  0.00     0.047 A 
ATOM      3  C   UNL     1      29.020  -1.328  29.393  1.00  0.00     0.119 A 
ATOM      4  C   UNL     1      28.467  -0.132  28.914  1.00  0.00     0.094 A 
ATOM      5  C   UNL     1      28.444   1.007  29.727  1.00  0.00     0.142 A 
ATOM      6  C   UNL     1      28.981   0.948  31.033  1.00  0.00     0.018 A 
ATOM      7  C   UNL     1      28.944   2.101  31.821  1.00  0.00     0.019 A 
ATOM      8  C   UNL     1      28.385   3.268  31.302  1.00  0.00     0.094 A 
ATOM      9  C   UNL     1      27.873   3.253  29.999  1.00  0.00     0.336 A 
ATOM     10  O   UNL     1      27.364   4.296  29.514  1.00  0.00    -0.246 OA
ATOM     11  O   UNL     1      27.920   2.141  29.270  1.00  0.00    -0.423 OA
ENDROOT
BRANCH   3  12
ATOM     12  O   UNL     1      29.047  -2.467  28.592  1.00  0.00    -0.508 OA
ATOM     13  H   UNL     1      28.209  -2.818  28.141  1.00  0.00     0.293 HD
ENDBRANCH   3  12
TORSDOF 1
ENDMDL
MODEL 8
REMARK VINA RESULT:    -5.135      1.937      4.862
REMARK INTER + INTRA:          -5.285
REMARK INTER:                  -5.285
REMARK INTRA:                   0.000
REMARK UNBOUND:                 0.000
REMARK SMILES O=c1ccc2ccc(O)cc2o1
REMARK SMILES IDX 6 1 7 2 8 3 10 4 11 5 5 6 4 7 3 8 2 9 1 10 12 11 9 12
REMARK H PARENT 9 13
REMARK Flexibility Score: inf
ROOT
ATOM      1  C   UNL     1      26.926  -4.016  30.729  1.00  0.00     0.016 A 
ATOM      2  C   UNL     1      27.706  -5.178  30.733  1.00  0.00     0.047 A 
ATOM      3  C   UNL     1      29.059  -5.122  30.375  1.00  0.00     0.119 A 
ATOM      4  C   UNL     1      29.637  -3.897  30.012  1.00  0.00     0.094 A 
ATOM      5  C   UNL     1      28.865  -2.730  30.006  1.00  0.00     0.142 A 
ATOM      6  C   UNL     1      27.500  -2.790  30.367  1.00  0.00     0.018 A 
ATOM      7  C   UNL     1      26.755  -1.608  30.352  1.00  0.00     0.019 A 
ATOM      8  C   UNL     1      27.373  -0.413  29.984  1.00  0.00     0.094 A 
ATOM      9  C   UNL     1      28.729  -0.430  29.638  1.00  0.00     0.336 A 
ATOM     10  O   UNL     1      29.304   0.638  29.303  1.00  0.00    -0.246 OA
ATOM     11  O   UNL     1      29.416  -1.569  29.661  1.00  0.00    -0.423 OA
ENDROOT
BRANCH   3  12
ATOM     12  O   UNL     1      29.818  -6.290  30.384  1.00  0.00    -0.508 OA
ATOM     13  H   UNL     1      29.385  -7.204  30.452  1.00  0.00     0.293 HD
ENDBRANCH   3  12
TORSDOF 1
ENDMDL
