MODEL 1
REMARK VINA RESULT:    -4.256      0.000      0.000
REMARK INTER + INTRA:          -4.648
REMARK INTER:                  -4.505
REMARK INTRA:                  -0.143
REMARK UNBOUND:                -0.143
REMARK SMILES CC1=CC[C@H](C(C)C)C=C1
REMARK SMILES IDX 1 1 2 2 3 3 4 4 5 5 9 6 10 7 6 8 7 9 8 10
REMARK H PARENT
REMARK Flexibility Score: inf
ROOT
ATOM      1  C   UNL     1     137.649 138.776 131.674  1.00  0.00     0.044 C 
ATOM      2  C   UNL     1     137.874 139.656 132.867  1.00  0.00    -0.055 C 
ATOM      3  C   UNL     1     137.415 140.918 132.874  1.00  0.00    -0.023 C 
ATOM      4  C   UNL     1     137.700 141.829 134.040  1.00  0.00     0.035 C 
ATOM      5  C   UNL     1     137.676 141.040 135.370  1.00  0.00     0.018 C 
ATOM      6  C   UNL     1     138.488 139.765 135.240  1.00  0.00    -0.023 C 
ATOM      7  C   UNL     1     138.527 139.104 134.077  1.00  0.00    -0.001 C 
ENDROOT
BRANCH   5   8
ATOM      8  C   UNL     1     138.095 141.922 136.583  1.00  0.00    -0.010 C 
ATOM      9  C   UNL     1     138.708 143.254 136.121  1.00  0.00     0.008 C 
ATOM     10  C   UNL     1     136.952 142.184 137.581  1.00  0.00     0.008 C 
ENDBRANCH   5   8
TORSDOF 1
ENDMDL
MODEL 2
REMARK VINA RESULT:    -4.254      3.693      4.904
REMARK INTER + INTRA:          -4.646
REMARK INTER:                  -4.504
REMARK INTRA:                  -0.142
REMARK UNBOUND:                -0.143
REMARK SMILES CC1=CC[C@H](C(C)C)C=C1
REMARK SMILES IDX 1 1 2 2 3 3 4 4 5 5 9 6 10 7 6 8 7 9 8 10
REMARK H PARENT
REMARK Flexibility Score: inf
ROOT
ATOM      1  C   UNL     1     143.265 137.599 131.789  1.00  0.00     0.044 C 
ATOM      2  C   UNL     1     142.401 137.841 132.990  1.00  0.00    -0.055 C 
ATOM      3  C   UNL     1     141.116 137.451 132.989  1.00  0.00    -0.023 C 
ATOM      4  C   UNL     1     140.224 137.755 134.164  1.00  0.00     0.035 C 
ATOM      5  C   UNL     1     141.011 137.654 135.491  1.00  0.00     0.018 C 
ATOM      6  C   UNL     1     142.329 138.399 135.378  1.00  0.00    -0.023 C 
ATOM      7  C   UNL     1     142.990 138.432 134.214  1.00  0.00    -0.001 C 
ENDROOT
BRANCH   5   8
ATOM      8  C   UNL     1     140.156 138.089 136.717  1.00  0.00    -0.010 C 
ATOM      9  C   UNL     1     138.831 138.732 136.274  1.00  0.00     0.008 C 
ATOM     10  C   UNL     1     139.882 136.950 137.715  1.00  0.00     0.008 C 
ENDBRANCH   5   8
TORSDOF 1
ENDMDL
MODEL 3
REMARK VINA RESULT:    -4.244      3.774      4.987
REMARK INTER + INTRA:          -4.635
REMARK INTER:                  -4.493
REMARK INTRA:                  -0.142
REMARK UNBOUND:                -0.143
REMARK SMILES CC1=CC[C@H](C(C)C)C=C1
REMARK SMILES IDX 1 1 2 2 3 3 4 4 5 5 9 6 10 7 6 8 7 9 8 10
REMARK H PARENT
REMARK Flexibility Score: inf
ROOT
ATOM      1  C   UNL     1     138.742 144.552 131.647  1.00  0.00     0.044 C 
ATOM      2  C   UNL     1     139.628 144.326 132.836  1.00  0.00    -0.055 C 
ATOM      3  C   UNL     1     140.891 144.782 132.835  1.00  0.00    -0.023 C 
ATOM      4  C   UNL     1     141.808 144.496 133.996  1.00  0.00     0.035 C 
ATOM      5  C   UNL     1     141.027 144.522 135.330  1.00  0.00     0.018 C 
ATOM      6  C   UNL     1     139.749 143.713 135.208  1.00  0.00    -0.023 C 
ATOM      7  C   UNL     1     139.081 143.674 134.049  1.00  0.00    -0.001 C 
ENDROOT
BRANCH   5   8
ATOM      8  C   UNL     1     141.915 144.103 136.538  1.00  0.00    -0.010 C 
ATOM      9  C   UNL     1     143.256 143.516 136.070  1.00  0.00     0.008 C 
ATOM     10  C   UNL     1     142.159 145.237 137.550  1.00  0.00     0.008 C 
ENDBRANCH   5   8
TORSDOF 1
ENDMDL
MODEL 4
REMARK VINA RESULT:    -4.201      6.235      7.072
REMARK INTER + INTRA:          -4.590
REMARK INTER:                  -4.448
REMARK INTRA:                  -0.142
REMARK UNBOUND:                -0.143
REMARK SMILES CC1=CC[C@H](C(C)C)C=C1
REMARK SMILES IDX 1 1 2 2 3 3 4 4 5 5 9 6 10 7 6 8 7 9 8 10
REMARK H PARENT
REMARK Flexibility Score: inf
ROOT
ATOM      1  C   UNL     1     144.446 143.616 131.421  1.00  0.00     0.044 C 
ATOM      2  C   UNL     1     144.259 142.736 132.621  1.00  0.00    -0.055 C 
ATOM      3  C   UNL     1     144.780 141.499 132.641  1.00  0.00    -0.023 C 
ATOM      4  C   UNL     1     144.535 140.585 133.813  1.00  0.00     0.035 C 
ATOM      5  C   UNL     1     144.513 141.384 135.137  1.00  0.00     0.018 C 
ATOM      6  C   UNL     1     143.640 142.616 134.992  1.00  0.00    -0.023 C 
ATOM      7  C   UNL     1     143.573 143.265 133.823  1.00  0.00    -0.001 C 
ENDROOT
BRANCH   5   8
ATOM      8  C   UNL     1     144.133 140.492 136.355  1.00  0.00    -0.010 C 
ATOM      9  C   UNL     1     143.633 139.111 135.903  1.00  0.00     0.008 C 
ATOM     10  C   UNL     1     145.268 140.334 137.383  1.00  0.00     0.008 C 
ENDBRANCH   5   8
TORSDOF 1
ENDMDL
MODEL 5
REMARK VINA RESULT:    -4.173      5.637      6.314
REMARK INTER + INTRA:          -4.559
REMARK INTER:                  -4.396
REMARK INTRA:                  -0.163
REMARK UNBOUND:                -0.143
REMARK SMILES CC1=CC[C@H](C(C)C)C=C1
REMARK SMILES IDX 1 1 2 2 3 3 4 4 5 5 9 6 10 7 6 8 7 9 8 10
REMARK H PARENT
REMARK Flexibility Score: inf
ROOT
ATOM      1  C   UNL     1     143.051 137.285 131.356  1.00  0.00     0.044 C 
ATOM      2  C   UNL     1     143.305 138.319 132.411  1.00  0.00    -0.055 C 
ATOM      3  C   UNL     1     142.920 138.102 133.679  1.00  0.00    -0.023 C 
ATOM      4  C   UNL     1     143.107 139.167 134.728  1.00  0.00     0.035 C 
ATOM      5  C   UNL     1     144.424 139.943 134.493  1.00  0.00     0.018 C 
ATOM      6  C   UNL     1     144.544 140.343 133.034  1.00  0.00    -0.023 C 
ATOM      7  C   UNL     1     144.062 139.547 132.072  1.00  0.00    -0.001 C 
ENDROOT
BRANCH   5   8
ATOM      8  C   UNL     1     144.587 141.136 135.480  1.00  0.00    -0.010 C 
ATOM      9  C   UNL     1     143.283 141.941 135.605  1.00  0.00     0.008 C 
ATOM     10  C   UNL     1     145.087 140.720 136.875  1.00  0.00     0.008 C 
ENDBRANCH   5   8
TORSDOF 1
ENDMDL
MODEL 6
REMARK VINA RESULT:    -4.150      1.981      3.441
REMARK INTER + INTRA:          -4.536
REMARK INTER:                  -4.387
REMARK INTRA:                  -0.148
REMARK UNBOUND:                -0.143
REMARK SMILES CC1=CC[C@H](C(C)C)C=C1
REMARK SMILES IDX 1 1 2 2 3 3 4 4 5 5 9 6 10 7 6 8 7 9 8 10
REMARK H PARENT
REMARK Flexibility Score: inf
ROOT
ATOM      1  C   UNL     1     138.773 144.700 131.351  1.00  0.00     0.044 C 
ATOM      2  C   UNL     1     138.761 143.804 132.553  1.00  0.00    -0.055 C 
ATOM      3  C   UNL     1     139.376 144.182 133.685  1.00  0.00    -0.023 C 
ATOM      4  C   UNL     1     139.429 143.255 134.872  1.00  0.00     0.035 C 
ATOM      5  C   UNL     1     138.117 142.445 134.994  1.00  0.00     0.018 C 
ATOM      6  C   UNL     1     137.731 141.864 133.647  1.00  0.00    -0.023 C 
ATOM      7  C   UNL     1     137.994 142.537 132.520  1.00  0.00    -0.001 C 
ENDROOT
BRANCH   5   8
ATOM      8  C   UNL     1     138.186 141.383 136.131  1.00  0.00    -0.010 C 
ATOM      9  C   UNL     1     136.944 141.449 137.034  1.00  0.00     0.008 C 
ATOM     10  C   UNL     1     138.395 139.945 135.622  1.00  0.00     0.008 C 
ENDBRANCH   5   8
TORSDOF 1
ENDMDL
MODEL 7
REMARK VINA RESULT:    -4.143      5.423      7.100
REMARK INTER + INTRA:          -4.528
REMARK INTER:                  -4.390
REMARK INTRA:                  -0.138
REMARK UNBOUND:                -0.143
REMARK SMILES CC1=CC[C@H](C(C)C)C=C1
REMARK SMILES IDX 1 1 2 2 3 3 4 4 5 5 9 6 10 7 6 8 7 9 8 10
REMARK H PARENT
REMARK Flexibility Score: inf
ROOT
ATOM      1  C   UNL     1     141.378 145.148 137.092  1.00  0.00     0.044 C 
ATOM      2  C   UNL     1     141.903 144.439 135.879  1.00  0.00    -0.055 C 
ATOM      3  C   UNL     1     141.427 144.741 134.660  1.00  0.00    -0.023 C 
ATOM      4  C   UNL     1     141.898 143.983 133.446  1.00  0.00     0.035 C 
ATOM      5  C   UNL     1     143.398 143.624 133.571  1.00  0.00     0.018 C 
ATOM      6  C   UNL     1     143.684 143.037 134.941  1.00  0.00    -0.023 C 
ATOM      7  C   UNL     1     143.013 143.467 136.016  1.00  0.00    -0.001 C 
ENDROOT
BRANCH   5   8
ATOM      8  C   UNL     1     143.887 142.728 132.396  1.00  0.00    -0.010 C 
ATOM      9  C   UNL     1     144.779 143.517 131.425  1.00  0.00     0.008 C 
ATOM     10  C   UNL     1     144.608 141.447 132.855  1.00  0.00     0.008 C 
ENDBRANCH   5   8
TORSDOF 1
ENDMDL
MODEL 8
REMARK VINA RESULT:    -4.141      2.336      4.385
REMARK INTER + INTRA:          -4.526
REMARK INTER:                  -4.396
REMARK INTRA:                  -0.129
REMARK UNBOUND:                -0.143
REMARK SMILES CC1=CC[C@H](C(C)C)C=C1
REMARK SMILES IDX 1 1 2 2 3 3 4 4 5 5 9 6 10 7 6 8 7 9 8 10
REMARK H PARENT
REMARK Flexibility Score: inf
ROOT
ATOM      1  C   UNL     1     136.945 141.521 137.087  1.00  0.00     0.044 C 
ATOM      2  C   UNL     1     137.822 142.036 135.985  1.00  0.00    -0.055 C 
ATOM      3  C   UNL     1     137.550 141.732 134.706  1.00  0.00    -0.023 C 
ATOM      4  C   UNL     1     138.468 142.186 133.601  1.00  0.00     0.035 C 
ATOM      5  C   UNL     1     139.043 143.589 133.907  1.00  0.00     0.018 C 
ATOM      6  C   UNL     1     139.555 143.646 135.334  1.00  0.00    -0.023 C 
ATOM      7  C   UNL     1     138.941 142.954 136.302  1.00  0.00    -0.001 C 
ENDROOT
BRANCH   5   8
ATOM      8  C   UNL     1     140.097 144.035 132.851  1.00  0.00    -0.010 C 
ATOM      9  C   UNL     1     139.429 144.733 131.655  1.00  0.00     0.008 C 
ATOM     10  C   UNL     1     141.212 144.926 133.428  1.00  0.00     0.008 C 
ENDBRANCH   5   8
TORSDOF 1
ENDMDL
MODEL 9
REMARK VINA RESULT:    -4.132      5.221      7.073
REMARK INTER + INTRA:          -4.517
REMARK INTER:                  -4.384
REMARK INTRA:                  -0.133
REMARK UNBOUND:                -0.143
REMARK SMILES CC1=CC[C@H](C(C)C)C=C1
REMARK SMILES IDX 1 1 2 2 3 3 4 4 5 5 9 6 10 7 6 8 7 9 8 10
REMARK H PARENT
REMARK Flexibility Score: inf
ROOT
ATOM      1  C   UNL     1     145.194 140.703 137.019  1.00  0.00     0.044 C 
ATOM      2  C   UNL     1     144.356 140.181 135.890  1.00  0.00    -0.055 C 
ATOM      3  C   UNL     1     144.613 140.558 134.627  1.00  0.00    -0.023 C 
ATOM      4  C   UNL     1     143.730 140.094 133.497  1.00  0.00     0.035 C 
ATOM      5  C   UNL     1     143.246 138.645 133.738  1.00  0.00     0.018 C 
ATOM      6  C   UNL     1     142.735 138.492 135.158  1.00  0.00    -0.023 C 
ATOM      7  C   UNL     1     143.299 139.179 136.159  1.00  0.00    -0.001 C 
ENDROOT
BRANCH   5   8
ATOM      8  C   UNL     1     142.228 138.179 132.656  1.00  0.00    -0.010 C 
ATOM      9  C   UNL     1     142.925 137.392 131.535  1.00  0.00     0.008 C 
ATOM     10  C   UNL     1     141.054 137.361 133.225  1.00  0.00     0.008 C 
ENDBRANCH   5   8
TORSDOF 1
ENDMDL
