MODEL 1
REMARK VINA RESULT:    -6.621      0.000      0.000
REMARK INTER + INTRA:          -8.391
REMARK INTER:                  -7.976
REMARK INTRA:                  -0.416
REMARK UNBOUND:                -0.416
REMARK SMILES O=c1c(O)c(-c2ccc(O)cc2O)oc2cc(O)cc(O)c12
REMARK SMILES IDX 5 1 3 2 2 3 1 4 22 5 20 6 19 7 17 8 16 9 15 10 14 11 6 12
REMARK SMILES IDX 8 13 7 14 9 15 11 16 12 17 10 18 13 20 4 22 21 24 18 26
REMARK H PARENT 10 19 13 21 4 23 21 25 18 27
REMARK Flexibility Score: inf
ROOT
ATOM      1  C   UNL     1      87.027  73.239  19.074  1.00  0.00     0.184 A 
ATOM      2  C   UNL     1      87.048  72.139  18.203  1.00  0.00     0.208 A 
ATOM      3  C   UNL     1      87.714  72.259  16.973  1.00  0.00     0.238 A 
ATOM      4  O   UNL     1      87.683  71.288  16.172  1.00  0.00    -0.285 OA
ATOM      5  C   UNL     1      88.363  73.472  16.638  1.00  0.00     0.111 A 
ATOM      6  C   UNL     1      89.102  73.693  15.437  1.00  0.00     0.134 A 
ATOM      7  C   UNL     1      89.592  74.973  15.152  1.00  0.00     0.093 A 
ATOM      8  C   UNL     1      89.427  76.025  16.056  1.00  0.00     0.123 A 
ATOM      9  C   UNL     1      88.758  75.806  17.259  1.00  0.00     0.094 A 
ATOM     10  C   UNL     1      88.227  74.549  17.555  1.00  0.00     0.146 A 
ATOM     11  O   UNL     1      87.587  74.385  18.707  1.00  0.00    -0.451 OA
ENDROOT
BRANCH   1  12
ATOM     12  C   UNL     1      86.359  73.174  20.391  1.00  0.00     0.063 A 
ATOM     13  C   UNL     1      84.293  73.135  21.672  1.00  0.00     0.047 A 
ATOM     14  C   UNL     1      84.956  73.190  20.443  1.00  0.00     0.020 A 
ATOM     15  C   UNL     1      85.024  73.078  22.864  1.00  0.00     0.119 A 
ATOM     16  C   UNL     1      86.421  73.085  22.823  1.00  0.00     0.093 A 
ATOM     17  C   UNL     1      87.095  73.146  21.593  1.00  0.00     0.130 A 
BRANCH  15  18
ATOM     18  O   UNL     1      84.372  73.019  24.094  1.00  0.00    -0.508 OA
ATOM     19  H   UNL     1      83.611  73.647  24.320  1.00  0.00     0.293 HD
ENDBRANCH  15  18
BRANCH  17  20
ATOM     20  O   UNL     1      88.490  73.201  21.569  1.00  0.00    -0.507 OA
ATOM     21  H   UNL     1      88.985  73.883  21.007  1.00  0.00     0.293 HD
ENDBRANCH  17  20
ENDBRANCH   1  12
BRANCH   2  22
ATOM     22  O   UNL     1      86.384  70.960  18.549  1.00  0.00    -0.502 OA
ATOM     23  H   UNL     1      86.730  70.330  19.264  1.00  0.00     0.293 HD
ENDBRANCH   2  22
BRANCH   6  24
ATOM     24  O   UNL     1      89.402  72.689  14.511  1.00  0.00    -0.507 OA
ATOM     25  H   UNL     1      90.173  72.044  14.593  1.00  0.00     0.293 HD
ENDBRANCH   6  24
BRANCH   8  26
ATOM     26  O   UNL     1      89.931  77.292  15.772  1.00  0.00    -0.508 OA
ATOM     27  H   UNL     1      90.430  77.832  16.470  1.00  0.00     0.293 HD
ENDBRANCH   8  26
TORSDOF 6
ENDMDL
MODEL 2
REMARK VINA RESULT:    -6.505      0.713      1.452
REMARK INTER + INTRA:          -8.251
REMARK INTER:                  -7.909
REMARK INTRA:                  -0.342
REMARK UNBOUND:                -0.416
REMARK SMILES O=c1c(O)c(-c2ccc(O)cc2O)oc2cc(O)cc(O)c12
REMARK SMILES IDX 5 1 3 2 2 3 1 4 22 5 20 6 19 7 17 8 16 9 15 10 14 11 6 12
REMARK SMILES IDX 8 13 7 14 9 15 11 16 12 17 10 18 13 20 4 22 21 24 18 26
REMARK H PARENT 10 19 13 21 4 23 21 25 18 27
REMARK Flexibility Score: inf
ROOT
ATOM      1  C   UNL     1      87.137  73.260  19.121  1.00  0.00     0.184 A 
ATOM      2  C   UNL     1      87.161  72.146  18.267  1.00  0.00     0.208 A 
ATOM      3  C   UNL     1      87.787  72.263  17.017  1.00  0.00     0.238 A 
ATOM      4  O   UNL     1      87.758  71.278  16.232  1.00  0.00    -0.285 OA
ATOM      5  C   UNL     1      88.396  73.486  16.644  1.00  0.00     0.111 A 
ATOM      6  C   UNL     1      89.093  73.705  15.419  1.00  0.00     0.134 A 
ATOM      7  C   UNL     1      89.543  74.992  15.099  1.00  0.00     0.093 A 
ATOM      8  C   UNL     1      89.377  76.054  15.992  1.00  0.00     0.123 A 
ATOM      9  C   UNL     1      88.750  75.839  17.217  1.00  0.00     0.094 A 
ATOM     10  C   UNL     1      88.258  74.574  17.548  1.00  0.00     0.146 A 
ATOM     11  O   UNL     1      87.657  74.413  18.721  1.00  0.00    -0.451 OA
ENDROOT
BRANCH   1  12
ATOM     12  C   UNL     1      86.509  73.200  20.458  1.00  0.00     0.063 A 
ATOM     13  C   UNL     1      86.771  73.096  22.873  1.00  0.00     0.047 A 
ATOM     14  C   UNL     1      87.332  73.159  21.595  1.00  0.00     0.020 A 
ATOM     15  C   UNL     1      85.380  73.059  23.030  1.00  0.00     0.119 A 
ATOM     16  C   UNL     1      84.554  73.076  21.903  1.00  0.00     0.093 A 
ATOM     17  C   UNL     1      85.109  73.133  20.615  1.00  0.00     0.130 A 
BRANCH  15  18
ATOM     18  O   UNL     1      84.810  72.999  24.300  1.00  0.00    -0.508 OA
ATOM     19  H   UNL     1      83.813  73.106  24.439  1.00  0.00     0.293 HD
ENDBRANCH  15  18
BRANCH  17  20
ATOM     20  O   UNL     1      84.274  73.100  19.498  1.00  0.00    -0.507 OA
ATOM     21  H   UNL     1      84.646  73.117  18.555  1.00  0.00     0.293 HD
ENDBRANCH  17  20
ENDBRANCH   1  12
BRANCH   2  22
ATOM     22  O   UNL     1      86.537  70.957  18.652  1.00  0.00    -0.502 OA
ATOM     23  H   UNL     1      85.664  70.644  18.243  1.00  0.00     0.293 HD
ENDBRANCH   2  22
BRANCH   6  24
ATOM     24  O   UNL     1      89.393  72.694  14.501  1.00  0.00    -0.507 OA
ATOM     25  H   UNL     1      90.311  72.304  14.353  1.00  0.00     0.293 HD
ENDBRANCH   6  24
BRANCH   8  26
ATOM     26  O   UNL     1      89.841  77.329  15.673  1.00  0.00    -0.508 OA
ATOM     27  H   UNL     1      90.390  77.872  16.329  1.00  0.00     0.293 HD
ENDBRANCH   8  26
TORSDOF 6
ENDMDL
MODEL 3
REMARK VINA RESULT:    -6.199      1.667      6.579
REMARK INTER + INTRA:          -7.883
REMARK INTER:                  -7.575
REMARK INTRA:                  -0.308
REMARK UNBOUND:                -0.416
REMARK SMILES O=c1c(O)c(-c2ccc(O)cc2O)oc2cc(O)cc(O)c12
REMARK SMILES IDX 5 1 3 2 2 3 1 4 22 5 20 6 19 7 17 8 16 9 15 10 14 11 6 12
REMARK SMILES IDX 8 13 7 14 9 15 11 16 12 17 10 18 13 20 4 22 21 24 18 26
REMARK H PARENT 10 19 13 21 4 23 21 25 18 27
REMARK Flexibility Score: inf
ROOT
ATOM      1  C   UNL     1      87.047  73.730  18.462  1.00  0.00     0.184 A 
ATOM      2  C   UNL     1      85.992  72.835  18.223  1.00  0.00     0.208 A 
ATOM      3  C   UNL     1      85.335  72.252  19.318  1.00  0.00     0.238 A 
ATOM      4  O   UNL     1      84.426  71.409  19.098  1.00  0.00    -0.285 OA
ATOM      5  C   UNL     1      85.732  72.584  20.636  1.00  0.00     0.111 A 
ATOM      6  C   UNL     1      85.111  72.084  21.820  1.00  0.00     0.134 A 
ATOM      7  C   UNL     1      85.669  72.378  23.070  1.00  0.00     0.093 A 
ATOM      8  C   UNL     1      86.787  73.207  23.182  1.00  0.00     0.123 A 
ATOM      9  C   UNL     1      87.366  73.749  22.036  1.00  0.00     0.094 A 
ATOM     10  C   UNL     1      86.853  73.445  20.772  1.00  0.00     0.146 A 
ATOM     11  O   UNL     1      87.441  73.972  19.705  1.00  0.00    -0.451 OA
ENDROOT
BRANCH   1  12
ATOM     12  C   UNL     1      87.769  74.392  17.354  1.00  0.00     0.063 A 
ATOM     13  C   UNL     1      89.817  74.646  16.069  1.00  0.00     0.047 A 
ATOM     14  C   UNL     1      89.104  74.036  17.104  1.00  0.00     0.020 A 
ATOM     15  C   UNL     1      89.208  75.630  15.280  1.00  0.00     0.119 A 
ATOM     16  C   UNL     1      87.887  76.006  15.537  1.00  0.00     0.093 A 
ATOM     17  C   UNL     1      87.166  75.403  16.578  1.00  0.00     0.130 A 
BRANCH  15  18
ATOM     18  O   UNL     1      89.910  76.242  14.243  1.00  0.00    -0.508 OA
ATOM     19  H   UNL     1      90.819  76.661  14.394  1.00  0.00     0.293 HD
ENDBRANCH  15  18
BRANCH  17  20
ATOM     20  O   UNL     1      85.864  75.823  16.854  1.00  0.00    -0.507 OA
ATOM     21  H   UNL     1      85.423  75.636  17.747  1.00  0.00     0.293 HD
ENDBRANCH  17  20
ENDBRANCH   1  12
BRANCH   2  22
ATOM     22  O   UNL     1      85.632  72.511  16.912  1.00  0.00    -0.502 OA
ATOM     23  H   UNL     1      86.306  72.481  16.155  1.00  0.00     0.293 HD
ENDBRANCH   2  22
BRANCH   6  24
ATOM     24  O   UNL     1      83.938  71.323  21.823  1.00  0.00    -0.507 OA
ATOM     25  H   UNL     1      83.740  70.573  22.468  1.00  0.00     0.293 HD
ENDBRANCH   6  24
BRANCH   8  26
ATOM     26  O   UNL     1      87.328  73.507  24.431  1.00  0.00    -0.508 OA
ATOM     27  H   UNL     1      87.289  72.846  25.197  1.00  0.00     0.293 HD
ENDBRANCH   8  26
TORSDOF 6
ENDMDL
MODEL 4
REMARK VINA RESULT:    -6.016      1.901      6.515
REMARK INTER + INTRA:          -7.663
REMARK INTER:                  -7.239
REMARK INTRA:                  -0.424
REMARK UNBOUND:                -0.416
REMARK SMILES O=c1c(O)c(-c2ccc(O)cc2O)oc2cc(O)cc(O)c12
REMARK SMILES IDX 5 1 3 2 2 3 1 4 22 5 20 6 19 7 17 8 16 9 15 10 14 11 6 12
REMARK SMILES IDX 8 13 7 14 9 15 11 16 12 17 10 18 13 20 4 22 21 24 18 26
REMARK H PARENT 10 19 13 21 4 23 21 25 18 27
REMARK Flexibility Score: inf
ROOT
ATOM      1  C   UNL     1      87.106  74.095  17.086  1.00  0.00     0.184 A 
ATOM      2  C   UNL     1      87.703  72.839  17.276  1.00  0.00     0.208 A 
ATOM      3  C   UNL     1      87.391  72.107  18.433  1.00  0.00     0.238 A 
ATOM      4  O   UNL     1      87.971  71.006  18.626  1.00  0.00    -0.285 OA
ATOM      5  C   UNL     1      86.475  72.635  19.375  1.00  0.00     0.111 A 
ATOM      6  C   UNL     1      86.055  71.962  20.562  1.00  0.00     0.134 A 
ATOM      7  C   UNL     1      85.244  72.633  21.486  1.00  0.00     0.093 A 
ATOM      8  C   UNL     1      84.785  73.928  21.234  1.00  0.00     0.123 A 
ATOM      9  C   UNL     1      85.141  74.571  20.051  1.00  0.00     0.094 A 
ATOM     10  C   UNL     1      85.978  73.942  19.126  1.00  0.00     0.146 A 
ATOM     11  O   UNL     1      86.302  74.594  18.016  1.00  0.00    -0.451 OA
ENDROOT
BRANCH   1  12
ATOM     12  C   UNL     1      87.378  74.910  15.882  1.00  0.00     0.063 A 
ATOM     13  C   UNL     1      86.982  75.318  13.519  1.00  0.00     0.047 A 
ATOM     14  C   UNL     1      86.743  74.574  14.676  1.00  0.00     0.020 A 
ATOM     15  C   UNL     1      87.870  76.400  13.550  1.00  0.00     0.119 A 
ATOM     16  C   UNL     1      88.524  76.728  14.740  1.00  0.00     0.093 A 
ATOM     17  C   UNL     1      88.295  75.981  15.906  1.00  0.00     0.130 A 
BRANCH  15  18
ATOM     18  O   UNL     1      88.113  77.152  12.402  1.00  0.00    -0.508 OA
ATOM     19  H   UNL     1      88.053  78.163  12.408  1.00  0.00     0.293 HD
ENDBRANCH  15  18
BRANCH  17  20
ATOM     20  O   UNL     1      88.991  76.289  17.075  1.00  0.00    -0.507 OA
ATOM     21  H   UNL     1      89.446  75.572  17.628  1.00  0.00     0.293 HD
ENDBRANCH  17  20
ENDBRANCH   1  12
BRANCH   2  22
ATOM     22  O   UNL     1      88.618  72.351  16.341  1.00  0.00    -0.502 OA
ATOM     23  H   UNL     1      88.329  71.870  15.497  1.00  0.00     0.293 HD
ENDBRANCH   2  22
BRANCH   6  24
ATOM     24  O   UNL     1      86.381  70.637  20.864  1.00  0.00    -0.507 OA
ATOM     25  H   UNL     1      85.864  69.831  20.549  1.00  0.00     0.293 HD
ENDBRANCH   6  24
BRANCH   8  26
ATOM     26  O   UNL     1      83.966  74.583  22.152  1.00  0.00    -0.508 OA
ATOM     27  H   UNL     1      83.090  75.007  21.871  1.00  0.00     0.293 HD
ENDBRANCH   8  26
TORSDOF 6
ENDMDL
MODEL 5
REMARK VINA RESULT:    -5.880      1.919      2.236
REMARK INTER + INTRA:          -7.498
REMARK INTER:                  -7.084
REMARK INTRA:                  -0.414
REMARK UNBOUND:                -0.416
REMARK SMILES O=c1c(O)c(-c2ccc(O)cc2O)oc2cc(O)cc(O)c12
REMARK SMILES IDX 5 1 3 2 2 3 1 4 22 5 20 6 19 7 17 8 16 9 15 10 14 11 6 12
REMARK SMILES IDX 8 13 7 14 9 15 11 16 12 17 10 18 13 20 4 22 21 24 18 26
REMARK H PARENT 10 19 13 21 4 23 21 25 18 27
REMARK Flexibility Score: inf
ROOT
ATOM      1  C   UNL     1      86.761  73.590  17.957  1.00  0.00     0.184 A 
ATOM      2  C   UNL     1      86.080  73.283  16.769  1.00  0.00     0.208 A 
ATOM      3  C   UNL     1      86.460  73.929  15.582  1.00  0.00     0.238 A 
ATOM      4  O   UNL     1      85.810  73.692  14.530  1.00  0.00    -0.285 OA
ATOM      5  C   UNL     1      87.528  74.860  15.597  1.00  0.00     0.111 A 
ATOM      6  C   UNL     1      88.024  75.543  14.446  1.00  0.00     0.134 A 
ATOM      7  C   UNL     1      88.998  76.538  14.600  1.00  0.00     0.093 A 
ATOM      8  C   UNL     1      89.539  76.827  15.855  1.00  0.00     0.123 A 
ATOM      9  C   UNL     1      89.104  76.125  16.976  1.00  0.00     0.094 A 
ATOM     10  C   UNL     1      88.108  75.152  16.860  1.00  0.00     0.146 A 
ATOM     11  O   UNL     1      87.713  74.513  17.955  1.00  0.00    -0.451 OA
ENDROOT
BRANCH   1  12
ATOM     12  C   UNL     1      86.422  72.933  19.238  1.00  0.00     0.063 A 
ATOM     13  C   UNL     1      86.431  70.926  20.609  1.00  0.00     0.047 A 
ATOM     14  C   UNL     1      86.744  71.578  19.413  1.00  0.00     0.020 A 
ATOM     15  C   UNL     1      85.781  71.617  21.638  1.00  0.00     0.119 A 
ATOM     16  C   UNL     1      85.436  72.960  21.463  1.00  0.00     0.093 A 
ATOM     17  C   UNL     1      85.740  73.621  20.263  1.00  0.00     0.130 A 
BRANCH  15  18
ATOM     18  O   UNL     1      85.469  70.977  22.836  1.00  0.00    -0.508 OA
ATOM     19  H   UNL     1      84.874  71.412  23.530  1.00  0.00     0.293 HD
ENDBRANCH  15  18
BRANCH  17  20
ATOM     20  O   UNL     1      85.347  74.948  20.083  1.00  0.00    -0.507 OA
ATOM     21  H   UNL     1      84.583  75.352  20.612  1.00  0.00     0.293 HD
ENDBRANCH  17  20
ENDBRANCH   1  12
BRANCH   2  22
ATOM     22  O   UNL     1      85.018  72.375  16.785  1.00  0.00    -0.502 OA
ATOM     23  H   UNL     1      84.922  71.638  16.097  1.00  0.00     0.293 HD
ENDBRANCH   2  22
BRANCH   6  24
ATOM     24  O   UNL     1      87.617  75.264  13.138  1.00  0.00    -0.507 OA
ATOM     25  H   UNL     1      86.981  74.526  12.879  1.00  0.00     0.293 HD
ENDBRANCH   6  24
BRANCH   8  26
ATOM     26  O   UNL     1      90.519  77.808  15.997  1.00  0.00    -0.508 OA
ATOM     27  H   UNL     1      91.037  77.917  16.860  1.00  0.00     0.293 HD
ENDBRANCH   8  26
TORSDOF 6
ENDMDL
MODEL 6
REMARK VINA RESULT:    -5.797      2.996      5.885
REMARK INTER + INTRA:          -7.399
REMARK INTER:                  -6.993
REMARK INTRA:                  -0.406
REMARK UNBOUND:                -0.416
REMARK SMILES O=c1c(O)c(-c2ccc(O)cc2O)oc2cc(O)cc(O)c12
REMARK SMILES IDX 5 1 3 2 2 3 1 4 22 5 20 6 19 7 17 8 16 9 15 10 14 11 6 12
REMARK SMILES IDX 8 13 7 14 9 15 11 16 12 17 10 18 13 20 4 22 21 24 18 26
REMARK H PARENT 10 19 13 21 4 23 21 25 18 27
REMARK Flexibility Score: inf
ROOT
ATOM      1  C   UNL     1      87.401  70.799  16.330  1.00  0.00     0.184 A 
ATOM      2  C   UNL     1      87.003  71.168  17.624  1.00  0.00     0.208 A 
ATOM      3  C   UNL     1      87.320  72.454  18.090  1.00  0.00     0.238 A 
ATOM      4  O   UNL     1      87.009  72.761  19.272  1.00  0.00    -0.285 OA
ATOM      5  C   UNL     1      88.017  73.357  17.251  1.00  0.00     0.111 A 
ATOM      6  C   UNL     1      88.356  74.697  17.605  1.00  0.00     0.134 A 
ATOM      7  C   UNL     1      89.159  75.457  16.746  1.00  0.00     0.093 A 
ATOM      8  C   UNL     1      89.580  74.947  15.516  1.00  0.00     0.123 A 
ATOM      9  C   UNL     1      89.206  73.661  15.134  1.00  0.00     0.094 A 
ATOM     10  C   UNL     1      88.435  72.865  15.985  1.00  0.00     0.146 A 
ATOM     11  O   UNL     1      88.110  71.641  15.589  1.00  0.00    -0.451 OA
ENDROOT
BRANCH   1  12
ATOM     12  C   UNL     1      87.084  69.467  15.771  1.00  0.00     0.063 A 
ATOM     13  C   UNL     1      87.796  67.191  15.297  1.00  0.00     0.047 A 
ATOM     14  C   UNL     1      88.060  68.459  15.821  1.00  0.00     0.020 A 
ATOM     15  C   UNL     1      86.557  66.920  14.704  1.00  0.00     0.119 A 
ATOM     16  C   UNL     1      85.588  67.924  14.629  1.00  0.00     0.093 A 
ATOM     17  C   UNL     1      85.848  69.202  15.147  1.00  0.00     0.130 A 
BRANCH  15  18
ATOM     18  O   UNL     1      86.282  65.658  14.182  1.00  0.00    -0.508 OA
ATOM     19  H   UNL     1      85.822  64.944  14.734  1.00  0.00     0.293 HD
ENDBRANCH  15  18
BRANCH  17  20
ATOM     20  O   UNL     1      84.890  70.209  15.022  1.00  0.00    -0.507 OA
ATOM     21  H   UNL     1      83.974  70.026  14.630  1.00  0.00     0.293 HD
ENDBRANCH  17  20
ENDBRANCH   1  12
BRANCH   2  22
ATOM     22  O   UNL     1      86.333  70.252  18.438  1.00  0.00    -0.502 OA
ATOM     23  H   UNL     1      86.438  69.250  18.330  1.00  0.00     0.293 HD
ENDBRANCH   2  22
BRANCH   6  24
ATOM     24  O   UNL     1      87.909  75.333  18.767  1.00  0.00    -0.507 OA
ATOM     25  H   UNL     1      87.089  75.065  19.291  1.00  0.00     0.293 HD
ENDBRANCH   6  24
BRANCH   8  26
ATOM     26  O   UNL     1      90.367  75.716  14.660  1.00  0.00    -0.508 OA
ATOM     27  H   UNL     1      89.955  76.274  13.921  1.00  0.00     0.293 HD
ENDBRANCH   8  26
TORSDOF 6
ENDMDL
MODEL 7
REMARK VINA RESULT:    -5.767      2.163      3.002
REMARK INTER + INTRA:          -7.362
REMARK INTER:                  -7.071
REMARK INTRA:                  -0.291
REMARK UNBOUND:                -0.416
REMARK SMILES O=c1c(O)c(-c2ccc(O)cc2O)oc2cc(O)cc(O)c12
REMARK SMILES IDX 5 1 3 2 2 3 1 4 22 5 20 6 19 7 17 8 16 9 15 10 14 11 6 12
REMARK SMILES IDX 8 13 7 14 9 15 11 16 12 17 10 18 13 20 4 22 21 24 18 26
REMARK H PARENT 10 19 13 21 4 23 21 25 18 27
REMARK Flexibility Score: inf
ROOT
ATOM      1  C   UNL     1      86.843  74.442  17.986  1.00  0.00     0.184 A 
ATOM      2  C   UNL     1      88.167  74.031  17.763  1.00  0.00     0.208 A 
ATOM      3  C   UNL     1      88.873  74.575  16.678  1.00  0.00     0.238 A 
ATOM      4  O   UNL     1      90.041  74.162  16.449  1.00  0.00    -0.285 OA
ATOM      5  C   UNL     1      88.251  75.534  15.842  1.00  0.00     0.111 A 
ATOM      6  C   UNL     1      88.885  76.180  14.738  1.00  0.00     0.134 A 
ATOM      7  C   UNL     1      88.134  77.015  13.902  1.00  0.00     0.093 A 
ATOM      8  C   UNL     1      86.788  77.278  14.168  1.00  0.00     0.123 A 
ATOM      9  C   UNL     1      86.175  76.699  15.277  1.00  0.00     0.094 A 
ATOM     10  C   UNL     1      86.889  75.833  16.109  1.00  0.00     0.146 A 
ATOM     11  O   UNL     1      86.264  75.293  17.149  1.00  0.00    -0.451 OA
ENDROOT
BRANCH   1  12
ATOM     12  C   UNL     1      86.050  73.922  19.120  1.00  0.00     0.063 A 
ATOM     13  C   UNL     1      85.835  73.569  21.516  1.00  0.00     0.047 A 
ATOM     14  C   UNL     1      86.557  74.055  20.422  1.00  0.00     0.020 A 
ATOM     15  C   UNL     1      84.604  72.932  21.319  1.00  0.00     0.119 A 
ATOM     16  C   UNL     1      84.103  72.775  20.024  1.00  0.00     0.093 A 
ATOM     17  C   UNL     1      84.824  73.254  18.920  1.00  0.00     0.130 A 
BRANCH  15  18
ATOM     18  O   UNL     1      83.875  72.447  22.403  1.00  0.00    -0.508 OA
ATOM     19  H   UNL     1      83.206  71.695  22.297  1.00  0.00     0.293 HD
ENDBRANCH  15  18
BRANCH  17  20
ATOM     20  O   UNL     1      84.335  73.047  17.629  1.00  0.00    -0.507 OA
ATOM     21  H   UNL     1      84.135  72.118  17.279  1.00  0.00     0.293 HD
ENDBRANCH  17  20
ENDBRANCH   1  12
BRANCH   2  22
ATOM     22  O   UNL     1      88.750  73.069  18.592  1.00  0.00    -0.502 OA
ATOM     23  H   UNL     1      89.412  72.384  18.247  1.00  0.00     0.293 HD
ENDBRANCH   2  22
BRANCH   6  24
ATOM     24  O   UNL     1      90.246  76.058  14.440  1.00  0.00    -0.507 OA
ATOM     25  H   UNL     1      90.679  76.380  13.588  1.00  0.00     0.293 HD
ENDBRANCH   6  24
BRANCH   8  26
ATOM     26  O   UNL     1      86.052  78.123  13.340  1.00  0.00    -0.508 OA
ATOM     27  H   UNL     1      85.061  78.274  13.485  1.00  0.00     0.293 HD
ENDBRANCH   8  26
TORSDOF 6
ENDMDL
MODEL 8
REMARK VINA RESULT:    -5.709      3.197      7.311
REMARK INTER + INTRA:          -7.293
REMARK INTER:                  -6.996
REMARK INTRA:                  -0.297
REMARK UNBOUND:                -0.416
REMARK SMILES O=c1c(O)c(-c2ccc(O)cc2O)oc2cc(O)cc(O)c12
REMARK SMILES IDX 5 1 3 2 2 3 1 4 22 5 20 6 19 7 17 8 16 9 15 10 14 11 6 12
REMARK SMILES IDX 8 13 7 14 9 15 11 16 12 17 10 18 13 20 4 22 21 24 18 26
REMARK H PARENT 10 19 13 21 4 23 21 25 18 27
REMARK Flexibility Score: inf
ROOT
ATOM      1  C   UNL     1      86.962  75.282  15.288  1.00  0.00     0.184 A 
ATOM      2  C   UNL     1      87.761  75.609  16.395  1.00  0.00     0.208 A 
ATOM      3  C   UNL     1      87.964  74.643  17.394  1.00  0.00     0.238 A 
ATOM      4  O   UNL     1      88.637  74.959  18.411  1.00  0.00    -0.285 OA
ATOM      5  C   UNL     1      87.379  73.360  17.264  1.00  0.00     0.111 A 
ATOM      6  C   UNL     1      87.551  72.292  18.195  1.00  0.00     0.134 A 
ATOM      7  C   UNL     1      86.821  71.109  18.032  1.00  0.00     0.093 A 
ATOM      8  C   UNL     1      85.974  70.931  16.934  1.00  0.00     0.123 A 
ATOM      9  C   UNL     1      85.845  71.945  15.988  1.00  0.00     0.094 A 
ATOM     10  C   UNL     1      86.533  73.151  16.143  1.00  0.00     0.146 A 
ATOM     11  O   UNL     1      86.373  74.095  15.224  1.00  0.00    -0.451 OA
ENDROOT
BRANCH   1  12
ATOM     12  C   UNL     1      86.722  76.247  14.193  1.00  0.00     0.063 A 
ATOM     13  C   UNL     1      87.094  76.898  11.881  1.00  0.00     0.047 A 
ATOM     14  C   UNL     1      87.296  76.004  12.936  1.00  0.00     0.020 A 
ATOM     15  C   UNL     1      86.326  78.052  12.075  1.00  0.00     0.119 A 
ATOM     16  C   UNL     1      85.769  78.313  13.330  1.00  0.00     0.093 A 
ATOM     17  C   UNL     1      85.973  77.424  14.396  1.00  0.00     0.130 A 
BRANCH  15  18
ATOM     18  O   UNL     1      86.115  78.948  11.029  1.00  0.00    -0.508 OA
ATOM     19  H   UNL     1      86.888  79.342  10.505  1.00  0.00     0.293 HD
ENDBRANCH  15  18
BRANCH  17  20
ATOM     20  O   UNL     1      85.452  77.722  15.656  1.00  0.00    -0.507 OA
ATOM     21  H   UNL     1      85.608  77.115  16.453  1.00  0.00     0.293 HD
ENDBRANCH  17  20
ENDBRANCH   1  12
BRANCH   2  22
ATOM     22  O   UNL     1      88.311  76.888  16.508  1.00  0.00    -0.502 OA
ATOM     23  H   UNL     1      88.474  77.333  17.404  1.00  0.00     0.293 HD
ENDBRANCH   2  22
BRANCH   6  24
ATOM     24  O   UNL     1      88.441  72.333  19.272  1.00  0.00    -0.507 OA
ATOM     25  H   UNL     1      88.336  72.924  20.083  1.00  0.00     0.293 HD
ENDBRANCH   6  24
BRANCH   8  26
ATOM     26  O   UNL     1      85.263  69.744  16.771  1.00  0.00    -0.508 OA
ATOM     27  H   UNL     1      84.536  69.655  16.070  1.00  0.00     0.293 HD
ENDBRANCH   8  26
TORSDOF 6
ENDMDL
MODEL 9
REMARK VINA RESULT:    -5.697      2.111      6.953
REMARK INTER + INTRA:          -7.279
REMARK INTER:                  -6.852
REMARK INTRA:                  -0.426
REMARK UNBOUND:                -0.416
REMARK SMILES O=c1c(O)c(-c2ccc(O)cc2O)oc2cc(O)cc(O)c12
REMARK SMILES IDX 5 1 3 2 2 3 1 4 22 5 20 6 19 7 17 8 16 9 15 10 14 11 6 12
REMARK SMILES IDX 8 13 7 14 9 15 11 16 12 17 10 18 13 20 4 22 21 24 18 26
REMARK H PARENT 10 19 13 21 4 23 21 25 18 27
REMARK Flexibility Score: inf
ROOT
ATOM      1  C   UNL     1      86.856  73.313  18.536  1.00  0.00     0.184 A 
ATOM      2  C   UNL     1      87.715  74.178  19.231  1.00  0.00     0.208 A 
ATOM      3  C   UNL     1      87.695  74.172  20.635  1.00  0.00     0.238 A 
ATOM      4  O   UNL     1      88.428  74.989  21.253  1.00  0.00    -0.285 OA
ATOM      5  C   UNL     1      86.829  73.288  21.324  1.00  0.00     0.111 A 
ATOM      6  C   UNL     1      86.754  73.168  22.744  1.00  0.00     0.134 A 
ATOM      7  C   UNL     1      85.769  72.356  23.318  1.00  0.00     0.093 A 
ATOM      8  C   UNL     1      84.899  71.608  22.522  1.00  0.00     0.123 A 
ATOM      9  C   UNL     1      85.001  71.672  21.134  1.00  0.00     0.094 A 
ATOM     10  C   UNL     1      85.950  72.502  20.531  1.00  0.00     0.146 A 
ATOM     11  O   UNL     1      86.008  72.542  19.206  1.00  0.00    -0.451 OA
ENDROOT
BRANCH   1  12
ATOM     12  C   UNL     1      86.839  73.257  17.059  1.00  0.00     0.063 A 
ATOM     13  C   UNL     1      87.903  72.536  14.995  1.00  0.00     0.047 A 
ATOM     14  C   UNL     1      87.885  72.601  16.391  1.00  0.00     0.020 A 
ATOM     15  C   UNL     1      86.881  73.137  14.250  1.00  0.00     0.119 A 
ATOM     16  C   UNL     1      85.848  73.812  14.906  1.00  0.00     0.093 A 
ATOM     17  C   UNL     1      85.826  73.888  16.307  1.00  0.00     0.130 A 
BRANCH  15  18
ATOM     18  O   UNL     1      86.888  73.074  12.858  1.00  0.00    -0.508 OA
ATOM     19  H   UNL     1      86.332  72.392  12.356  1.00  0.00     0.293 HD
ENDBRANCH  15  18
BRANCH  17  20
ATOM     20  O   UNL     1      84.815  74.606  16.947  1.00  0.00    -0.507 OA
ATOM     21  H   UNL     1      84.314  75.352  16.478  1.00  0.00     0.293 HD
ENDBRANCH  17  20
ENDBRANCH   1  12
BRANCH   2  22
ATOM     22  O   UNL     1      88.546  75.053  18.527  1.00  0.00    -0.502 OA
ATOM     23  H   UNL     1      88.367  76.049  18.473  1.00  0.00     0.293 HD
ENDBRANCH   2  22
BRANCH   6  24
ATOM     24  O   UNL     1      87.635  73.800  23.627  1.00  0.00    -0.507 OA
ATOM     25  H   UNL     1      88.639  73.704  23.604  1.00  0.00     0.293 HD
ENDBRANCH   6  24
BRANCH   8  26
ATOM     26  O   UNL     1      83.931  70.789  23.101  1.00  0.00    -0.508 OA
ATOM     27  H   UNL     1      83.824  69.820  22.826  1.00  0.00     0.293 HD
ENDBRANCH   8  26
TORSDOF 6
ENDMDL
