MODEL 1
REMARK VINA RESULT:    -3.432      0.000      0.000
REMARK INTER + INTRA:          -8.907
REMARK INTER:                  -7.446
REMARK INTRA:                  -1.461
REMARK UNBOUND:                -1.461
REMARK SMILES CCCCCCCCCCCCCCCCCCCCCC(=O)[O-]
REMARK SMILES IDX 12 1 11 2 10 3 9 4 8 5 7 6 6 7 5 8 4 9 3 10 2 11 1 12 13 13
REMARK SMILES IDX 14 14 15 15 16 16 17 17 18 18 19 19 20 20 21 21 22 22 23 23
REMARK SMILES IDX 24 24
REMARK H PARENT
REMARK Flexibility Score: inf
ROOT
ATOM      1  C   UNL     1      48.110  47.211  42.584  1.00  0.00     0.000 C 
ENDROOT
BRANCH   1   2
ATOM      2  C   UNL     1      47.549  46.027  41.771  1.00  0.00     0.000 C 
BRANCH   2   3
ATOM      3  C   UNL     1      46.102  46.205  41.275  1.00  0.00     0.000 C 
BRANCH   3   4
ATOM      4  C   UNL     1      45.432  44.875  40.898  1.00  0.00    -0.000 C 
BRANCH   4   5
ATOM      5  C   UNL     1      43.904  45.008  40.907  1.00  0.00    -0.000 C 
BRANCH   5   6
ATOM      6  C   UNL     1      43.462  46.179  41.797  1.00  0.00    -0.000 C 
BRANCH   6   7
ATOM      7  C   UNL     1      42.297  46.979  41.192  1.00  0.00    -0.000 C 
BRANCH   7   8
ATOM      8  C   UNL     1      42.603  48.483  41.084  1.00  0.00    -0.000 C 
BRANCH   8   9
ATOM      9  C   UNL     1      44.101  48.762  40.876  1.00  0.00    -0.000 C 
BRANCH   9  10
ATOM     10  C   UNL     1      44.602  49.948  41.720  1.00  0.00    -0.000 C 
BRANCH  10  11
ATOM     11  C   UNL     1      44.470  49.692  43.229  1.00  0.00    -0.003 C 
ATOM     12  C   UNL     1      43.124  50.150  43.790  1.00  0.00     0.004 C 
ENDBRANCH  10  11
ENDBRANCH   9  10
ENDBRANCH   8   9
ENDBRANCH   7   8
ENDBRANCH   6   7
ENDBRANCH   5   6
ENDBRANCH   4   5
ENDBRANCH   3   4
ENDBRANCH   2   3
ENDBRANCH   1   2
BRANCH   1  13
ATOM     13  C   UNL     1      49.635  47.188  42.801  1.00  0.00     0.000 C 
BRANCH  13  14
ATOM     14  C   UNL     1      50.476  47.226  41.510  1.00  0.00     0.000 C 
BRANCH  14  15
ATOM     15  C   UNL     1      50.791  45.852  40.890  1.00  0.00     0.000 C 
BRANCH  15  16
ATOM     16  C   UNL     1      52.291  45.516  40.912  1.00  0.00     0.000 C 
BRANCH  16  17
ATOM     17  C   UNL     1      53.137  46.587  41.625  1.00  0.00     0.000 C 
BRANCH  17  18
ATOM     18  C   UNL     1      53.706  46.174  42.994  1.00  0.00     0.000 C 
BRANCH  18  19
ATOM     19  C   UNL     1      53.066  44.891  43.547  1.00  0.00     0.000 C 
BRANCH  19  20
ATOM     20  C   UNL     1      52.115  45.207  44.708  1.00  0.00     0.006 C 
BRANCH  20  21
ATOM     21  C   UNL     1      51.986  46.720  44.916  1.00  0.00     0.053 C 
BRANCH  21  22
ATOM     22  C   UNL     1      51.185  47.017  46.144  1.00  0.00     0.041 C 
ATOM     23  O   UNL     1      51.759  47.418  47.191  1.00  0.00    -0.550 OA
ATOM     24  O   UNL     1      49.810  46.815  46.145  1.00  0.00    -0.550 OA
ENDBRANCH  21  22
ENDBRANCH  20  21
ENDBRANCH  19  20
ENDBRANCH  18  19
ENDBRANCH  17  18
ENDBRANCH  16  17
ENDBRANCH  15  16
ENDBRANCH  14  15
ENDBRANCH  13  14
ENDBRANCH   1  13
TORSDOF 20
ENDMDL
MODEL 2
REMARK VINA RESULT:    -1.998     20.923     24.720
REMARK INTER + INTRA:          -5.796
REMARK INTER:                  -4.826
REMARK INTRA:                  -0.969
REMARK UNBOUND:                -1.461
REMARK SMILES CCCCCCCCCCCCCCCCCCCCCC(=O)[O-]
REMARK SMILES IDX 12 1 11 2 10 3 9 4 8 5 7 6 6 7 5 8 4 9 3 10 2 11 1 12 13 13
REMARK SMILES IDX 14 14 15 15 16 16 17 17 18 18 19 19 20 20 21 21 22 22 23 23
REMARK SMILES IDX 24 24
REMARK H PARENT
REMARK Flexibility Score: inf
ROOT
ATOM      1  C   UNL     1      44.687  62.156  54.775  1.00  0.00     0.000 C 
ENDROOT
BRANCH   1   2
ATOM      2  C   UNL     1      45.041  62.538  56.227  1.00  0.00     0.000 C 
BRANCH   2   3
ATOM      3  C   UNL     1      45.328  64.034  56.455  1.00  0.00     0.000 C 
BRANCH   3   4
ATOM      4  C   UNL     1      44.792  64.546  57.800  1.00  0.00    -0.000 C 
BRANCH   4   5
ATOM      5  C   UNL     1      45.943  64.916  58.745  1.00  0.00    -0.000 C 
BRANCH   5   6
ATOM      6  C   UNL     1      45.821  64.159  60.076  1.00  0.00    -0.000 C 
BRANCH   6   7
ATOM      7  C   UNL     1      46.909  63.087  60.251  1.00  0.00    -0.000 C 
BRANCH   7   8
ATOM      8  C   UNL     1      48.215  63.655  60.830  1.00  0.00    -0.000 C 
BRANCH   8   9
ATOM      9  C   UNL     1      49.450  63.228  60.018  1.00  0.00    -0.000 C 
BRANCH   9  10
ATOM     10  C   UNL     1      50.451  64.381  59.817  1.00  0.00    -0.000 C 
BRANCH  10  11
ATOM     11  C   UNL     1      51.714  63.937  59.063  1.00  0.00    -0.003 C 
ATOM     12  C   UNL     1      52.200  64.981  58.058  1.00  0.00     0.004 C 
ENDBRANCH  10  11
ENDBRANCH   9  10
ENDBRANCH   8   9
ENDBRANCH   7   8
ENDBRANCH   6   7
ENDBRANCH   5   6
ENDBRANCH   4   5
ENDBRANCH   3   4
ENDBRANCH   2   3
ENDBRANCH   1   2
BRANCH   1  13
ATOM     13  C   UNL     1      43.417  62.828  54.217  1.00  0.00     0.000 C 
BRANCH  13  14
ATOM     14  C   UNL     1      43.453  64.368  54.191  1.00  0.00     0.000 C 
BRANCH  14  15
ATOM     15  C   UNL     1      42.121  65.051  53.827  1.00  0.00     0.000 C 
BRANCH  15  16
ATOM     16  C   UNL     1      41.115  65.053  54.990  1.00  0.00     0.000 C 
BRANCH  16  17
ATOM     17  C   UNL     1      41.793  65.058  56.372  1.00  0.00     0.000 C 
BRANCH  17  18
ATOM     18  C   UNL     1      40.893  64.640  57.549  1.00  0.00     0.000 C 
BRANCH  18  19
ATOM     19  C   UNL     1      40.113  63.345  57.277  1.00  0.00     0.000 C 
BRANCH  19  20
ATOM     20  C   UNL     1      38.938  63.195  58.251  1.00  0.00     0.006 C 
BRANCH  20  21
ATOM     21  C   UNL     1      38.211  64.530  58.443  1.00  0.00     0.053 C 
BRANCH  21  22
ATOM     22  C   UNL     1      36.840  64.309  59.000  1.00  0.00     0.041 C 
ATOM     23  O   UNL     1      35.832  64.765  58.399  1.00  0.00    -0.550 OA
ATOM     24  O   UNL     1      36.678  63.632  60.204  1.00  0.00    -0.550 OA
ENDBRANCH  21  22
ENDBRANCH  20  21
ENDBRANCH  19  20
ENDBRANCH  18  19
ENDBRANCH  17  18
ENDBRANCH  16  17
ENDBRANCH  15  16
ENDBRANCH  14  15
ENDBRANCH  13  14
ENDBRANCH   1  13
TORSDOF 20
ENDMDL
MODEL 3
REMARK VINA RESULT:    -1.728     21.719     24.495
REMARK INTER + INTRA:          -5.209
REMARK INTER:                  -4.449
REMARK INTRA:                  -0.760
REMARK UNBOUND:                -1.461
REMARK SMILES CCCCCCCCCCCCCCCCCCCCCC(=O)[O-]
REMARK SMILES IDX 12 1 11 2 10 3 9 4 8 5 7 6 6 7 5 8 4 9 3 10 2 11 1 12 13 13
REMARK SMILES IDX 14 14 15 15 16 16 17 17 18 18 19 19 20 20 21 21 22 22 23 23
REMARK SMILES IDX 24 24
REMARK H PARENT
REMARK Flexibility Score: inf
ROOT
ATOM      1  C   UNL     1      42.884  63.340  56.313  1.00  0.00     0.000 C 
ENDROOT
BRANCH   1   2
ATOM      2  C   UNL     1      41.630  64.188  56.016  1.00  0.00     0.000 C 
BRANCH   2   3
ATOM      3  C   UNL     1      40.685  64.394  57.213  1.00  0.00     0.000 C 
BRANCH   3   4
ATOM      4  C   UNL     1      41.358  65.120  58.387  1.00  0.00    -0.000 C 
BRANCH   4   5
ATOM      5  C   UNL     1      40.980  64.470  59.725  1.00  0.00    -0.000 C 
BRANCH   5   6
ATOM      6  C   UNL     1      39.513  64.014  59.716  1.00  0.00    -0.000 C 
BRANCH   6   7
ATOM      7  C   UNL     1      38.550  65.098  60.225  1.00  0.00    -0.000 C 
BRANCH   7   8
ATOM      8  C   UNL     1      37.147  64.985  59.605  1.00  0.00    -0.000 C 
BRANCH   8   9
ATOM      9  C   UNL     1      36.047  64.837  60.669  1.00  0.00    -0.000 C 
BRANCH   9  10
ATOM     10  C   UNL     1      35.257  63.523  60.523  1.00  0.00    -0.000 C 
BRANCH  10  11
ATOM     11  C   UNL     1      36.112  62.387  59.939  1.00  0.00    -0.003 C 
ATOM     12  C   UNL     1      36.526  61.359  60.990  1.00  0.00     0.004 C 
ENDBRANCH  10  11
ENDBRANCH   9  10
ENDBRANCH   8   9
ENDBRANCH   7   8
ENDBRANCH   6   7
ENDBRANCH   5   6
ENDBRANCH   4   5
ENDBRANCH   3   4
ENDBRANCH   2   3
ENDBRANCH   1   2
BRANCH   1  13
ATOM     13  C   UNL     1      44.005  63.445  55.260  1.00  0.00     0.000 C 
BRANCH  13  14
ATOM     14  C   UNL     1      44.879  64.709  55.365  1.00  0.00     0.000 C 
BRANCH  14  15
ATOM     15  C   UNL     1      45.674  64.852  56.676  1.00  0.00     0.000 C 
BRANCH  15  16
ATOM     16  C   UNL     1      45.043  64.076  57.844  1.00  0.00     0.000 C 
BRANCH  16  17
ATOM     17  C   UNL     1      46.088  63.520  58.830  1.00  0.00     0.000 C 
BRANCH  17  18
ATOM     18  C   UNL     1      45.940  63.998  60.286  1.00  0.00     0.000 C 
BRANCH  18  19
ATOM     19  C   UNL     1      46.934  65.110  60.656  1.00  0.00     0.000 C 
BRANCH  19  20
ATOM     20  C   UNL     1      48.229  64.983  59.845  1.00  0.00     0.006 C 
BRANCH  20  21
ATOM     21  C   UNL     1      49.073  63.804  60.340  1.00  0.00     0.053 C 
BRANCH  21  22
ATOM     22  C   UNL     1      50.530  64.073  60.131  1.00  0.00     0.041 C 
ATOM     23  O   UNL     1      51.162  64.798  60.944  1.00  0.00    -0.550 OA
ATOM     24  O   UNL     1      51.181  63.556  59.017  1.00  0.00    -0.550 OA
ENDBRANCH  21  22
ENDBRANCH  20  21
ENDBRANCH  19  20
ENDBRANCH  18  19
ENDBRANCH  17  18
ENDBRANCH  16  17
ENDBRANCH  15  16
ENDBRANCH  14  15
ENDBRANCH  13  14
ENDBRANCH   1  13
TORSDOF 20
ENDMDL
MODEL 4
REMARK VINA RESULT:    -1.289     21.084     23.779
REMARK INTER + INTRA:          -4.258
REMARK INTER:                  -3.151
REMARK INTRA:                  -1.107
REMARK UNBOUND:                -1.461
REMARK SMILES CCCCCCCCCCCCCCCCCCCCCC(=O)[O-]
REMARK SMILES IDX 12 1 11 2 10 3 9 4 8 5 7 6 6 7 5 8 4 9 3 10 2 11 1 12 13 13
REMARK SMILES IDX 14 14 15 15 16 16 17 17 18 18 19 19 20 20 21 21 22 22 23 23
REMARK SMILES IDX 24 24
REMARK H PARENT
REMARK Flexibility Score: inf
ROOT
ATOM      1  C   UNL     1      44.533  62.407  55.631  1.00  0.00     0.000 C 
ENDROOT
BRANCH   1   2
ATOM      2  C   UNL     1      43.063  62.816  55.858  1.00  0.00     0.000 C 
BRANCH   2   3
ATOM      3  C   UNL     1      42.697  64.228  55.365  1.00  0.00     0.000 C 
BRANCH   3   4
ATOM      4  C   UNL     1      41.928  65.046  56.412  1.00  0.00    -0.000 C 
BRANCH   4   5
ATOM      5  C   UNL     1      42.014  64.388  57.796  1.00  0.00    -0.000 C 
BRANCH   5   6
ATOM      6  C   UNL     1      40.975  64.991  58.753  1.00  0.00    -0.000 C 
BRANCH   6   7
ATOM      7  C   UNL     1      39.590  64.337  58.614  1.00  0.00    -0.000 C 
BRANCH   7   8
ATOM      8  C   UNL     1      39.664  62.897  58.080  1.00  0.00    -0.000 C 
BRANCH   8   9
ATOM      9  C   UNL     1      38.289  62.207  58.066  1.00  0.00    -0.000 C 
BRANCH   9  10
ATOM     10  C   UNL     1      37.227  62.991  58.858  1.00  0.00    -0.000 C 
BRANCH  10  11
ATOM     11  C   UNL     1      36.782  62.255  60.131  1.00  0.00    -0.003 C 
ATOM     12  C   UNL     1      37.498  60.919  60.322  1.00  0.00     0.004 C 
ENDBRANCH  10  11
ENDBRANCH   9  10
ENDBRANCH   8   9
ENDBRANCH   7   8
ENDBRANCH   6   7
ENDBRANCH   5   6
ENDBRANCH   4   5
ENDBRANCH   3   4
ENDBRANCH   2   3
ENDBRANCH   1   2
BRANCH   1  13
ATOM     13  C   UNL     1      45.448  62.561  56.861  1.00  0.00     0.000 C 
BRANCH  13  14
ATOM     14  C   UNL     1      45.566  63.997  57.408  1.00  0.00     0.000 C 
BRANCH  14  15
ATOM     15  C   UNL     1      44.765  64.278  58.693  1.00  0.00     0.000 C 
BRANCH  15  16
ATOM     16  C   UNL     1      45.553  63.949  59.972  1.00  0.00     0.000 C 
BRANCH  16  17
ATOM     17  C   UNL     1      46.850  64.768  60.106  1.00  0.00     0.000 C 
BRANCH  17  18
ATOM     18  C   UNL     1      47.898  64.189  61.075  1.00  0.00     0.000 C 
BRANCH  18  19
ATOM     19  C   UNL     1      49.191  65.017  61.125  1.00  0.00     0.000 C 
BRANCH  19  20
ATOM     20  C   UNL     1      49.830  65.125  59.735  1.00  0.00     0.006 C 
BRANCH  20  21
ATOM     21  C   UNL     1      51.359  65.113  59.832  1.00  0.00     0.053 C 
BRANCH  21  22
ATOM     22  C   UNL     1      51.956  64.407  58.656  1.00  0.00     0.041 C 
ATOM     23  O   UNL     1      51.652  63.208  58.416  1.00  0.00    -0.550 OA
ATOM     24  O   UNL     1      52.879  65.060  57.846  1.00  0.00    -0.550 OA
ENDBRANCH  21  22
ENDBRANCH  20  21
ENDBRANCH  19  20
ENDBRANCH  18  19
ENDBRANCH  17  18
ENDBRANCH  16  17
ENDBRANCH  15  16
ENDBRANCH  14  15
ENDBRANCH  13  14
ENDBRANCH   1  13
TORSDOF 20
ENDMDL
MODEL 5
REMARK VINA RESULT:    -1.158     20.813     24.437
REMARK INTER + INTRA:          -3.973
REMARK INTER:                  -3.096
REMARK INTRA:                  -0.877
REMARK UNBOUND:                -1.461
REMARK SMILES CCCCCCCCCCCCCCCCCCCCCC(=O)[O-]
REMARK SMILES IDX 12 1 11 2 10 3 9 4 8 5 7 6 6 7 5 8 4 9 3 10 2 11 1 12 13 13
REMARK SMILES IDX 14 14 15 15 16 16 17 17 18 18 19 19 20 20 21 21 22 22 23 23
REMARK SMILES IDX 24 24
REMARK H PARENT
REMARK Flexibility Score: inf
ROOT
ATOM      1  C   UNL     1      42.388  64.320  57.287  1.00  0.00     0.000 C 
ENDROOT
BRANCH   1   2
ATOM      2  C   UNL     1      43.698  65.079  56.994  1.00  0.00     0.000 C 
BRANCH   2   3
ATOM      3  C   UNL     1      44.985  64.264  57.213  1.00  0.00     0.000 C 
BRANCH   3   4
ATOM      4  C   UNL     1      44.918  62.861  56.592  1.00  0.00    -0.000 C 
BRANCH   4   5
ATOM      5  C   UNL     1      45.095  62.924  55.069  1.00  0.00    -0.000 C 
BRANCH   5   6
ATOM      6  C   UNL     1      43.733  62.878  54.359  1.00  0.00    -0.000 C 
BRANCH   6   7
ATOM      7  C   UNL     1      43.480  64.112  53.478  1.00  0.00    -0.000 C 
BRANCH   7   8
ATOM      8  C   UNL     1      42.306  64.969  53.982  1.00  0.00    -0.000 C 
BRANCH   8   9
ATOM      9  C   UNL     1      41.104  64.938  53.023  1.00  0.00    -0.000 C 
BRANCH   9  10
ATOM     10  C   UNL     1      41.527  64.765  51.552  1.00  0.00    -0.000 C 
BRANCH  10  11
ATOM     11  C   UNL     1      40.424  64.124  50.696  1.00  0.00    -0.003 C 
ATOM     12  C   UNL     1      39.046  64.732  50.955  1.00  0.00     0.004 C 
ENDBRANCH  10  11
ENDBRANCH   9  10
ENDBRANCH   8   9
ENDBRANCH   7   8
ENDBRANCH   6   7
ENDBRANCH   5   6
ENDBRANCH   4   5
ENDBRANCH   3   4
ENDBRANCH   2   3
ENDBRANCH   1   2
BRANCH   1  13
ATOM     13  C   UNL     1      41.122  64.944  56.667  1.00  0.00     0.000 C 
BRANCH  13  14
ATOM     14  C   UNL     1      39.942  65.125  57.641  1.00  0.00     0.000 C 
BRANCH  14  15
ATOM     15  C   UNL     1      40.313  65.098  59.136  1.00  0.00     0.000 C 
BRANCH  15  16
ATOM     16  C   UNL     1      39.950  63.769  59.818  1.00  0.00     0.000 C 
BRANCH  16  17
ATOM     17  C   UNL     1      39.155  63.961  61.123  1.00  0.00     0.000 C 
BRANCH  17  18
ATOM     18  C   UNL     1      37.729  64.514  60.951  1.00  0.00     0.000 C 
BRANCH  18  19
ATOM     19  C   UNL     1      36.995  63.914  59.742  1.00  0.00     0.000 C 
BRANCH  19  20
ATOM     20  C   UNL     1      35.701  63.215  60.175  1.00  0.00     0.006 C 
BRANCH  20  21
ATOM     21  C   UNL     1      36.004  61.994  61.048  1.00  0.00     0.053 C 
BRANCH  21  22
ATOM     22  C   UNL     1      36.967  61.079  60.360  1.00  0.00     0.041 C 
ATOM     23  O   UNL     1      36.763  60.725  59.169  1.00  0.00    -0.550 OA
ATOM     24  O   UNL     1      38.071  60.585  61.046  1.00  0.00    -0.550 OA
ENDBRANCH  21  22
ENDBRANCH  20  21
ENDBRANCH  19  20
ENDBRANCH  18  19
ENDBRANCH  17  18
ENDBRANCH  16  17
ENDBRANCH  15  16
ENDBRANCH  14  15
ENDBRANCH  13  14
ENDBRANCH   1  13
TORSDOF 20
ENDMDL
MODEL 6
REMARK VINA RESULT:    -0.751     21.396     24.457
REMARK INTER + INTRA:          -3.091
REMARK INTER:                  -1.976
REMARK INTRA:                  -1.114
REMARK UNBOUND:                -1.461
REMARK SMILES CCCCCCCCCCCCCCCCCCCCCC(=O)[O-]
REMARK SMILES IDX 12 1 11 2 10 3 9 4 8 5 7 6 6 7 5 8 4 9 3 10 2 11 1 12 13 13
REMARK SMILES IDX 14 14 15 15 16 16 17 17 18 18 19 19 20 20 21 21 22 22 23 23
REMARK SMILES IDX 24 24
REMARK H PARENT
REMARK Flexibility Score: inf
ROOT
ATOM      1  C   UNL     1      41.747  63.950  56.737  1.00  0.00     0.000 C 
ENDROOT
BRANCH   1   2
ATOM      2  C   UNL     1      43.173  64.509  56.920  1.00  0.00     0.000 C 
BRANCH   2   3
ATOM      3  C   UNL     1      44.307  63.516  56.605  1.00  0.00     0.000 C 
BRANCH   3   4
ATOM      4  C   UNL     1      44.306  63.053  55.141  1.00  0.00    -0.000 C 
BRANCH   4   5
ATOM      5  C   UNL     1      45.004  64.079  54.239  1.00  0.00    -0.000 C 
BRANCH   5   6
ATOM      6  C   UNL     1      44.003  65.125  53.726  1.00  0.00    -0.000 C 
BRANCH   6   7
ATOM      7  C   UNL     1      42.850  64.501  52.923  1.00  0.00    -0.000 C 
BRANCH   7   8
ATOM      8  C   UNL     1      41.485  64.679  53.609  1.00  0.00    -0.000 C 
BRANCH   8   9
ATOM      9  C   UNL     1      40.389  65.124  52.625  1.00  0.00    -0.000 C 
BRANCH   9  10
ATOM     10  C   UNL     1      40.781  64.880  51.156  1.00  0.00    -0.000 C 
BRANCH  10  11
ATOM     11  C   UNL     1      39.650  64.225  50.348  1.00  0.00    -0.003 C 
ATOM     12  C   UNL     1      38.268  64.757  50.728  1.00  0.00     0.004 C 
ENDBRANCH  10  11
ENDBRANCH   9  10
ENDBRANCH   8   9
ENDBRANCH   7   8
ENDBRANCH   6   7
ENDBRANCH   5   6
ENDBRANCH   4   5
ENDBRANCH   3   4
ENDBRANCH   2   3
ENDBRANCH   1   2
BRANCH   1  13
ATOM     13  C   UNL     1      40.613  64.961  56.999  1.00  0.00     0.000 C 
BRANCH  13  14
ATOM     14  C   UNL     1      39.669  64.592  58.160  1.00  0.00     0.000 C 
BRANCH  14  15
ATOM     15  C   UNL     1      40.367  64.155  59.461  1.00  0.00     0.000 C 
BRANCH  15  16
ATOM     16  C   UNL     1      40.510  62.628  59.578  1.00  0.00     0.000 C 
BRANCH  16  17
ATOM     17  C   UNL     1      39.468  61.997  60.520  1.00  0.00     0.000 C 
BRANCH  17  18
ATOM     18  C   UNL     1      38.277  61.315  59.823  1.00  0.00     0.000 C 
BRANCH  18  19
ATOM     19  C   UNL     1      37.202  62.311  59.360  1.00  0.00     0.000 C 
BRANCH  19  20
ATOM     20  C   UNL     1      35.845  61.990  59.997  1.00  0.00     0.006 C 
BRANCH  20  21
ATOM     21  C   UNL     1      35.284  63.211  60.734  1.00  0.00     0.053 C 
BRANCH  21  22
ATOM     22  C   UNL     1      35.821  64.476  60.145  1.00  0.00     0.041 C 
ATOM     23  O   UNL     1      36.736  65.110  60.735  1.00  0.00    -0.550 OA
ATOM     24  O   UNL     1      35.286  64.977  58.963  1.00  0.00    -0.550 OA
ENDBRANCH  21  22
ENDBRANCH  20  21
ENDBRANCH  19  20
ENDBRANCH  18  19
ENDBRANCH  17  18
ENDBRANCH  16  17
ENDBRANCH  15  16
ENDBRANCH  14  15
ENDBRANCH  13  14
ENDBRANCH   1  13
TORSDOF 20
ENDMDL
