MODEL 1
REMARK VINA RESULT:    -6.934      0.000      0.000
REMARK INTER + INTRA:          -8.675
REMARK INTER:                  -8.353
REMARK INTRA:                  -0.323
REMARK UNBOUND:                -0.323
REMARK SMILES O=c1c(O)c(-c2ccc(O)c(O)c2)oc2cc(O)cc(O)c12
REMARK SMILES IDX 5 1 3 2 2 3 1 4 22 5 20 6 19 7 17 8 16 9 15 10 14 11 6 12
REMARK SMILES IDX 7 13 8 14 9 15 13 16 11 17 10 18 12 20 4 22 21 24 18 26
REMARK H PARENT 10 19 12 21 4 23 21 25 18 27
REMARK Flexibility Score: inf
ROOT
ATOM      1  C   UNL     1     126.336 132.624 131.023  1.00  0.00     0.180 A 
ATOM      2  C   UNL     1     125.133 132.782 131.732  1.00  0.00     0.208 A 
ATOM      3  C   UNL     1     124.170 133.683 131.248  1.00  0.00     0.238 A 
ATOM      4  O   UNL     1     123.129 133.875 131.925  1.00  0.00    -0.285 OA
ATOM      5  C   UNL     1     124.400 134.373 130.032  1.00  0.00     0.111 A 
ATOM      6  C   UNL     1     123.476 135.275 129.423  1.00  0.00     0.134 A 
ATOM      7  C   UNL     1     123.854 135.982 128.275  1.00  0.00     0.093 A 
ATOM      8  C   UNL     1     125.098 135.770 127.676  1.00  0.00     0.123 A 
ATOM      9  C   UNL     1     125.985 134.851 128.231  1.00  0.00     0.094 A 
ATOM     10  C   UNL     1     125.651 134.159 129.398  1.00  0.00     0.146 A 
ATOM     11  O   UNL     1     126.536 133.309 129.904  1.00  0.00    -0.452 OA
ENDROOT
BRANCH   1  12
ATOM     12  C   UNL     1     127.404 131.704 131.479  1.00  0.00     0.025 A 
ATOM     13  C   UNL     1     128.400 132.179 132.345  1.00  0.00     0.016 A 
ATOM     14  C   UNL     1     129.405 131.325 132.805  1.00  0.00     0.051 A 
ATOM     15  C   UNL     1     129.423 129.982 132.417  1.00  0.00     0.157 A 
ATOM     16  C   UNL     1     127.411 130.348 131.107  1.00  0.00     0.062 A 
ATOM     17  C   UNL     1     128.419 129.488 131.568  1.00  0.00     0.158 A 
BRANCH  15  18
ATOM     18  O   UNL     1     130.441 129.154 132.889  1.00  0.00    -0.504 OA
ATOM     19  H   UNL     1     130.278 128.456 133.606  1.00  0.00     0.293 HD
ENDBRANCH  15  18
BRANCH  17  20
ATOM     20  O   UNL     1     128.423 128.146 131.189  1.00  0.00    -0.504 OA
ATOM     21  H   UNL     1     129.050 127.475 131.619  1.00  0.00     0.293 HD
ENDBRANCH  17  20
ENDBRANCH   1  12
BRANCH   2  22
ATOM     22  O   UNL     1     124.893 132.034 132.888  1.00  0.00    -0.502 OA
ATOM     23  H   UNL     1     124.732 131.034 132.865  1.00  0.00     0.293 HD
ENDBRANCH   2  22
BRANCH   6  24
ATOM     24  O   UNL     1     122.175 135.496 129.887  1.00  0.00    -0.507 OA
ATOM     25  H   UNL     1     121.536 134.773 130.181  1.00  0.00     0.293 HD
ENDBRANCH   6  24
BRANCH   8  26
ATOM     26  O   UNL     1     125.460 136.465 126.524  1.00  0.00    -0.508 OA
ATOM     27  H   UNL     1     125.642 135.985 125.651  1.00  0.00     0.293 HD
ENDBRANCH   8  26
TORSDOF 6
ENDMDL
MODEL 2
REMARK VINA RESULT:    -6.743      4.808      9.819
REMARK INTER + INTRA:          -8.446
REMARK INTER:                  -8.117
REMARK INTRA:                  -0.328
REMARK UNBOUND:                -0.323
REMARK SMILES O=c1c(O)c(-c2ccc(O)c(O)c2)oc2cc(O)cc(O)c12
REMARK SMILES IDX 5 1 3 2 2 3 1 4 22 5 20 6 19 7 17 8 16 9 15 10 14 11 6 12
REMARK SMILES IDX 7 13 8 14 9 15 13 16 11 17 10 18 12 20 4 22 21 24 18 26
REMARK H PARENT 10 19 12 21 4 23 21 25 18 27
REMARK Flexibility Score: inf
ROOT
ATOM      1  C   UNL     1     131.650 129.256 130.913  1.00  0.00     0.180 A 
ATOM      2  C   UNL     1     131.205 128.400 129.891  1.00  0.00     0.208 A 
ATOM      3  C   UNL     1     131.926 127.225 129.624  1.00  0.00     0.238 A 
ATOM      4  O   UNL     1     131.565 126.501 128.661  1.00  0.00    -0.285 OA
ATOM      5  C   UNL     1     133.050 126.892 130.419  1.00  0.00     0.111 A 
ATOM      6  C   UNL     1     133.828 125.705 130.268  1.00  0.00     0.134 A 
ATOM      7  C   UNL     1     134.983 125.532 131.040  1.00  0.00     0.093 A 
ATOM      8  C   UNL     1     135.352 126.473 132.005  1.00  0.00     0.123 A 
ATOM      9  C   UNL     1     134.569 127.608 132.198  1.00  0.00     0.094 A 
ATOM     10  C   UNL     1     133.432 127.827 131.415  1.00  0.00     0.146 A 
ATOM     11  O   UNL     1     132.727 128.933 131.619  1.00  0.00    -0.452 OA
ENDROOT
BRANCH   1  12
ATOM     12  C   UNL     1     130.952 130.520 131.244  1.00  0.00     0.025 A 
ATOM     13  C   UNL     1     130.039 130.545 132.308  1.00  0.00     0.016 A 
ATOM     14  C   UNL     1     129.385 131.731 132.652  1.00  0.00     0.051 A 
ATOM     15  C   UNL     1     129.643 132.910 131.947  1.00  0.00     0.157 A 
ATOM     16  C   UNL     1     131.227 131.712 130.550  1.00  0.00     0.062 A 
ATOM     17  C   UNL     1     130.572 132.904 130.893  1.00  0.00     0.158 A 
BRANCH  15  18
ATOM     18  O   UNL     1     128.972 134.077 132.311  1.00  0.00    -0.504 OA
ATOM     19  H   UNL     1     127.992 134.224 132.096  1.00  0.00     0.293 HD
ENDBRANCH  15  18
BRANCH  17  20
ATOM     20  O   UNL     1     130.845 134.080 130.197  1.00  0.00    -0.504 OA
ATOM     21  H   UNL     1     130.528 134.982 130.534  1.00  0.00     0.293 HD
ENDBRANCH  17  20
ENDBRANCH   1  12
BRANCH   2  22
ATOM     22  O   UNL     1     130.048 128.708 129.170  1.00  0.00    -0.502 OA
ATOM     23  H   UNL     1     129.889 128.372 128.228  1.00  0.00     0.293 HD
ENDBRANCH   2  22
BRANCH   6  24
ATOM     24  O   UNL     1     133.502 124.659 129.397  1.00  0.00    -0.507 OA
ATOM     25  H   UNL     1     134.172 124.065 128.933  1.00  0.00     0.293 HD
ENDBRANCH   6  24
BRANCH   8  26
ATOM     26  O   UNL     1     136.493 126.285 132.782  1.00  0.00    -0.508 OA
ATOM     27  H   UNL     1     137.187 127.015 132.889  1.00  0.00     0.293 HD
ENDBRANCH   8  26
TORSDOF 6
ENDMDL
MODEL 3
REMARK VINA RESULT:    -6.564      1.649      1.782
REMARK INTER + INTRA:          -8.229
REMARK INTER:                  -8.024
REMARK INTRA:                  -0.205
REMARK UNBOUND:                -0.323
REMARK SMILES O=c1c(O)c(-c2ccc(O)c(O)c2)oc2cc(O)cc(O)c12
REMARK SMILES IDX 5 1 3 2 2 3 1 4 22 5 20 6 19 7 17 8 16 9 15 10 14 11 6 12
REMARK SMILES IDX 7 13 8 14 9 15 13 16 11 17 10 18 12 20 4 22 21 24 18 26
REMARK H PARENT 10 19 12 21 4 23 21 25 18 27
REMARK Flexibility Score: inf
ROOT
ATOM      1  C   UNL     1     127.283 132.686 129.766  1.00  0.00     0.180 A 
ATOM      2  C   UNL     1     126.561 133.342 130.778  1.00  0.00     0.208 A 
ATOM      3  C   UNL     1     125.715 134.408 130.431  1.00  0.00     0.238 A 
ATOM      4  O   UNL     1     125.130 135.038 131.349  1.00  0.00    -0.285 OA
ATOM      5  C   UNL     1     125.559 134.769 129.070  1.00  0.00     0.111 A 
ATOM      6  C   UNL     1     124.695 135.803 128.598  1.00  0.00     0.134 A 
ATOM      7  C   UNL     1     124.702 136.144 127.240  1.00  0.00     0.093 A 
ATOM      8  C   UNL     1     125.494 135.444 126.326  1.00  0.00     0.123 A 
ATOM      9  C   UNL     1     126.298 134.397 126.768  1.00  0.00     0.094 A 
ATOM     10  C   UNL     1     126.342 134.060 128.123  1.00  0.00     0.146 A 
ATOM     11  O   UNL     1     127.140 133.069 128.503  1.00  0.00    -0.452 OA
ENDROOT
BRANCH   1  12
ATOM     12  C   UNL     1     128.205 131.564 130.055  1.00  0.00     0.025 A 
ATOM     13  C   UNL     1     129.588 131.760 129.934  1.00  0.00     0.016 A 
ATOM     14  C   UNL     1     130.478 130.722 130.222  1.00  0.00     0.051 A 
ATOM     15  C   UNL     1     130.000 129.479 130.648  1.00  0.00     0.157 A 
ATOM     16  C   UNL     1     127.727 130.320 130.505  1.00  0.00     0.062 A 
ATOM     17  C   UNL     1     128.618 129.277 130.796  1.00  0.00     0.158 A 
BRANCH  15  18
ATOM     18  O   UNL     1     130.912 128.462 130.925  1.00  0.00    -0.504 OA
ATOM     19  H   UNL     1     131.764 128.341 130.388  1.00  0.00     0.293 HD
ENDBRANCH  15  18
BRANCH  17  20
ATOM     20  O   UNL     1     128.136 128.045 131.235  1.00  0.00    -0.504 OA
ATOM     21  H   UNL     1     128.683 127.449 131.847  1.00  0.00     0.293 HD
ENDBRANCH  17  20
ENDBRANCH   1  12
BRANCH   2  22
ATOM     22  O   UNL     1     126.670 132.920 132.106  1.00  0.00    -0.502 OA
ATOM     23  H   UNL     1     126.757 131.943 132.361  1.00  0.00     0.293 HD
ENDBRANCH   2  22
BRANCH   6  24
ATOM     24  O   UNL     1     123.799 136.507 129.410  1.00  0.00    -0.507 OA
ATOM     25  H   UNL     1     122.805 136.570 129.252  1.00  0.00     0.293 HD
ENDBRANCH   6  24
BRANCH   8  26
ATOM     26  O   UNL     1     125.481 135.778 124.973  1.00  0.00    -0.508 OA
ATOM     27  H   UNL     1     126.098 136.487 124.597  1.00  0.00     0.293 HD
ENDBRANCH   8  26
TORSDOF 6
ENDMDL
MODEL 4
REMARK VINA RESULT:    -6.526      1.851      3.445
REMARK INTER + INTRA:          -8.184
REMARK INTER:                  -7.862
REMARK INTRA:                  -0.322
REMARK UNBOUND:                -0.323
REMARK SMILES O=c1c(O)c(-c2ccc(O)c(O)c2)oc2cc(O)cc(O)c12
REMARK SMILES IDX 5 1 3 2 2 3 1 4 22 5 20 6 19 7 17 8 16 9 15 10 14 11 6 12
REMARK SMILES IDX 7 13 8 14 9 15 13 16 11 17 10 18 12 20 4 22 21 24 18 26
REMARK H PARENT 10 19 12 21 4 23 21 25 18 27
REMARK Flexibility Score: inf
ROOT
ATOM      1  C   UNL     1     127.760 132.645 129.017  1.00  0.00     0.180 A 
ATOM      2  C   UNL     1     128.099 132.790 127.661  1.00  0.00     0.208 A 
ATOM      3  C   UNL     1     127.397 133.722 126.879  1.00  0.00     0.238 A 
ATOM      4  O   UNL     1     127.655 133.795 125.651  1.00  0.00    -0.285 OA
ATOM      5  C   UNL     1     126.403 134.536 127.476  1.00  0.00     0.111 A 
ATOM      6  C   UNL     1     125.660 135.544 126.791  1.00  0.00     0.134 A 
ATOM      7  C   UNL     1     124.626 136.213 127.457  1.00  0.00     0.093 A 
ATOM      8  C   UNL     1     124.352 135.958 128.803  1.00  0.00     0.123 A 
ATOM      9  C   UNL     1     125.108 135.016 129.496  1.00  0.00     0.094 A 
ATOM     10  C   UNL     1     126.120 134.303 128.847  1.00  0.00     0.146 A 
ATOM     11  O   UNL     1     126.801 133.399 129.541  1.00  0.00    -0.452 OA
ENDROOT
BRANCH   1  12
ATOM     12  C   UNL     1     128.445 131.674 129.902  1.00  0.00     0.025 A 
ATOM     13  C   UNL     1     129.612 132.060 130.577  1.00  0.00     0.016 A 
ATOM     14  C   UNL     1     130.263 131.169 131.433  1.00  0.00     0.051 A 
ATOM     15  C   UNL     1     129.751 129.884 131.637  1.00  0.00     0.157 A 
ATOM     16  C   UNL     1     127.919 130.389 130.125  1.00  0.00     0.062 A 
ATOM     17  C   UNL     1     128.570 129.492 130.985  1.00  0.00     0.158 A 
BRANCH  15  18
ATOM     18  O   UNL     1     130.424 129.015 132.495  1.00  0.00    -0.504 OA
ATOM     19  H   UNL     1     131.437 128.974 132.533  1.00  0.00     0.293 HD
ENDBRANCH  15  18
BRANCH  17  20
ATOM     20  O   UNL     1     128.046 128.218 131.196  1.00  0.00    -0.504 OA
ATOM     21  H   UNL     1     128.392 127.411 130.688  1.00  0.00     0.293 HD
ENDBRANCH  17  20
ENDBRANCH   1  12
BRANCH   2  22
ATOM     22  O   UNL     1     129.136 132.032 127.110  1.00  0.00    -0.502 OA
ATOM     23  H   UNL     1     129.345 132.036 126.119  1.00  0.00     0.293 HD
ENDBRANCH   2  22
BRANCH   6  24
ATOM     24  O   UNL     1     125.908 135.941 125.473  1.00  0.00    -0.507 OA
ATOM     25  H   UNL     1     126.206 135.326 124.731  1.00  0.00     0.293 HD
ENDBRANCH   6  24
BRANCH   8  26
ATOM     26  O   UNL     1     123.333 136.641 129.463  1.00  0.00    -0.508 OA
ATOM     27  H   UNL     1     122.387 136.658 129.104  1.00  0.00     0.293 HD
ENDBRANCH   8  26
TORSDOF 6
ENDMDL
MODEL 5
REMARK VINA RESULT:    -6.404      2.546      6.775
REMARK INTER + INTRA:          -8.037
REMARK INTER:                  -7.707
REMARK INTRA:                  -0.330
REMARK UNBOUND:                -0.323
REMARK SMILES O=c1c(O)c(-c2ccc(O)c(O)c2)oc2cc(O)cc(O)c12
REMARK SMILES IDX 5 1 3 2 2 3 1 4 22 5 20 6 19 7 17 8 16 9 15 10 14 11 6 12
REMARK SMILES IDX 7 13 8 14 9 15 13 16 11 17 10 18 12 20 4 22 21 24 18 26
REMARK H PARENT 10 19 12 21 4 23 21 25 18 27
REMARK Flexibility Score: inf
ROOT
ATOM      1  C   UNL     1     126.572 133.865 128.309  1.00  0.00     0.180 A 
ATOM      2  C   UNL     1     125.710 133.431 129.331  1.00  0.00     0.208 A 
ATOM      3  C   UNL     1     126.262 132.985 130.543  1.00  0.00     0.238 A 
ATOM      4  O   UNL     1     125.490 132.530 131.426  1.00  0.00    -0.285 OA
ATOM      5  C   UNL     1     127.664 133.030 130.739  1.00  0.00     0.111 A 
ATOM      6  C   UNL     1     128.329 132.646 131.942  1.00  0.00     0.134 A 
ATOM      7  C   UNL     1     129.729 132.632 131.984  1.00  0.00     0.093 A 
ATOM      8  C   UNL     1     130.486 133.050 130.887  1.00  0.00     0.123 A 
ATOM      9  C   UNL     1     129.846 133.479 129.728  1.00  0.00     0.094 A 
ATOM     10  C   UNL     1     128.451 133.467 129.642  1.00  0.00     0.146 A 
ATOM     11  O   UNL     1     127.884 133.864 128.510  1.00  0.00    -0.452 OA
ENDROOT
BRANCH   1  12
ATOM     12  C   UNL     1     126.067 134.335 126.998  1.00  0.00     0.025 A 
ATOM     13  C   UNL     1     125.903 135.710 126.776  1.00  0.00     0.016 A 
ATOM     14  C   UNL     1     125.449 136.178 125.541  1.00  0.00     0.051 A 
ATOM     15  C   UNL     1     125.164 135.282 124.506  1.00  0.00     0.157 A 
ATOM     16  C   UNL     1     125.800 133.436 125.950  1.00  0.00     0.062 A 
ATOM     17  C   UNL     1     125.345 133.903 124.709  1.00  0.00     0.158 A 
BRANCH  15  18
ATOM     18  O   UNL     1     124.708 135.778 123.285  1.00  0.00    -0.504 OA
ATOM     19  H   UNL     1     125.333 136.208 122.613  1.00  0.00     0.293 HD
ENDBRANCH  15  18
BRANCH  17  20
ATOM     20  O   UNL     1     125.077 133.006 123.677  1.00  0.00    -0.504 OA
ATOM     21  H   UNL     1     125.716 132.251 123.450  1.00  0.00     0.293 HD
ENDBRANCH  17  20
ENDBRANCH   1  12
BRANCH   2  22
ATOM     22  O   UNL     1     124.325 133.467 129.147  1.00  0.00    -0.502 OA
ATOM     23  H   UNL     1     123.825 132.746 128.640  1.00  0.00     0.293 HD
ENDBRANCH   2  22
BRANCH   6  24
ATOM     24  O   UNL     1     127.669 132.296 133.125  1.00  0.00    -0.507 OA
ATOM     25  H   UNL     1     127.843 131.456 133.655  1.00  0.00     0.293 HD
ENDBRANCH   6  24
BRANCH   8  26
ATOM     26  O   UNL     1     131.879 133.049 130.943  1.00  0.00    -0.508 OA
ATOM     27  H   UNL     1     132.442 132.905 130.114  1.00  0.00     0.293 HD
ENDBRANCH   8  26
TORSDOF 6
ENDMDL
MODEL 6
REMARK VINA RESULT:    -6.382      2.688      7.806
REMARK INTER + INTRA:          -8.010
REMARK INTER:                  -7.709
REMARK INTRA:                  -0.301
REMARK UNBOUND:                -0.323
REMARK SMILES O=c1c(O)c(-c2ccc(O)c(O)c2)oc2cc(O)cc(O)c12
REMARK SMILES IDX 5 1 3 2 2 3 1 4 22 5 20 6 19 7 17 8 16 9 15 10 14 11 6 12
REMARK SMILES IDX 7 13 8 14 9 15 13 16 11 17 10 18 12 20 4 22 21 24 18 26
REMARK H PARENT 10 19 12 21 4 23 21 25 18 27
REMARK Flexibility Score: inf
ROOT
ATOM      1  C   UNL     1     129.214 131.160 131.206  1.00  0.00     0.180 A 
ATOM      2  C   UNL     1     130.219 131.779 131.968  1.00  0.00     0.208 A 
ATOM      3  C   UNL     1     131.470 131.151 132.085  1.00  0.00     0.238 A 
ATOM      4  O   UNL     1     132.340 131.673 132.828  1.00  0.00    -0.285 OA
ATOM      5  C   UNL     1     131.718 129.940 131.394  1.00  0.00     0.111 A 
ATOM      6  C   UNL     1     132.962 129.239 131.403  1.00  0.00     0.134 A 
ATOM      7  C   UNL     1     133.059 127.994 130.769  1.00  0.00     0.093 A 
ATOM      8  C   UNL     1     131.976 127.456 130.070  1.00  0.00     0.123 A 
ATOM      9  C   UNL     1     130.776 128.157 130.008  1.00  0.00     0.094 A 
ATOM     10  C   UNL     1     130.636 129.384 130.664  1.00  0.00     0.146 A 
ATOM     11  O   UNL     1     129.466 130.008 130.596  1.00  0.00    -0.452 OA
ENDROOT
BRANCH   1  12
ATOM     12  C   UNL     1     127.866 131.752 131.047  1.00  0.00     0.025 A 
ATOM     13  C   UNL     1     127.662 132.753 130.086  1.00  0.00     0.016 A 
ATOM     14  C   UNL     1     126.394 133.312 129.904  1.00  0.00     0.051 A 
ATOM     15  C   UNL     1     125.311 132.870 130.670  1.00  0.00     0.157 A 
ATOM     16  C   UNL     1     126.771 131.294 131.801  1.00  0.00     0.062 A 
ATOM     17  C   UNL     1     125.497 131.853 131.620  1.00  0.00     0.158 A 
BRANCH  15  18
ATOM     18  O   UNL     1     124.058 133.449 130.468  1.00  0.00    -0.504 OA
ATOM     19  H   UNL     1     123.756 134.269 130.982  1.00  0.00     0.293 HD
ENDBRANCH  15  18
BRANCH  17  20
ATOM     20  O   UNL     1     124.418 131.397 132.376  1.00  0.00    -0.504 OA
ATOM     21  H   UNL     1     123.463 131.499 132.051  1.00  0.00     0.293 HD
ENDBRANCH  17  20
ENDBRANCH   1  12
BRANCH   2  22
ATOM     22  O   UNL     1     129.979 133.013 132.579  1.00  0.00    -0.502 OA
ATOM     23  H   UNL     1     130.420 133.870 132.266  1.00  0.00     0.293 HD
ENDBRANCH   2  22
BRANCH   6  24
ATOM     24  O   UNL     1     134.132 129.727 131.996  1.00  0.00    -0.507 OA
ATOM     25  H   UNL     1     134.162 130.416 132.731  1.00  0.00     0.293 HD
ENDBRANCH   6  24
BRANCH   8  26
ATOM     26  O   UNL     1     132.087 126.225 129.427  1.00  0.00    -0.508 OA
ATOM     27  H   UNL     1     132.784 126.062 128.710  1.00  0.00     0.293 HD
ENDBRANCH   8  26
TORSDOF 6
ENDMDL
MODEL 7
REMARK VINA RESULT:    -6.373      2.371      3.830
REMARK INTER + INTRA:          -7.999
REMARK INTER:                  -7.668
REMARK INTRA:                  -0.332
REMARK UNBOUND:                -0.323
REMARK SMILES O=c1c(O)c(-c2ccc(O)c(O)c2)oc2cc(O)cc(O)c12
REMARK SMILES IDX 5 1 3 2 2 3 1 4 22 5 20 6 19 7 17 8 16 9 15 10 14 11 6 12
REMARK SMILES IDX 7 13 8 14 9 15 13 16 11 17 10 18 12 20 4 22 21 24 18 26
REMARK H PARENT 10 19 12 21 4 23 21 25 18 27
REMARK Flexibility Score: inf
ROOT
ATOM      1  C   UNL     1     127.857 133.595 128.867  1.00  0.00     0.180 A 
ATOM      2  C   UNL     1     127.783 134.385 127.707  1.00  0.00     0.208 A 
ATOM      3  C   UNL     1     126.586 135.060 127.416  1.00  0.00     0.238 A 
ATOM      4  O   UNL     1     126.502 135.704 126.340  1.00  0.00    -0.285 OA
ATOM      5  C   UNL     1     125.496 134.980 128.317  1.00  0.00     0.111 A 
ATOM      6  C   UNL     1     124.251 135.658 128.148  1.00  0.00     0.134 A 
ATOM      7  C   UNL     1     123.206 135.420 129.049  1.00  0.00     0.093 A 
ATOM      8  C   UNL     1     123.382 134.580 130.151  1.00  0.00     0.123 A 
ATOM      9  C   UNL     1     124.611 133.957 130.356  1.00  0.00     0.094 A 
ATOM     10  C   UNL     1     125.660 134.144 129.452  1.00  0.00     0.146 A 
ATOM     11  O   UNL     1     126.807 133.515 129.676  1.00  0.00    -0.452 OA
ENDROOT
BRANCH   1  12
ATOM     12  C   UNL     1     129.079 132.843 129.233  1.00  0.00     0.025 A 
ATOM     13  C   UNL     1     130.005 133.419 130.116  1.00  0.00     0.016 A 
ATOM     14  C   UNL     1     131.154 132.720 130.492  1.00  0.00     0.051 A 
ATOM     15  C   UNL     1     131.389 131.432 130.003  1.00  0.00     0.157 A 
ATOM     16  C   UNL     1     129.307 131.539 128.759  1.00  0.00     0.062 A 
ATOM     17  C   UNL     1     130.459 130.834 129.136  1.00  0.00     0.158 A 
BRANCH  15  18
ATOM     18  O   UNL     1     132.547 130.760 130.393  1.00  0.00    -0.504 OA
ATOM     19  H   UNL     1     132.733 129.803 130.116  1.00  0.00     0.293 HD
ENDBRANCH  15  18
BRANCH  17  20
ATOM     20  O   UNL     1     130.680 129.545 128.657  1.00  0.00    -0.504 OA
ATOM     21  H   UNL     1     130.119 128.759 128.967  1.00  0.00     0.293 HD
ENDBRANCH  17  20
ENDBRANCH   1  12
BRANCH   2  22
ATOM     22  O   UNL     1     128.896 134.513 126.871  1.00  0.00    -0.502 OA
ATOM     23  H   UNL     1     128.972 134.020 125.988  1.00  0.00     0.293 HD
ENDBRANCH   2  22
BRANCH   6  24
ATOM     24  O   UNL     1     123.995 136.586 127.133  1.00  0.00    -0.507 OA
ATOM     25  H   UNL     1     123.122 136.672 126.636  1.00  0.00     0.293 HD
ENDBRANCH   6  24
BRANCH   8  26
ATOM     26  O   UNL     1     122.343 134.363 131.053  1.00  0.00    -0.508 OA
ATOM     27  H   UNL     1     121.568 135.009 131.134  1.00  0.00     0.293 HD
ENDBRANCH   8  26
TORSDOF 6
ENDMDL
MODEL 8
REMARK VINA RESULT:    -6.355      4.813      9.898
REMARK INTER + INTRA:          -7.978
REMARK INTER:                  -7.779
REMARK INTRA:                  -0.199
REMARK UNBOUND:                -0.323
REMARK SMILES O=c1c(O)c(-c2ccc(O)c(O)c2)oc2cc(O)cc(O)c12
REMARK SMILES IDX 5 1 3 2 2 3 1 4 22 5 20 6 19 7 17 8 16 9 15 10 14 11 6 12
REMARK SMILES IDX 7 13 8 14 9 15 13 16 11 17 10 18 12 20 4 22 21 24 18 26
REMARK H PARENT 10 19 12 21 4 23 21 25 18 27
REMARK Flexibility Score: inf
ROOT
ATOM      1  C   UNL     1     131.938 129.255 130.387  1.00  0.00     0.180 A 
ATOM      2  C   UNL     1     132.286 128.926 131.709  1.00  0.00     0.208 A 
ATOM      3  C   UNL     1     133.122 127.821 131.938  1.00  0.00     0.238 A 
ATOM      4  O   UNL     1     133.369 127.487 133.125  1.00  0.00    -0.285 OA
ATOM      5  C   UNL     1     133.645 127.093 130.841  1.00  0.00     0.111 A 
ATOM      6  C   UNL     1     134.537 125.984 130.953  1.00  0.00     0.134 A 
ATOM      7  C   UNL     1     134.904 125.274 129.804  1.00  0.00     0.093 A 
ATOM      8  C   UNL     1     134.464 125.672 128.539  1.00  0.00     0.123 A 
ATOM      9  C   UNL     1     133.639 126.786 128.414  1.00  0.00     0.094 A 
ATOM     10  C   UNL     1     133.223 127.492 129.546  1.00  0.00     0.146 A 
ATOM     11  O   UNL     1     132.418 128.534 129.381  1.00  0.00    -0.452 OA
ENDROOT
BRANCH   1  12
ATOM     12  C   UNL     1     131.050 130.396 130.067  1.00  0.00     0.025 A 
ATOM     13  C   UNL     1     129.757 130.149 129.585  1.00  0.00     0.016 A 
ATOM     14  C   UNL     1     128.894 131.209 129.296  1.00  0.00     0.051 A 
ATOM     15  C   UNL     1     129.305 132.530 129.497  1.00  0.00     0.157 A 
ATOM     16  C   UNL     1     131.455 131.725 130.289  1.00  0.00     0.062 A 
ATOM     17  C   UNL     1     130.590 132.791 130.001  1.00  0.00     0.158 A 
BRANCH  15  18
ATOM     18  O   UNL     1     128.423 133.567 129.196  1.00  0.00    -0.504 OA
ATOM     19  H   UNL     1     128.741 134.518 129.049  1.00  0.00     0.293 HD
ENDBRANCH  15  18
BRANCH  17  20
ATOM     20  O   UNL     1     131.001 134.105 130.218  1.00  0.00    -0.504 OA
ATOM     21  H   UNL     1     131.951 134.403 130.025  1.00  0.00     0.293 HD
ENDBRANCH  17  20
ENDBRANCH   1  12
BRANCH   2  22
ATOM     22  O   UNL     1     131.822 129.704 132.773  1.00  0.00    -0.502 OA
ATOM     23  H   UNL     1     131.083 130.388 132.665  1.00  0.00     0.293 HD
ENDBRANCH   2  22
BRANCH   6  24
ATOM     24  O   UNL     1     135.107 125.555 132.156  1.00  0.00    -0.507 OA
ATOM     25  H   UNL     1     135.498 124.640 132.315  1.00  0.00     0.293 HD
ENDBRANCH   6  24
BRANCH   8  26
ATOM     26  O   UNL     1     134.849 124.970 127.399  1.00  0.00    -0.508 OA
ATOM     27  H   UNL     1     135.131 123.999 127.445  1.00  0.00     0.293 HD
ENDBRANCH   8  26
TORSDOF 6
ENDMDL
MODEL 9
REMARK VINA RESULT:    -6.335      2.480      3.614
REMARK INTER + INTRA:          -7.953
REMARK INTER:                  -7.644
REMARK INTRA:                  -0.309
REMARK UNBOUND:                -0.323
REMARK SMILES O=c1c(O)c(-c2ccc(O)c(O)c2)oc2cc(O)cc(O)c12
REMARK SMILES IDX 5 1 3 2 2 3 1 4 22 5 20 6 19 7 17 8 16 9 15 10 14 11 6 12
REMARK SMILES IDX 7 13 8 14 9 15 13 16 11 17 10 18 12 20 4 22 21 24 18 26
REMARK H PARENT 10 19 12 21 4 23 21 25 18 27
REMARK Flexibility Score: inf
ROOT
ATOM      1  C   UNL     1     129.299 131.483 130.652  1.00  0.00     0.180 A 
ATOM      2  C   UNL     1     128.132 131.163 131.368  1.00  0.00     0.208 A 
ATOM      3  C   UNL     1     126.923 131.784 131.014  1.00  0.00     0.238 A 
ATOM      4  O   UNL     1     125.900 131.550 131.706  1.00  0.00    -0.285 OA
ATOM      5  C   UNL     1     126.885 132.675 129.914  1.00  0.00     0.111 A 
ATOM      6  C   UNL     1     125.707 133.327 129.437  1.00  0.00     0.134 A 
ATOM      7  C   UNL     1     125.808 134.270 128.407  1.00  0.00     0.093 A 
ATOM      8  C   UNL     1     127.033 134.537 127.792  1.00  0.00     0.123 A 
ATOM      9  C   UNL     1     128.178 133.866 128.212  1.00  0.00     0.094 A 
ATOM     10  C   UNL     1     128.116 132.947 129.264  1.00  0.00     0.146 A 
ATOM     11  O   UNL     1     129.237 132.347 129.645  1.00  0.00    -0.452 OA
ENDROOT
BRANCH   1  12
ATOM     12  C   UNL     1     130.612 130.881 130.975  1.00  0.00     0.025 A 
ATOM     13  C   UNL     1     130.940 129.620 130.455  1.00  0.00     0.016 A 
ATOM     14  C   UNL     1     132.182 129.042 130.728  1.00  0.00     0.051 A 
ATOM     15  C   UNL     1     133.119 129.719 131.514  1.00  0.00     0.157 A 
ATOM     16  C   UNL     1     131.565 131.571 131.746  1.00  0.00     0.062 A 
ATOM     17  C   UNL     1     132.813 130.993 132.022  1.00  0.00     0.158 A 
BRANCH  15  18
ATOM     18  O   UNL     1     134.349 129.116 131.773  1.00  0.00    -0.504 OA
ATOM     19  H   UNL     1     134.533 128.620 132.637  1.00  0.00     0.293 HD
ENDBRANCH  15  18
BRANCH  17  20
ATOM     20  O   UNL     1     133.749 131.680 132.793  1.00  0.00    -0.504 OA
ATOM     21  H   UNL     1     134.047 131.335 133.699  1.00  0.00     0.293 HD
ENDBRANCH  17  20
ENDBRANCH   1  12
BRANCH   2  22
ATOM     22  O   UNL     1     128.177 130.223 132.401  1.00  0.00    -0.502 OA
ATOM     23  H   UNL     1     127.466 130.173 133.122  1.00  0.00     0.293 HD
ENDBRANCH   2  22
BRANCH   6  24
ATOM     24  O   UNL     1     124.420 133.070 129.920  1.00  0.00    -0.507 OA
ATOM     25  H   UNL     1     123.797 132.365 129.557  1.00  0.00     0.293 HD
ENDBRANCH   6  24
BRANCH   8  26
ATOM     26  O   UNL     1     127.121 135.464 126.755  1.00  0.00    -0.508 OA
ATOM     27  H   UNL     1     126.450 136.216 126.659  1.00  0.00     0.293 HD
ENDBRANCH   8  26
TORSDOF 6
ENDMDL
