MODEL 1
REMARK VINA RESULT:    -2.162      0.000      0.000
REMARK INTER + INTRA:          -5.360
REMARK INTER:                  -4.058
REMARK INTRA:                  -1.302
REMARK UNBOUND:                -1.302
REMARK SMILES CCCCCCCCC=CCCCCCCCC(=O)[O-]
REMARK SMILES IDX 10 1 9 2 11 3 12 4 13 5 14 6 15 7 16 8 17 9 18 10 19 11
REMARK SMILES IDX 20 12 8 13 7 14 6 15 5 16 4 17 3 18 2 19 1 20
REMARK H PARENT
REMARK Flexibility Score: inf
ROOT
ATOM      1  C   UNL     1       0.159 -15.920 -18.106  1.00  0.00    -0.031 C 
ATOM      2  C   UNL     1      -0.769 -15.327 -18.872  1.00  0.00    -0.031 C 
ENDROOT
BRANCH   1   3
ATOM      3  C   UNL     1       1.400 -15.193 -17.665  1.00  0.00     0.027 C 
BRANCH   3   4
ATOM      4  C   UNL     1       2.027 -14.354 -18.792  1.00  0.00     0.004 C 
BRANCH   4   5
ATOM      5  C   UNL     1       2.690 -13.043 -18.320  1.00  0.00     0.000 C 
BRANCH   5   6
ATOM      6  C   UNL     1       2.282 -11.790 -19.114  1.00  0.00     0.000 C 
BRANCH   6   7
ATOM      7  C   UNL     1       2.575 -10.484 -18.357  1.00  0.00     0.000 C 
BRANCH   7   8
ATOM      8  C   UNL     1       3.876  -9.805 -18.823  1.00  0.00     0.006 C 
BRANCH   8   9
ATOM      9  C   UNL     1       4.487 -10.419 -20.094  1.00  0.00     0.053 C 
BRANCH   9  10
ATOM     10  C   UNL     1       5.793 -11.099 -19.817  1.00  0.00     0.041 C 
ATOM     11  O   UNL     1       6.728 -11.038 -20.658  1.00  0.00    -0.550 OA
ATOM     12  O   UNL     1       5.986 -11.774 -18.619  1.00  0.00    -0.550 OA
ENDBRANCH   9  10
ENDBRANCH   8   9
ENDBRANCH   7   8
ENDBRANCH   6   7
ENDBRANCH   5   6
ENDBRANCH   4   5
ENDBRANCH   3   4
ENDBRANCH   1   3
BRANCH   2  13
ATOM     13  C   UNL     1      -2.003 -16.060 -19.322  1.00  0.00     0.027 C 
BRANCH  13  14
ATOM     14  C   UNL     1      -2.036 -17.488 -18.755  1.00  0.00     0.004 C 
BRANCH  14  15
ATOM     15  C   UNL     1      -1.511 -18.533 -19.752  1.00  0.00     0.000 C 
BRANCH  15  16
ATOM     16  C   UNL     1      -1.167 -19.872 -19.075  1.00  0.00     0.000 C 
BRANCH  16  17
ATOM     17  C   UNL     1      -1.641 -19.932 -17.614  1.00  0.00    -0.000 C 
BRANCH  17  18
ATOM     18  C   UNL     1      -0.476 -20.042 -16.615  1.00  0.00    -0.000 C 
BRANCH  18  19
ATOM     19  C   UNL     1       0.812 -19.390 -17.139  1.00  0.00    -0.003 C 
ATOM     20  C   UNL     1       2.073 -20.118 -16.675  1.00  0.00     0.004 C 
ENDBRANCH  18  19
ENDBRANCH  17  18
ENDBRANCH  16  17
ENDBRANCH  15  16
ENDBRANCH  14  15
ENDBRANCH  13  14
ENDBRANCH   2  13
TORSDOF 15
ENDMDL
MODEL 2
REMARK VINA RESULT:    -2.149      3.275      8.911
REMARK INTER + INTRA:          -5.335
REMARK INTER:                  -4.328
REMARK INTRA:                  -1.007
REMARK UNBOUND:                -1.302
REMARK SMILES CCCCCCCCC=CCCCCCCCC(=O)[O-]
REMARK SMILES IDX 10 1 9 2 11 3 12 4 13 5 14 6 15 7 16 8 17 9 18 10 19 11
REMARK SMILES IDX 20 12 8 13 7 14 6 15 5 16 4 17 3 18 2 19 1 20
REMARK H PARENT
REMARK Flexibility Score: inf
ROOT
ATOM      1  C   UNL     1       1.519 -15.212 -17.956  1.00  0.00    -0.031 C 
ATOM      2  C   UNL     1       1.679 -14.187 -18.805  1.00  0.00    -0.031 C 
ENDROOT
BRANCH   1   3
ATOM      3  C   UNL     1       0.527 -16.311 -18.225  1.00  0.00     0.027 C 
BRANCH   3   4
ATOM      4  C   UNL     1      -0.898 -15.780 -18.453  1.00  0.00     0.004 C 
BRANCH   4   5
ATOM      5  C   UNL     1      -1.920 -16.854 -18.883  1.00  0.00     0.000 C 
BRANCH   5   6
ATOM      6  C   UNL     1      -1.795 -17.316 -20.346  1.00  0.00     0.000 C 
BRANCH   6   7
ATOM      7  C   UNL     1      -1.793 -18.847 -20.488  1.00  0.00     0.000 C 
BRANCH   7   8
ATOM      8  C   UNL     1      -1.445 -19.567 -19.172  1.00  0.00     0.006 C 
BRANCH   8   9
ATOM      9  C   UNL     1       0.060 -19.804 -18.963  1.00  0.00     0.053 C 
BRANCH   9  10
ATOM     10  C   UNL     1       0.425 -19.854 -17.511  1.00  0.00     0.041 C 
ATOM     11  O   UNL     1       1.615 -19.656 -17.150  1.00  0.00    -0.550 OA
ATOM     12  O   UNL     1      -0.555 -20.089 -16.555  1.00  0.00    -0.550 OA
ENDBRANCH   9  10
ENDBRANCH   8   9
ENDBRANCH   7   8
ENDBRANCH   6   7
ENDBRANCH   5   6
ENDBRANCH   4   5
ENDBRANCH   3   4
ENDBRANCH   1   3
BRANCH   2  13
ATOM     13  C   UNL     1       2.662 -13.082 -18.527  1.00  0.00     0.027 C 
BRANCH  13  14
ATOM     14  C   UNL     1       2.256 -11.787 -19.249  1.00  0.00     0.004 C 
BRANCH  14  15
ATOM     15  C   UNL     1       2.441 -10.538 -18.373  1.00  0.00     0.000 C 
BRANCH  15  16
ATOM     16  C   UNL     1       3.839  -9.914 -18.525  1.00  0.00     0.000 C 
BRANCH  16  17
ATOM     17  C   UNL     1       4.559 -10.385 -19.799  1.00  0.00    -0.000 C 
BRANCH  17  18
ATOM     18  C   UNL     1       5.883 -11.110 -19.499  1.00  0.00    -0.000 C 
BRANCH  18  19
ATOM     19  C   UNL     1       6.837 -11.113 -20.703  1.00  0.00    -0.003 C 
ATOM     20  C   UNL     1       8.143 -10.371 -20.421  1.00  0.00     0.004 C 
ENDBRANCH  18  19
ENDBRANCH  17  18
ENDBRANCH  16  17
ENDBRANCH  15  16
ENDBRANCH  14  15
ENDBRANCH  13  14
ENDBRANCH   2  13
TORSDOF 15
ENDMDL
MODEL 3
REMARK VINA RESULT:    -2.029      3.834      9.289
REMARK INTER + INTRA:          -5.111
REMARK INTER:                  -4.187
REMARK INTRA:                  -0.924
REMARK UNBOUND:                -1.302
REMARK SMILES CCCCCCCCC=CCCCCCCCC(=O)[O-]
REMARK SMILES IDX 10 1 9 2 11 3 12 4 13 5 14 6 15 7 16 8 17 9 18 10 19 11
REMARK SMILES IDX 20 12 8 13 7 14 6 15 5 16 4 17 3 18 2 19 1 20
REMARK H PARENT
REMARK Flexibility Score: inf
ROOT
ATOM      1  C   UNL     1       2.174 -14.399 -18.350  1.00  0.00    -0.031 C 
ATOM      2  C   UNL     1       2.397 -13.104 -18.614  1.00  0.00    -0.031 C 
ENDROOT
BRANCH   1   3
ATOM      3  C   UNL     1       0.891 -14.865 -17.717  1.00  0.00     0.027 C 
BRANCH   3   4
ATOM      4  C   UNL     1       0.179 -15.946 -18.548  1.00  0.00     0.004 C 
BRANCH   4   5
ATOM      5  C   UNL     1      -1.332 -15.708 -18.747  1.00  0.00     0.000 C 
BRANCH   5   6
ATOM      6  C   UNL     1      -2.095 -16.886 -19.378  1.00  0.00     0.000 C 
BRANCH   6   7
ATOM      7  C   UNL     1      -1.169 -17.868 -20.116  1.00  0.00     0.000 C 
BRANCH   7   8
ATOM      8  C   UNL     1      -1.552 -19.340 -19.879  1.00  0.00     0.006 C 
BRANCH   8   9
ATOM      9  C   UNL     1      -1.823 -19.691 -18.407  1.00  0.00     0.053 C 
BRANCH   9  10
ATOM     10  C   UNL     1      -0.560 -19.996 -17.660  1.00  0.00     0.041 C 
ATOM     11  O   UNL     1       0.530 -20.111 -18.280  1.00  0.00    -0.550 OA
ATOM     12  O   UNL     1      -0.583 -20.124 -16.278  1.00  0.00    -0.550 OA
ENDBRANCH   9  10
ENDBRANCH   8   9
ENDBRANCH   7   8
ENDBRANCH   6   7
ENDBRANCH   5   6
ENDBRANCH   4   5
ENDBRANCH   3   4
ENDBRANCH   1   3
BRANCH   2  13
ATOM     13  C   UNL     1       3.686 -12.638 -19.235  1.00  0.00     0.027 C 
BRANCH  13  14
ATOM     14  C   UNL     1       4.206 -11.368 -18.542  1.00  0.00     0.004 C 
BRANCH  14  15
ATOM     15  C   UNL     1       3.742 -10.080 -19.240  1.00  0.00     0.000 C 
BRANCH  15  16
ATOM     16  C   UNL     1       2.781  -9.251 -18.370  1.00  0.00     0.000 C 
BRANCH  16  17
ATOM     17  C   UNL     1       2.956  -9.532 -16.868  1.00  0.00    -0.000 C 
BRANCH  17  18
ATOM     18  C   UNL     1       3.265  -8.262 -16.058  1.00  0.00    -0.000 C 
BRANCH  18  19
ATOM     19  C   UNL     1       3.768  -8.576 -14.641  1.00  0.00    -0.003 C 
ATOM     20  C   UNL     1       3.798  -7.343 -13.739  1.00  0.00     0.004 C 
ENDBRANCH  18  19
ENDBRANCH  17  18
ENDBRANCH  16  17
ENDBRANCH  15  16
ENDBRANCH  14  15
ENDBRANCH  13  14
ENDBRANCH   2  13
TORSDOF 15
ENDMDL
MODEL 4
REMARK VINA RESULT:    -1.849      2.800      3.777
REMARK INTER + INTRA:          -4.774
REMARK INTER:                  -3.766
REMARK INTRA:                  -1.008
REMARK UNBOUND:                -1.302
REMARK SMILES CCCCCCCCC=CCCCCCCCC(=O)[O-]
REMARK SMILES IDX 10 1 9 2 11 3 12 4 13 5 14 6 15 7 16 8 17 9 18 10 19 11
REMARK SMILES IDX 20 12 8 13 7 14 6 15 5 16 4 17 3 18 2 19 1 20
REMARK H PARENT
REMARK Flexibility Score: inf
ROOT
ATOM      1  C   UNL     1       2.002 -14.131 -18.623  1.00  0.00    -0.031 C 
ATOM      2  C   UNL     1       1.247 -14.926 -17.851  1.00  0.00    -0.031 C 
ENDROOT
BRANCH   1   3
ATOM      3  C   UNL     1       2.797 -12.993 -18.042  1.00  0.00     0.027 C 
BRANCH   3   4
ATOM      4  C   UNL     1       3.491 -12.144 -19.121  1.00  0.00     0.004 C 
BRANCH   4   5
ATOM      5  C   UNL     1       4.094 -10.821 -18.605  1.00  0.00     0.000 C 
BRANCH   5   6
ATOM      6  C   UNL     1       3.158  -9.604 -18.699  1.00  0.00     0.000 C 
BRANCH   6   7
ATOM      7  C   UNL     1       2.475  -9.272 -17.361  1.00  0.00     0.000 C 
BRANCH   7   8
ATOM      8  C   UNL     1       3.471  -9.191 -16.190  1.00  0.00     0.006 C 
BRANCH   8   9
ATOM      9  C   UNL     1       3.484  -7.833 -15.467  1.00  0.00     0.053 C 
BRANCH   9  10
ATOM     10  C   UNL     1       3.735  -7.981 -13.998  1.00  0.00     0.041 C 
ATOM     11  O   UNL     1       4.465  -8.914 -13.571  1.00  0.00    -0.550 OA
ATOM     12  O   UNL     1       3.187  -7.070 -13.103  1.00  0.00    -0.550 OA
ENDBRANCH   9  10
ENDBRANCH   8   9
ENDBRANCH   7   8
ENDBRANCH   6   7
ENDBRANCH   5   6
ENDBRANCH   4   5
ENDBRANCH   3   4
ENDBRANCH   1   3
BRANCH   2  13
ATOM     13  C   UNL     1       0.442 -16.055 -18.435  1.00  0.00     0.027 C 
BRANCH  13  14
ATOM     14  C   UNL     1      -1.016 -15.630 -18.672  1.00  0.00     0.004 C 
BRANCH  14  15
ATOM     15  C   UNL     1      -1.961 -16.828 -18.854  1.00  0.00     0.000 C 
BRANCH  15  16
ATOM     16  C   UNL     1      -1.767 -17.531 -20.209  1.00  0.00     0.000 C 
BRANCH  16  17
ATOM     17  C   UNL     1      -1.462 -19.030 -20.057  1.00  0.00    -0.000 C 
BRANCH  17  18
ATOM     18  C   UNL     1      -1.284 -19.454 -18.589  1.00  0.00    -0.000 C 
BRANCH  18  19
ATOM     19  C   UNL     1       0.073 -20.125 -18.331  1.00  0.00    -0.003 C 
ATOM     20  C   UNL     1       1.056 -19.206 -17.606  1.00  0.00     0.004 C 
ENDBRANCH  18  19
ENDBRANCH  17  18
ENDBRANCH  16  17
ENDBRANCH  15  16
ENDBRANCH  14  15
ENDBRANCH  13  14
ENDBRANCH   2  13
TORSDOF 15
ENDMDL
MODEL 5
REMARK VINA RESULT:    -1.733      3.099      8.717
REMARK INTER + INTRA:          -4.555
REMARK INTER:                  -3.556
REMARK INTRA:                  -0.999
REMARK UNBOUND:                -1.302
REMARK SMILES CCCCCCCCC=CCCCCCCCC(=O)[O-]
REMARK SMILES IDX 10 1 9 2 11 3 12 4 13 5 14 6 15 7 16 8 17 9 18 10 19 11
REMARK SMILES IDX 20 12 8 13 7 14 6 15 5 16 4 17 3 18 2 19 1 20
REMARK H PARENT
REMARK Flexibility Score: inf
ROOT
ATOM      1  C   UNL     1       1.632 -15.225 -18.172  1.00  0.00    -0.031 C 
ATOM      2  C   UNL     1       1.542 -14.017 -18.746  1.00  0.00    -0.031 C 
ENDROOT
BRANCH   1   3
ATOM      3  C   UNL     1       0.553 -16.261 -18.337  1.00  0.00     0.027 C 
BRANCH   3   4
ATOM      4  C   UNL     1      -0.802 -15.646 -18.728  1.00  0.00     0.004 C 
BRANCH   4   5
ATOM      5  C   UNL     1      -1.693 -16.561 -19.595  1.00  0.00     0.000 C 
BRANCH   5   6
ATOM      6  C   UNL     1      -1.757 -18.027 -19.133  1.00  0.00     0.000 C 
BRANCH   6   7
ATOM      7  C   UNL     1      -0.987 -18.978 -20.065  1.00  0.00     0.000 C 
BRANCH   7   8
ATOM      8  C   UNL     1       0.031 -19.854 -19.312  1.00  0.00     0.006 C 
BRANCH   8   9
ATOM      9  C   UNL     1      -0.318 -20.098 -17.835  1.00  0.00     0.053 C 
BRANCH   9  10
ATOM     10  C   UNL     1       0.852 -19.854 -16.932  1.00  0.00     0.041 C 
ATOM     11  O   UNL     1       0.773 -20.124 -15.705  1.00  0.00    -0.550 OA
ATOM     12  O   UNL     1       2.039 -19.355 -17.453  1.00  0.00    -0.550 OA
ENDBRANCH   9  10
ENDBRANCH   8   9
ENDBRANCH   7   8
ENDBRANCH   6   7
ENDBRANCH   5   6
ENDBRANCH   4   5
ENDBRANCH   3   4
ENDBRANCH   1   3
BRANCH   2  13
ATOM     13  C   UNL     1       2.616 -12.979 -18.569  1.00  0.00     0.027 C 
BRANCH  13  14
ATOM     14  C   UNL     1       2.185 -11.630 -19.167  1.00  0.00     0.004 C 
BRANCH  14  15
ATOM     15  C   UNL     1       2.713 -10.430 -18.364  1.00  0.00     0.000 C 
BRANCH  15  16
ATOM     16  C   UNL     1       4.176 -10.094 -18.702  1.00  0.00     0.000 C 
BRANCH  16  17
ATOM     17  C   UNL     1       4.508 -10.332 -20.184  1.00  0.00    -0.000 C 
BRANCH  17  18
ATOM     18  C   UNL     1       5.816 -11.117 -20.380  1.00  0.00    -0.000 C 
BRANCH  18  19
ATOM     19  C   UNL     1       6.741 -11.035 -19.156  1.00  0.00    -0.003 C 
ATOM     20  C   UNL     1       6.489 -12.157 -18.151  1.00  0.00     0.004 C 
ENDBRANCH  18  19
ENDBRANCH  17  18
ENDBRANCH  16  17
ENDBRANCH  15  16
ENDBRANCH  14  15
ENDBRANCH  13  14
ENDBRANCH   2  13
TORSDOF 15
ENDMDL
MODEL 6
REMARK VINA RESULT:    -1.729      3.955      9.416
REMARK INTER + INTRA:          -4.548
REMARK INTER:                  -3.773
REMARK INTRA:                  -0.775
REMARK UNBOUND:                -1.302
REMARK SMILES CCCCCCCCC=CCCCCCCCC(=O)[O-]
REMARK SMILES IDX 10 1 9 2 11 3 12 4 13 5 14 6 15 7 16 8 17 9 18 10 19 11
REMARK SMILES IDX 20 12 8 13 7 14 6 15 5 16 4 17 3 18 2 19 1 20
REMARK H PARENT
REMARK Flexibility Score: inf
ROOT
ATOM      1  C   UNL     1       2.711 -12.880 -18.941  1.00  0.00    -0.031 C 
ATOM      2  C   UNL     1       3.966 -12.433 -19.091  1.00  0.00    -0.031 C 
ENDROOT
BRANCH   1   3
ATOM      3  C   UNL     1       2.422 -14.243 -18.372  1.00  0.00     0.027 C 
BRANCH   3   4
ATOM      4  C   UNL     1       0.926 -14.459 -18.084  1.00  0.00     0.004 C 
BRANCH   4   5
ATOM      5  C   UNL     1       0.460 -15.926 -18.192  1.00  0.00     0.000 C 
BRANCH   5   6
ATOM      6  C   UNL     1      -0.985 -16.110 -18.688  1.00  0.00     0.000 C 
BRANCH   6   7
ATOM      7  C   UNL     1      -1.365 -17.588 -18.878  1.00  0.00     0.000 C 
BRANCH   7   8
ATOM      8  C   UNL     1      -0.214 -18.428 -19.462  1.00  0.00     0.006 C 
BRANCH   8   9
ATOM      9  C   UNL     1      -0.084 -19.831 -18.845  1.00  0.00     0.053 C 
BRANCH   9  10
ATOM     10  C   UNL     1       0.549 -19.791 -17.488  1.00  0.00     0.041 C 
ATOM     11  O   UNL     1      -0.115 -20.124 -16.470  1.00  0.00    -0.550 OA
ATOM     12  O   UNL     1       1.879 -19.416 -17.350  1.00  0.00    -0.550 OA
ENDBRANCH   9  10
ENDBRANCH   8   9
ENDBRANCH   7   8
ENDBRANCH   6   7
ENDBRANCH   5   6
ENDBRANCH   4   5
ENDBRANCH   3   4
ENDBRANCH   1   3
BRANCH   2  13
ATOM     13  C   UNL     1       4.254 -11.075 -19.673  1.00  0.00     0.027 C 
BRANCH  13  14
ATOM     14  C   UNL     1       3.353 -10.002 -19.043  1.00  0.00     0.004 C 
BRANCH  14  15
ATOM     15  C   UNL     1       3.706  -9.719 -17.574  1.00  0.00     0.000 C 
BRANCH  15  16
ATOM     16  C   UNL     1       2.624  -8.893 -16.856  1.00  0.00     0.000 C 
BRANCH  16  17
ATOM     17  C   UNL     1       3.215  -7.919 -15.823  1.00  0.00    -0.000 C 
BRANCH  17  18
ATOM     18  C   UNL     1       3.741  -8.634 -14.567  1.00  0.00    -0.000 C 
BRANCH  18  19
ATOM     19  C   UNL     1       4.126  -7.652 -13.450  1.00  0.00    -0.003 C 
ATOM     20  C   UNL     1       2.980  -6.718 -13.065  1.00  0.00     0.004 C 
ENDBRANCH  18  19
ENDBRANCH  17  18
ENDBRANCH  16  17
ENDBRANCH  15  16
ENDBRANCH  14  15
ENDBRANCH  13  14
ENDBRANCH   2  13
TORSDOF 15
ENDMDL
MODEL 7
REMARK VINA RESULT:    -1.500      3.525      8.823
REMARK INTER + INTRA:          -4.117
REMARK INTER:                  -2.972
REMARK INTRA:                  -1.146
REMARK UNBOUND:                -1.302
REMARK SMILES CCCCCCCCC=CCCCCCCCC(=O)[O-]
REMARK SMILES IDX 10 1 9 2 11 3 12 4 13 5 14 6 15 7 16 8 17 9 18 10 19 11
REMARK SMILES IDX 20 12 8 13 7 14 6 15 5 16 4 17 3 18 2 19 1 20
REMARK H PARENT
REMARK Flexibility Score: inf
ROOT
ATOM      1  C   UNL     1       0.305 -14.937 -18.750  1.00  0.00    -0.031 C 
ATOM      2  C   UNL     1       1.446 -14.777 -18.065  1.00  0.00    -0.031 C 
ENDROOT
BRANCH   1   3
ATOM      3  C   UNL     1      -0.903 -15.585 -18.129  1.00  0.00     0.027 C 
BRANCH   3   4
ATOM      4  C   UNL     1      -2.049 -15.788 -19.135  1.00  0.00     0.004 C 
BRANCH   4   5
ATOM      5  C   UNL     1      -1.838 -16.959 -20.118  1.00  0.00     0.000 C 
BRANCH   5   6
ATOM      6  C   UNL     1      -1.712 -18.343 -19.458  1.00  0.00     0.000 C 
BRANCH   6   7
ATOM      7  C   UNL     1      -0.932 -19.347 -20.324  1.00  0.00     0.000 C 
BRANCH   7   8
ATOM      8  C   UNL     1       0.159 -20.093 -19.534  1.00  0.00     0.006 C 
BRANCH   8   9
ATOM      9  C   UNL     1       0.831 -19.249 -18.438  1.00  0.00     0.053 C 
BRANCH   9  10
ATOM     10  C   UNL     1       0.634 -19.838 -17.075  1.00  0.00     0.041 C 
ATOM     11  O   UNL     1      -0.524 -20.123 -16.670  1.00  0.00    -0.550 OA
ATOM     12  O   UNL     1       1.731 -20.100 -16.265  1.00  0.00    -0.550 OA
ENDBRANCH   9  10
ENDBRANCH   8   9
ENDBRANCH   7   8
ENDBRANCH   6   7
ENDBRANCH   5   6
ENDBRANCH   4   5
ENDBRANCH   3   4
ENDBRANCH   1   3
BRANCH   2  13
ATOM     13  C   UNL     1       2.658 -14.142 -18.692  1.00  0.00     0.027 C 
BRANCH  13  14
ATOM     14  C   UNL     1       2.497 -12.616 -18.781  1.00  0.00     0.004 C 
BRANCH  14  15
ATOM     15  C   UNL     1       3.817 -11.899 -19.106  1.00  0.00     0.000 C 
BRANCH  15  16
ATOM     16  C   UNL     1       3.775 -10.400 -18.760  1.00  0.00     0.000 C 
BRANCH  16  17
ATOM     17  C   UNL     1       2.350  -9.904 -18.465  1.00  0.00    -0.000 C 
BRANCH  17  18
ATOM     18  C   UNL     1       2.266  -9.070 -17.176  1.00  0.00    -0.000 C 
BRANCH  18  19
ATOM     19  C   UNL     1       3.616  -8.973 -16.449  1.00  0.00    -0.003 C 
ATOM     20  C   UNL     1       3.504  -8.298 -15.083  1.00  0.00     0.004 C 
ENDBRANCH  18  19
ENDBRANCH  17  18
ENDBRANCH  16  17
ENDBRANCH  15  16
ENDBRANCH  14  15
ENDBRANCH  13  14
ENDBRANCH   2  13
TORSDOF 15
ENDMDL
MODEL 8
REMARK VINA RESULT:    -0.964      1.505      2.544
REMARK INTER + INTRA:          -3.112
REMARK INTER:                  -2.329
REMARK INTRA:                  -0.782
REMARK UNBOUND:                -1.302
REMARK SMILES CCCCCCCCC=CCCCCCCCC(=O)[O-]
REMARK SMILES IDX 10 1 9 2 11 3 12 4 13 5 14 6 15 7 16 8 17 9 18 10 19 11
REMARK SMILES IDX 20 12 8 13 7 14 6 15 5 16 4 17 3 18 2 19 1 20
REMARK H PARENT
REMARK Flexibility Score: inf
ROOT
ATOM      1  C   UNL     1       1.725 -14.531 -18.668  1.00  0.00    -0.031 C 
ATOM      2  C   UNL     1       0.991 -15.326 -17.876  1.00  0.00    -0.031 C 
ENDROOT
BRANCH   1   3
ATOM      3  C   UNL     1       2.543 -13.398 -18.109  1.00  0.00     0.027 C 
BRANCH   3   4
ATOM      4  C   UNL     1       2.738 -12.254 -19.119  1.00  0.00     0.004 C 
BRANCH   4   5
ATOM      5  C   UNL     1       2.786 -10.847 -18.490  1.00  0.00     0.000 C 
BRANCH   5   6
ATOM      6  C   UNL     1       3.654  -9.828 -19.248  1.00  0.00     0.000 C 
BRANCH   6   7
ATOM      7  C   UNL     1       4.598 -10.491 -20.266  1.00  0.00     0.000 C 
BRANCH   7   8
ATOM      8  C   UNL     1       6.026 -10.675 -19.721  1.00  0.00     0.006 C 
BRANCH   8   9
ATOM      9  C   UNL     1       7.049 -11.127 -20.776  1.00  0.00     0.053 C 
BRANCH   9  10
ATOM     10  C   UNL     1       8.326 -10.348 -20.692  1.00  0.00     0.041 C 
ATOM     11  O   UNL     1       9.120 -10.326 -21.668  1.00  0.00    -0.550 OA
ATOM     12  O   UNL     1       8.623  -9.622 -19.546  1.00  0.00    -0.550 OA
ENDBRANCH   9  10
ENDBRANCH   8   9
ENDBRANCH   7   8
ENDBRANCH   6   7
ENDBRANCH   5   6
ENDBRANCH   4   5
ENDBRANCH   3   4
ENDBRANCH   1   3
BRANCH   2  13
ATOM     13  C   UNL     1       0.163 -16.450 -18.439  1.00  0.00     0.027 C 
BRANCH  13  14
ATOM     14  C   UNL     1      -1.331 -16.090 -18.436  1.00  0.00     0.004 C 
BRANCH  14  15
ATOM     15  C   UNL     1      -1.978 -16.239 -19.822  1.00  0.00     0.000 C 
BRANCH  15  16
ATOM     16  C   UNL     1      -1.813 -17.656 -20.400  1.00  0.00     0.000 C 
BRANCH  16  17
ATOM     17  C   UNL     1      -2.125 -18.753 -19.369  1.00  0.00    -0.000 C 
BRANCH  17  18
ATOM     18  C   UNL     1      -1.495 -20.108 -19.733  1.00  0.00    -0.000 C 
BRANCH  18  19
ATOM     19  C   UNL     1       0.015 -20.002 -19.996  1.00  0.00    -0.003 C 
ATOM     20  C   UNL     1       0.815 -19.704 -18.728  1.00  0.00     0.004 C 
ENDBRANCH  18  19
ENDBRANCH  17  18
ENDBRANCH  16  17
ENDBRANCH  15  16
ENDBRANCH  14  15
ENDBRANCH  13  14
ENDBRANCH   2  13
TORSDOF 15
ENDMDL
