MODEL 1
REMARK VINA RESULT:    -3.588      0.000      0.000
REMARK INTER + INTRA:         -13.238
REMARK INTER:                  -9.041
REMARK INTRA:                  -4.197
REMARK UNBOUND:                -4.197
REMARK SMILES CCCCCCCCCCCCCCCCCCCCCCCCCCCC(=O)[O-]
REMARK SMILES IDX 15 1 16 2 17 3 18 4 19 5 20 6 21 7 22 8 23 9 24 10 25 11
REMARK SMILES IDX 26 12 27 13 28 14 29 15 30 16 14 17 13 18 12 19 11 20 10 21
REMARK SMILES IDX 9 22 8 23 7 24 6 25 5 26 4 27 3 28 2 29 1 30
REMARK H PARENT
REMARK Flexibility Score: inf
ROOT
ATOM      1  C   UNL     1      15.045   7.064  13.224  1.00  0.00     0.000 C 
ENDROOT
BRANCH   1   2
ATOM      2  C   UNL     1      13.780   6.884  14.085  1.00  0.00     0.000 C 
BRANCH   2   3
ATOM      3  C   UNL     1      12.748   5.890  13.523  1.00  0.00     0.000 C 
BRANCH   3   4
ATOM      4  C   UNL     1      11.510   6.579  12.929  1.00  0.00     0.000 C 
BRANCH   4   5
ATOM      5  C   UNL     1      11.580   6.618  11.394  1.00  0.00     0.000 C 
BRANCH   5   6
ATOM      6  C   UNL     1      11.891   5.236  10.779  1.00  0.00     0.000 C 
BRANCH   6   7
ATOM      7  C   UNL     1      12.241   5.284   9.280  1.00  0.00     0.000 C 
BRANCH   7   8
ATOM      8  C   UNL     1      11.772   6.551   8.540  1.00  0.00     0.000 C 
BRANCH   8   9
ATOM      9  C   UNL     1      10.475   6.394   7.721  1.00  0.00     0.000 C 
BRANCH   9  10
ATOM     10  C   UNL     1       9.706   7.701   7.456  1.00  0.00     0.000 C 
BRANCH  10  11
ATOM     11  C   UNL     1      10.530   8.735   6.670  1.00  0.00     0.000 C 
BRANCH  11  12
ATOM     12  C   UNL     1       9.650   9.797   5.988  1.00  0.00     0.006 C 
BRANCH  12  13
ATOM     13  C   UNL     1       8.592  10.382   6.933  1.00  0.00     0.053 C 
BRANCH  13  14
ATOM     14  C   UNL     1       9.139  11.567   7.665  1.00  0.00     0.041 C 
ATOM     15  O   UNL     1       9.480  11.462   8.873  1.00  0.00    -0.550 OA
ATOM     16  O   UNL     1       9.255  12.794   7.020  1.00  0.00    -0.550 OA
ENDBRANCH  13  14
ENDBRANCH  12  13
ENDBRANCH  11  12
ENDBRANCH  10  11
ENDBRANCH   9  10
ENDBRANCH   8   9
ENDBRANCH   7   8
ENDBRANCH   6   7
ENDBRANCH   5   6
ENDBRANCH   4   5
ENDBRANCH   3   4
ENDBRANCH   2   3
ENDBRANCH   1   2
BRANCH   1  17
ATOM     17  C   UNL     1      14.868   7.959  11.982  1.00  0.00     0.000 C 
BRANCH  17  18
ATOM     18  C   UNL     1      15.118   7.259  10.633  1.00  0.00     0.000 C 
BRANCH  18  19
ATOM     19  C   UNL     1      15.663   5.822  10.736  1.00  0.00     0.000 C 
BRANCH  19  20
ATOM     20  C   UNL     1      16.132   5.260   9.386  1.00  0.00     0.000 C 
BRANCH  20  21
ATOM     21  C   UNL     1      15.691   6.165   8.226  1.00  0.00     0.000 C 
BRANCH  21  22
ATOM     22  C   UNL     1      15.897   5.498   6.856  1.00  0.00    -0.000 C 
BRANCH  22  23
ATOM     23  C   UNL     1      17.014   6.179   6.043  1.00  0.00    -0.000 C 
BRANCH  23  24
ATOM     24  C   UNL     1      16.621   7.582   5.558  1.00  0.00    -0.000 C 
BRANCH  24  25
ATOM     25  C   UNL     1      16.910   7.798   4.062  1.00  0.00    -0.000 C 
BRANCH  25  26
ATOM     26  C   UNL     1      15.660   8.268   3.289  1.00  0.00    -0.000 C 
BRANCH  26  27
ATOM     27  C   UNL     1      14.803   9.293   4.058  1.00  0.00    -0.000 C 
BRANCH  27  28
ATOM     28  C   UNL     1      13.332   8.892   4.253  1.00  0.00    -0.000 C 
BRANCH  28  29
ATOM     29  C   UNL     1      13.036   7.466   3.765  1.00  0.00    -0.003 C 
ATOM     30  C   UNL     1      12.981   6.486   4.933  1.00  0.00     0.004 C 
ENDBRANCH  28  29
ENDBRANCH  27  28
ENDBRANCH  26  27
ENDBRANCH  25  26
ENDBRANCH  24  25
ENDBRANCH  23  24
ENDBRANCH  22  23
ENDBRANCH  21  22
ENDBRANCH  20  21
ENDBRANCH  19  20
ENDBRANCH  18  19
ENDBRANCH  17  18
ENDBRANCH   1  17
TORSDOF 26
ENDMDL
MODEL 2
REMARK VINA RESULT:    -3.553      2.401      6.439
REMARK INTER + INTRA:         -13.151
REMARK INTER:                  -8.772
REMARK INTRA:                  -4.379
REMARK UNBOUND:                -4.197
REMARK SMILES CCCCCCCCCCCCCCCCCCCCCCCCCCCC(=O)[O-]
REMARK SMILES IDX 15 1 16 2 17 3 18 4 19 5 20 6 21 7 22 8 23 9 24 10 25 11
REMARK SMILES IDX 26 12 27 13 28 14 29 15 30 16 14 17 13 18 12 19 11 20 10 21
REMARK SMILES IDX 9 22 8 23 7 24 6 25 5 26 4 27 3 28 2 29 1 30
REMARK H PARENT
REMARK Flexibility Score: inf
ROOT
ATOM      1  C   UNL     1      10.783   7.041   8.593  1.00  0.00     0.000 C 
ENDROOT
BRANCH   1   2
ATOM      2  C   UNL     1      10.573   7.963   7.377  1.00  0.00     0.000 C 
BRANCH   2   3
ATOM      3  C   UNL     1      11.400   7.596   6.133  1.00  0.00     0.000 C 
BRANCH   3   4
ATOM      4  C   UNL     1      11.040   8.440   4.900  1.00  0.00     0.000 C 
BRANCH   4   5
ATOM      5  C   UNL     1       9.541   8.777   4.877  1.00  0.00     0.000 C 
BRANCH   5   6
ATOM      6  C   UNL     1       8.768   7.972   3.808  1.00  0.00     0.000 C 
BRANCH   6   7
ATOM      7  C   UNL     1       7.537   7.227   4.356  1.00  0.00     0.000 C 
BRANCH   7   8
ATOM      8  C   UNL     1       7.834   6.202   5.465  1.00  0.00     0.000 C 
BRANCH   8   9
ATOM      9  C   UNL     1       7.220   6.524   6.843  1.00  0.00     0.000 C 
BRANCH   9  10
ATOM     10  C   UNL     1       6.423   7.838   6.914  1.00  0.00     0.000 C 
BRANCH  10  11
ATOM     11  C   UNL     1       7.006   8.842   7.923  1.00  0.00     0.000 C 
BRANCH  11  12
ATOM     12  C   UNL     1       7.478  10.145   7.254  1.00  0.00     0.006 C 
BRANCH  12  13
ATOM     13  C   UNL     1       6.949  11.399   7.963  1.00  0.00     0.053 C 
BRANCH  13  14
ATOM     14  C   UNL     1       8.053  12.096   8.693  1.00  0.00     0.041 C 
ATOM     15  O   UNL     1       9.241  11.693   8.577  1.00  0.00    -0.550 OA
ATOM     16  O   UNL     1       7.771  13.180   9.517  1.00  0.00    -0.550 OA
ENDBRANCH  13  14
ENDBRANCH  12  13
ENDBRANCH  11  12
ENDBRANCH  10  11
ENDBRANCH   9  10
ENDBRANCH   8   9
ENDBRANCH   7   8
ENDBRANCH   6   7
ENDBRANCH   5   6
ENDBRANCH   4   5
ENDBRANCH   3   4
ENDBRANCH   2   3
ENDBRANCH   1   2
BRANCH   1  17
ATOM     17  C   UNL     1      12.006   6.108   8.501  1.00  0.00     0.000 C 
BRANCH  17  18
ATOM     18  C   UNL     1      12.937   6.130   9.730  1.00  0.00     0.000 C 
BRANCH  18  19
ATOM     19  C   UNL     1      14.399   5.741   9.446  1.00  0.00     0.000 C 
BRANCH  19  20
ATOM     20  C   UNL     1      15.396   6.424  10.394  1.00  0.00     0.000 C 
BRANCH  20  21
ATOM     21  C   UNL     1      14.795   7.699  11.003  1.00  0.00     0.000 C 
BRANCH  21  22
ATOM     22  C   UNL     1      15.358   7.997  12.404  1.00  0.00    -0.000 C 
BRANCH  22  23
ATOM     23  C   UNL     1      15.609   6.711  13.212  1.00  0.00    -0.000 C 
BRANCH  23  24
ATOM     24  C   UNL     1      14.417   6.331  14.103  1.00  0.00    -0.000 C 
BRANCH  24  25
ATOM     25  C   UNL     1      13.526   5.244  13.474  1.00  0.00    -0.000 C 
BRANCH  25  26
ATOM     26  C   UNL     1      12.054   5.690  13.364  1.00  0.00    -0.000 C 
BRANCH  26  27
ATOM     27  C   UNL     1      11.859   7.217  13.454  1.00  0.00    -0.000 C 
BRANCH  27  28
ATOM     28  C   UNL     1      11.164   7.854  12.239  1.00  0.00    -0.000 C 
BRANCH  28  29
ATOM     29  C   UNL     1      10.259   9.033  12.624  1.00  0.00    -0.003 C 
ATOM     30  C   UNL     1       9.480   9.544  11.415  1.00  0.00     0.004 C 
ENDBRANCH  28  29
ENDBRANCH  27  28
ENDBRANCH  26  27
ENDBRANCH  25  26
ENDBRANCH  24  25
ENDBRANCH  23  24
ENDBRANCH  22  23
ENDBRANCH  21  22
ENDBRANCH  20  21
ENDBRANCH  19  20
ENDBRANCH  18  19
ENDBRANCH  17  18
ENDBRANCH   1  17
TORSDOF 26
ENDMDL
MODEL 3
REMARK VINA RESULT:    -3.413      2.650      6.567
REMARK INTER + INTRA:         -12.799
REMARK INTER:                  -8.962
REMARK INTRA:                  -3.837
REMARK UNBOUND:                -4.197
REMARK SMILES CCCCCCCCCCCCCCCCCCCCCCCCCCCC(=O)[O-]
REMARK SMILES IDX 15 1 16 2 17 3 18 4 19 5 20 6 21 7 22 8 23 9 24 10 25 11
REMARK SMILES IDX 26 12 27 13 28 14 29 15 30 16 14 17 13 18 12 19 11 20 10 21
REMARK SMILES IDX 9 22 8 23 7 24 6 25 5 26 4 27 3 28 2 29 1 30
REMARK H PARENT
REMARK Flexibility Score: inf
ROOT
ATOM      1  C   UNL     1      15.124   6.103   9.097  1.00  0.00     0.000 C 
ENDROOT
BRANCH   1   2
ATOM      2  C   UNL     1      14.318   4.808   8.874  1.00  0.00     0.000 C 
BRANCH   2   3
ATOM      3  C   UNL     1      12.790   4.974   8.944  1.00  0.00     0.000 C 
BRANCH   3   4
ATOM      4  C   UNL     1      12.267   6.113   8.054  1.00  0.00     0.000 C 
BRANCH   4   5
ATOM      5  C   UNL     1      11.253   6.986   8.810  1.00  0.00     0.000 C 
BRANCH   5   6
ATOM      6  C   UNL     1       9.924   7.152   8.041  1.00  0.00     0.000 C 
BRANCH   6   7
ATOM      7  C   UNL     1       9.326   8.569   8.125  1.00  0.00     0.000 C 
BRANCH   7   8
ATOM      8  C   UNL     1       8.422   8.968   6.944  1.00  0.00     0.000 C 
BRANCH   8   9
ATOM      9  C   UNL     1       9.151   9.592   5.737  1.00  0.00     0.000 C 
BRANCH   9  10
ATOM     10  C   UNL     1       9.356   8.650   4.537  1.00  0.00     0.000 C 
BRANCH  10  11
ATOM     11  C   UNL     1      10.647   7.819   4.638  1.00  0.00     0.000 C 
BRANCH  11  12
ATOM     12  C   UNL     1      11.881   8.681   4.954  1.00  0.00     0.006 C 
BRANCH  12  13
ATOM     13  C   UNL     1      13.172   8.107   4.354  1.00  0.00     0.053 C 
BRANCH  13  14
ATOM     14  C   UNL     1      13.816   9.102   3.441  1.00  0.00     0.041 C 
ATOM     15  O   UNL     1      13.478   9.158   2.229  1.00  0.00    -0.550 OA
ATOM     16  O   UNL     1      14.802   9.956   3.923  1.00  0.00    -0.550 OA
ENDBRANCH  13  14
ENDBRANCH  12  13
ENDBRANCH  11  12
ENDBRANCH  10  11
ENDBRANCH   9  10
ENDBRANCH   8   9
ENDBRANCH   7   8
ENDBRANCH   6   7
ENDBRANCH   5   6
ENDBRANCH   4   5
ENDBRANCH   3   4
ENDBRANCH   2   3
ENDBRANCH   1   2
BRANCH   1  17
ATOM     17  C   UNL     1      15.551   6.363  10.555  1.00  0.00     0.000 C 
BRANCH  17  18
ATOM     18  C   UNL     1      14.859   7.562  11.232  1.00  0.00     0.000 C 
BRANCH  18  19
ATOM     19  C   UNL     1      14.037   7.216  12.487  1.00  0.00     0.000 C 
BRANCH  19  20
ATOM     20  C   UNL     1      12.572   6.880  12.170  1.00  0.00     0.000 C 
BRANCH  20  21
ATOM     21  C   UNL     1      11.630   7.446  13.244  1.00  0.00     0.000 C 
BRANCH  21  22
ATOM     22  C   UNL     1      10.768   8.603  12.710  1.00  0.00    -0.000 C 
BRANCH  22  23
ATOM     23  C   UNL     1       9.496   8.099  12.003  1.00  0.00    -0.000 C 
BRANCH  23  24
ATOM     24  C   UNL     1       8.541   9.240  11.623  1.00  0.00    -0.000 C 
BRANCH  24  25
ATOM     25  C   UNL     1       9.207  10.626  11.696  1.00  0.00    -0.000 C 
BRANCH  25  26
ATOM     26  C   UNL     1       9.221  11.338  10.327  1.00  0.00    -0.000 C 
BRANCH  26  27
ATOM     27  C   UNL     1       7.951  12.164  10.044  1.00  0.00    -0.000 C 
BRANCH  27  28
ATOM     28  C   UNL     1       6.888  11.447   9.196  1.00  0.00    -0.000 C 
BRANCH  28  29
ATOM     29  C   UNL     1       6.667  12.116   7.832  1.00  0.00    -0.003 C 
ATOM     30  C   UNL     1       7.450  13.421   7.726  1.00  0.00     0.004 C 
ENDBRANCH  28  29
ENDBRANCH  27  28
ENDBRANCH  26  27
ENDBRANCH  25  26
ENDBRANCH  24  25
ENDBRANCH  23  24
ENDBRANCH  22  23
ENDBRANCH  21  22
ENDBRANCH  20  21
ENDBRANCH  19  20
ENDBRANCH  18  19
ENDBRANCH  17  18
ENDBRANCH   1  17
TORSDOF 26
ENDMDL
MODEL 4
REMARK VINA RESULT:    -3.390      2.696      6.572
REMARK INTER + INTRA:         -12.741
REMARK INTER:                  -8.318
REMARK INTRA:                  -4.422
REMARK UNBOUND:                -4.197
REMARK SMILES CCCCCCCCCCCCCCCCCCCCCCCCCCCC(=O)[O-]
REMARK SMILES IDX 15 1 16 2 17 3 18 4 19 5 20 6 21 7 22 8 23 9 24 10 25 11
REMARK SMILES IDX 26 12 27 13 28 14 29 15 30 16 14 17 13 18 12 19 11 20 10 21
REMARK SMILES IDX 9 22 8 23 7 24 6 25 5 26 4 27 3 28 2 29 1 30
REMARK H PARENT
REMARK Flexibility Score: inf
ROOT
ATOM      1  C   UNL     1       8.122   7.183   8.299  1.00  0.00     0.000 C 
ENDROOT
BRANCH   1   2
ATOM      2  C   UNL     1       8.324   7.057   6.776  1.00  0.00     0.000 C 
BRANCH   2   3
ATOM      3  C   UNL     1       8.035   8.338   5.974  1.00  0.00     0.000 C 
BRANCH   3   4
ATOM      4  C   UNL     1       9.293   8.938   5.325  1.00  0.00     0.000 C 
BRANCH   4   5
ATOM      5  C   UNL     1       9.721  10.231   6.037  1.00  0.00     0.000 C 
BRANCH   5   6
ATOM      6  C   UNL     1       8.666  10.729   7.049  1.00  0.00     0.000 C 
BRANCH   6   7
ATOM      7  C   UNL     1       9.161  10.750   8.507  1.00  0.00     0.000 C 
BRANCH   7   8
ATOM      8  C   UNL     1       8.252  11.506   9.494  1.00  0.00     0.000 C 
BRANCH   8   9
ATOM      9  C   UNL     1       7.617  12.801   8.947  1.00  0.00     0.000 C 
BRANCH   9  10
ATOM     10  C   UNL     1       6.082  12.865   9.035  1.00  0.00     0.000 C 
BRANCH  10  11
ATOM     11  C   UNL     1       5.389  12.553   7.698  1.00  0.00     0.000 C 
BRANCH  11  12
ATOM     12  C   UNL     1       4.451  11.336   7.788  1.00  0.00     0.006 C 
BRANCH  12  13
ATOM     13  C   UNL     1       5.204  10.002   7.702  1.00  0.00     0.053 C 
BRANCH  13  14
ATOM     14  C   UNL     1       4.950   9.175   8.923  1.00  0.00     0.041 C 
ATOM     15  O   UNL     1       5.007   9.701  10.066  1.00  0.00    -0.550 OA
ATOM     16  O   UNL     1       4.669   7.818   8.801  1.00  0.00    -0.550 OA
ENDBRANCH  13  14
ENDBRANCH  12  13
ENDBRANCH  11  12
ENDBRANCH  10  11
ENDBRANCH   9  10
ENDBRANCH   8   9
ENDBRANCH   7   8
ENDBRANCH   6   7
ENDBRANCH   5   6
ENDBRANCH   4   5
ENDBRANCH   3   4
ENDBRANCH   2   3
ENDBRANCH   1   2
BRANCH   1  17
ATOM     17  C   UNL     1       9.411   7.087   9.138  1.00  0.00     0.000 C 
BRANCH  17  18
ATOM     18  C   UNL     1      10.717   7.331   8.357  1.00  0.00     0.000 C 
BRANCH  18  19
ATOM     19  C   UNL     1      11.714   6.159   8.375  1.00  0.00     0.000 C 
BRANCH  19  20
ATOM     20  C   UNL     1      11.346   5.074   9.398  1.00  0.00     0.000 C 
BRANCH  20  21
ATOM     21  C   UNL     1      12.458   4.898  10.443  1.00  0.00     0.000 C 
BRANCH  21  22
ATOM     22  C   UNL     1      12.121   5.592  11.774  1.00  0.00    -0.000 C 
BRANCH  22  23
ATOM     23  C   UNL     1      12.522   7.079  11.769  1.00  0.00    -0.000 C 
BRANCH  23  24
ATOM     24  C   UNL     1      13.855   7.334  12.487  1.00  0.00    -0.000 C 
BRANCH  24  25
ATOM     25  C   UNL     1      15.058   7.342  11.527  1.00  0.00    -0.000 C 
BRANCH  25  26
ATOM     26  C   UNL     1      15.841   6.013  11.564  1.00  0.00    -0.000 C 
BRANCH  26  27
ATOM     27  C   UNL     1      16.178   5.453  10.168  1.00  0.00    -0.000 C 
BRANCH  27  28
ATOM     28  C   UNL     1      15.478   6.165   8.998  1.00  0.00    -0.000 C 
BRANCH  28  29
ATOM     29  C   UNL     1      15.937   5.647   7.628  1.00  0.00    -0.003 C 
ATOM     30  C   UNL     1      14.862   4.780   6.979  1.00  0.00     0.004 C 
ENDBRANCH  28  29
ENDBRANCH  27  28
ENDBRANCH  26  27
ENDBRANCH  25  26
ENDBRANCH  24  25
ENDBRANCH  23  24
ENDBRANCH  22  23
ENDBRANCH  21  22
ENDBRANCH  20  21
ENDBRANCH  19  20
ENDBRANCH  18  19
ENDBRANCH  17  18
ENDBRANCH   1  17
TORSDOF 26
ENDMDL
MODEL 5
REMARK VINA RESULT:    -3.384      2.958      7.500
REMARK INTER + INTRA:         -12.724
REMARK INTER:                  -8.742
REMARK INTRA:                  -3.982
REMARK UNBOUND:                -4.197
REMARK SMILES CCCCCCCCCCCCCCCCCCCCCCCCCCCC(=O)[O-]
REMARK SMILES IDX 15 1 16 2 17 3 18 4 19 5 20 6 21 7 22 8 23 9 24 10 25 11
REMARK SMILES IDX 26 12 27 13 28 14 29 15 30 16 14 17 13 18 12 19 11 20 10 21
REMARK SMILES IDX 9 22 8 23 7 24 6 25 5 26 4 27 3 28 2 29 1 30
REMARK H PARENT
REMARK Flexibility Score: inf
ROOT
ATOM      1  C   UNL     1       8.818  10.398   6.958  1.00  0.00     0.000 C 
ENDROOT
BRANCH   1   2
ATOM      2  C   UNL     1       9.175  11.766   7.573  1.00  0.00     0.000 C 
BRANCH   2   3
ATOM      3  C   UNL     1       8.326  12.946   7.068  1.00  0.00     0.000 C 
BRANCH   3   4
ATOM      4  C   UNL     1       7.309  13.443   8.108  1.00  0.00     0.000 C 
BRANCH   4   5
ATOM      5  C   UNL     1       5.946  13.729   7.457  1.00  0.00     0.000 C 
BRANCH   5   6
ATOM      6  C   UNL     1       4.761  13.306   8.352  1.00  0.00     0.000 C 
BRANCH   6   7
ATOM      7  C   UNL     1       3.697  12.464   7.623  1.00  0.00     0.000 C 
BRANCH   7   8
ATOM      8  C   UNL     1       3.845  10.940   7.788  1.00  0.00     0.000 C 
BRANCH   8   9
ATOM      9  C   UNL     1       5.296  10.417   7.819  1.00  0.00     0.000 C 
BRANCH   9  10
ATOM     10  C   UNL     1       5.468   8.997   8.386  1.00  0.00     0.000 C 
BRANCH  10  11
ATOM     11  C   UNL     1       6.468   8.931   9.553  1.00  0.00     0.000 C 
BRANCH  11  12
ATOM     12  C   UNL     1       6.778  10.318  10.144  1.00  0.00     0.006 C 
BRANCH  12  13
ATOM     13  C   UNL     1       8.150  10.374  10.828  1.00  0.00     0.053 C 
BRANCH  13  14
ATOM     14  C   UNL     1       8.507  11.785  11.176  1.00  0.00     0.041 C 
ATOM     15  O   UNL     1       9.709  12.159  11.144  1.00  0.00    -0.550 OA
ATOM     16  O   UNL     1       7.515  12.684  11.552  1.00  0.00    -0.550 OA
ENDBRANCH  13  14
ENDBRANCH  12  13
ENDBRANCH  11  12
ENDBRANCH  10  11
ENDBRANCH   9  10
ENDBRANCH   8   9
ENDBRANCH   7   8
ENDBRANCH   6   7
ENDBRANCH   5   6
ENDBRANCH   4   5
ENDBRANCH   3   4
ENDBRANCH   2   3
ENDBRANCH   1   2
BRANCH   1  17
ATOM     17  C   UNL     1       9.537   9.191   7.592  1.00  0.00     0.000 C 
BRANCH  17  18
ATOM     18  C   UNL     1      10.495   8.435   6.650  1.00  0.00     0.000 C 
BRANCH  18  19
ATOM     19  C   UNL     1      11.119   7.159   7.243  1.00  0.00     0.000 C 
BRANCH  19  20
ATOM     20  C   UNL     1      10.673   6.890   8.689  1.00  0.00     0.000 C 
BRANCH  20  21
ATOM     21  C   UNL     1      11.556   5.821   9.350  1.00  0.00     0.000 C 
BRANCH  21  22
ATOM     22  C   UNL     1      13.050   6.180   9.286  1.00  0.00    -0.000 C 
BRANCH  22  23
ATOM     23  C   UNL     1      13.925   5.147  10.020  1.00  0.00    -0.000 C 
BRANCH  23  24
ATOM     24  C   UNL     1      15.146   5.783  10.700  1.00  0.00    -0.000 C 
BRANCH  24  25
ATOM     25  C   UNL     1      15.070   7.320  10.746  1.00  0.00    -0.000 C 
BRANCH  25  26
ATOM     26  C   UNL     1      15.025   7.858  12.191  1.00  0.00    -0.000 C 
BRANCH  26  27
ATOM     27  C   UNL     1      14.636   6.795  13.238  1.00  0.00    -0.000 C 
BRANCH  27  28
ATOM     28  C   UNL     1      13.259   7.002  13.889  1.00  0.00    -0.000 C 
BRANCH  28  29
ATOM     29  C   UNL     1      12.097   6.702  12.930  1.00  0.00    -0.003 C 
ATOM     30  C   UNL     1      11.337   7.976  12.573  1.00  0.00     0.004 C 
ENDBRANCH  28  29
ENDBRANCH  27  28
ENDBRANCH  26  27
ENDBRANCH  25  26
ENDBRANCH  24  25
ENDBRANCH  23  24
ENDBRANCH  22  23
ENDBRANCH  21  22
ENDBRANCH  20  21
ENDBRANCH  19  20
ENDBRANCH  18  19
ENDBRANCH  17  18
ENDBRANCH   1  17
TORSDOF 26
ENDMDL
MODEL 6
REMARK VINA RESULT:    -3.371      2.276      6.398
REMARK INTER + INTRA:         -12.692
REMARK INTER:                  -9.319
REMARK INTRA:                  -3.373
REMARK UNBOUND:                -4.197
REMARK SMILES CCCCCCCCCCCCCCCCCCCCCCCCCCCC(=O)[O-]
REMARK SMILES IDX 15 1 16 2 17 3 18 4 19 5 20 6 21 7 22 8 23 9 24 10 25 11
REMARK SMILES IDX 26 12 27 13 28 14 29 15 30 16 14 17 13 18 12 19 11 20 10 21
REMARK SMILES IDX 9 22 8 23 7 24 6 25 5 26 4 27 3 28 2 29 1 30
REMARK H PARENT
REMARK Flexibility Score: inf
ROOT
ATOM      1  C   UNL     1      11.762   7.361  12.128  1.00  0.00     0.000 C 
ENDROOT
BRANCH   1   2
ATOM      2  C   UNL     1      12.712   6.886  13.245  1.00  0.00     0.000 C 
BRANCH   2   3
ATOM      3  C   UNL     1      14.185   6.741  12.825  1.00  0.00     0.000 C 
BRANCH   3   4
ATOM      4  C   UNL     1      14.642   7.834  11.846  1.00  0.00     0.000 C 
BRANCH   4   5
ATOM      5  C   UNL     1      15.142   7.223  10.527  1.00  0.00     0.000 C 
BRANCH   5   6
ATOM      6  C   UNL     1      15.376   5.699  10.630  1.00  0.00     0.000 C 
BRANCH   6   7
ATOM      7  C   UNL     1      16.233   5.121   9.489  1.00  0.00     0.000 C 
BRANCH   7   8
ATOM      8  C   UNL     1      15.451   4.337   8.418  1.00  0.00     0.000 C 
BRANCH   8   9
ATOM      9  C   UNL     1      15.790   4.698   6.958  1.00  0.00     0.000 C 
BRANCH   9  10
ATOM     10  C   UNL     1      15.469   6.148   6.551  1.00  0.00     0.000 C 
BRANCH  10  11
ATOM     11  C   UNL     1      16.696   6.909   6.020  1.00  0.00     0.000 C 
BRANCH  11  12
ATOM     12  C   UNL     1      16.324   7.973   4.973  1.00  0.00     0.006 C 
BRANCH  12  13
ATOM     13  C   UNL     1      15.050   7.616   4.196  1.00  0.00     0.053 C 
BRANCH  13  14
ATOM     14  C   UNL     1      14.374   8.854   3.697  1.00  0.00     0.041 C 
ATOM     15  O   UNL     1      14.843   9.988   3.979  1.00  0.00    -0.550 OA
ATOM     16  O   UNL     1      13.214   8.757   2.935  1.00  0.00    -0.550 OA
ENDBRANCH  13  14
ENDBRANCH  12  13
ENDBRANCH  11  12
ENDBRANCH  10  11
ENDBRANCH   9  10
ENDBRANCH   8   9
ENDBRANCH   7   8
ENDBRANCH   6   7
ENDBRANCH   5   6
ENDBRANCH   4   5
ENDBRANCH   3   4
ENDBRANCH   2   3
ENDBRANCH   1   2
BRANCH   1  17
ATOM     17  C   UNL     1      11.359   6.277  11.109  1.00  0.00     0.000 C 
BRANCH  17  18
ATOM     18  C   UNL     1      11.172   6.779   9.664  1.00  0.00     0.000 C 
BRANCH  18  19
ATOM     19  C   UNL     1      12.151   6.184   8.636  1.00  0.00     0.000 C 
BRANCH  19  20
ATOM     20  C   UNL     1      11.816   6.580   7.190  1.00  0.00     0.000 C 
BRANCH  20  21
ATOM     21  C   UNL     1      10.908   7.818   7.152  1.00  0.00     0.000 C 
BRANCH  21  22
ATOM     22  C   UNL     1      10.955   8.534   5.791  1.00  0.00    -0.000 C 
BRANCH  22  23
ATOM     23  C   UNL     1       9.909   9.659   5.691  1.00  0.00    -0.000 C 
BRANCH  23  24
ATOM     24  C   UNL     1       9.079   9.809   6.975  1.00  0.00    -0.000 C 
BRANCH  24  25
ATOM     25  C   UNL     1       9.054  11.254   7.503  1.00  0.00    -0.000 C 
BRANCH  25  26
ATOM     26  C   UNL     1       8.671  11.322   8.996  1.00  0.00    -0.000 C 
BRANCH  26  27
ATOM     27  C   UNL     1       7.151  11.308   9.249  1.00  0.00    -0.000 C 
BRANCH  27  28
ATOM     28  C   UNL     1       6.308  12.003   8.166  1.00  0.00    -0.000 C 
BRANCH  28  29
ATOM     29  C   UNL     1       5.244  11.078   7.557  1.00  0.00    -0.003 C 
ATOM     30  C   UNL     1       5.424   9.641   8.039  1.00  0.00     0.004 C 
ENDBRANCH  28  29
ENDBRANCH  27  28
ENDBRANCH  26  27
ENDBRANCH  25  26
ENDBRANCH  24  25
ENDBRANCH  23  24
ENDBRANCH  22  23
ENDBRANCH  21  22
ENDBRANCH  20  21
ENDBRANCH  19  20
ENDBRANCH  18  19
ENDBRANCH  17  18
ENDBRANCH   1  17
TORSDOF 26
ENDMDL
MODEL 7
REMARK VINA RESULT:    -3.370      2.464      6.207
REMARK INTER + INTRA:         -12.690
REMARK INTER:                  -8.806
REMARK INTRA:                  -3.884
REMARK UNBOUND:                -4.197
REMARK SMILES CCCCCCCCCCCCCCCCCCCCCCCCCCCC(=O)[O-]
REMARK SMILES IDX 15 1 16 2 17 3 18 4 19 5 20 6 21 7 22 8 23 9 24 10 25 11
REMARK SMILES IDX 26 12 27 13 28 14 29 15 30 16 14 17 13 18 12 19 11 20 10 21
REMARK SMILES IDX 9 22 8 23 7 24 6 25 5 26 4 27 3 28 2 29 1 30
REMARK H PARENT
REMARK Flexibility Score: inf
ROOT
ATOM      1  C   UNL     1      14.376   6.008   9.402  1.00  0.00     0.000 C 
ENDROOT
BRANCH   1   2
ATOM      2  C   UNL     1      12.953   5.800   9.953  1.00  0.00     0.000 C 
BRANCH   2   3
ATOM      3  C   UNL     1      11.842   6.525   9.174  1.00  0.00     0.000 C 
BRANCH   3   4
ATOM      4  C   UNL     1      11.660   5.988   7.745  1.00  0.00     0.000 C 
BRANCH   4   5
ATOM      5  C   UNL     1      10.697   6.873   6.938  1.00  0.00     0.000 C 
BRANCH   5   6
ATOM      6  C   UNL     1      11.419   7.696   5.849  1.00  0.00     0.000 C 
BRANCH   6   7
ATOM      7  C   UNL     1      10.486   8.224   4.743  1.00  0.00     0.000 C 
BRANCH   7   8
ATOM      8  C   UNL     1       9.291   9.059   5.241  1.00  0.00     0.000 C 
BRANCH   8   9
ATOM      9  C   UNL     1       9.658  10.339   6.018  1.00  0.00     0.000 C 
BRANCH   9  10
ATOM     10  C   UNL     1       9.389  10.286   7.532  1.00  0.00     0.000 C 
BRANCH  10  11
ATOM     11  C   UNL     1       8.015   9.686   7.878  1.00  0.00     0.000 C 
BRANCH  11  12
ATOM     12  C   UNL     1       6.859  10.667   7.612  1.00  0.00     0.006 C 
BRANCH  12  13
ATOM     13  C   UNL     1       6.894  11.887   8.541  1.00  0.00     0.053 C 
BRANCH  13  14
ATOM     14  C   UNL     1       7.023  13.149   7.747  1.00  0.00     0.041 C 
ATOM     15  O   UNL     1       8.162  13.591   7.444  1.00  0.00    -0.550 OA
ATOM     16  O   UNL     1       5.885  13.848   7.357  1.00  0.00    -0.550 OA
ENDBRANCH  13  14
ENDBRANCH  12  13
ENDBRANCH  11  12
ENDBRANCH  10  11
ENDBRANCH   9  10
ENDBRANCH   8   9
ENDBRANCH   7   8
ENDBRANCH   6   7
ENDBRANCH   5   6
ENDBRANCH   4   5
ENDBRANCH   3   4
ENDBRANCH   2   3
ENDBRANCH   1   2
BRANCH   1  17
ATOM     17  C   UNL     1      15.361   6.684  10.376  1.00  0.00     0.000 C 
BRANCH  17  18
ATOM     18  C   UNL     1      14.719   7.670  11.371  1.00  0.00     0.000 C 
BRANCH  18  19
ATOM     19  C   UNL     1      15.403   7.742  12.749  1.00  0.00     0.000 C 
BRANCH  19  20
ATOM     20  C   UNL     1      16.062   6.417  13.160  1.00  0.00     0.000 C 
BRANCH  20  21
ATOM     21  C   UNL     1      15.131   5.593  14.062  1.00  0.00     0.000 C 
BRANCH  21  22
ATOM     22  C   UNL     1      14.428   6.460  15.120  1.00  0.00    -0.000 C 
BRANCH  22  23
ATOM     23  C   UNL     1      12.909   6.209  15.158  1.00  0.00    -0.000 C 
BRANCH  23  24
ATOM     24  C   UNL     1      12.396   5.497  13.898  1.00  0.00    -0.000 C 
BRANCH  24  25
ATOM     25  C   UNL     1      11.251   6.259  13.207  1.00  0.00    -0.000 C 
BRANCH  25  26
ATOM     26  C   UNL     1      11.399   7.788  13.350  1.00  0.00    -0.000 C 
BRANCH  26  27
ATOM     27  C   UNL     1      10.866   8.579  12.139  1.00  0.00    -0.000 C 
BRANCH  27  28
ATOM     28  C   UNL     1       9.376   8.953  12.215  1.00  0.00    -0.000 C 
BRANCH  28  29
ATOM     29  C   UNL     1       9.019  10.152  11.324  1.00  0.00    -0.003 C 
ATOM     30  C   UNL     1       9.831  11.385  11.711  1.00  0.00     0.004 C 
ENDBRANCH  28  29
ENDBRANCH  27  28
ENDBRANCH  26  27
ENDBRANCH  25  26
ENDBRANCH  24  25
ENDBRANCH  23  24
ENDBRANCH  22  23
ENDBRANCH  21  22
ENDBRANCH  20  21
ENDBRANCH  19  20
ENDBRANCH  18  19
ENDBRANCH  17  18
ENDBRANCH   1  17
TORSDOF 26
ENDMDL
MODEL 8
REMARK VINA RESULT:    -3.361      2.998      6.192
REMARK INTER + INTRA:         -12.668
REMARK INTER:                  -8.167
REMARK INTRA:                  -4.501
REMARK UNBOUND:                -4.197
REMARK SMILES CCCCCCCCCCCCCCCCCCCCCCCCCCCC(=O)[O-]
REMARK SMILES IDX 15 1 16 2 17 3 18 4 19 5 20 6 21 7 22 8 23 9 24 10 25 11
REMARK SMILES IDX 26 12 27 13 28 14 29 15 30 16 14 17 13 18 12 19 11 20 10 21
REMARK SMILES IDX 9 22 8 23 7 24 6 25 5 26 4 27 3 28 2 29 1 30
REMARK H PARENT
REMARK Flexibility Score: inf
ROOT
ATOM      1  C   UNL     1      14.581   5.721   9.280  1.00  0.00     0.000 C 
ENDROOT
BRANCH   1   2
ATOM      2  C   UNL     1      13.085   5.615   9.631  1.00  0.00     0.000 C 
BRANCH   2   3
ATOM      3  C   UNL     1      12.125   6.130   8.544  1.00  0.00     0.000 C 
BRANCH   3   4
ATOM      4  C   UNL     1      10.687   6.324   9.053  1.00  0.00     0.000 C 
BRANCH   4   5
ATOM      5  C   UNL     1      10.075   7.622   8.505  1.00  0.00     0.000 C 
BRANCH   5   6
ATOM      6  C   UNL     1      10.616   7.989   7.105  1.00  0.00     0.000 C 
BRANCH   6   7
ATOM      7  C   UNL     1       9.531   8.058   6.015  1.00  0.00     0.000 C 
BRANCH   7   8
ATOM      8  C   UNL     1       8.964   9.464   5.745  1.00  0.00     0.000 C 
BRANCH   8   9
ATOM      9  C   UNL     1       9.832  10.634   6.251  1.00  0.00     0.000 C 
BRANCH   9  10
ATOM     10  C   UNL     1       9.120  11.616   7.198  1.00  0.00     0.000 C 
BRANCH  10  11
ATOM     11  C   UNL     1       9.019  11.094   8.642  1.00  0.00     0.000 C 
BRANCH  11  12
ATOM     12  C   UNL     1       7.594  10.644   9.009  1.00  0.00     0.006 C 
BRANCH  12  13
ATOM     13  C   UNL     1       6.523  11.297   8.127  1.00  0.00     0.053 C 
BRANCH  13  14
ATOM     14  C   UNL     1       5.503  10.288   7.704  1.00  0.00     0.041 C 
ATOM     15  O   UNL     1       5.834   9.084   7.542  1.00  0.00    -0.550 OA
ATOM     16  O   UNL     1       4.188  10.679   7.470  1.00  0.00    -0.550 OA
ENDBRANCH  13  14
ENDBRANCH  12  13
ENDBRANCH  11  12
ENDBRANCH  10  11
ENDBRANCH   9  10
ENDBRANCH   8   9
ENDBRANCH   7   8
ENDBRANCH   6   7
ENDBRANCH   5   6
ENDBRANCH   4   5
ENDBRANCH   3   4
ENDBRANCH   2   3
ENDBRANCH   1   2
BRANCH   1  17
ATOM     17  C   UNL     1      15.412   6.613  10.225  1.00  0.00     0.000 C 
BRANCH  17  18
ATOM     18  C   UNL     1      14.599   7.350  11.307  1.00  0.00     0.000 C 
BRANCH  18  19
ATOM     19  C   UNL     1      15.441   8.110  12.348  1.00  0.00     0.000 C 
BRANCH  19  20
ATOM     20  C   UNL     1      15.470   7.416  13.718  1.00  0.00     0.000 C 
BRANCH  20  21
ATOM     21  C   UNL     1      16.596   6.374  13.787  1.00  0.00     0.000 C 
BRANCH  21  22
ATOM     22  C   UNL     1      16.087   4.947  13.519  1.00  0.00    -0.000 C 
BRANCH  22  23
ATOM     23  C   UNL     1      14.667   4.726  14.070  1.00  0.00    -0.000 C 
BRANCH  23  24
ATOM     24  C   UNL     1      13.711   4.138  13.022  1.00  0.00    -0.000 C 
BRANCH  24  25
ATOM     25  C   UNL     1      12.361   4.875  12.966  1.00  0.00    -0.000 C 
BRANCH  25  26
ATOM     26  C   UNL     1      12.125   5.754  14.212  1.00  0.00    -0.000 C 
BRANCH  26  27
ATOM     27  C   UNL     1      11.894   7.243  13.888  1.00  0.00    -0.000 C 
BRANCH  27  28
ATOM     28  C   UNL     1      11.247   7.514  12.519  1.00  0.00    -0.000 C 
BRANCH  28  29
ATOM     29  C   UNL     1       9.896   8.235  12.632  1.00  0.00    -0.003 C 
ATOM     30  C   UNL     1       9.962   9.627  12.011  1.00  0.00     0.004 C 
ENDBRANCH  28  29
ENDBRANCH  27  28
ENDBRANCH  26  27
ENDBRANCH  25  26
ENDBRANCH  24  25
ENDBRANCH  23  24
ENDBRANCH  22  23
ENDBRANCH  21  22
ENDBRANCH  20  21
ENDBRANCH  19  20
ENDBRANCH  18  19
ENDBRANCH  17  18
ENDBRANCH   1  17
TORSDOF 26
ENDMDL
MODEL 9
REMARK VINA RESULT:    -3.350      1.381      3.190
REMARK INTER + INTRA:         -12.639
REMARK INTER:                  -8.624
REMARK INTRA:                  -4.015
REMARK UNBOUND:                -4.197
REMARK SMILES CCCCCCCCCCCCCCCCCCCCCCCCCCCC(=O)[O-]
REMARK SMILES IDX 15 1 16 2 17 3 18 4 19 5 20 6 21 7 22 8 23 9 24 10 25 11
REMARK SMILES IDX 26 12 27 13 28 14 29 15 30 16 14 17 13 18 12 19 11 20 10 21
REMARK SMILES IDX 9 22 8 23 7 24 6 25 5 26 4 27 3 28 2 29 1 30
REMARK H PARENT
REMARK Flexibility Score: inf
ROOT
ATOM      1  C   UNL     1      11.306   6.791  11.648  1.00  0.00     0.000 C 
ENDROOT
BRANCH   1   2
ATOM      2  C   UNL     1      11.825   5.515  10.957  1.00  0.00     0.000 C 
BRANCH   2   3
ATOM      3  C   UNL     1      12.007   5.630   9.433  1.00  0.00     0.000 C 
BRANCH   3   4
ATOM      4  C   UNL     1      11.069   6.665   8.791  1.00  0.00     0.000 C 
BRANCH   4   5
ATOM      5  C   UNL     1      11.415   6.884   7.310  1.00  0.00     0.000 C 
BRANCH   5   6
ATOM      6  C   UNL     1      10.763   5.833   6.386  1.00  0.00     0.000 C 
BRANCH   6   7
ATOM      7  C   UNL     1       9.859   6.435   5.295  1.00  0.00     0.000 C 
BRANCH   7   8
ATOM      8  C   UNL     1      10.278   7.830   4.796  1.00  0.00     0.000 C 
BRANCH   8   9
ATOM      9  C   UNL     1       9.171   8.904   4.830  1.00  0.00     0.000 C 
BRANCH   9  10
ATOM     10  C   UNL     1       9.328   9.971   5.927  1.00  0.00     0.000 C 
BRANCH  10  11
ATOM     11  C   UNL     1       8.827   9.498   7.303  1.00  0.00     0.000 C 
BRANCH  11  12
ATOM     12  C   UNL     1       9.401  10.334   8.460  1.00  0.00     0.006 C 
BRANCH  12  13
ATOM     13  C   UNL     1       8.374  10.586   9.572  1.00  0.00     0.053 C 
BRANCH  13  14
ATOM     14  C   UNL     1       8.566  11.945  10.168  1.00  0.00     0.041 C 
ATOM     15  O   UNL     1       7.935  12.932   9.707  1.00  0.00    -0.550 OA
ATOM     16  O   UNL     1       9.458  12.127  11.220  1.00  0.00    -0.550 OA
ENDBRANCH  13  14
ENDBRANCH  12  13
ENDBRANCH  11  12
ENDBRANCH  10  11
ENDBRANCH   9  10
ENDBRANCH   8   9
ENDBRANCH   7   8
ENDBRANCH   6   7
ENDBRANCH   5   6
ENDBRANCH   4   5
ENDBRANCH   3   4
ENDBRANCH   2   3
ENDBRANCH   1   2
BRANCH   1  17
ATOM     17  C   UNL     1      12.372   7.597  12.414  1.00  0.00     0.000 C 
BRANCH  17  18
ATOM     18  C   UNL     1      13.769   6.948  12.464  1.00  0.00     0.000 C 
BRANCH  18  19
ATOM     19  C   UNL     1      14.864   7.700  11.686  1.00  0.00     0.000 C 
BRANCH  19  20
ATOM     20  C   UNL     1      15.122   7.109  10.292  1.00  0.00     0.000 C 
BRANCH  20  21
ATOM     21  C   UNL     1      15.819   5.744  10.390  1.00  0.00     0.000 C 
BRANCH  21  22
ATOM     22  C   UNL     1      16.131   5.148   9.006  1.00  0.00    -0.000 C 
BRANCH  22  23
ATOM     23  C   UNL     1      15.371   5.871   7.880  1.00  0.00    -0.000 C 
BRANCH  23  24
ATOM     24  C   UNL     1      16.309   6.454   6.812  1.00  0.00    -0.000 C 
BRANCH  24  25
ATOM     25  C   UNL     1      15.870   6.106   5.379  1.00  0.00    -0.000 C 
BRANCH  25  26
ATOM     26  C   UNL     1      14.336   6.146   5.214  1.00  0.00    -0.000 C 
BRANCH  26  27
ATOM     27  C   UNL     1      13.858   7.067   4.074  1.00  0.00    -0.000 C 
BRANCH  27  28
ATOM     28  C   UNL     1      13.818   8.564   4.425  1.00  0.00    -0.000 C 
BRANCH  28  29
ATOM     29  C   UNL     1      14.494   9.441   3.363  1.00  0.00    -0.003 C 
ATOM     30  C   UNL     1      16.014   9.339   3.452  1.00  0.00     0.004 C 
ENDBRANCH  28  29
ENDBRANCH  27  28
ENDBRANCH  26  27
ENDBRANCH  25  26
ENDBRANCH  24  25
ENDBRANCH  23  24
ENDBRANCH  22  23
ENDBRANCH  21  22
ENDBRANCH  20  21
ENDBRANCH  19  20
ENDBRANCH  18  19
ENDBRANCH  17  18
ENDBRANCH   1  17
TORSDOF 26
ENDMDL
