MODEL 1
REMARK VINA RESULT:    -2.558      0.000      0.000
REMARK INTER + INTRA:          -5.669
REMARK INTER:                  -5.548
REMARK INTRA:                  -0.121
REMARK UNBOUND:                -0.121
REMARK SMILES CCCCCCCCCCCCCCCCCCCCCC(=O)[O-]
REMARK SMILES IDX 12 1 11 2 10 3 9 4 8 5 7 6 6 7 5 8 4 9 3 10 2 11 1 12 13 13
REMARK SMILES IDX 14 14 15 15 16 16 17 17 18 18 19 19 20 20 21 21 22 22 23 23
REMARK SMILES IDX 24 24
REMARK H PARENT
REMARK Flexibility Score: inf
ROOT
ATOM      1  C   UNL     1       6.674  10.763  33.486  1.00  0.00     0.000 C 
ENDROOT
BRANCH   1   2
ATOM      2  C   UNL     1       6.710   9.342  32.891  1.00  0.00     0.000 C 
BRANCH   2   3
ATOM      3  C   UNL     1       6.896   8.226  33.942  1.00  0.00     0.000 C 
BRANCH   3   4
ATOM      4  C   UNL     1       5.965   8.400  35.153  1.00  0.00    -0.000 C 
BRANCH   4   5
ATOM      5  C   UNL     1       5.875   7.103  35.970  1.00  0.00    -0.000 C 
BRANCH   5   6
ATOM      6  C   UNL     1       7.233   6.667  36.550  1.00  0.00    -0.000 C 
BRANCH   6   7
ATOM      7  C   UNL     1       7.389   5.150  36.781  1.00  0.00    -0.000 C 
BRANCH   7   8
ATOM      8  C   UNL     1       8.836   4.670  36.992  1.00  0.00    -0.000 C 
BRANCH   8   9
ATOM      9  C   UNL     1       9.811   5.249  35.953  1.00  0.00    -0.000 C 
BRANCH   9  10
ATOM     10  C   UNL     1      10.676   4.169  35.279  1.00  0.00    -0.000 C 
BRANCH  10  11
ATOM     11  C   UNL     1      10.669   2.804  35.991  1.00  0.00    -0.003 C 
ATOM     12  C   UNL     1      12.073   2.265  36.265  1.00  0.00     0.004 C 
ENDBRANCH  10  11
ENDBRANCH   9  10
ENDBRANCH   8   9
ENDBRANCH   7   8
ENDBRANCH   6   7
ENDBRANCH   5   6
ENDBRANCH   4   5
ENDBRANCH   3   4
ENDBRANCH   2   3
ENDBRANCH   1   2
BRANCH   1  13
ATOM     13  C   UNL     1       7.005  10.852  34.985  1.00  0.00     0.000 C 
BRANCH  13  14
ATOM     14  C   UNL     1       5.935  11.606  35.791  1.00  0.00     0.000 C 
BRANCH  14  15
ATOM     15  C   UNL     1       6.484  12.943  36.311  1.00  0.00     0.000 C 
BRANCH  15  16
ATOM     16  C   UNL     1       5.876  14.155  35.590  1.00  0.00     0.000 C 
BRANCH  16  17
ATOM     17  C   UNL     1       6.583  14.468  34.260  1.00  0.00     0.000 C 
BRANCH  17  18
ATOM     18  C   UNL     1       6.869  15.969  34.081  1.00  0.00     0.000 C 
BRANCH  18  19
ATOM     19  C   UNL     1       6.149  16.840  35.122  1.00  0.00     0.000 C 
BRANCH  19  20
ATOM     20  C   UNL     1       5.976  18.277  34.606  1.00  0.00     0.006 C 
BRANCH  20  21
ATOM     21  C   UNL     1       6.782  18.537  33.326  1.00  0.00     0.053 C 
BRANCH  21  22
ATOM     22  C   UNL     1       6.803  19.992  32.970  1.00  0.00     0.041 C 
ATOM     23  O   UNL     1       7.104  20.354  31.803  1.00  0.00    -0.550 OA
ATOM     24  O   UNL     1       6.457  20.947  33.920  1.00  0.00    -0.550 OA
ENDBRANCH  21  22
ENDBRANCH  20  21
ENDBRANCH  19  20
ENDBRANCH  18  19
ENDBRANCH  17  18
ENDBRANCH  16  17
ENDBRANCH  15  16
ENDBRANCH  14  15
ENDBRANCH  13  14
ENDBRANCH   1  13
TORSDOF 20
ENDMDL
MODEL 2
REMARK VINA RESULT:    -0.655     20.959     23.807
REMARK INTER + INTRA:          -1.541
REMARK INTER:                  -0.954
REMARK INTRA:                  -0.587
REMARK UNBOUND:                -0.121
REMARK SMILES CCCCCCCCCCCCCCCCCCCCCC(=O)[O-]
REMARK SMILES IDX 12 1 11 2 10 3 9 4 8 5 7 6 6 7 5 8 4 9 3 10 2 11 1 12 13 13
REMARK SMILES IDX 14 14 15 15 16 16 17 17 18 18 19 19 20 20 21 21 22 22 23 23
REMARK SMILES IDX 24 24
REMARK H PARENT
REMARK Flexibility Score: inf
ROOT
ATOM      1  C   UNL     1      18.248  21.031  20.041  1.00  0.00     0.000 C 
ENDROOT
BRANCH   1   2
ATOM      2  C   UNL     1      16.844  20.929  19.416  1.00  0.00     0.000 C 
BRANCH   2   3
ATOM      3  C   UNL     1      16.476  22.117  18.499  1.00  0.00     0.000 C 
BRANCH   3   4
ATOM      4  C   UNL     1      16.370  21.706  17.022  1.00  0.00    -0.000 C 
BRANCH   4   5
ATOM      5  C   UNL     1      16.173  20.189  16.884  1.00  0.00    -0.000 C 
BRANCH   5   6
ATOM      6  C   UNL     1      17.496  19.406  16.963  1.00  0.00    -0.000 C 
BRANCH   6   7
ATOM      7  C   UNL     1      17.363  17.944  17.436  1.00  0.00    -0.000 C 
BRANCH   7   8
ATOM      8  C   UNL     1      18.675  17.292  17.909  1.00  0.00    -0.000 C 
BRANCH   8   9
ATOM      9  C   UNL     1      19.257  16.312  16.877  1.00  0.00    -0.000 C 
BRANCH   9  10
ATOM     10  C   UNL     1      18.814  14.857  17.118  1.00  0.00    -0.000 C 
BRANCH  10  11
ATOM     11  C   UNL     1      17.435  14.708  17.786  1.00  0.00    -0.003 C 
ATOM     12  C   UNL     1      16.433  13.938  16.926  1.00  0.00     0.004 C 
ENDBRANCH  10  11
ENDBRANCH   9  10
ENDBRANCH   8   9
ENDBRANCH   7   8
ENDBRANCH   6   7
ENDBRANCH   5   6
ENDBRANCH   4   5
ENDBRANCH   3   4
ENDBRANCH   2   3
ENDBRANCH   1   2
BRANCH   1  13
ATOM     13  C   UNL     1      19.400  20.554  19.139  1.00  0.00     0.000 C 
BRANCH  13  14
ATOM     14  C   UNL     1      20.521  21.595  18.998  1.00  0.00     0.000 C 
BRANCH  14  15
ATOM     15  C   UNL     1      20.761  21.943  17.522  1.00  0.00     0.000 C 
BRANCH  15  16
ATOM     16  C   UNL     1      22.109  21.421  17.000  1.00  0.00     0.000 C 
BRANCH  16  17
ATOM     17  C   UNL     1      23.310  22.066  17.714  1.00  0.00     0.000 C 
BRANCH  17  18
ATOM     18  C   UNL     1      24.598  21.238  17.569  1.00  0.00     0.000 C 
BRANCH  18  19
ATOM     19  C   UNL     1      25.762  21.800  18.399  1.00  0.00     0.000 C 
BRANCH  19  20
ATOM     20  C   UNL     1      25.462  21.698  19.902  1.00  0.00     0.006 C 
BRANCH  20  21
ATOM     21  C   UNL     1      24.622  20.460  20.245  1.00  0.00     0.053 C 
BRANCH  21  22
ATOM     22  C   UNL     1      25.483  19.280  20.576  1.00  0.00     0.041 C 
ATOM     23  O   UNL     1      25.745  18.420  19.695  1.00  0.00    -0.550 OA
ATOM     24  O   UNL     1      26.025  19.148  21.850  1.00  0.00    -0.550 OA
ENDBRANCH  21  22
ENDBRANCH  20  21
ENDBRANCH  19  20
ENDBRANCH  18  19
ENDBRANCH  17  18
ENDBRANCH  16  17
ENDBRANCH  15  16
ENDBRANCH  14  15
ENDBRANCH  13  14
ENDBRANCH   1  13
TORSDOF 20
ENDMDL
MODEL 3
REMARK VINA RESULT:    -0.141     21.769     24.716
REMARK INTER + INTRA:          -0.428
REMARK INTER:                   0.661
REMARK INTRA:                  -1.089
REMARK UNBOUND:                -0.121
REMARK SMILES CCCCCCCCCCCCCCCCCCCCCC(=O)[O-]
REMARK SMILES IDX 12 1 11 2 10 3 9 4 8 5 7 6 6 7 5 8 4 9 3 10 2 11 1 12 13 13
REMARK SMILES IDX 14 14 15 15 16 16 17 17 18 18 19 19 20 20 21 21 22 22 23 23
REMARK SMILES IDX 24 24
REMARK H PARENT
REMARK Flexibility Score: inf
ROOT
ATOM      1  C   UNL     1      22.075   7.578  18.106  1.00  0.00     0.000 C 
ENDROOT
BRANCH   1   2
ATOM      2  C   UNL     1      22.829   8.118  16.876  1.00  0.00     0.000 C 
BRANCH   2   3
ATOM      3  C   UNL     1      24.262   8.608  17.181  1.00  0.00     0.000 C 
BRANCH   3   4
ATOM      4  C   UNL     1      25.324   7.540  16.875  1.00  0.00    -0.000 C 
BRANCH   4   5
ATOM      5  C   UNL     1      26.031   7.082  18.159  1.00  0.00    -0.000 C 
BRANCH   5   6
ATOM      6  C   UNL     1      25.973   5.557  18.361  1.00  0.00    -0.000 C 
BRANCH   6   7
ATOM      7  C   UNL     1      26.047   4.722  17.066  1.00  0.00    -0.000 C 
BRANCH   7   8
ATOM      8  C   UNL     1      25.417   3.321  17.160  1.00  0.00    -0.000 C 
BRANCH   8   9
ATOM      9  C   UNL     1      26.125   2.419  18.185  1.00  0.00    -0.000 C 
BRANCH   9  10
ATOM     10  C   UNL     1      26.048   2.971  19.620  1.00  0.00    -0.000 C 
BRANCH  10  11
ATOM     11  C   UNL     1      25.621   1.943  20.682  1.00  0.00    -0.003 C 
ATOM     12  C   UNL     1      25.834   2.436  22.113  1.00  0.00     0.004 C 
ENDBRANCH  10  11
ENDBRANCH   9  10
ENDBRANCH   8   9
ENDBRANCH   7   8
ENDBRANCH   6   7
ENDBRANCH   5   6
ENDBRANCH   4   5
ENDBRANCH   3   4
ENDBRANCH   2   3
ENDBRANCH   1   2
BRANCH   1  13
ATOM     13  C   UNL     1      21.230   6.318  17.852  1.00  0.00     0.000 C 
BRANCH  13  14
ATOM     14  C   UNL     1      21.914   5.319  16.907  1.00  0.00     0.000 C 
BRANCH  14  15
ATOM     15  C   UNL     1      22.242   4.009  17.640  1.00  0.00     0.000 C 
BRANCH  15  16
ATOM     16  C   UNL     1      21.614   2.779  16.968  1.00  0.00     0.000 C 
BRANCH  16  17
ATOM     17  C   UNL     1      20.643   2.030  17.897  1.00  0.00     0.000 C 
BRANCH  17  18
ATOM     18  C   UNL     1      19.277   2.726  18.010  1.00  0.00     0.000 C 
BRANCH  18  19
ATOM     19  C   UNL     1      19.252   3.817  19.092  1.00  0.00     0.000 C 
BRANCH  19  20
ATOM     20  C   UNL     1      19.990   3.350  20.356  1.00  0.00     0.006 C 
BRANCH  20  21
ATOM     21  C   UNL     1      21.106   4.319  20.770  1.00  0.00     0.053 C 
BRANCH  21  22
ATOM     22  C   UNL     1      22.403   3.605  21.000  1.00  0.00     0.041 C 
ATOM     23  O   UNL     1      23.312   4.147  21.680  1.00  0.00    -0.550 OA
ATOM     24  O   UNL     1      22.593   2.325  20.490  1.00  0.00    -0.550 OA
ENDBRANCH  21  22
ENDBRANCH  20  21
ENDBRANCH  19  20
ENDBRANCH  18  19
ENDBRANCH  17  18
ENDBRANCH  16  17
ENDBRANCH  15  16
ENDBRANCH  14  15
ENDBRANCH  13  14
ENDBRANCH   1  13
TORSDOF 20
ENDMDL
